MODEL 1
REMARK VINA RESULT:     -12.5      0.000      0.000
REMARK SMILES C[C@H](C(=O)NCCCCCCNC(=O)c1ccc(-c2c3nc(c(-c4c(F)c(F)c(F)c(F)c4F)c4ccc([nH]4)c(-c4c(F)c(F)c(F)c(F)c4F)c4nc(c(-c5c(F)c(F)c(F)c(F)c5F)c5ccc2[nH]5)C=C4)C=C3)cc1)c1ccc2c(c1)[nH]c1ccc(Cl)cc12
REMARK SMILES IDX 9 1 8 4 7 7 6 10 5 13 3 14 4 15 2 17 1 19 78 23 79 24 83 25
REMARK SMILES IDX 80 26 82 28 81 30 84 32 91 33 85 34 90 36 86 37 88 38 87 40
REMARK SMILES IDX 89 42 10 44 11 47 12 50 13 51 14 53 15 54 16 55 77 56 17 57
REMARK SMILES IDX 76 59 18 61 19 64 20 65 70 66 21 67 75 68 69 69 71 70 22 71
REMARK SMILES IDX 74 72 68 74 67 76 23 78 55 81 35 82 54 83 36 84 39 85 53 86
REMARK SMILES IDX 72 87 37 88 38 90 52 92 73 93 40 96 24 98 25 99 33 100
REMARK SMILES IDX 26 101 27 102 31 103 34 104 28 105 29 106 32 107 30 108
REMARK SMILES IDX 56 109 57 110 65 111 58 112 59 113 63 114 66 115 60 116
REMARK SMILES IDX 61 117 64 118 62 119 41 120 42 121 50 122 43 123 44 124
REMARK SMILES IDX 48 125 51 126 45 127 46 128 49 129 47 130
REMARK H PARENT 9 2 9 3 8 5 8 6 7 8 7 9 6 11 6 12 5 16 2 18 1 20 1 21 1 22
REMARK H PARENT 79 27 83 29 80 31 84 35 90 39 86 41 87 43 10 45 10 46 11 48
REMARK H PARENT 11 49 12 52 16 58 77 60 17 62 76 63 75 73 69 75 71 77 74 79
REMARK H PARENT 68 80 36 89 39 91 72 94 37 95 73 97
REMARK Flexibility Score: inf
ROOT
ATOM      1  C   UNL A   1      33.777  26.437  25.500  1.00  0.00    -0.052 C 
ATOM      2  H   UNL A   1      33.874  26.321  24.440  1.00  0.00     0.027 H 
ATOM      3  H   UNL A   1      34.692  26.636  26.018  1.00  0.00     0.027 H 
ENDROOT
BRANCH   1   4
ATOM      4  C   UNL A   1      33.282  25.105  26.067  1.00  0.00    -0.052 C 
ATOM      5  H   UNL A   1      32.793  25.314  26.995  1.00  0.00     0.027 H 
ATOM      6  H   UNL A   1      32.658  24.699  25.298  1.00  0.00     0.027 H 
BRANCH   4   7
ATOM      7  C   UNL A   1      34.323  24.015  26.334  1.00  0.00    -0.036 C 
ATOM      8  H   UNL A   1      35.207  24.499  26.694  1.00  0.00     0.028 H 
ATOM      9  H   UNL A   1      33.848  23.350  27.024  1.00  0.00     0.028 H 
BRANCH   7  10
ATOM     10  C   UNL A   1      34.735  23.126  25.165  1.00  0.00     0.017 C 
ATOM     11  H   UNL A   1      34.632  23.694  24.264  1.00  0.00     0.049 H 
ATOM     12  H   UNL A   1      35.741  22.819  25.362  1.00  0.00     0.049 H 
BRANCH  10  13
ATOM     13  N   UNL A   1      33.963  21.916  25.022  1.00  0.00    -0.356 N 
ATOM     14  C   UNL A   1      33.290  21.424  23.949  1.00  0.00     0.227 C 
ATOM     15  O   UNL A   1      33.031  20.212  24.015  1.00  0.00    -0.274 OA
ATOM     16  H   UNL A   1      33.916  21.356  25.831  1.00  0.00     0.163 HD
BRANCH  14  17
ATOM     17  C   UNL A   1      32.733  22.232  22.760  1.00  0.00     0.060 C 
ATOM     18  H   UNL A   1      33.581  22.635  22.246  1.00  0.00     0.045 H 
BRANCH  17  19
ATOM     19  C   UNL A   1      31.899  21.217  21.946  1.00  0.00    -0.049 C 
ATOM     20  H   UNL A   1      32.160  21.289  20.911  1.00  0.00     0.024 H 
ATOM     21  H   UNL A   1      30.857  21.432  22.067  1.00  0.00     0.024 H 
ATOM     22  H   UNL A   1      32.100  20.226  22.296  1.00  0.00     0.024 H 
ENDBRANCH  17  19
BRANCH  17  23
ATOM     23  C   UNL A   1      32.026  23.570  22.980  1.00  0.00    -0.034 A 
ATOM     24  C   UNL A   1      30.857  23.658  23.757  1.00  0.00    -0.057 A 
ATOM     25  C   UNL A   1      32.552  24.763  22.448  1.00  0.00    -0.034 A 
ATOM     26  C   UNL A   1      30.125  24.861  23.863  1.00  0.00    -0.052 A 
ATOM     27  H   UNL A   1      30.527  22.822  24.263  1.00  0.00     0.063 H 
ATOM     28  C   UNL A   1      31.831  25.952  22.584  1.00  0.00     0.047 A 
ATOM     29  H   UNL A   1      33.461  24.758  21.961  1.00  0.00     0.065 H 
ATOM     30  C   UNL A   1      30.605  26.030  23.234  1.00  0.00     0.007 A 
ATOM     31  H   UNL A   1      29.242  24.885  24.398  1.00  0.00     0.063 H 
ATOM     32  N   UNL A   1      32.138  27.208  22.128  1.00  0.00    -0.355 N 
ATOM     33  C   UNL A   1      30.114  27.368  23.037  1.00  0.00     0.009 A 
ATOM     34  C   UNL A   1      31.084  28.064  22.314  1.00  0.00     0.047 A 
ATOM     35  H   UNL A   1      32.999  27.461  21.722  1.00  0.00     0.167 HD
ATOM     36  C   UNL A   1      28.923  28.048  23.371  1.00  0.00    -0.033 A 
ATOM     37  C   UNL A   1      30.930  29.387  21.885  1.00  0.00    -0.036 A 
ATOM     38  C   UNL A   1      28.750  29.370  22.939  1.00  0.00     0.041 A 
ATOM     39  H   UNL A   1      28.190  27.579  23.927  1.00  0.00     0.065 H 
ATOM     40  C   UNL A   1      29.733  30.028  22.202  1.00  0.00    -0.041 A 
ATOM     41  H   UNL A   1      31.674  29.870  21.357  1.00  0.00     0.065 H 
ATOM     42  Cl  UNL A   1      27.285  30.198  23.307  1.00  0.00    -0.084 Cl
ATOM     43  H   UNL A   1      29.572  30.999  21.888  1.00  0.00     0.064 H 
ENDBRANCH  17  23
ENDBRANCH  14  17
ENDBRANCH  10  13
ENDBRANCH   7  10
ENDBRANCH   4   7
ENDBRANCH   1   4
BRANCH   1  44
ATOM     44  C   UNL A   1      32.905  27.665  25.752  1.00  0.00    -0.036 C 
ATOM     45  H   UNL A   1      32.761  27.753  26.809  1.00  0.00     0.028 H 
ATOM     46  H   UNL A   1      32.005  27.497  25.198  1.00  0.00     0.028 H 
BRANCH  44  47
ATOM     47  C   UNL A   1      33.453  28.993  25.247  1.00  0.00     0.018 C 
ATOM     48  H   UNL A   1      33.352  29.018  24.181  1.00  0.00     0.049 H 
ATOM     49  H   UNL A   1      34.475  29.052  25.557  1.00  0.00     0.049 H 
BRANCH  47  50
ATOM     50  N   UNL A   1      32.769  30.148  25.801  1.00  0.00    -0.352 N 
ATOM     51  C   UNL A   1      33.134  30.947  26.861  1.00  0.00     0.251 C 
ATOM     52  H   UNL A   1      31.926  30.394  25.356  1.00  0.00     0.163 HD
ATOM     53  O   UNL A   1      32.384  31.818  27.273  1.00  0.00    -0.269 OA
BRANCH  51  54
ATOM     54  C   UNL A   1      34.439  30.723  27.524  1.00  0.00     0.039 A 
ATOM     55  C   UNL A   1      35.332  31.792  27.638  1.00  0.00    -0.049 A 
ATOM     56  C   UNL A   1      34.772  29.468  28.038  1.00  0.00    -0.049 A 
ATOM     57  C   UNL A   1      36.535  31.619  28.328  1.00  0.00    -0.053 A 
ATOM     58  H   UNL A   1      35.104  32.706  27.215  1.00  0.00     0.063 H 
ATOM     59  C   UNL A   1      35.932  29.318  28.791  1.00  0.00    -0.053 A 
ATOM     60  H   UNL A   1      34.160  28.657  27.862  1.00  0.00     0.063 H 
ATOM     61  C   UNL A   1      36.829  30.390  28.937  1.00  0.00    -0.014 A 
ATOM     62  H   UNL A   1      37.210  32.398  28.391  1.00  0.00     0.063 H 
ATOM     63  H   UNL A   1      36.135  28.414  29.244  1.00  0.00     0.063 H 
BRANCH  61  64
ATOM     64  C   UNL A   1      38.079  30.170  29.707  1.00  0.00     0.031 A 
ATOM     65  C   UNL A   1      39.122  29.234  29.168  1.00  0.00     0.074 A 
ATOM     66  C   UNL A   1      38.228  30.721  30.927  1.00  0.00     0.049 A 
ATOM     67  N   UNL A   1      40.197  28.763  29.747  1.00  0.00    -0.248 NA
ATOM     68  C   UNL A   1      38.902  28.730  27.804  1.00  0.00    -0.034 C 
ATOM     69  C   UNL A   1      37.275  31.622  31.571  1.00  0.00    -0.036 A 
ATOM     70  N   UNL A   1      39.230  30.574  31.855  1.00  0.00    -0.354 N 
ATOM     71  C   UNL A   1      40.761  27.885  28.831  1.00  0.00     0.074 A 
ATOM     72  C   UNL A   1      39.883  27.849  27.681  1.00  0.00    -0.034 C 
ATOM     73  H   UNL A   1      38.175  28.994  27.121  1.00  0.00     0.065 H 
ATOM     74  C   UNL A   1      37.736  31.950  32.789  1.00  0.00    -0.036 A 
ATOM     75  H   UNL A   1      36.390  31.954  31.156  1.00  0.00     0.065 H 
ATOM     76  C   UNL A   1      38.991  31.243  33.030  1.00  0.00     0.049 A 
ATOM     77  H   UNL A   1      40.041  30.039  31.694  1.00  0.00     0.167 HD
ATOM     78  C   UNL A   1      41.915  27.183  28.934  1.00  0.00     0.037 A 
ATOM     79  H   UNL A   1      40.006  27.222  26.872  1.00  0.00     0.065 H 
ATOM     80  H   UNL A   1      37.277  32.597  33.449  1.00  0.00     0.065 H 
ATOM     81  C   UNL A   1      39.692  31.266  34.180  1.00  0.00     0.037 A 
ATOM     82  C   UNL A   1      42.792  27.242  30.072  1.00  0.00     0.049 A 
ATOM     83  C   UNL A   1      40.968  30.471  34.280  1.00  0.00     0.074 A 
ATOM     84  C   UNL A   1      44.015  26.619  30.254  1.00  0.00    -0.036 A 
ATOM     85  N   UNL A   1      42.534  27.963  31.230  1.00  0.00    -0.354 N 
ATOM     86  N   UNL A   1      41.524  29.686  33.390  1.00  0.00    -0.248 NA
ATOM     87  C   UNL A   1      41.715  30.570  35.542  1.00  0.00    -0.034 C 
ATOM     88  C   UNL A   1      44.469  26.918  31.543  1.00  0.00    -0.036 A 
ATOM     89  H   UNL A   1      44.505  26.036  29.559  1.00  0.00     0.065 H 
ATOM     90  C   UNL A   1      43.564  27.782  32.139  1.00  0.00     0.049 A 
ATOM     91  H   UNL A   1      41.738  28.521  31.383  1.00  0.00     0.167 HD
ATOM     92  C   UNL A   1      42.701  29.228  33.964  1.00  0.00     0.074 A 
ATOM     93  C   UNL A   1      42.779  29.820  35.284  1.00  0.00    -0.034 C 
ATOM     94  H   UNL A   1      41.475  31.087  36.402  1.00  0.00     0.065 H 
ATOM     95  H   UNL A   1      45.333  26.557  31.975  1.00  0.00     0.065 H 
ATOM     96  C   UNL A   1      43.637  28.397  33.441  1.00  0.00     0.037 A 
ATOM     97  H   UNL A   1      43.563  29.679  35.940  1.00  0.00     0.065 H 
BRANCH  78  98
ATOM     98  C   UNL A   1      42.277  26.279  27.789  1.00  0.00     0.064 A 
ATOM     99  C   UNL A   1      41.717  25.000  27.646  1.00  0.00     0.173 A 
ATOM    100  C   UNL A   1      43.202  26.698  26.820  1.00  0.00     0.173 A 
ATOM    101  F   UNL A   1      40.834  24.545  28.548  1.00  0.00    -0.203 F 
ATOM    102  C   UNL A   1      42.107  24.156  26.609  1.00  0.00     0.198 A 
ATOM    103  C   UNL A   1      43.561  25.866  25.762  1.00  0.00     0.198 A 
ATOM    104  F   UNL A   1      43.763  27.914  26.899  1.00  0.00    -0.203 F 
ATOM    105  F   UNL A   1      41.614  22.911  26.539  1.00  0.00    -0.200 F 
ATOM    106  C   UNL A   1      43.025  24.590  25.666  1.00  0.00     0.200 A 
ATOM    107  F   UNL A   1      44.436  26.295  24.841  1.00  0.00    -0.200 F 
ATOM    108  F   UNL A   1      43.402  23.777  24.670  1.00  0.00    -0.200 F 
ENDBRANCH  78  98
BRANCH  81 109
ATOM    109  C   UNL A   1      39.204  32.085  35.319  1.00  0.00     0.064 A 
ATOM    110  C   UNL A   1      38.452  31.508  36.350  1.00  0.00     0.173 A 
ATOM    111  C   UNL A   1      39.507  33.451  35.419  1.00  0.00     0.173 A 
ATOM    112  F   UNL A   1      38.121  30.209  36.291  1.00  0.00    -0.203 F 
ATOM    113  C   UNL A   1      38.013  32.266  37.434  1.00  0.00     0.198 A 
ATOM    114  C   UNL A   1      39.091  34.203  36.517  1.00  0.00     0.198 A 
ATOM    115  F   UNL A   1      40.232  34.051  34.462  1.00  0.00    -0.203 F 
ATOM    116  F   UNL A   1      37.269  31.695  38.392  1.00  0.00    -0.200 F 
ATOM    117  C   UNL A   1      38.342  33.610  37.521  1.00  0.00     0.200 A 
ATOM    118  F   UNL A   1      39.426  35.496  36.605  1.00  0.00    -0.200 F 
ATOM    119  F   UNL A   1      37.933  34.336  38.571  1.00  0.00    -0.200 F 
ENDBRANCH  81 109
BRANCH  96 120
ATOM    120  C   UNL A   1      44.863  28.120  34.263  1.00  0.00     0.064 A 
ATOM    121  C   UNL A   1      45.988  28.955  34.223  1.00  0.00     0.173 A 
ATOM    122  C   UNL A   1      44.874  27.045  35.167  1.00  0.00     0.173 A 
ATOM    123  F   UNL A   1      46.033  29.988  33.368  1.00  0.00    -0.203 F 
ATOM    124  C   UNL A   1      47.083  28.718  35.050  1.00  0.00     0.198 A 
ATOM    125  C   UNL A   1      45.957  26.829  36.012  1.00  0.00     0.198 A 
ATOM    126  F   UNL A   1      43.819  26.220  35.247  1.00  0.00    -0.203 F 
ATOM    127  F   UNL A   1      48.161  29.510  34.974  1.00  0.00    -0.200 F 
ATOM    128  C   UNL A   1      47.062  27.664  35.953  1.00  0.00     0.200 A 
ATOM    129  F   UNL A   1      45.926  25.820  36.894  1.00  0.00    -0.200 F 
ATOM    130  F   UNL A   1      48.109  27.451  36.762  1.00  0.00    -0.200 F 
ENDBRANCH  96 120
ENDBRANCH  61  64
ENDBRANCH  51  54
ENDBRANCH  47  50
ENDBRANCH  44  47
ENDBRANCH   1  44
TORSDOF 15
ENDMDL
MODEL 2
REMARK VINA RESULT:     -12.4      3.044      8.869
REMARK SMILES C[C@H](C(=O)NCCCCCCNC(=O)c1ccc(-c2c3nc(c(-c4c(F)c(F)c(F)c(F)c4F)c4ccc([nH]4)c(-c4c(F)c(F)c(F)c(F)c4F)c4nc(c(-c5c(F)c(F)c(F)c(F)c5F)c5ccc2[nH]5)C=C4)C=C3)cc1)c1ccc2c(c1)[nH]c1ccc(Cl)cc12
REMARK SMILES IDX 9 1 8 4 7 7 6 10 5 13 3 14 4 15 2 17 1 19 78 23 79 24 83 25
REMARK SMILES IDX 80 26 82 28 81 30 84 32 91 33 85 34 90 36 86 37 88 38 87 40
REMARK SMILES IDX 89 42 10 44 11 47 12 50 13 51 14 53 15 54 16 55 77 56 17 57
REMARK SMILES IDX 76 59 18 61 19 64 20 65 70 66 21 67 75 68 69 69 71 70 22 71
REMARK SMILES IDX 74 72 68 74 67 76 23 78 55 81 35 82 54 83 36 84 39 85 53 86
REMARK SMILES IDX 72 87 37 88 38 90 52 92 73 93 40 96 24 98 25 99 33 100
REMARK SMILES IDX 26 101 27 102 31 103 34 104 28 105 29 106 32 107 30 108
REMARK SMILES IDX 56 109 57 110 65 111 58 112 59 113 63 114 66 115 60 116
REMARK SMILES IDX 61 117 64 118 62 119 41 120 42 121 50 122 43 123 44 124
REMARK SMILES IDX 48 125 51 126 45 127 46 128 49 129 47 130
REMARK H PARENT 9 2 9 3 8 5 8 6 7 8 7 9 6 11 6 12 5 16 2 18 1 20 1 21 1 22
REMARK H PARENT 79 27 83 29 80 31 84 35 90 39 86 41 87 43 10 45 10 46 11 48
REMARK H PARENT 11 49 12 52 16 58 77 60 17 62 76 63 75 73 69 75 71 77 74 79
REMARK H PARENT 68 80 36 89 39 91 72 94 37 95 73 97
REMARK Flexibility Score: inf
ROOT
ATOM      1  C   UNL A   1      34.121  33.450  29.190  1.00  0.00    -0.052 C 
ATOM      2  H   UNL A   1      34.438  33.625  30.197  1.00  0.00     0.027 H 
ATOM      3  H   UNL A   1      33.556  32.553  29.043  1.00  0.00     0.027 H 
ENDROOT
BRANCH   1   4
ATOM      4  C   UNL A   1      35.377  33.272  28.335  1.00  0.00    -0.052 C 
ATOM      5  H   UNL A   1      35.274  33.905  27.479  1.00  0.00     0.027 H 
ATOM      6  H   UNL A   1      36.187  33.513  28.991  1.00  0.00     0.027 H 
BRANCH   4   7
ATOM      7  C   UNL A   1      35.698  31.864  27.827  1.00  0.00    -0.036 C 
ATOM      8  H   UNL A   1      36.082  31.963  26.834  1.00  0.00     0.028 H 
ATOM      9  H   UNL A   1      36.380  31.466  28.548  1.00  0.00     0.028 H 
BRANCH   7  10
ATOM     10  C   UNL A   1      34.558  30.852  27.776  1.00  0.00     0.017 C 
ATOM     11  H   UNL A   1      34.808  30.038  28.423  1.00  0.00     0.049 H 
ATOM     12  H   UNL A   1      33.676  31.379  28.076  1.00  0.00     0.049 H 
BRANCH  10  13
ATOM     13  N   UNL A   1      34.282  30.315  26.466  1.00  0.00    -0.356 N 
ATOM     14  C   UNL A   1      33.424  29.334  26.081  1.00  0.00     0.227 C 
ATOM     15  O   UNL A   1      33.143  29.340  24.872  1.00  0.00    -0.274 OA
ATOM     16  H   UNL A   1      34.798  30.723  25.733  1.00  0.00     0.163 HD
BRANCH  14  17
ATOM     17  C   UNL A   1      32.887  28.183  26.955  1.00  0.00     0.060 C 
ATOM     18  H   UNL A   1      33.613  28.026  27.725  1.00  0.00     0.045 H 
BRANCH  17  19
ATOM     19  C   UNL A   1      31.507  28.670  27.450  1.00  0.00    -0.049 C 
ATOM     20  H   UNL A   1      31.381  29.702  27.196  1.00  0.00     0.024 H 
ATOM     21  H   UNL A   1      31.446  28.555  28.512  1.00  0.00     0.024 H 
ATOM     22  H   UNL A   1      30.735  28.092  26.985  1.00  0.00     0.024 H 
ENDBRANCH  17  19
BRANCH  17  23
ATOM     23  C   UNL A   1      32.880  26.742  26.443  1.00  0.00    -0.034 A 
ATOM     24  C   UNL A   1      31.689  25.999  26.371  1.00  0.00    -0.057 A 
ATOM     25  C   UNL A   1      34.062  26.132  25.981  1.00  0.00    -0.034 A 
ATOM     26  C   UNL A   1      31.686  24.630  26.022  1.00  0.00    -0.052 A 
ATOM     27  H   UNL A   1      30.792  26.466  26.580  1.00  0.00     0.063 H 
ATOM     28  C   UNL A   1      34.040  24.785  25.611  1.00  0.00     0.047 A 
ATOM     29  H   UNL A   1      34.937  26.675  25.918  1.00  0.00     0.065 H 
ATOM     30  C   UNL A   1      32.896  23.997  25.664  1.00  0.00     0.007 A 
ATOM     31  H   UNL A   1      30.804  24.095  26.028  1.00  0.00     0.063 H 
ATOM     32  N   UNL A   1      35.067  23.993  25.164  1.00  0.00    -0.355 N 
ATOM     33  C   UNL A   1      33.301  22.652  25.355  1.00  0.00     0.009 A 
ATOM     34  C   UNL A   1      34.670  22.683  25.081  1.00  0.00     0.047 A 
ATOM     35  H   UNL A   1      35.966  24.321  24.933  1.00  0.00     0.167 HD
ATOM     36  C   UNL A   1      32.647  21.402  25.317  1.00  0.00    -0.033 A 
ATOM     37  C   UNL A   1      35.428  21.544  24.791  1.00  0.00    -0.036 A 
ATOM     38  C   UNL A   1      33.397  20.250  25.040  1.00  0.00     0.041 A 
ATOM     39  H   UNL A   1      31.631  21.337  25.489  1.00  0.00     0.065 H 
ATOM     40  C   UNL A   1      34.765  20.317  24.788  1.00  0.00    -0.041 A 
ATOM     41  H   UNL A   1      36.438  21.609  24.587  1.00  0.00     0.065 H 
ATOM     42  Cl  UNL A   1      32.617  18.714  25.029  1.00  0.00    -0.084 Cl
ATOM     43  H   UNL A   1      35.293  19.450  24.598  1.00  0.00     0.064 H 
ENDBRANCH  17  23
ENDBRANCH  14  17
ENDBRANCH  10  13
ENDBRANCH   7  10
ENDBRANCH   4   7
ENDBRANCH   1   4
BRANCH   1  44
ATOM     44  C   UNL A   1      33.172  34.582  28.802  1.00  0.00    -0.036 C 
ATOM     45  H   UNL A   1      32.183  34.293  29.092  1.00  0.00     0.028 H 
ATOM     46  H   UNL A   1      33.300  34.716  27.748  1.00  0.00     0.028 H 
BRANCH  44  47
ATOM     47  C   UNL A   1      33.458  35.942  29.424  1.00  0.00     0.018 C 
ATOM     48  H   UNL A   1      33.385  36.687  28.658  1.00  0.00     0.049 H 
ATOM     49  H   UNL A   1      34.439  35.895  29.850  1.00  0.00     0.049 H 
BRANCH  47  50
ATOM     50  N   UNL A   1      32.542  36.291  30.494  1.00  0.00    -0.352 N 
ATOM     51  C   UNL A   1      32.575  35.923  31.820  1.00  0.00     0.251 C 
ATOM     52  H   UNL A   1      31.792  36.874  30.236  1.00  0.00     0.163 HD
ATOM     53  O   UNL A   1      31.658  36.216  32.572  1.00  0.00    -0.269 OA
BRANCH  51  54
ATOM     54  C   UNL A   1      33.724  35.139  32.328  1.00  0.00     0.039 A 
ATOM     55  C   UNL A   1      33.498  33.855  32.829  1.00  0.00    -0.049 A 
ATOM     56  C   UNL A   1      35.017  35.667  32.298  1.00  0.00    -0.049 A 
ATOM     57  C   UNL A   1      34.579  33.071  33.241  1.00  0.00    -0.053 A 
ATOM     58  H   UNL A   1      32.536  33.485  32.895  1.00  0.00     0.063 H 
ATOM     59  C   UNL A   1      36.098  34.860  32.634  1.00  0.00    -0.053 A 
ATOM     60  H   UNL A   1      35.169  36.651  32.027  1.00  0.00     0.063 H 
ATOM     61  C   UNL A   1      35.890  33.556  33.117  1.00  0.00    -0.014 A 
ATOM     62  H   UNL A   1      34.414  32.132  33.639  1.00  0.00     0.063 H 
ATOM     63  H   UNL A   1      37.058  35.220  32.530  1.00  0.00     0.063 H 
BRANCH  61  64
ATOM     64  C   UNL A   1      37.071  32.748  33.511  1.00  0.00     0.031 A 
ATOM     65  C   UNL A   1      37.778  33.055  34.800  1.00  0.00     0.074 A 
ATOM     66  C   UNL A   1      37.567  31.820  32.670  1.00  0.00     0.049 A 
ATOM     67  N   UNL A   1      38.918  32.600  35.253  1.00  0.00    -0.248 NA
ATOM     68  C   UNL A   1      37.129  34.037  35.680  1.00  0.00    -0.034 C 
ATOM     69  C   UNL A   1      36.989  31.452  31.380  1.00  0.00    -0.036 A 
ATOM     70  N   UNL A   1      38.694  31.041  32.768  1.00  0.00    -0.354 N 
ATOM     71  C   UNL A   1      39.137  33.265  36.451  1.00  0.00     0.074 A 
ATOM     72  C   UNL A   1      38.039  34.190  36.630  1.00  0.00    -0.034 C 
ATOM     73  H   UNL A   1      36.206  34.489  35.584  1.00  0.00     0.065 H 
ATOM     74  C   UNL A   1      37.763  30.518  30.803  1.00  0.00    -0.036 A 
ATOM     75  H   UNL A   1      36.125  31.846  30.976  1.00  0.00     0.065 H 
ATOM     76  C   UNL A   1      38.916  30.258  31.661  1.00  0.00     0.049 A 
ATOM     77  H   UNL A   1      39.286  31.043  33.554  1.00  0.00     0.167 HD
ATOM     78  C   UNL A   1      40.154  33.108  37.332  1.00  0.00     0.037 A 
ATOM     79  H   UNL A   1      37.972  34.878  37.396  1.00  0.00     0.065 H 
ATOM     80  H   UNL A   1      37.572  30.057  29.900  1.00  0.00     0.065 H 
ATOM     81  C   UNL A   1      39.944  29.441  31.362  1.00  0.00     0.037 A 
ATOM     82  C   UNL A   1      41.230  32.169  37.156  1.00  0.00     0.049 A 
ATOM     83  C   UNL A   1      41.072  29.286  32.348  1.00  0.00     0.074 A 
ATOM     84  C   UNL A   1      42.278  31.886  38.015  1.00  0.00    -0.036 A 
ATOM     85  N   UNL A   1      41.400  31.364  36.038  1.00  0.00    -0.354 N 
ATOM     86  N   UNL A   1      41.245  29.876  33.505  1.00  0.00    -0.248 NA
ATOM     87  C   UNL A   1      42.144  28.347  31.989  1.00  0.00    -0.034 C 
ATOM     88  C   UNL A   1      43.112  30.951  37.392  1.00  0.00    -0.036 A 
ATOM     89  H   UNL A   1      42.419  32.293  38.952  1.00  0.00     0.065 H 
ATOM     90  C   UNL A   1      42.548  30.600  36.175  1.00  0.00     0.049 A 
ATOM     91  H   UNL A   1      40.794  31.339  35.263  1.00  0.00     0.167 HD
ATOM     92  C   UNL A   1      42.420  29.356  34.030  1.00  0.00     0.074 A 
ATOM     93  C   UNL A   1      42.922  28.402  33.063  1.00  0.00    -0.034 C 
ATOM     94  H   UNL A   1      42.261  27.790  31.128  1.00  0.00     0.065 H 
ATOM     95  H   UNL A   1      43.997  30.585  37.775  1.00  0.00     0.065 H 
ATOM     96  C   UNL A   1      43.023  29.639  35.211  1.00  0.00     0.037 A 
ATOM     97  H   UNL A   1      43.775  27.837  33.192  1.00  0.00     0.065 H 
BRANCH  78  98
ATOM     98  C   UNL A   1      40.154  33.986  38.552  1.00  0.00     0.064 A 
ATOM     99  C   UNL A   1      39.490  33.617  39.732  1.00  0.00     0.173 A 
ATOM    100  C   UNL A   1      40.825  35.218  38.539  1.00  0.00     0.173 A 
ATOM    101  F   UNL A   1      38.824  32.453  39.797  1.00  0.00    -0.203 F 
ATOM    102  C   UNL A   1      39.454  34.469  40.833  1.00  0.00     0.198 A 
ATOM    103  C   UNL A   1      40.820  36.051  39.655  1.00  0.00     0.198 A 
ATOM    104  F   UNL A   1      41.485  35.619  37.442  1.00  0.00    -0.203 F 
ATOM    105  F   UNL A   1      38.750  34.126  41.921  1.00  0.00    -0.200 F 
ATOM    106  C   UNL A   1      40.123  35.682  40.796  1.00  0.00     0.200 A 
ATOM    107  F   UNL A   1      41.482  37.216  39.623  1.00  0.00    -0.200 F 
ATOM    108  F   UNL A   1      40.086  36.503  41.855  1.00  0.00    -0.200 F 
ENDBRANCH  78  98
BRANCH  81 109
ATOM    109  C   UNL A   1      39.938  28.698  30.075  1.00  0.00     0.064 A 
ATOM    110  C   UNL A   1      40.530  29.243  28.927  1.00  0.00     0.173 A 
ATOM    111  C   UNL A   1      39.374  27.418  29.973  1.00  0.00     0.173 A 
ATOM    112  F   UNL A   1      41.067  30.472  28.970  1.00  0.00    -0.203 F 
ATOM    113  C   UNL A   1      40.550  28.540  27.724  1.00  0.00     0.198 A 
ATOM    114  C   UNL A   1      39.419  26.704  28.777  1.00  0.00     0.198 A 
ATOM    115  F   UNL A   1      38.803  26.848  31.045  1.00  0.00    -0.203 F 
ATOM    116  F   UNL A   1      41.096  29.096  26.634  1.00  0.00    -0.200 F 
ATOM    117  C   UNL A   1      40.003  27.267  27.653  1.00  0.00     0.200 A 
ATOM    118  F   UNL A   1      38.906  25.469  28.717  1.00  0.00    -0.200 F 
ATOM    119  F   UNL A   1      40.037  26.585  26.500  1.00  0.00    -0.200 F 
ENDBRANCH  81 109
BRANCH  96 120
ATOM    120  C   UNL A   1      44.262  28.868  35.565  1.00  0.00     0.064 A 
ATOM    121  C   UNL A   1      45.544  29.331  35.238  1.00  0.00     0.173 A 
ATOM    122  C   UNL A   1      44.162  27.688  36.319  1.00  0.00     0.173 A 
ATOM    123  F   UNL A   1      45.694  30.446  34.507  1.00  0.00    -0.203 F 
ATOM    124  C   UNL A   1      46.680  28.634  35.643  1.00  0.00     0.198 A 
ATOM    125  C   UNL A   1      45.299  27.011  36.748  1.00  0.00     0.198 A 
ATOM    126  F   UNL A   1      42.958  27.207  36.663  1.00  0.00    -0.203 F 
ATOM    127  F   UNL A   1      47.895  29.077  35.293  1.00  0.00    -0.200 F 
ATOM    128  C   UNL A   1      46.557  27.483  36.408  1.00  0.00     0.200 A 
ATOM    129  F   UNL A   1      45.177  25.909  37.501  1.00  0.00    -0.200 F 
ATOM    130  F   UNL A   1      47.653  26.826  36.814  1.00  0.00    -0.200 F 
ENDBRANCH  96 120
ENDBRANCH  61  64
ENDBRANCH  51  54
ENDBRANCH  47  50
ENDBRANCH  44  47
ENDBRANCH   1  44
TORSDOF 15
ENDMDL
MODEL 3
REMARK VINA RESULT:     -12.2      2.604      4.657
REMARK SMILES C[C@H](C(=O)NCCCCCCNC(=O)c1ccc(-c2c3nc(c(-c4c(F)c(F)c(F)c(F)c4F)c4ccc([nH]4)c(-c4c(F)c(F)c(F)c(F)c4F)c4nc(c(-c5c(F)c(F)c(F)c(F)c5F)c5ccc2[nH]5)C=C4)C=C3)cc1)c1ccc2c(c1)[nH]c1ccc(Cl)cc12
REMARK SMILES IDX 9 1 8 4 7 7 6 10 5 13 3 14 4 15 2 17 1 19 78 23 79 24 83 25
REMARK SMILES IDX 80 26 82 28 81 30 84 32 91 33 85 34 90 36 86 37 88 38 87 40
REMARK SMILES IDX 89 42 10 44 11 47 12 50 13 51 14 53 15 54 16 55 77 56 17 57
REMARK SMILES IDX 76 59 18 61 19 64 20 65 70 66 21 67 75 68 69 69 71 70 22 71
REMARK SMILES IDX 74 72 68 74 67 76 23 78 55 81 35 82 54 83 36 84 39 85 53 86
REMARK SMILES IDX 72 87 37 88 38 90 52 92 73 93 40 96 24 98 25 99 33 100
REMARK SMILES IDX 26 101 27 102 31 103 34 104 28 105 29 106 32 107 30 108
REMARK SMILES IDX 56 109 57 110 65 111 58 112 59 113 63 114 66 115 60 116
REMARK SMILES IDX 61 117 64 118 62 119 41 120 42 121 50 122 43 123 44 124
REMARK SMILES IDX 48 125 51 126 45 127 46 128 49 129 47 130
REMARK H PARENT 9 2 9 3 8 5 8 6 7 8 7 9 6 11 6 12 5 16 2 18 1 20 1 21 1 22
REMARK H PARENT 79 27 83 29 80 31 84 35 90 39 86 41 87 43 10 45 10 46 11 48
REMARK H PARENT 11 49 12 52 16 58 77 60 17 62 76 63 75 73 69 75 71 77 74 79
REMARK H PARENT 68 80 36 89 39 91 72 94 37 95 73 97
REMARK Flexibility Score: inf
ROOT
ATOM      1  C   UNL A   1      31.766  30.464  26.720  1.00  0.00    -0.052 C 
ATOM      2  H   UNL A   1      32.781  30.258  26.993  1.00  0.00     0.027 H 
ATOM      3  H   UNL A   1      31.029  30.046  27.375  1.00  0.00     0.027 H 
ENDROOT
BRANCH   1   4
ATOM      4  C   UNL A   1      31.510  29.804  25.363  1.00  0.00    -0.052 C 
ATOM      5  H   UNL A   1      32.455  29.709  24.871  1.00  0.00     0.027 H 
ATOM      6  H   UNL A   1      31.020  28.883  25.599  1.00  0.00     0.027 H 
BRANCH   4   7
ATOM      7  C   UNL A   1      30.559  30.512  24.396  1.00  0.00    -0.036 C 
ATOM      8  H   UNL A   1      29.857  31.064  24.985  1.00  0.00     0.028 H 
ATOM      9  H   UNL A   1      31.197  31.098  23.769  1.00  0.00     0.028 H 
BRANCH   7  10
ATOM     10  C   UNL A   1      29.759  29.647  23.428  1.00  0.00     0.017 C 
ATOM     11  H   UNL A   1      29.087  29.043  24.000  1.00  0.00     0.049 H 
ATOM     12  H   UNL A   1      29.262  30.322  22.763  1.00  0.00     0.049 H 
BRANCH  10  13
ATOM     13  N   UNL A   1      30.552  28.772  22.599  1.00  0.00    -0.356 N 
ATOM     14  C   UNL A   1      30.797  27.440  22.709  1.00  0.00     0.227 C 
ATOM     15  O   UNL A   1      31.207  26.904  21.667  1.00  0.00    -0.274 OA
ATOM     16  H   UNL A   1      30.985  29.210  21.830  1.00  0.00     0.163 HD
BRANCH  14  17
ATOM     17  C   UNL A   1      30.732  26.593  23.996  1.00  0.00     0.060 C 
ATOM     18  H   UNL A   1      30.707  27.286  24.811  1.00  0.00     0.045 H 
BRANCH  17  19
ATOM     19  C   UNL A   1      29.464  25.726  23.837  1.00  0.00    -0.049 C 
ATOM     20  H   UNL A   1      29.675  24.897  23.194  1.00  0.00     0.024 H 
ATOM     21  H   UNL A   1      28.678  26.316  23.411  1.00  0.00     0.024 H 
ATOM     22  H   UNL A   1      29.156  25.364  24.796  1.00  0.00     0.024 H 
ENDBRANCH  17  19
BRANCH  17  23
ATOM     23  C   UNL A   1      31.952  25.811  24.486  1.00  0.00    -0.034 A 
ATOM     24  C   UNL A   1      33.013  26.454  25.147  1.00  0.00    -0.057 A 
ATOM     25  C   UNL A   1      32.025  24.414  24.332  1.00  0.00    -0.034 A 
ATOM     26  C   UNL A   1      34.199  25.768  25.491  1.00  0.00    -0.052 A 
ATOM     27  H   UNL A   1      32.923  27.454  25.387  1.00  0.00     0.063 H 
ATOM     28  C   UNL A   1      33.194  23.742  24.702  1.00  0.00     0.047 A 
ATOM     29  H   UNL A   1      31.224  23.890  23.947  1.00  0.00     0.065 H 
ATOM     30  C   UNL A   1      34.306  24.384  25.232  1.00  0.00     0.007 A 
ATOM     31  H   UNL A   1      34.983  26.276  25.928  1.00  0.00     0.063 H 
ATOM     32  N   UNL A   1      33.489  22.406  24.616  1.00  0.00    -0.355 N 
ATOM     33  C   UNL A   1      35.345  23.395  25.342  1.00  0.00     0.009 A 
ATOM     34  C   UNL A   1      34.807  22.179  24.917  1.00  0.00     0.047 A 
ATOM     35  H   UNL A   1      32.842  21.705  24.372  1.00  0.00     0.167 HD
ATOM     36  C   UNL A   1      36.702  23.419  25.727  1.00  0.00    -0.033 A 
ATOM     37  C   UNL A   1      35.544  20.993  24.832  1.00  0.00    -0.036 A 
ATOM     38  C   UNL A   1      37.456  22.241  25.636  1.00  0.00     0.041 A 
ATOM     39  H   UNL A   1      37.134  24.291  26.072  1.00  0.00     0.065 H 
ATOM     40  C   UNL A   1      36.891  21.048  25.190  1.00  0.00    -0.041 A 
ATOM     41  H   UNL A   1      35.108  20.111  24.519  1.00  0.00     0.065 H 
ATOM     42  Cl  UNL A   1      39.125  22.266  26.066  1.00  0.00    -0.084 Cl
ATOM     43  H   UNL A   1      37.474  20.199  25.123  1.00  0.00     0.064 H 
ENDBRANCH  17  23
ENDBRANCH  14  17
ENDBRANCH  10  13
ENDBRANCH   7  10
ENDBRANCH   4   7
ENDBRANCH   1   4
BRANCH   1  44
ATOM     44  C   UNL A   1      31.562  31.975  26.807  1.00  0.00    -0.036 C 
ATOM     45  H   UNL A   1      30.768  32.157  27.502  1.00  0.00     0.028 H 
ATOM     46  H   UNL A   1      31.353  32.294  25.807  1.00  0.00     0.028 H 
BRANCH  44  47
ATOM     47  C   UNL A   1      32.766  32.791  27.253  1.00  0.00     0.018 C 
ATOM     48  H   UNL A   1      33.470  32.826  26.447  1.00  0.00     0.049 H 
ATOM     49  H   UNL A   1      33.170  32.312  28.121  1.00  0.00     0.049 H 
BRANCH  47  50
ATOM     50  N   UNL A   1      32.433  34.153  27.632  1.00  0.00    -0.352 N 
ATOM     51  C   UNL A   1      33.000  34.949  28.601  1.00  0.00     0.251 C 
ATOM     52  H   UNL A   1      31.697  34.565  27.124  1.00  0.00     0.163 HD
ATOM     53  O   UNL A   1      32.524  36.040  28.870  1.00  0.00    -0.269 OA
BRANCH  51  54
ATOM     54  C   UNL A   1      34.184  34.458  29.343  1.00  0.00     0.039 A 
ATOM     55  C   UNL A   1      33.997  33.832  30.578  1.00  0.00    -0.049 A 
ATOM     56  C   UNL A   1      35.469  34.605  28.814  1.00  0.00    -0.049 A 
ATOM     57  C   UNL A   1      35.095  33.294  31.256  1.00  0.00    -0.053 A 
ATOM     58  H   UNL A   1      33.052  33.767  30.989  1.00  0.00     0.063 H 
ATOM     59  C   UNL A   1      36.548  34.002  29.450  1.00  0.00    -0.053 A 
ATOM     60  H   UNL A   1      35.615  35.158  27.955  1.00  0.00     0.063 H 
ATOM     61  C   UNL A   1      36.374  33.347  30.681  1.00  0.00    -0.014 A 
ATOM     62  H   UNL A   1      34.965  32.856  32.182  1.00  0.00     0.063 H 
ATOM     63  H   UNL A   1      37.483  34.037  29.016  1.00  0.00     0.063 H 
BRANCH  61  64
ATOM     64  C   UNL A   1      37.563  32.761  31.349  1.00  0.00     0.031 A 
ATOM     65  C   UNL A   1      38.265  31.594  30.715  1.00  0.00     0.074 A 
ATOM     66  C   UNL A   1      37.945  33.203  32.562  1.00  0.00     0.049 A 
ATOM     67  N   UNL A   1      39.204  30.824  31.201  1.00  0.00    -0.248 NA
ATOM     68  C   UNL A   1      37.819  31.223  29.364  1.00  0.00    -0.034 C 
ATOM     69  C   UNL A   1      37.327  34.308  33.293  1.00  0.00    -0.036 A 
ATOM     70  N   UNL A   1      38.928  32.750  33.407  1.00  0.00    -0.354 N 
ATOM     71  C   UNL A   1      39.436  29.859  30.229  1.00  0.00     0.074 A 
ATOM     72  C   UNL A   1      38.505  30.111  29.151  1.00  0.00    -0.034 C 
ATOM     73  H   UNL A   1      37.148  31.703  28.744  1.00  0.00     0.065 H 
ATOM     74  C   UNL A   1      37.944  34.449  34.478  1.00  0.00    -0.036 A 
ATOM     75  H   UNL A   1      36.543  34.887  32.954  1.00  0.00     0.065 H 
ATOM     76  C   UNL A   1      38.968  33.415  34.609  1.00  0.00     0.049 A 
ATOM     77  H   UNL A   1      39.545  32.020  33.175  1.00  0.00     0.167 HD
ATOM     78  C   UNL A   1      40.353  28.862  30.231  1.00  0.00     0.037 A 
ATOM     79  H   UNL A   1      38.391  29.505  28.324  1.00  0.00     0.065 H 
ATOM     80  H   UNL A   1      37.731  35.173  35.182  1.00  0.00     0.065 H 
ATOM     81  C   UNL A   1      39.725  33.200  35.701  1.00  0.00     0.037 A 
ATOM     82  C   UNL A   1      41.290  28.634  31.299  1.00  0.00     0.049 A 
ATOM     83  C   UNL A   1      40.733  32.080  35.689  1.00  0.00     0.074 A 
ATOM     84  C   UNL A   1      42.300  27.691  31.375  1.00  0.00    -0.036 A 
ATOM     85  N   UNL A   1      41.324  29.354  32.485  1.00  0.00    -0.354 N 
ATOM     86  N   UNL A   1      40.986  31.207  34.745  1.00  0.00    -0.248 NA
ATOM     87  C   UNL A   1      41.564  31.921  36.891  1.00  0.00    -0.034 C 
ATOM     88  C   UNL A   1      42.908  27.805  32.629  1.00  0.00    -0.036 A 
ATOM     89  H   UNL A   1      42.559  27.022  30.634  1.00  0.00     0.065 H 
ATOM     90  C   UNL A   1      42.323  28.862  33.308  1.00  0.00     0.049 A 
ATOM     91  H   UNL A   1      40.726  30.104  32.708  1.00  0.00     0.167 HD
ATOM     92  C   UNL A   1      42.026  30.419  35.219  1.00  0.00     0.074 A 
ATOM     93  C   UNL A   1      42.358  30.917  36.538  1.00  0.00    -0.034 C 
ATOM     94  H   UNL A   1      41.539  32.452  37.775  1.00  0.00     0.065 H 
ATOM     95  H   UNL A   1      43.665  27.202  32.988  1.00  0.00     0.065 H 
ATOM     96  C   UNL A   1      42.654  29.383  34.612  1.00  0.00     0.037 A 
ATOM     97  H   UNL A   1      43.115  30.540  37.129  1.00  0.00     0.065 H 
BRANCH  78  98
ATOM     98  C   UNL A   1      40.369  27.938  29.046  1.00  0.00     0.064 A 
ATOM     99  C   UNL A   1      41.132  28.212  27.900  1.00  0.00     0.173 A 
ATOM    100  C   UNL A   1      39.607  26.760  29.055  1.00  0.00     0.173 A 
ATOM    101  F   UNL A   1      41.873  29.330  27.834  1.00  0.00    -0.203 F 
ATOM    102  C   UNL A   1      41.091  27.372  26.791  1.00  0.00     0.198 A 
ATOM    103  C   UNL A   1      39.599  25.900  27.959  1.00  0.00     0.198 A 
ATOM    104  F   UNL A   1      38.866  26.439  30.127  1.00  0.00    -0.203 F 
ATOM    105  F   UNL A   1      41.769  27.696  25.681  1.00  0.00    -0.200 F 
ATOM    106  C   UNL A   1      40.329  26.215  26.822  1.00  0.00     0.200 A 
ATOM    107  F   UNL A   1      38.874  24.774  27.998  1.00  0.00    -0.200 F 
ATOM    108  F   UNL A   1      40.287  25.408  25.753  1.00  0.00    -0.200 F 
ENDBRANCH  78  98
BRANCH  81 109
ATOM    109  C   UNL A   1      39.565  34.079  36.888  1.00  0.00     0.064 A 
ATOM    110  C   UNL A   1      38.781  33.679  37.979  1.00  0.00     0.173 A 
ATOM    111  C   UNL A   1      40.218  35.317  36.973  1.00  0.00     0.173 A 
ATOM    112  F   UNL A   1      38.122  32.511  37.937  1.00  0.00    -0.203 F 
ATOM    113  C   UNL A   1      38.648  34.488  39.106  1.00  0.00     0.198 A 
ATOM    114  C   UNL A   1      40.106  36.113  38.112  1.00  0.00     0.198 A 
ATOM    115  F   UNL A   1      40.987  35.743  35.960  1.00  0.00    -0.203 F 
ATOM    116  F   UNL A   1      37.867  34.095  40.122  1.00  0.00    -0.200 F 
ATOM    117  C   UNL A   1      39.318  35.700  39.175  1.00  0.00     0.200 A 
ATOM    118  F   UNL A   1      40.769  37.275  38.182  1.00  0.00    -0.200 F 
ATOM    119  F   UNL A   1      39.203  36.471  40.265  1.00  0.00    -0.200 F 
ENDBRANCH  81 109
BRANCH  96 120
ATOM    120  C   UNL A   1      43.810  28.747  35.331  1.00  0.00     0.064 A 
ATOM    121  C   UNL A   1      45.129  29.181  35.146  1.00  0.00     0.173 A 
ATOM    122  C   UNL A   1      43.575  27.743  36.284  1.00  0.00     0.173 A 
ATOM    123  F   UNL A   1      45.409  30.128  34.237  1.00  0.00    -0.203 F 
ATOM    124  C   UNL A   1      46.174  28.625  35.881  1.00  0.00     0.198 A 
ATOM    125  C   UNL A   1      44.617  27.212  37.038  1.00  0.00     0.198 A 
ATOM    126  F   UNL A   1      42.329  27.298  36.503  1.00  0.00    -0.203 F 
ATOM    127  F   UNL A   1      47.432  29.032  35.665  1.00  0.00    -0.200 F 
ATOM    128  C   UNL A   1      45.915  27.651  36.834  1.00  0.00     0.200 A 
ATOM    129  F   UNL A   1      44.361  26.283  37.970  1.00  0.00    -0.200 F 
ATOM    130  F   UNL A   1      46.920  27.132  37.554  1.00  0.00    -0.200 F 
ENDBRANCH  96 120
ENDBRANCH  61  64
ENDBRANCH  51  54
ENDBRANCH  47  50
ENDBRANCH  44  47
ENDBRANCH   1  44
TORSDOF 15
ENDMDL
MODEL 4
REMARK VINA RESULT:     -12.1      0.830      2.077
REMARK SMILES C[C@H](C(=O)NCCCCCCNC(=O)c1ccc(-c2c3nc(c(-c4c(F)c(F)c(F)c(F)c4F)c4ccc([nH]4)c(-c4c(F)c(F)c(F)c(F)c4F)c4nc(c(-c5c(F)c(F)c(F)c(F)c5F)c5ccc2[nH]5)C=C4)C=C3)cc1)c1ccc2c(c1)[nH]c1ccc(Cl)cc12
REMARK SMILES IDX 9 1 8 4 7 7 6 10 5 13 3 14 4 15 2 17 1 19 78 23 79 24 83 25
REMARK SMILES IDX 80 26 82 28 81 30 84 32 91 33 85 34 90 36 86 37 88 38 87 40
REMARK SMILES IDX 89 42 10 44 11 47 12 50 13 51 14 53 15 54 16 55 77 56 17 57
REMARK SMILES IDX 76 59 18 61 19 64 20 65 70 66 21 67 75 68 69 69 71 70 22 71
REMARK SMILES IDX 74 72 68 74 67 76 23 78 55 81 35 82 54 83 36 84 39 85 53 86
REMARK SMILES IDX 72 87 37 88 38 90 52 92 73 93 40 96 24 98 25 99 33 100
REMARK SMILES IDX 26 101 27 102 31 103 34 104 28 105 29 106 32 107 30 108
REMARK SMILES IDX 56 109 57 110 65 111 58 112 59 113 63 114 66 115 60 116
REMARK SMILES IDX 61 117 64 118 62 119 41 120 42 121 50 122 43 123 44 124
REMARK SMILES IDX 48 125 51 126 45 127 46 128 49 129 47 130
REMARK H PARENT 9 2 9 3 8 5 8 6 7 8 7 9 6 11 6 12 5 16 2 18 1 20 1 21 1 22
REMARK H PARENT 79 27 83 29 80 31 84 35 90 39 86 41 87 43 10 45 10 46 11 48
REMARK H PARENT 11 49 12 52 16 58 77 60 17 62 76 63 75 73 69 75 71 77 74 79
REMARK H PARENT 68 80 36 89 39 91 72 94 37 95 73 97
REMARK Flexibility Score: inf
ROOT
ATOM      1  C   UNL A   1      33.660  26.158  25.752  1.00  0.00    -0.052 C 
ATOM      2  H   UNL A   1      33.892  25.821  24.763  1.00  0.00     0.027 H 
ATOM      3  H   UNL A   1      34.509  26.379  26.365  1.00  0.00     0.027 H 
ENDROOT
BRANCH   1   4
ATOM      4  C   UNL A   1      32.940  25.015  26.471  1.00  0.00    -0.052 C 
ATOM      5  H   UNL A   1      32.567  25.404  27.396  1.00  0.00     0.027 H 
ATOM      6  H   UNL A   1      32.195  24.685  25.777  1.00  0.00     0.027 H 
BRANCH   4   7
ATOM      7  C   UNL A   1      33.749  23.758  26.797  1.00  0.00    -0.036 C 
ATOM      8  H   UNL A   1      34.138  23.875  27.787  1.00  0.00     0.028 H 
ATOM      9  H   UNL A   1      33.059  22.951  26.665  1.00  0.00     0.028 H 
BRANCH   7  10
ATOM     10  C   UNL A   1      34.922  23.413  25.885  1.00  0.00     0.017 C 
ATOM     11  H   UNL A   1      34.667  23.713  24.890  1.00  0.00     0.049 H 
ATOM     12  H   UNL A   1      35.771  23.931  26.281  1.00  0.00     0.049 H 
BRANCH  10  13
ATOM     13  N   UNL A   1      35.277  22.016  25.855  1.00  0.00    -0.356 N 
ATOM     14  C   UNL A   1      34.926  21.038  24.980  1.00  0.00     0.227 C 
ATOM     15  O   UNL A   1      35.662  20.039  25.001  1.00  0.00    -0.274 OA
ATOM     16  H   UNL A   1      35.869  21.723  26.586  1.00  0.00     0.163 HD
BRANCH  14  17
ATOM     17  C   UNL A   1      33.670  21.008  24.085  1.00  0.00     0.060 C 
ATOM     18  H   UNL A   1      33.999  20.699  23.115  1.00  0.00     0.045 H 
BRANCH  17  19
ATOM     19  C   UNL A   1      32.705  20.028  24.789  1.00  0.00    -0.049 C 
ATOM     20  H   UNL A   1      32.402  20.439  25.730  1.00  0.00     0.024 H 
ATOM     21  H   UNL A   1      33.199  19.093  24.952  1.00  0.00     0.024 H 
ATOM     22  H   UNL A   1      31.843  19.872  24.175  1.00  0.00     0.024 H 
ENDBRANCH  17  19
BRANCH  17  23
ATOM     23  C   UNL A   1      33.000  22.303  23.624  1.00  0.00    -0.034 A 
ATOM     24  C   UNL A   1      33.631  23.165  22.710  1.00  0.00    -0.057 A 
ATOM     25  C   UNL A   1      31.709  22.648  24.067  1.00  0.00    -0.034 A 
ATOM     26  C   UNL A   1      33.083  24.422  22.374  1.00  0.00    -0.052 A 
ATOM     27  H   UNL A   1      34.518  22.870  22.272  1.00  0.00     0.063 H 
ATOM     28  C   UNL A   1      31.166  23.883  23.704  1.00  0.00     0.047 A 
ATOM     29  H   UNL A   1      31.169  21.994  24.655  1.00  0.00     0.065 H 
ATOM     30  C   UNL A   1      31.835  24.807  22.910  1.00  0.00     0.007 A 
ATOM     31  H   UNL A   1      33.593  25.057  21.740  1.00  0.00     0.063 H 
ATOM     32  N   UNL A   1      29.953  24.427  24.039  1.00  0.00    -0.355 N 
ATOM     33  C   UNL A   1      31.028  25.997  22.885  1.00  0.00     0.009 A 
ATOM     34  C   UNL A   1      29.876  25.733  23.629  1.00  0.00     0.047 A 
ATOM     35  H   UNL A   1      29.234  23.946  24.510  1.00  0.00     0.167 HD
ATOM     36  C   UNL A   1      31.177  27.287  22.334  1.00  0.00    -0.033 A 
ATOM     37  C   UNL A   1      28.877  26.682  23.874  1.00  0.00    -0.036 A 
ATOM     38  C   UNL A   1      30.190  28.252  22.581  1.00  0.00     0.041 A 
ATOM     39  H   UNL A   1      32.001  27.518  21.756  1.00  0.00     0.065 H 
ATOM     40  C   UNL A   1      29.062  27.958  23.343  1.00  0.00    -0.041 A 
ATOM     41  H   UNL A   1      28.036  26.446  24.424  1.00  0.00     0.065 H 
ATOM     42  Cl  UNL A   1      30.381  29.842  21.945  1.00  0.00    -0.084 Cl
ATOM     43  H   UNL A   1      28.357  28.693  23.517  1.00  0.00     0.064 H 
ENDBRANCH  17  23
ENDBRANCH  14  17
ENDBRANCH  10  13
ENDBRANCH   7  10
ENDBRANCH   4   7
ENDBRANCH   1   4
BRANCH   1  44
ATOM     44  C   UNL A   1      32.909  27.481  25.625  1.00  0.00    -0.036 C 
ATOM     45  H   UNL A   1      32.344  27.624  26.523  1.00  0.00     0.028 H 
ATOM     46  H   UNL A   1      32.312  27.389  24.741  1.00  0.00     0.028 H 
BRANCH  44  47
ATOM     47  C   UNL A   1      33.765  28.722  25.412  1.00  0.00     0.018 C 
ATOM     48  H   UNL A   1      34.063  28.756  24.384  1.00  0.00     0.049 H 
ATOM     49  H   UNL A   1      34.603  28.645  26.074  1.00  0.00     0.049 H 
BRANCH  47  50
ATOM     50  N   UNL A   1      33.077  29.959  25.733  1.00  0.00    -0.352 N 
ATOM     51  C   UNL A   1      33.344  30.868  26.731  1.00  0.00     0.251 C 
ATOM     52  H   UNL A   1      32.311  30.180  25.155  1.00  0.00     0.163 HD
ATOM     53  O   UNL A   1      32.594  31.810  26.936  1.00  0.00    -0.269 OA
BRANCH  51  54
ATOM     54  C   UNL A   1      34.541  30.681  27.583  1.00  0.00     0.039 A 
ATOM     55  C   UNL A   1      34.683  29.488  28.298  1.00  0.00    -0.049 A 
ATOM     56  C   UNL A   1      35.522  31.673  27.665  1.00  0.00    -0.049 A 
ATOM     57  C   UNL A   1      35.842  29.262  29.045  1.00  0.00    -0.053 A 
ATOM     58  H   UNL A   1      33.935  28.777  28.274  1.00  0.00     0.063 H 
ATOM     59  C   UNL A   1      36.707  31.414  28.344  1.00  0.00    -0.053 A 
ATOM     60  H   UNL A   1      35.367  32.591  27.221  1.00  0.00     0.063 H 
ATOM     61  C   UNL A   1      36.876  30.210  29.048  1.00  0.00    -0.014 A 
ATOM     62  H   UNL A   1      35.938  28.395  29.597  1.00  0.00     0.063 H 
ATOM     63  H   UNL A   1      37.466  32.112  28.332  1.00  0.00     0.063 H 
BRANCH  61  64
ATOM     64  C   UNL A   1      38.138  29.999  29.800  1.00  0.00     0.031 A 
ATOM     65  C   UNL A   1      39.178  29.065  29.250  1.00  0.00     0.074 A 
ATOM     66  C   UNL A   1      38.303  30.555  31.016  1.00  0.00     0.049 A 
ATOM     67  N   UNL A   1      40.264  28.602  29.815  1.00  0.00    -0.248 NA
ATOM     68  C   UNL A   1      38.941  28.555  27.891  1.00  0.00    -0.034 C 
ATOM     69  C   UNL A   1      37.354  31.455  31.670  1.00  0.00    -0.036 A 
ATOM     70  N   UNL A   1      39.319  30.417  31.929  1.00  0.00    -0.354 N 
ATOM     71  C   UNL A   1      40.818  27.723  28.895  1.00  0.00     0.074 A 
ATOM     72  C   UNL A   1      39.924  27.679  27.758  1.00  0.00    -0.034 C 
ATOM     73  H   UNL A   1      38.202  28.813  27.219  1.00  0.00     0.065 H 
ATOM     74  C   UNL A   1      37.831  31.790  32.880  1.00  0.00    -0.036 A 
ATOM     75  H   UNL A   1      36.462  31.781  31.267  1.00  0.00     0.065 H 
ATOM     76  C   UNL A   1      39.094  31.090  33.105  1.00  0.00     0.049 A 
ATOM     77  H   UNL A   1      40.129  29.886  31.759  1.00  0.00     0.167 HD
ATOM     78  C   UNL A   1      41.977  27.027  28.984  1.00  0.00     0.037 A 
ATOM     79  H   UNL A   1      40.038  27.048  26.949  1.00  0.00     0.065 H 
ATOM     80  H   UNL A   1      37.379  32.438  33.544  1.00  0.00     0.065 H 
ATOM     81  C   UNL A   1      39.811  31.121  34.245  1.00  0.00     0.037 A 
ATOM     82  C   UNL A   1      42.871  27.096  30.109  1.00  0.00     0.049 A 
ATOM     83  C   UNL A   1      41.092  30.333  34.329  1.00  0.00     0.074 A 
ATOM     84  C   UNL A   1      44.099  26.479  30.275  1.00  0.00    -0.036 A 
ATOM     85  N   UNL A   1      42.626  27.820  31.267  1.00  0.00    -0.354 N 
ATOM     86  N   UNL A   1      41.639  29.547  33.434  1.00  0.00    -0.248 NA
ATOM     87  C   UNL A   1      41.857  30.440  35.580  1.00  0.00    -0.034 C 
ATOM     88  C   UNL A   1      44.570  26.786  31.556  1.00  0.00    -0.036 A 
ATOM     89  H   UNL A   1      44.582  25.895  29.575  1.00  0.00     0.065 H 
ATOM     90  C   UNL A   1      43.670  27.648  32.162  1.00  0.00     0.049 A 
ATOM     91  H   UNL A   1      41.829  28.375  31.429  1.00  0.00     0.167 HD
ATOM     92  C   UNL A   1      42.827  29.097  33.993  1.00  0.00     0.074 A 
ATOM     93  C   UNL A   1      42.921  29.695  35.309  1.00  0.00    -0.034 C 
ATOM     94  H   UNL A   1      41.627  30.960  36.441  1.00  0.00     0.065 H 
ATOM     95  H   UNL A   1      45.442  26.430  31.977  1.00  0.00     0.065 H 
ATOM     96  C   UNL A   1      43.758  28.268  33.460  1.00  0.00     0.037 A 
ATOM     97  H   UNL A   1      43.715  29.560  35.954  1.00  0.00     0.065 H 
BRANCH  78  98
ATOM     98  C   UNL A   1      42.327  26.121  27.837  1.00  0.00     0.064 A 
ATOM     99  C   UNL A   1      43.225  26.510  26.830  1.00  0.00     0.173 A 
ATOM    100  C   UNL A   1      41.754  24.844  27.741  1.00  0.00     0.173 A 
ATOM    101  F   UNL A   1      43.795  27.724  26.866  1.00  0.00    -0.203 F 
ATOM    102  C   UNL A   1      43.494  25.678  25.746  1.00  0.00     0.198 A 
ATOM    103  C   UNL A   1      42.056  23.998  26.677  1.00  0.00     0.198 A 
ATOM    104  F   UNL A   1      40.897  24.413  28.679  1.00  0.00    -0.203 F 
ATOM    105  F   UNL A   1      44.296  26.104  24.759  1.00  0.00    -0.200 F 
ATOM    106  C   UNL A   1      42.914  24.422  25.672  1.00  0.00     0.200 A 
ATOM    107  F   UNL A   1      41.507  22.777  26.616  1.00  0.00    -0.200 F 
ATOM    108  F   UNL A   1      43.171  23.622  24.628  1.00  0.00    -0.200 F 
ENDBRANCH  78  98
BRANCH  81 109
ATOM    109  C   UNL A   1      39.336  31.943  35.387  1.00  0.00     0.064 A 
ATOM    110  C   UNL A   1      39.680  33.298  35.491  1.00  0.00     0.173 A 
ATOM    111  C   UNL A   1      38.503  31.404  36.379  1.00  0.00     0.173 A 
ATOM    112  F   UNL A   1      40.489  33.855  34.577  1.00  0.00    -0.203 F 
ATOM    113  C   UNL A   1      39.217  34.080  36.546  1.00  0.00     0.198 A 
ATOM    114  C   UNL A   1      38.018  32.195  37.419  1.00  0.00     0.198 A 
ATOM    115  F   UNL A   1      38.138  30.115  36.322  1.00  0.00    -0.203 F 
ATOM    116  F   UNL A   1      39.586  35.366  36.638  1.00  0.00    -0.200 F 
ATOM    117  C   UNL A   1      38.378  33.530  37.504  1.00  0.00     0.200 A 
ATOM    118  F   UNL A   1      37.194  31.664  38.332  1.00  0.00    -0.200 F 
ATOM    119  F   UNL A   1      37.920  34.287  38.511  1.00  0.00    -0.200 F 
ENDBRANCH  81 109
BRANCH  96 120
ATOM    120  C   UNL A   1      44.998  28.001  34.265  1.00  0.00     0.064 A 
ATOM    121  C   UNL A   1      46.118  28.841  34.205  1.00  0.00     0.173 A 
ATOM    122  C   UNL A   1      45.027  26.930  35.174  1.00  0.00     0.173 A 
ATOM    123  F   UNL A   1      46.147  29.870  33.344  1.00  0.00    -0.203 F 
ATOM    124  C   UNL A   1      47.227  28.613  35.017  1.00  0.00     0.198 A 
ATOM    125  C   UNL A   1      46.124  26.723  36.004  1.00  0.00     0.198 A 
ATOM    126  F   UNL A   1      43.977  26.101  35.273  1.00  0.00    -0.203 F 
ATOM    127  F   UNL A   1      48.300  29.409  34.921  1.00  0.00    -0.200 F 
ATOM    128  C   UNL A   1      47.223  27.562  35.924  1.00  0.00     0.200 A 
ATOM    129  F   UNL A   1      46.110  25.718  36.891  1.00  0.00    -0.200 F 
ATOM    130  F   UNL A   1      48.283  27.358  36.719  1.00  0.00    -0.200 F 
ENDBRANCH  96 120
ENDBRANCH  61  64
ENDBRANCH  51  54
ENDBRANCH  47  50
ENDBRANCH  44  47
ENDBRANCH   1  44
TORSDOF 15
ENDMDL
MODEL 5
REMARK VINA RESULT:     -12.1      4.684     10.658
REMARK SMILES C[C@H](C(=O)NCCCCCCNC(=O)c1ccc(-c2c3nc(c(-c4c(F)c(F)c(F)c(F)c4F)c4ccc([nH]4)c(-c4c(F)c(F)c(F)c(F)c4F)c4nc(c(-c5c(F)c(F)c(F)c(F)c5F)c5ccc2[nH]5)C=C4)C=C3)cc1)c1ccc2c(c1)[nH]c1ccc(Cl)cc12
REMARK SMILES IDX 9 1 8 4 7 7 6 10 5 13 3 14 4 15 2 17 1 19 78 23 79 24 83 25
REMARK SMILES IDX 80 26 82 28 81 30 84 32 91 33 85 34 90 36 86 37 88 38 87 40
REMARK SMILES IDX 89 42 10 44 11 47 12 50 13 51 14 53 15 54 16 55 77 56 17 57
REMARK SMILES IDX 76 59 18 61 19 64 20 65 70 66 21 67 75 68 69 69 71 70 22 71
REMARK SMILES IDX 74 72 68 74 67 76 23 78 55 81 35 82 54 83 36 84 39 85 53 86
REMARK SMILES IDX 72 87 37 88 38 90 52 92 73 93 40 96 24 98 25 99 33 100
REMARK SMILES IDX 26 101 27 102 31 103 34 104 28 105 29 106 32 107 30 108
REMARK SMILES IDX 56 109 57 110 65 111 58 112 59 113 63 114 66 115 60 116
REMARK SMILES IDX 61 117 64 118 62 119 41 120 42 121 50 122 43 123 44 124
REMARK SMILES IDX 48 125 51 126 45 127 46 128 49 129 47 130
REMARK H PARENT 9 2 9 3 8 5 8 6 7 8 7 9 6 11 6 12 5 16 2 18 1 20 1 21 1 22
REMARK H PARENT 79 27 83 29 80 31 84 35 90 39 86 41 87 43 10 45 10 46 11 48
REMARK H PARENT 11 49 12 52 16 58 77 60 17 62 76 63 75 73 69 75 71 77 74 79
REMARK H PARENT 68 80 36 89 39 91 72 94 37 95 73 97
REMARK Flexibility Score: inf
ROOT
ATOM      1  C   UNL A   1      35.197  34.532  28.554  1.00  0.00    -0.052 C 
ATOM      2  H   UNL A   1      34.813  34.524  29.553  1.00  0.00     0.027 H 
ATOM      3  H   UNL A   1      36.232  34.795  28.470  1.00  0.00     0.027 H 
ENDROOT
BRANCH   1   4
ATOM      4  C   UNL A   1      34.449  35.620  27.781  1.00  0.00    -0.052 C 
ATOM      5  H   UNL A   1      35.087  35.943  26.984  1.00  0.00     0.027 H 
ATOM      6  H   UNL A   1      33.534  35.156  27.478  1.00  0.00     0.027 H 
BRANCH   4   7
ATOM      7  C   UNL A   1      34.013  36.868  28.552  1.00  0.00    -0.036 C 
ATOM      8  H   UNL A   1      34.900  37.357  28.896  1.00  0.00     0.028 H 
ATOM      9  H   UNL A   1      33.421  37.424  27.854  1.00  0.00     0.028 H 
BRANCH   7  10
ATOM     10  C   UNL A   1      33.102  36.674  29.759  1.00  0.00     0.017 C 
ATOM     11  H   UNL A   1      32.088  36.716  29.420  1.00  0.00     0.049 H 
ATOM     12  H   UNL A   1      33.368  35.730  30.186  1.00  0.00     0.049 H 
BRANCH  10  13
ATOM     13  N   UNL A   1      33.265  37.652  30.806  1.00  0.00    -0.356 N 
ATOM     14  C   UNL A   1      33.590  37.493  32.116  1.00  0.00     0.227 C 
ATOM     15  O   UNL A   1      34.004  38.522  32.673  1.00  0.00    -0.274 OA
ATOM     16  H   UNL A   1      33.116  38.585  30.528  1.00  0.00     0.163 HD
BRANCH  14  17
ATOM     17  C   UNL A   1      33.381  36.227  32.971  1.00  0.00     0.060 C 
ATOM     18  H   UNL A   1      33.685  36.481  33.964  1.00  0.00     0.045 H 
BRANCH  17  19
ATOM     19  C   UNL A   1      31.883  35.885  32.815  1.00  0.00    -0.049 C 
ATOM     20  H   UNL A   1      31.308  36.788  32.812  1.00  0.00     0.024 H 
ATOM     21  H   UNL A   1      31.570  35.266  33.631  1.00  0.00     0.024 H 
ATOM     22  H   UNL A   1      31.729  35.362  31.894  1.00  0.00     0.024 H 
ENDBRANCH  17  19
BRANCH  17  23
ATOM     23  C   UNL A   1      34.304  35.016  32.823  1.00  0.00    -0.034 A 
ATOM     24  C   UNL A   1      33.932  33.905  32.047  1.00  0.00    -0.057 A 
ATOM     25  C   UNL A   1      35.578  35.000  33.424  1.00  0.00    -0.034 A 
ATOM     26  C   UNL A   1      34.716  32.731  32.005  1.00  0.00    -0.052 A 
ATOM     27  H   UNL A   1      33.062  33.948  31.493  1.00  0.00     0.063 H 
ATOM     28  C   UNL A   1      36.356  33.842  33.351  1.00  0.00     0.047 A 
ATOM     29  H   UNL A   1      35.932  35.835  33.914  1.00  0.00     0.065 H 
ATOM     30  C   UNL A   1      35.943  32.685  32.701  1.00  0.00     0.007 A 
ATOM     31  H   UNL A   1      34.393  31.911  31.469  1.00  0.00     0.063 H 
ATOM     32  N   UNL A   1      37.598  33.599  33.879  1.00  0.00    -0.355 N 
ATOM     33  C   UNL A   1      36.935  31.678  32.971  1.00  0.00     0.009 A 
ATOM     34  C   UNL A   1      37.937  32.278  33.737  1.00  0.00     0.047 A 
ATOM     35  H   UNL A   1      38.169  34.281  34.302  1.00  0.00     0.167 HD
ATOM     36  C   UNL A   1      37.065  30.306  32.670  1.00  0.00    -0.033 A 
ATOM     37  C   UNL A   1      39.047  31.588  34.239  1.00  0.00    -0.036 A 
ATOM     38  C   UNL A   1      38.165  29.600  33.176  1.00  0.00     0.041 A 
ATOM     39  H   UNL A   1      36.360  29.829  32.086  1.00  0.00     0.065 H 
ATOM     40  C   UNL A   1      39.137  30.226  33.953  1.00  0.00    -0.041 A 
ATOM     41  H   UNL A   1      39.770  32.069  34.796  1.00  0.00     0.065 H 
ATOM     42  Cl  UNL A   1      38.314  27.915  32.848  1.00  0.00    -0.084 Cl
ATOM     43  H   UNL A   1      39.930  29.677  34.321  1.00  0.00     0.064 H 
ENDBRANCH  17  23
ENDBRANCH  14  17
ENDBRANCH  10  13
ENDBRANCH   7  10
ENDBRANCH   4   7
ENDBRANCH   1   4
BRANCH   1  44
ATOM     44  C   UNL A   1      35.106  33.107  28.012  1.00  0.00    -0.036 C 
ATOM     45  H   UNL A   1      36.068  32.652  28.127  1.00  0.00     0.028 H 
ATOM     46  H   UNL A   1      34.785  33.207  26.996  1.00  0.00     0.028 H 
BRANCH  44  47
ATOM     47  C   UNL A   1      34.081  32.200  28.678  1.00  0.00     0.018 C 
ATOM     48  H   UNL A   1      33.224  32.788  28.935  1.00  0.00     0.049 H 
ATOM     49  H   UNL A   1      34.550  31.771  29.539  1.00  0.00     0.049 H 
BRANCH  47  50
ATOM     50  N   UNL A   1      33.648  31.101  27.833  1.00  0.00    -0.352 N 
ATOM     51  C   UNL A   1      34.362  30.009  27.395  1.00  0.00     0.251 C 
ATOM     52  H   UNL A   1      32.712  31.143  27.531  1.00  0.00     0.163 HD
ATOM     53  O   UNL A   1      33.878  29.228  26.592  1.00  0.00    -0.269 OA
BRANCH  51  54
ATOM     54  C   UNL A   1      35.745  29.801  27.884  1.00  0.00     0.039 A 
ATOM     55  C   UNL A   1      35.938  29.310  29.178  1.00  0.00    -0.049 A 
ATOM     56  C   UNL A   1      36.841  30.079  27.064  1.00  0.00    -0.049 A 
ATOM     57  C   UNL A   1      37.232  29.035  29.629  1.00  0.00    -0.053 A 
ATOM     58  H   UNL A   1      35.128  29.150  29.798  1.00  0.00     0.063 H 
ATOM     59  C   UNL A   1      38.120  29.732  27.485  1.00  0.00    -0.053 A 
ATOM     60  H   UNL A   1      36.702  30.539  26.151  1.00  0.00     0.063 H 
ATOM     61  C   UNL A   1      38.330  29.214  28.774  1.00  0.00    -0.014 A 
ATOM     62  H   UNL A   1      37.381  28.698  30.594  1.00  0.00     0.063 H 
ATOM     63  H   UNL A   1      38.920  29.857  26.846  1.00  0.00     0.063 H 
BRANCH  61  64
ATOM     64  C   UNL A   1      39.718  28.905  29.198  1.00  0.00     0.031 A 
ATOM     65  C   UNL A   1      40.499  29.928  29.971  1.00  0.00     0.074 A 
ATOM     66  C   UNL A   1      40.308  27.761  28.800  1.00  0.00     0.049 A 
ATOM     67  N   UNL A   1      41.768  29.942  30.289  1.00  0.00    -0.248 NA
ATOM     68  C   UNL A   1      39.754  31.116  30.414  1.00  0.00    -0.034 C 
ATOM     69  C   UNL A   1      39.666  26.703  28.023  1.00  0.00    -0.036 A 
ATOM     70  N   UNL A   1      41.596  27.316  28.973  1.00  0.00    -0.354 N 
ATOM     71  C   UNL A   1      41.979  31.152  30.937  1.00  0.00     0.074 A 
ATOM     72  C   UNL A   1      40.720  31.865  30.922  1.00  0.00    -0.034 C 
ATOM     73  H   UNL A   1      38.744  31.314  30.347  1.00  0.00     0.065 H 
ATOM     74  C   UNL A   1      40.561  25.730  27.785  1.00  0.00    -0.036 A 
ATOM     75  H   UNL A   1      38.684  26.703  27.708  1.00  0.00     0.065 H 
ATOM     76  C   UNL A   1      41.850  26.118  28.350  1.00  0.00     0.049 A 
ATOM     77  H   UNL A   1      42.272  27.807  29.492  1.00  0.00     0.167 HD
ATOM     78  C   UNL A   1      43.116  31.618  31.506  1.00  0.00     0.037 A 
ATOM     79  H   UNL A   1      40.592  32.830  31.263  1.00  0.00     0.065 H 
ATOM     80  H   UNL A   1      40.367  24.849  27.283  1.00  0.00     0.065 H 
ATOM     81  C   UNL A   1      42.998  25.424  28.228  1.00  0.00     0.037 A 
ATOM     82  C   UNL A   1      44.357  30.890  31.535  1.00  0.00     0.049 A 
ATOM     83  C   UNL A   1      44.255  25.962  28.859  1.00  0.00     0.074 A 
ATOM     84  C   UNL A   1      45.551  31.244  32.138  1.00  0.00    -0.036 A 
ATOM     85  N   UNL A   1      44.564  29.661  30.926  1.00  0.00    -0.354 N 
ATOM     86  N   UNL A   1      44.434  27.081  29.519  1.00  0.00    -0.248 NA
ATOM     87  C   UNL A   1      45.466  25.140  28.734  1.00  0.00    -0.034 C 
ATOM     88  C   UNL A   1      46.497  30.256  31.845  1.00  0.00    -0.036 A 
ATOM     89  H   UNL A   1      45.715  32.090  32.705  1.00  0.00     0.065 H 
ATOM     90  C   UNL A   1      45.874  29.253  31.119  1.00  0.00     0.049 A 
ATOM     91  H   UNL A   1      43.882  29.154  30.429  1.00  0.00     0.167 HD
ATOM     92  C   UNL A   1      45.763  27.082  29.919  1.00  0.00     0.074 A 
ATOM     93  C   UNL A   1      46.347  25.852  29.426  1.00  0.00    -0.034 C 
ATOM     94  H   UNL A   1      45.597  24.245  28.238  1.00  0.00     0.065 H 
ATOM     95  H   UNL A   1      47.490  30.271  32.125  1.00  0.00     0.065 H 
ATOM     96  C   UNL A   1      46.435  28.015  30.638  1.00  0.00     0.037 A 
ATOM     97  H   UNL A   1      47.324  25.564  29.592  1.00  0.00     0.065 H 
BRANCH  78  98
ATOM     98  C   UNL A   1      43.066  32.987  32.126  1.00  0.00     0.064 A 
ATOM     99  C   UNL A   1      43.373  34.145  31.394  1.00  0.00     0.173 A 
ATOM    100  C   UNL A   1      42.709  33.142  33.474  1.00  0.00     0.173 A 
ATOM    101  F   UNL A   1      43.730  34.053  30.103  1.00  0.00    -0.203 F 
ATOM    102  C   UNL A   1      43.375  35.398  32.000  1.00  0.00     0.198 A 
ATOM    103  C   UNL A   1      42.674  34.402  34.067  1.00  0.00     0.198 A 
ATOM    104  F   UNL A   1      42.396  32.073  34.220  1.00  0.00    -0.203 F 
ATOM    105  F   UNL A   1      43.746  36.479  31.299  1.00  0.00    -0.200 F 
ATOM    106  C   UNL A   1      43.022  35.527  33.334  1.00  0.00     0.200 A 
ATOM    107  F   UNL A   1      42.316  34.526  35.353  1.00  0.00    -0.200 F 
ATOM    108  F   UNL A   1      43.027  36.734  33.917  1.00  0.00    -0.200 F 
ENDBRANCH  78  98
BRANCH  81 109
ATOM    109  C   UNL A   1      42.998  24.134  27.490  1.00  0.00     0.064 A 
ATOM    110  C   UNL A   1      42.611  22.944  28.121  1.00  0.00     0.173 A 
ATOM    111  C   UNL A   1      43.351  24.068  26.134  1.00  0.00     0.173 A 
ATOM    112  F   UNL A   1      42.282  22.952  29.422  1.00  0.00    -0.203 F 
ATOM    113  C   UNL A   1      42.585  21.736  27.427  1.00  0.00     0.198 A 
ATOM    114  C   UNL A   1      43.299  22.864  25.434  1.00  0.00     0.198 A 
ATOM    115  F   UNL A   1      43.722  25.181  25.481  1.00  0.00    -0.203 F 
ATOM    116  F   UNL A   1      42.240  20.608  28.063  1.00  0.00    -0.200 F 
ATOM    117  C   UNL A   1      42.920  21.699  26.082  1.00  0.00     0.200 A 
ATOM    118  F   UNL A   1      43.606  22.837  24.131  1.00  0.00    -0.200 F 
ATOM    119  F   UNL A   1      42.880  20.540  25.411  1.00  0.00    -0.200 F 
ENDBRANCH  81 109
BRANCH  96 120
ATOM    120  C   UNL A   1      47.865  27.724  30.996  1.00  0.00     0.064 A 
ATOM    121  C   UNL A   1      48.210  26.998  32.144  1.00  0.00     0.173 A 
ATOM    122  C   UNL A   1      48.897  28.111  30.126  1.00  0.00     0.173 A 
ATOM    123  F   UNL A   1      47.263  26.618  33.014  1.00  0.00    -0.203 F 
ATOM    124  C   UNL A   1      49.539  26.679  32.413  1.00  0.00     0.198 A 
ATOM    125  C   UNL A   1      50.220  27.764  30.384  1.00  0.00     0.198 A 
ATOM    126  F   UNL A   1      48.618  28.802  29.011  1.00  0.00    -0.203 F 
ATOM    127  F   UNL A   1      49.851  26.012  33.533  1.00  0.00    -0.200 F 
ATOM    128  C   UNL A   1      50.540  27.051  31.527  1.00  0.00     0.200 A 
ATOM    129  F   UNL A   1      51.182  28.110  29.517  1.00  0.00    -0.200 F 
ATOM    130  F   UNL A   1      51.816  26.724  31.779  1.00  0.00    -0.200 F 
ENDBRANCH  96 120
ENDBRANCH  61  64
ENDBRANCH  51  54
ENDBRANCH  47  50
ENDBRANCH  44  47
ENDBRANCH   1  44
TORSDOF 15
ENDMDL
MODEL 6
REMARK VINA RESULT:     -12.1      4.593      9.664
REMARK SMILES C[C@H](C(=O)NCCCCCCNC(=O)c1ccc(-c2c3nc(c(-c4c(F)c(F)c(F)c(F)c4F)c4ccc([nH]4)c(-c4c(F)c(F)c(F)c(F)c4F)c4nc(c(-c5c(F)c(F)c(F)c(F)c5F)c5ccc2[nH]5)C=C4)C=C3)cc1)c1ccc2c(c1)[nH]c1ccc(Cl)cc12
REMARK SMILES IDX 9 1 8 4 7 7 6 10 5 13 3 14 4 15 2 17 1 19 78 23 79 24 83 25
REMARK SMILES IDX 80 26 82 28 81 30 84 32 91 33 85 34 90 36 86 37 88 38 87 40
REMARK SMILES IDX 89 42 10 44 11 47 12 50 13 51 14 53 15 54 16 55 77 56 17 57
REMARK SMILES IDX 76 59 18 61 19 64 20 65 70 66 21 67 75 68 69 69 71 70 22 71
REMARK SMILES IDX 74 72 68 74 67 76 23 78 55 81 35 82 54 83 36 84 39 85 53 86
REMARK SMILES IDX 72 87 37 88 38 90 52 92 73 93 40 96 24 98 25 99 33 100
REMARK SMILES IDX 26 101 27 102 31 103 34 104 28 105 29 106 32 107 30 108
REMARK SMILES IDX 56 109 57 110 65 111 58 112 59 113 63 114 66 115 60 116
REMARK SMILES IDX 61 117 64 118 62 119 41 120 42 121 50 122 43 123 44 124
REMARK SMILES IDX 48 125 51 126 45 127 46 128 49 129 47 130
REMARK H PARENT 9 2 9 3 8 5 8 6 7 8 7 9 6 11 6 12 5 16 2 18 1 20 1 21 1 22
REMARK H PARENT 79 27 83 29 80 31 84 35 90 39 86 41 87 43 10 45 10 46 11 48
REMARK H PARENT 11 49 12 52 16 58 77 60 17 62 76 63 75 73 69 75 71 77 74 79
REMARK H PARENT 68 80 36 89 39 91 72 94 37 95 73 97
REMARK Flexibility Score: inf
ROOT
ATOM      1  C   UNL A   1      36.961  20.576  25.001  1.00  0.00    -0.052 C 
ATOM      2  H   UNL A   1      36.197  20.189  24.358  1.00  0.00     0.027 H 
ATOM      3  H   UNL A   1      36.679  20.670  26.030  1.00  0.00     0.027 H 
ENDROOT
BRANCH   1   4
ATOM      4  C   UNL A   1      37.272  22.002  24.542  1.00  0.00    -0.052 C 
ATOM      5  H   UNL A   1      38.201  21.971  24.011  1.00  0.00     0.027 H 
ATOM      6  H   UNL A   1      36.420  22.292  23.964  1.00  0.00     0.027 H 
BRANCH   4   7
ATOM      7  C   UNL A   1      37.395  23.084  25.618  1.00  0.00    -0.036 C 
ATOM      8  H   UNL A   1      37.777  22.615  26.500  1.00  0.00     0.028 H 
ATOM      9  H   UNL A   1      38.027  23.828  25.181  1.00  0.00     0.028 H 
BRANCH   7  10
ATOM     10  C   UNL A   1      36.131  23.838  26.013  1.00  0.00     0.017 C 
ATOM     11  H   UNL A   1      36.423  24.734  26.519  1.00  0.00     0.049 H 
ATOM     12  H   UNL A   1      35.593  24.019  25.106  1.00  0.00     0.049 H 
BRANCH  10  13
ATOM     13  N   UNL A   1      35.233  23.109  26.876  1.00  0.00    -0.356 N 
ATOM     14  C   UNL A   1      34.182  22.303  26.573  1.00  0.00     0.227 C 
ATOM     15  O   UNL A   1      33.835  21.543  27.490  1.00  0.00    -0.274 OA
ATOM     16  H   UNL A   1      35.410  23.212  27.839  1.00  0.00     0.163 HD
BRANCH  14  17
ATOM     17  C   UNL A   1      33.337  22.336  25.284  1.00  0.00     0.060 C 
ATOM     18  H   UNL A   1      34.021  22.505  24.479  1.00  0.00     0.045 H 
BRANCH  17  19
ATOM     19  C   UNL A   1      32.612  20.972  25.249  1.00  0.00    -0.049 C 
ATOM     20  H   UNL A   1      32.586  20.607  24.244  1.00  0.00     0.024 H 
ATOM     21  H   UNL A   1      31.611  21.090  25.611  1.00  0.00     0.024 H 
ATOM     22  H   UNL A   1      33.134  20.274  25.869  1.00  0.00     0.024 H 
ENDBRANCH  17  19
BRANCH  17  23
ATOM     23  C   UNL A   1      32.424  23.523  24.971  1.00  0.00    -0.034 A 
ATOM     24  C   UNL A   1      31.245  23.359  24.223  1.00  0.00    -0.057 A 
ATOM     25  C   UNL A   1      32.714  24.809  25.464  1.00  0.00    -0.034 A 
ATOM     26  C   UNL A   1      30.461  24.462  23.820  1.00  0.00    -0.052 A 
ATOM     27  H   UNL A   1      30.944  22.407  23.963  1.00  0.00     0.063 H 
ATOM     28  C   UNL A   1      31.914  25.889  25.080  1.00  0.00     0.047 A 
ATOM     29  H   UNL A   1      33.512  24.954  26.103  1.00  0.00     0.065 H 
ATOM     30  C   UNL A   1      30.822  25.764  24.229  1.00  0.00     0.007 A 
ATOM     31  H   UNL A   1      29.629  24.318  23.227  1.00  0.00     0.063 H 
ATOM     32  N   UNL A   1      32.028  27.213  25.415  1.00  0.00    -0.355 N 
ATOM     33  C   UNL A   1      30.354  27.096  23.954  1.00  0.00     0.009 A 
ATOM     34  C   UNL A   1      31.153  27.976  24.686  1.00  0.00     0.047 A 
ATOM     35  H   UNL A   1      32.654  27.568  26.088  1.00  0.00     0.167 HD
ATOM     36  C   UNL A   1      29.352  27.645  23.126  1.00  0.00    -0.033 A 
ATOM     37  C   UNL A   1      31.028  29.369  24.626  1.00  0.00    -0.036 A 
ATOM     38  C   UNL A   1      29.223  29.039  23.047  1.00  0.00     0.041 A 
ATOM     39  H   UNL A   1      28.723  27.030  22.586  1.00  0.00     0.065 H 
ATOM     40  C   UNL A   1      30.050  29.888  23.778  1.00  0.00    -0.041 A 
ATOM     41  H   UNL A   1      31.634  29.987  25.188  1.00  0.00     0.065 H 
ATOM     42  Cl  UNL A   1      28.029  29.722  22.009  1.00  0.00    -0.084 Cl
ATOM     43  H   UNL A   1      29.939  30.911  23.691  1.00  0.00     0.064 H 
ENDBRANCH  17  23
ENDBRANCH  14  17
ENDBRANCH  10  13
ENDBRANCH   7  10
ENDBRANCH   4   7
ENDBRANCH   1   4
BRANCH   1  44
ATOM     44  C   UNL A   1      38.116  19.577  24.998  1.00  0.00    -0.036 C 
ATOM     45  H   UNL A   1      38.392  19.400  23.979  1.00  0.00     0.028 H 
ATOM     46  H   UNL A   1      37.750  18.712  25.511  1.00  0.00     0.028 H 
BRANCH  44  47
ATOM     47  C   UNL A   1      39.370  19.998  25.751  1.00  0.00     0.018 C 
ATOM     48  H   UNL A   1      39.089  20.294  26.741  1.00  0.00     0.049 H 
ATOM     49  H   UNL A   1      39.815  20.801  25.201  1.00  0.00     0.049 H 
BRANCH  47  50
ATOM     50  N   UNL A   1      40.364  18.945  25.851  1.00  0.00    -0.352 N 
ATOM     51  C   UNL A   1      41.715  19.045  26.100  1.00  0.00     0.251 C 
ATOM     52  H   UNL A   1      40.025  18.029  25.722  1.00  0.00     0.163 HD
ATOM     53  O   UNL A   1      42.435  18.061  26.040  1.00  0.00    -0.269 OA
BRANCH  51  54
ATOM     54  C   UNL A   1      42.299  20.369  26.415  1.00  0.00     0.039 A 
ATOM     55  C   UNL A   1      42.827  21.140  25.376  1.00  0.00    -0.049 A 
ATOM     56  C   UNL A   1      42.313  20.848  27.727  1.00  0.00    -0.049 A 
ATOM     57  C   UNL A   1      43.312  22.423  25.643  1.00  0.00    -0.053 A 
ATOM     58  H   UNL A   1      42.859  20.763  24.415  1.00  0.00     0.063 H 
ATOM     59  C   UNL A   1      42.723  22.153  27.978  1.00  0.00    -0.053 A 
ATOM     60  H   UNL A   1      42.019  20.238  28.505  1.00  0.00     0.063 H 
ATOM     61  C   UNL A   1      43.234  22.951  26.940  1.00  0.00    -0.014 A 
ATOM     62  H   UNL A   1      43.729  22.985  24.883  1.00  0.00     0.063 H 
ATOM     63  H   UNL A   1      42.652  22.537  28.933  1.00  0.00     0.063 H 
BRANCH  61  64
ATOM     64  C   UNL A   1      43.707  24.320  27.265  1.00  0.00     0.031 A 
ATOM     65  C   UNL A   1      42.726  25.339  27.768  1.00  0.00     0.074 A 
ATOM     66  C   UNL A   1      44.980  24.675  27.009  1.00  0.00     0.049 A 
ATOM     67  N   UNL A   1      42.879  26.627  27.946  1.00  0.00    -0.248 NA
ATOM     68  C   UNL A   1      41.375  24.846  28.078  1.00  0.00    -0.034 C 
ATOM     69  C   UNL A   1      46.019  23.786  26.492  1.00  0.00    -0.036 A 
ATOM     70  N   UNL A   1      45.607  25.892  27.121  1.00  0.00    -0.354 N 
ATOM     71  C   UNL A   1      41.639  27.099  28.354  1.00  0.00     0.074 A 
ATOM     72  C   UNL A   1      40.733  25.971  28.348  1.00  0.00    -0.034 C 
ATOM     73  H   UNL A   1      41.022  23.876  28.082  1.00  0.00     0.065 H 
ATOM     74  C   UNL A   1      47.155  24.485  26.332  1.00  0.00    -0.036 A 
ATOM     75  H   UNL A   1      45.900  22.782  26.285  1.00  0.00     0.065 H 
ATOM     76  C   UNL A   1      46.910  25.880  26.687  1.00  0.00     0.049 A 
ATOM     77  H   UNL A   1      45.164  26.696  27.476  1.00  0.00     0.167 HD
ATOM     78  C   UNL A   1      41.292  28.357  28.716  1.00  0.00     0.037 A 
ATOM     79  H   UNL A   1      39.720  26.035  28.532  1.00  0.00     0.065 H 
ATOM     80  H   UNL A   1      48.056  24.098  26.010  1.00  0.00     0.065 H 
ATOM     81  C   UNL A   1      47.799  26.885  26.567  1.00  0.00     0.037 A 
ATOM     82  C   UNL A   1      42.206  29.468  28.740  1.00  0.00     0.049 A 
ATOM     83  C   UNL A   1      47.392  28.279  26.964  1.00  0.00     0.074 A 
ATOM     84  C   UNL A   1      41.973  30.769  29.147  1.00  0.00    -0.036 A 
ATOM     85  N   UNL A   1      43.531  29.407  28.330  1.00  0.00    -0.354 N 
ATOM     86  N   UNL A   1      46.234  28.709  27.402  1.00  0.00    -0.248 NA
ATOM     87  C   UNL A   1      48.418  29.327  26.856  1.00  0.00    -0.034 C 
ATOM     88  C   UNL A   1      43.141  31.509  28.930  1.00  0.00    -0.036 A 
ATOM     89  H   UNL A   1      41.092  31.131  29.542  1.00  0.00     0.065 H 
ATOM     90  C   UNL A   1      44.121  30.654  28.453  1.00  0.00     0.049 A 
ATOM     91  H   UNL A   1      43.984  28.598  28.000  1.00  0.00     0.167 HD
ATOM     92  C   UNL A   1      46.398  30.063  27.658  1.00  0.00     0.074 A 
ATOM     93  C   UNL A   1      47.770  30.387  27.322  1.00  0.00    -0.034 C 
ATOM     94  H   UNL A   1      49.386  29.257  26.509  1.00  0.00     0.065 H 
ATOM     95  H   UNL A   1      43.252  32.521  29.099  1.00  0.00     0.065 H 
ATOM     96  C   UNL A   1      45.495  30.955  28.134  1.00  0.00     0.037 A 
ATOM     97  H   UNL A   1      48.190  31.323  27.433  1.00  0.00     0.065 H 
BRANCH  78  98
ATOM     98  C   UNL A   1      39.857  28.595  29.096  1.00  0.00     0.064 A 
ATOM     99  C   UNL A   1      38.913  29.067  28.171  1.00  0.00     0.173 A 
ATOM    100  C   UNL A   1      39.420  28.349  30.406  1.00  0.00     0.173 A 
ATOM    101  F   UNL A   1      39.278  29.328  26.906  1.00  0.00    -0.203 F 
ATOM    102  C   UNL A   1      37.601  29.334  28.556  1.00  0.00     0.198 A 
ATOM    103  C   UNL A   1      38.098  28.579  30.779  1.00  0.00     0.198 A 
ATOM    104  F   UNL A   1      40.276  27.887  31.331  1.00  0.00    -0.203 F 
ATOM    105  F   UNL A   1      36.739  29.857  27.673  1.00  0.00    -0.200 F 
ATOM    106  C   UNL A   1      37.193  29.086  29.857  1.00  0.00     0.200 A 
ATOM    107  F   UNL A   1      37.702  28.322  32.033  1.00  0.00    -0.200 F 
ATOM    108  F   UNL A   1      35.932  29.345  30.227  1.00  0.00    -0.200 F 
ENDBRANCH  78  98
BRANCH  81 109
ATOM    109  C   UNL A   1      49.166  26.596  26.062  1.00  0.00     0.064 A 
ATOM    110  C   UNL A   1      50.135  26.022  26.898  1.00  0.00     0.173 A 
ATOM    111  C   UNL A   1      49.524  26.854  24.731  1.00  0.00     0.173 A 
ATOM    112  F   UNL A   1      49.847  25.773  28.184  1.00  0.00    -0.203 F 
ATOM    113  C   UNL A   1      51.411  25.725  26.423  1.00  0.00     0.198 A 
ATOM    114  C   UNL A   1      50.792  26.531  24.250  1.00  0.00     0.198 A 
ATOM    115  F   UNL A   1      48.631  27.395  23.888  1.00  0.00    -0.203 F 
ATOM    116  F   UNL A   1      52.327  25.204  27.251  1.00  0.00    -0.200 F 
ATOM    117  C   UNL A   1      51.735  25.971  25.098  1.00  0.00     0.200 A 
ATOM    118  F   UNL A   1      51.094  26.754  22.965  1.00  0.00    -0.200 F 
ATOM    119  F   UNL A   1      52.957  25.671  24.637  1.00  0.00    -0.200 F 
ENDBRANCH  81 109
BRANCH  96 120
ATOM    120  C   UNL A   1      45.966  32.359  28.387  1.00  0.00     0.064 A 
ATOM    121  C   UNL A   1      45.898  33.354  27.402  1.00  0.00     0.173 A 
ATOM    122  C   UNL A   1      46.413  32.729  29.666  1.00  0.00     0.173 A 
ATOM    123  F   UNL A   1      45.491  33.050  26.161  1.00  0.00    -0.203 F 
ATOM    124  C   UNL A   1      46.271  34.666  27.685  1.00  0.00     0.198 A 
ATOM    125  C   UNL A   1      46.757  34.046  29.952  1.00  0.00     0.198 A 
ATOM    126  F   UNL A   1      46.491  31.815  30.644  1.00  0.00    -0.203 F 
ATOM    127  F   UNL A   1      46.230  35.595  26.721  1.00  0.00    -0.200 F 
ATOM    128  C   UNL A   1      46.688  35.013  28.963  1.00  0.00     0.200 A 
ATOM    129  F   UNL A   1      47.143  34.381  31.192  1.00  0.00    -0.200 F 
ATOM    130  F   UNL A   1      47.027  36.280  29.237  1.00  0.00    -0.200 F 
ENDBRANCH  96 120
ENDBRANCH  61  64
ENDBRANCH  51  54
ENDBRANCH  47  50
ENDBRANCH  44  47
ENDBRANCH   1  44
TORSDOF 15
ENDMDL
MODEL 7
REMARK VINA RESULT:     -12.0      2.618      4.762
REMARK SMILES C[C@H](C(=O)NCCCCCCNC(=O)c1ccc(-c2c3nc(c(-c4c(F)c(F)c(F)c(F)c4F)c4ccc([nH]4)c(-c4c(F)c(F)c(F)c(F)c4F)c4nc(c(-c5c(F)c(F)c(F)c(F)c5F)c5ccc2[nH]5)C=C4)C=C3)cc1)c1ccc2c(c1)[nH]c1ccc(Cl)cc12
REMARK SMILES IDX 9 1 8 4 7 7 6 10 5 13 3 14 4 15 2 17 1 19 78 23 79 24 83 25
REMARK SMILES IDX 80 26 82 28 81 30 84 32 91 33 85 34 90 36 86 37 88 38 87 40
REMARK SMILES IDX 89 42 10 44 11 47 12 50 13 51 14 53 15 54 16 55 77 56 17 57
REMARK SMILES IDX 76 59 18 61 19 64 20 65 70 66 21 67 75 68 69 69 71 70 22 71
REMARK SMILES IDX 74 72 68 74 67 76 23 78 55 81 35 82 54 83 36 84 39 85 53 86
REMARK SMILES IDX 72 87 37 88 38 90 52 92 73 93 40 96 24 98 25 99 33 100
REMARK SMILES IDX 26 101 27 102 31 103 34 104 28 105 29 106 32 107 30 108
REMARK SMILES IDX 56 109 57 110 65 111 58 112 59 113 63 114 66 115 60 116
REMARK SMILES IDX 61 117 64 118 62 119 41 120 42 121 50 122 43 123 44 124
REMARK SMILES IDX 48 125 51 126 45 127 46 128 49 129 47 130
REMARK H PARENT 9 2 9 3 8 5 8 6 7 8 7 9 6 11 6 12 5 16 2 18 1 20 1 21 1 22
REMARK H PARENT 79 27 83 29 80 31 84 35 90 39 86 41 87 43 10 45 10 46 11 48
REMARK H PARENT 11 49 12 52 16 58 77 60 17 62 76 63 75 73 69 75 71 77 74 79
REMARK H PARENT 68 80 36 89 39 91 72 94 37 95 73 97
REMARK Flexibility Score: inf
ROOT
ATOM      1  C   UNL A   1      31.586  30.494  26.739  1.00  0.00    -0.052 C 
ATOM      2  H   UNL A   1      31.439  30.214  27.762  1.00  0.00     0.027 H 
ATOM      3  H   UNL A   1      30.823  30.162  26.065  1.00  0.00     0.027 H 
ENDROOT
BRANCH   1   4
ATOM      4  C   UNL A   1      32.867  29.811  26.254  1.00  0.00    -0.052 C 
ATOM      5  H   UNL A   1      33.676  30.491  26.425  1.00  0.00     0.027 H 
ATOM      6  H   UNL A   1      32.911  28.896  26.806  1.00  0.00     0.027 H 
BRANCH   4   7
ATOM      7  C   UNL A   1      32.932  29.382  24.787  1.00  0.00    -0.036 C 
ATOM      8  H   UNL A   1      33.454  30.147  24.252  1.00  0.00     0.028 H 
ATOM      9  H   UNL A   1      33.411  28.425  24.806  1.00  0.00     0.028 H 
BRANCH   7  10
ATOM     10  C   UNL A   1      31.614  29.137  24.060  1.00  0.00     0.017 C 
ATOM     11  H   UNL A   1      30.928  28.700  24.756  1.00  0.00     0.049 H 
ATOM     12  H   UNL A   1      31.295  30.088  23.689  1.00  0.00     0.049 H 
BRANCH  10  13
ATOM     13  N   UNL A   1      31.705  28.265  22.914  1.00  0.00    -0.356 N 
ATOM     14  C   UNL A   1      31.364  26.957  22.775  1.00  0.00     0.227 C 
ATOM     15  O   UNL A   1      31.219  26.585  21.600  1.00  0.00    -0.274 OA
ATOM     16  H   UNL A   1      32.073  28.685  22.103  1.00  0.00     0.163 HD
BRANCH  14  17
ATOM     17  C   UNL A   1      31.268  25.905  23.898  1.00  0.00     0.060 C 
ATOM     18  H   UNL A   1      31.076  26.445  24.801  1.00  0.00     0.045 H 
BRANCH  17  19
ATOM     19  C   UNL A   1      30.134  24.953  23.454  1.00  0.00    -0.049 C 
ATOM     20  H   UNL A   1      29.210  25.493  23.414  1.00  0.00     0.024 H 
ATOM     21  H   UNL A   1      30.047  24.149  24.155  1.00  0.00     0.024 H 
ATOM     22  H   UNL A   1      30.358  24.557  22.485  1.00  0.00     0.024 H 
ENDBRANCH  17  19
BRANCH  17  23
ATOM     23  C   UNL A   1      32.514  25.178  24.405  1.00  0.00    -0.034 A 
ATOM     24  C   UNL A   1      33.540  25.869  25.074  1.00  0.00    -0.057 A 
ATOM     25  C   UNL A   1      32.649  23.784  24.258  1.00  0.00    -0.034 A 
ATOM     26  C   UNL A   1      34.750  25.236  25.435  1.00  0.00    -0.052 A 
ATOM     27  H   UNL A   1      33.404  26.865  25.309  1.00  0.00     0.063 H 
ATOM     28  C   UNL A   1      33.841  23.165  24.645  1.00  0.00     0.047 A 
ATOM     29  H   UNL A   1      31.876  23.225  23.868  1.00  0.00     0.065 H 
ATOM     30  C   UNL A   1      34.920  23.857  25.184  1.00  0.00     0.007 A 
ATOM     31  H   UNL A   1      35.507  25.779  25.878  1.00  0.00     0.063 H 
ATOM     32  N   UNL A   1      34.194  21.843  24.569  1.00  0.00    -0.355 N 
ATOM     33  C   UNL A   1      35.999  22.914  25.310  1.00  0.00     0.009 A 
ATOM     34  C   UNL A   1      35.518  21.674  24.885  1.00  0.00     0.047 A 
ATOM     35  H   UNL A   1      33.581  21.113  24.321  1.00  0.00     0.167 HD
ATOM     36  C   UNL A   1      37.349  22.998  25.710  1.00  0.00    -0.033 A 
ATOM     37  C   UNL A   1      36.306  20.520  24.814  1.00  0.00    -0.036 A 
ATOM     38  C   UNL A   1      38.154  21.853  25.633  1.00  0.00     0.041 A 
ATOM     39  H   UNL A   1      37.739  23.889  26.055  1.00  0.00     0.065 H 
ATOM     40  C   UNL A   1      37.645  20.635  25.187  1.00  0.00    -0.041 A 
ATOM     41  H   UNL A   1      35.912  19.619  24.500  1.00  0.00     0.065 H 
ATOM     42  Cl  UNL A   1      39.815  21.952  26.081  1.00  0.00    -0.084 Cl
ATOM     43  H   UNL A   1      38.265  19.811  25.130  1.00  0.00     0.064 H 
ENDBRANCH  17  23
ENDBRANCH  14  17
ENDBRANCH  10  13
ENDBRANCH   7  10
ENDBRANCH   4   7
ENDBRANCH   1   4
BRANCH   1  44
ATOM     44  C   UNL A   1      31.542  32.019  26.666  1.00  0.00    -0.036 C 
ATOM     45  H   UNL A   1      30.650  32.343  27.163  1.00  0.00     0.028 H 
ATOM     46  H   UNL A   1      31.576  32.258  25.623  1.00  0.00     0.028 H 
BRANCH  44  47
ATOM     47  C   UNL A   1      32.717  32.756  27.293  1.00  0.00     0.018 C 
ATOM     48  H   UNL A   1      33.522  32.774  26.587  1.00  0.00     0.049 H 
ATOM     49  H   UNL A   1      32.978  32.232  28.189  1.00  0.00     0.049 H 
BRANCH  47  50
ATOM     50  N   UNL A   1      32.406  34.123  27.670  1.00  0.00    -0.352 N 
ATOM     51  C   UNL A   1      33.003  34.919  28.621  1.00  0.00     0.251 C 
ATOM     52  H   UNL A   1      31.662  34.539  27.177  1.00  0.00     0.163 HD
ATOM     53  O   UNL A   1      32.544  36.017  28.893  1.00  0.00    -0.269 OA
BRANCH  51  54
ATOM     54  C   UNL A   1      34.199  34.421  29.338  1.00  0.00     0.039 A 
ATOM     55  C   UNL A   1      34.027  33.707  30.526  1.00  0.00    -0.049 A 
ATOM     56  C   UNL A   1      35.482  34.649  28.831  1.00  0.00    -0.049 A 
ATOM     57  C   UNL A   1      35.139  33.163  31.176  1.00  0.00    -0.053 A 
ATOM     58  H   UNL A   1      33.082  33.581  30.923  1.00  0.00     0.063 H 
ATOM     59  C   UNL A   1      36.577  34.043  29.435  1.00  0.00    -0.053 A 
ATOM     60  H   UNL A   1      35.614  35.263  28.013  1.00  0.00     0.063 H 
ATOM     61  C   UNL A   1      36.419  33.300  30.617  1.00  0.00    -0.014 A 
ATOM     62  H   UNL A   1      35.019  32.659  32.069  1.00  0.00     0.063 H 
ATOM     63  H   UNL A   1      37.513  34.139  29.012  1.00  0.00     0.063 H 
BRANCH  61  64
ATOM     64  C   UNL A   1      37.624  32.712  31.254  1.00  0.00     0.031 A 
ATOM     65  C   UNL A   1      38.329  31.568  30.583  1.00  0.00     0.074 A 
ATOM     66  C   UNL A   1      38.018  33.131  32.472  1.00  0.00     0.049 A 
ATOM     67  N   UNL A   1      39.284  30.797  31.038  1.00  0.00    -0.248 NA
ATOM     68  C   UNL A   1      37.868  31.223  29.231  1.00  0.00    -0.034 C 
ATOM     69  C   UNL A   1      37.399  34.211  33.237  1.00  0.00    -0.036 A 
ATOM     70  N   UNL A   1      39.019  32.670  33.292  1.00  0.00    -0.354 N 
ATOM     71  C   UNL A   1      39.512  29.858  30.041  1.00  0.00     0.074 A 
ATOM     72  C   UNL A   1      38.563  30.124  28.982  1.00  0.00    -0.034 C 
ATOM     73  H   UNL A   1      37.183  31.710  28.632  1.00  0.00     0.065 H 
ATOM     74  C   UNL A   1      38.032  34.333  34.415  1.00  0.00    -0.036 A 
ATOM     75  H   UNL A   1      36.604  34.789  32.922  1.00  0.00     0.065 H 
ATOM     76  C   UNL A   1      39.069  33.307  34.508  1.00  0.00     0.049 A 
ATOM     77  H   UNL A   1      39.640  31.951  33.034  1.00  0.00     0.167 HD
ATOM     78  C   UNL A   1      40.440  28.872  30.007  1.00  0.00     0.037 A 
ATOM     79  H   UNL A   1      38.444  29.535  28.143  1.00  0.00     0.065 H 
ATOM     80  H   UNL A   1      37.821  35.038  35.139  1.00  0.00     0.065 H 
ATOM     81  C   UNL A   1      39.844  33.075  35.584  1.00  0.00     0.037 A 
ATOM     82  C   UNL A   1      41.394  28.630  31.056  1.00  0.00     0.049 A 
ATOM     83  C   UNL A   1      40.864  31.968  35.532  1.00  0.00     0.074 A 
ATOM     84  C   UNL A   1      42.415  27.697  31.095  1.00  0.00    -0.036 A 
ATOM     85  N   UNL A   1      41.438  29.323  32.258  1.00  0.00    -0.354 N 
ATOM     86  N   UNL A   1      41.112  31.119  34.564  1.00  0.00    -0.248 NA
ATOM     87  C   UNL A   1      41.714  31.791  36.717  1.00  0.00    -0.034 C 
ATOM     88  C   UNL A   1      43.041  27.788  32.344  1.00  0.00    -0.036 A 
ATOM     89  H   UNL A   1      42.671  27.047  30.336  1.00  0.00     0.065 H 
ATOM     90  C   UNL A   1      42.454  28.823  33.055  1.00  0.00     0.049 A 
ATOM     91  H   UNL A   1      40.835  30.060  32.507  1.00  0.00     0.167 HD
ATOM     92  C   UNL A   1      42.168  30.333  35.005  1.00  0.00     0.074 A 
ATOM     93  C   UNL A   1      42.513  30.804  36.331  1.00  0.00    -0.034 C 
ATOM     94  H   UNL A   1      41.696  32.300  37.614  1.00  0.00     0.065 H 
ATOM     95  H   UNL A   1      43.810  27.186  32.677  1.00  0.00     0.065 H 
ATOM     96  C   UNL A   1      42.798  29.317  34.365  1.00  0.00     0.037 A 
ATOM     97  H   UNL A   1      43.283  30.422  36.902  1.00  0.00     0.065 H 
BRANCH  78  98
ATOM     98  C   UNL A   1      40.449  27.974  28.801  1.00  0.00     0.064 A 
ATOM     99  C   UNL A   1      39.736  26.765  28.770  1.00  0.00     0.173 A 
ATOM    100  C   UNL A   1      41.184  28.328  27.660  1.00  0.00     0.173 A 
ATOM    101  F   UNL A   1      39.023  26.374  29.837  1.00  0.00    -0.203 F 
ATOM    102  C   UNL A   1      39.802  25.921  27.664  1.00  0.00     0.198 A 
ATOM    103  C   UNL A   1      41.216  27.499  26.540  1.00  0.00     0.198 A 
ATOM    104  F   UNL A   1      41.877  29.476  27.628  1.00  0.00    -0.203 F 
ATOM    105  F   UNL A   1      39.173  24.737  27.690  1.00  0.00    -0.200 F 
ATOM    106  C   UNL A   1      40.537  26.290  26.549  1.00  0.00     0.200 A 
ATOM    107  F   UNL A   1      41.914  27.867  25.457  1.00  0.00    -0.200 F 
ATOM    108  F   UNL A   1      40.602  25.476  25.487  1.00  0.00    -0.200 F 
ENDBRANCH  78  98
BRANCH  81 109
ATOM    109  C   UNL A   1      39.692  33.925  36.793  1.00  0.00     0.064 A 
ATOM    110  C   UNL A   1      40.333  35.169  36.883  1.00  0.00     0.173 A 
ATOM    111  C   UNL A   1      38.880  33.531  37.866  1.00  0.00     0.173 A 
ATOM    112  F   UNL A   1      41.135  35.582  35.890  1.00  0.00    -0.203 F 
ATOM    113  C   UNL A   1      40.173  35.982  38.004  1.00  0.00     0.198 A 
ATOM    114  C   UNL A   1      38.699  34.357  38.974  1.00  0.00     0.198 A 
ATOM    115  F   UNL A   1      38.238  32.354  37.826  1.00  0.00    -0.203 F 
ATOM    116  F   UNL A   1      40.821  37.153  38.077  1.00  0.00    -0.200 F 
ATOM    117  C   UNL A   1      39.349  35.579  39.044  1.00  0.00     0.200 A 
ATOM    118  F   UNL A   1      37.888  33.972  39.968  1.00  0.00    -0.200 F 
ATOM    119  F   UNL A   1      39.184  36.368  40.114  1.00  0.00    -0.200 F 
ENDBRANCH  81 109
BRANCH  96 120
ATOM    120  C   UNL A   1      43.971  28.679  35.053  1.00  0.00     0.064 A 
ATOM    121  C   UNL A   1      43.828  27.548  35.868  1.00  0.00     0.173 A 
ATOM    122  C   UNL A   1      45.269  29.162  34.820  1.00  0.00     0.173 A 
ATOM    123  F   UNL A   1      42.609  27.055  36.133  1.00  0.00    -0.203 F 
ATOM    124  C   UNL A   1      44.941  26.930  36.434  1.00  0.00     0.198 A 
ATOM    125  C   UNL A   1      46.380  28.525  35.363  1.00  0.00     0.198 A 
ATOM    126  F   UNL A   1      45.459  30.239  34.042  1.00  0.00    -0.203 F 
ATOM    127  F   UNL A   1      44.781  25.869  37.236  1.00  0.00    -0.200 F 
ATOM    128  C   UNL A   1      46.216  27.412  36.171  1.00  0.00     0.200 A 
ATOM    129  F   UNL A   1      47.611  28.983  35.092  1.00  0.00    -0.200 F 
ATOM    130  F   UNL A   1      47.287  26.803  36.700  1.00  0.00    -0.200 F 
ENDBRANCH  96 120
ENDBRANCH  61  64
ENDBRANCH  51  54
ENDBRANCH  47  50
ENDBRANCH  44  47
ENDBRANCH   1  44
TORSDOF 15
ENDMDL
MODEL 8
REMARK VINA RESULT:     -12.0      2.731      4.946
REMARK SMILES C[C@H](C(=O)NCCCCCCNC(=O)c1ccc(-c2c3nc(c(-c4c(F)c(F)c(F)c(F)c4F)c4ccc([nH]4)c(-c4c(F)c(F)c(F)c(F)c4F)c4nc(c(-c5c(F)c(F)c(F)c(F)c5F)c5ccc2[nH]5)C=C4)C=C3)cc1)c1ccc2c(c1)[nH]c1ccc(Cl)cc12
REMARK SMILES IDX 9 1 8 4 7 7 6 10 5 13 3 14 4 15 2 17 1 19 78 23 79 24 83 25
REMARK SMILES IDX 80 26 82 28 81 30 84 32 91 33 85 34 90 36 86 37 88 38 87 40
REMARK SMILES IDX 89 42 10 44 11 47 12 50 13 51 14 53 15 54 16 55 77 56 17 57
REMARK SMILES IDX 76 59 18 61 19 64 20 65 70 66 21 67 75 68 69 69 71 70 22 71
REMARK SMILES IDX 74 72 68 74 67 76 23 78 55 81 35 82 54 83 36 84 39 85 53 86
REMARK SMILES IDX 72 87 37 88 38 90 52 92 73 93 40 96 24 98 25 99 33 100
REMARK SMILES IDX 26 101 27 102 31 103 34 104 28 105 29 106 32 107 30 108
REMARK SMILES IDX 56 109 57 110 65 111 58 112 59 113 63 114 66 115 60 116
REMARK SMILES IDX 61 117 64 118 62 119 41 120 42 121 50 122 43 123 44 124
REMARK SMILES IDX 48 125 51 126 45 127 46 128 49 129 47 130
REMARK H PARENT 9 2 9 3 8 5 8 6 7 8 7 9 6 11 6 12 5 16 2 18 1 20 1 21 1 22
REMARK H PARENT 79 27 83 29 80 31 84 35 90 39 86 41 87 43 10 45 10 46 11 48
REMARK H PARENT 11 49 12 52 16 58 77 60 17 62 76 63 75 73 69 75 71 77 74 79
REMARK H PARENT 68 80 36 89 39 91 72 94 37 95 73 97
REMARK Flexibility Score: inf
ROOT
ATOM      1  C   UNL A   1      31.700  30.531  26.646  1.00  0.00    -0.052 C 
ATOM      2  H   UNL A   1      31.916  30.221  27.648  1.00  0.00     0.027 H 
ATOM      3  H   UNL A   1      30.752  30.207  26.269  1.00  0.00     0.027 H 
ENDROOT
BRANCH   1   4
ATOM      4  C   UNL A   1      32.736  29.881  25.728  1.00  0.00    -0.052 C 
ATOM      5  H   UNL A   1      32.203  29.398  24.935  1.00  0.00     0.027 H 
ATOM      6  H   UNL A   1      33.376  30.685  25.430  1.00  0.00     0.027 H 
BRANCH   4   7
ATOM      7  C   UNL A   1      33.679  28.843  26.342  1.00  0.00    -0.036 C 
ATOM      8  H   UNL A   1      34.674  29.101  26.046  1.00  0.00     0.028 H 
ATOM      9  H   UNL A   1      33.484  28.889  27.393  1.00  0.00     0.028 H 
BRANCH   7  10
ATOM     10  C   UNL A   1      33.459  27.380  25.974  1.00  0.00     0.017 C 
ATOM     11  H   UNL A   1      33.990  26.777  26.681  1.00  0.00     0.049 H 
ATOM     12  H   UNL A   1      32.401  27.222  25.991  1.00  0.00     0.049 H 
BRANCH  10  13
ATOM     13  N   UNL A   1      33.903  27.013  24.652  1.00  0.00    -0.356 N 
ATOM     14  C   UNL A   1      33.250  26.359  23.655  1.00  0.00     0.227 C 
ATOM     15  O   UNL A   1      33.750  26.506  22.529  1.00  0.00    -0.274 OA
ATOM     16  H   UNL A   1      34.826  27.278  24.436  1.00  0.00     0.163 HD
BRANCH  14  17
ATOM     17  C   UNL A   1      32.064  25.387  23.813  1.00  0.00     0.060 C 
ATOM     18  H   UNL A   1      31.640  25.583  24.775  1.00  0.00     0.045 H 
BRANCH  17  19
ATOM     19  C   UNL A   1      31.136  25.696  22.617  1.00  0.00    -0.049 C 
ATOM     20  H   UNL A   1      30.236  26.155  22.972  1.00  0.00     0.024 H 
ATOM     21  H   UNL A   1      30.894  24.787  22.107  1.00  0.00     0.024 H 
ATOM     22  H   UNL A   1      31.632  26.361  21.941  1.00  0.00     0.024 H 
ENDBRANCH  17  19
BRANCH  17  23
ATOM     23  C   UNL A   1      32.294  23.892  24.038  1.00  0.00    -0.034 A 
ATOM     24  C   UNL A   1      32.925  23.419  25.203  1.00  0.00    -0.057 A 
ATOM     25  C   UNL A   1      31.838  22.941  23.107  1.00  0.00    -0.034 A 
ATOM     26  C   UNL A   1      33.258  22.056  25.366  1.00  0.00    -0.052 A 
ATOM     27  H   UNL A   1      33.150  24.086  25.958  1.00  0.00     0.063 H 
ATOM     28  C   UNL A   1      32.150  21.591  23.295  1.00  0.00     0.047 A 
ATOM     29  H   UNL A   1      31.280  23.237  22.291  1.00  0.00     0.065 H 
ATOM     30  C   UNL A   1      32.892  21.123  24.373  1.00  0.00     0.007 A 
ATOM     31  H   UNL A   1      33.767  21.745  26.208  1.00  0.00     0.063 H 
ATOM     32  N   UNL A   1      31.835  20.512  22.510  1.00  0.00    -0.355 N 
ATOM     33  C   UNL A   1      33.128  19.723  24.140  1.00  0.00     0.009 A 
ATOM     34  C   UNL A   1      32.481  19.386  22.949  1.00  0.00     0.047 A 
ATOM     35  H   UNL A   1      31.227  20.542  21.735  1.00  0.00     0.167 HD
ATOM     36  C   UNL A   1      33.860  18.716  24.803  1.00  0.00    -0.033 A 
ATOM     37  C   UNL A   1      32.536  18.113  22.371  1.00  0.00    -0.036 A 
ATOM     38  C   UNL A   1      33.934  17.439  24.229  1.00  0.00     0.041 A 
ATOM     39  H   UNL A   1      34.333  18.915  25.699  1.00  0.00     0.065 H 
ATOM     40  C   UNL A   1      33.290  17.142  23.031  1.00  0.00    -0.041 A 
ATOM     41  H   UNL A   1      32.038  17.900  21.492  1.00  0.00     0.065 H 
ATOM     42  Cl  UNL A   1      34.856  16.211  25.011  1.00  0.00    -0.084 Cl
ATOM     43  H   UNL A   1      33.372  16.195  22.626  1.00  0.00     0.064 H 
ENDBRANCH  17  23
ENDBRANCH  14  17
ENDBRANCH  10  13
ENDBRANCH   7  10
ENDBRANCH   4   7
ENDBRANCH   1   4
BRANCH   1  44
ATOM     44  C   UNL A   1      31.627  32.057  26.641  1.00  0.00    -0.036 C 
ATOM     45  H   UNL A   1      30.721  32.342  27.136  1.00  0.00     0.028 H 
ATOM     46  H   UNL A   1      31.674  32.343  25.610  1.00  0.00     0.028 H 
BRANCH  44  47
ATOM     47  C   UNL A   1      32.777  32.787  27.320  1.00  0.00     0.018 C 
ATOM     48  H   UNL A   1      33.610  32.807  26.648  1.00  0.00     0.049 H 
ATOM     49  H   UNL A   1      32.999  32.257  28.223  1.00  0.00     0.049 H 
BRANCH  47  50
ATOM     50  N   UNL A   1      32.454  34.152  27.693  1.00  0.00    -0.352 N 
ATOM     51  C   UNL A   1      33.038  34.953  28.648  1.00  0.00     0.251 C 
ATOM     52  H   UNL A   1      31.713  34.563  27.192  1.00  0.00     0.163 HD
ATOM     53  O   UNL A   1      32.570  36.049  28.915  1.00  0.00    -0.269 OA
BRANCH  51  54
ATOM     54  C   UNL A   1      34.230  34.463  29.376  1.00  0.00     0.039 A 
ATOM     55  C   UNL A   1      34.057  33.833  30.611  1.00  0.00    -0.049 A 
ATOM     56  C   UNL A   1      35.510  34.617  28.836  1.00  0.00    -0.049 A 
ATOM     57  C   UNL A   1      35.163  33.296  31.277  1.00  0.00    -0.053 A 
ATOM     58  H   UNL A   1      33.116  33.764  31.031  1.00  0.00     0.063 H 
ATOM     59  C   UNL A   1      36.596  34.015  29.460  1.00  0.00    -0.053 A 
ATOM     60  H   UNL A   1      35.646  35.172  27.978  1.00  0.00     0.063 H 
ATOM     61  C   UNL A   1      36.436  33.355  30.690  1.00  0.00    -0.014 A 
ATOM     62  H   UNL A   1      35.043  32.855  32.203  1.00  0.00     0.063 H 
ATOM     63  H   UNL A   1      37.527  34.053  29.017  1.00  0.00     0.063 H 
BRANCH  61  64
ATOM     64  C   UNL A   1      37.634  32.770  31.344  1.00  0.00     0.031 A 
ATOM     65  C   UNL A   1      38.358  31.636  30.678  1.00  0.00     0.074 A 
ATOM     66  C   UNL A   1      38.003  33.182  32.572  1.00  0.00     0.049 A 
ATOM     67  N   UNL A   1      39.309  30.867  31.144  1.00  0.00    -0.248 NA
ATOM     68  C   UNL A   1      37.923  31.298  29.315  1.00  0.00    -0.034 C 
ATOM     69  C   UNL A   1      37.363  34.253  33.333  1.00  0.00    -0.036 A 
ATOM     70  N   UNL A   1      38.992  32.722  33.407  1.00  0.00    -0.354 N 
ATOM     71  C   UNL A   1      39.561  29.937  30.145  1.00  0.00     0.074 A 
ATOM     72  C   UNL A   1      38.630  30.205  29.071  1.00  0.00    -0.034 C 
ATOM     73  H   UNL A   1      37.246  31.784  28.707  1.00  0.00     0.065 H 
ATOM     74  C   UNL A   1      37.974  34.370  34.524  1.00  0.00    -0.036 A 
ATOM     75  H   UNL A   1      36.571  34.828  33.009  1.00  0.00     0.065 H 
ATOM     76  C   UNL A   1      39.015  33.350  34.628  1.00  0.00     0.049 A 
ATOM     77  H   UNL A   1      39.622  32.009  33.155  1.00  0.00     0.167 HD
ATOM     78  C   UNL A   1      40.496  28.957  30.120  1.00  0.00     0.037 A 
ATOM     79  H   UNL A   1      38.529  29.622  28.226  1.00  0.00     0.065 H 
ATOM     80  H   UNL A   1      37.746  35.068  35.249  1.00  0.00     0.065 H 
ATOM     81  C   UNL A   1      39.773  33.116  35.716  1.00  0.00     0.037 A 
ATOM     82  C   UNL A   1      41.433  28.713  31.185  1.00  0.00     0.049 A 
ATOM     83  C   UNL A   1      40.801  32.015  35.674  1.00  0.00     0.074 A 
ATOM     84  C   UNL A   1      42.459  27.787  31.236  1.00  0.00    -0.036 A 
ATOM     85  N   UNL A   1      41.450  29.398  32.392  1.00  0.00    -0.354 N 
ATOM     86  N   UNL A   1      41.072  31.175  34.706  1.00  0.00    -0.248 NA
ATOM     87  C   UNL A   1      41.631  31.835  36.874  1.00  0.00    -0.034 C 
ATOM     88  C   UNL A   1      43.062  27.873  32.496  1.00  0.00    -0.036 A 
ATOM     89  H   UNL A   1      42.733  27.144  30.477  1.00  0.00     0.065 H 
ATOM     90  C   UNL A   1      42.456  28.899  33.204  1.00  0.00     0.049 A 
ATOM     91  H   UNL A   1      40.839  30.130  32.635  1.00  0.00     0.167 HD
ATOM     92  C   UNL A   1      42.124  30.392  35.159  1.00  0.00     0.074 A 
ATOM     93  C   UNL A   1      42.443  30.856  36.494  1.00  0.00    -0.034 C 
ATOM     94  H   UNL A   1      41.593  32.337  37.774  1.00  0.00     0.065 H 
ATOM     95  H   UNL A   1      43.828  27.273  32.839  1.00  0.00     0.065 H 
ATOM     96  C   UNL A   1      42.773  29.386  34.524  1.00  0.00     0.037 A 
ATOM     97  H   UNL A   1      43.205  30.475  37.077  1.00  0.00     0.065 H 
BRANCH  78  98
ATOM     98  C   UNL A   1      40.533  28.069  28.908  1.00  0.00     0.064 A 
ATOM     99  C   UNL A   1      41.285  28.398  27.769  1.00  0.00     0.173 A 
ATOM    100  C   UNL A   1      39.802  26.871  28.884  1.00  0.00     0.173 A 
ATOM    101  F   UNL A   1      41.995  29.535  27.734  1.00  0.00    -0.203 F 
ATOM    102  C   UNL A   1      41.261  27.589  26.635  1.00  0.00     0.198 A 
ATOM    103  C   UNL A   1      39.812  26.045  27.763  1.00  0.00     0.198 A 
ATOM    104  F   UNL A   1      39.073  26.500  29.947  1.00  0.00    -0.203 F 
ATOM    105  F   UNL A   1      41.927  27.965  25.534  1.00  0.00    -0.200 F 
ATOM    106  C   UNL A   1      40.530  26.413  26.634  1.00  0.00     0.200 A 
ATOM    107  F   UNL A   1      39.117  24.899  27.770  1.00  0.00    -0.200 F 
ATOM    108  F   UNL A   1      40.506  25.637  25.541  1.00  0.00    -0.200 F 
ENDBRANCH  78  98
BRANCH  81 109
ATOM    109  C   UNL A   1      39.594  33.956  36.928  1.00  0.00     0.064 A 
ATOM    110  C   UNL A   1      40.198  35.217  37.025  1.00  0.00     0.173 A 
ATOM    111  C   UNL A   1      38.791  33.533  37.998  1.00  0.00     0.173 A 
ATOM    112  F   UNL A   1      40.990  35.658  36.036  1.00  0.00    -0.203 F 
ATOM    113  C   UNL A   1      40.012  36.020  38.149  1.00  0.00     0.198 A 
ATOM    114  C   UNL A   1      38.584  34.349  39.109  1.00  0.00     0.198 A 
ATOM    115  F   UNL A   1      38.183  32.338  37.951  1.00  0.00    -0.203 F 
ATOM    116  F   UNL A   1      40.626  37.209  38.229  1.00  0.00    -0.200 F 
ATOM    117  C   UNL A   1      39.198  35.589  39.185  1.00  0.00     0.200 A 
ATOM    118  F   UNL A   1      37.782  33.937  40.099  1.00  0.00    -0.200 F 
ATOM    119  F   UNL A   1      39.007  36.369  40.259  1.00  0.00    -0.200 F 
ENDBRANCH  81 109
BRANCH  96 120
ATOM    120  C   UNL A   1      43.937  28.749  35.228  1.00  0.00     0.064 A 
ATOM    121  C   UNL A   1      43.785  27.619  36.042  1.00  0.00     0.173 A 
ATOM    122  C   UNL A   1      45.237  29.234  35.011  1.00  0.00     0.173 A 
ATOM    123  F   UNL A   1      42.563  27.125  36.292  1.00  0.00    -0.203 F 
ATOM    124  C   UNL A   1      44.891  27.004  36.624  1.00  0.00     0.198 A 
ATOM    125  C   UNL A   1      46.342  28.599  35.570  1.00  0.00     0.198 A 
ATOM    126  F   UNL A   1      45.437  30.310  34.235  1.00  0.00    -0.203 F 
ATOM    127  F   UNL A   1      44.721  25.944  37.426  1.00  0.00    -0.200 F 
ATOM    128  C   UNL A   1      46.169  27.487  36.377  1.00  0.00     0.200 A 
ATOM    129  F   UNL A   1      47.576  29.058  35.315  1.00  0.00    -0.200 F 
ATOM    130  F   UNL A   1      47.233  26.880  36.922  1.00  0.00    -0.200 F 
ENDBRANCH  96 120
ENDBRANCH  61  64
ENDBRANCH  51  54
ENDBRANCH  47  50
ENDBRANCH  44  47
ENDBRANCH   1  44
TORSDOF 15
ENDMDL
MODEL 9
REMARK VINA RESULT:     -12.0      4.668      9.726
REMARK SMILES C[C@H](C(=O)NCCCCCCNC(=O)c1ccc(-c2c3nc(c(-c4c(F)c(F)c(F)c(F)c4F)c4ccc([nH]4)c(-c4c(F)c(F)c(F)c(F)c4F)c4nc(c(-c5c(F)c(F)c(F)c(F)c5F)c5ccc2[nH]5)C=C4)C=C3)cc1)c1ccc2c(c1)[nH]c1ccc(Cl)cc12
REMARK SMILES IDX 9 1 8 4 7 7 6 10 5 13 3 14 4 15 2 17 1 19 78 23 79 24 83 25
REMARK SMILES IDX 80 26 82 28 81 30 84 32 91 33 85 34 90 36 86 37 88 38 87 40
REMARK SMILES IDX 89 42 10 44 11 47 12 50 13 51 14 53 15 54 16 55 77 56 17 57
REMARK SMILES IDX 76 59 18 61 19 64 20 65 70 66 21 67 75 68 69 69 71 70 22 71
REMARK SMILES IDX 74 72 68 74 67 76 23 78 55 81 35 82 54 83 36 84 39 85 53 86
REMARK SMILES IDX 72 87 37 88 38 90 52 92 73 93 40 96 24 98 25 99 33 100
REMARK SMILES IDX 26 101 27 102 31 103 34 104 28 105 29 106 32 107 30 108
REMARK SMILES IDX 56 109 57 110 65 111 58 112 59 113 63 114 66 115 60 116
REMARK SMILES IDX 61 117 64 118 62 119 41 120 42 121 50 122 43 123 44 124
REMARK SMILES IDX 48 125 51 126 45 127 46 128 49 129 47 130
REMARK H PARENT 9 2 9 3 8 5 8 6 7 8 7 9 6 11 6 12 5 16 2 18 1 20 1 21 1 22
REMARK H PARENT 79 27 83 29 80 31 84 35 90 39 86 41 87 43 10 45 10 46 11 48
REMARK H PARENT 11 49 12 52 16 58 77 60 17 62 76 63 75 73 69 75 71 77 74 79
REMARK H PARENT 68 80 36 89 39 91 72 94 37 95 73 97
REMARK Flexibility Score: inf
ROOT
ATOM      1  C   UNL A   1      37.310  20.660  24.630  1.00  0.00    -0.052 C 
ATOM      2  H   UNL A   1      37.707  21.531  25.112  1.00  0.00     0.027 H 
ATOM      3  H   UNL A   1      37.279  20.711  23.561  1.00  0.00     0.027 H 
ENDROOT
BRANCH   1   4
ATOM      4  C   UNL A   1      35.850  20.519  25.062  1.00  0.00    -0.052 C 
ATOM      5  H   UNL A   1      35.783  20.848  26.078  1.00  0.00     0.027 H 
ATOM      6  H   UNL A   1      35.300  21.102  24.353  1.00  0.00     0.027 H 
BRANCH   4   7
ATOM      7  C   UNL A   1      35.218  19.127  24.990  1.00  0.00    -0.036 C 
ATOM      8  H   UNL A   1      35.791  18.551  24.294  1.00  0.00     0.028 H 
ATOM      9  H   UNL A   1      35.228  18.773  26.000  1.00  0.00     0.028 H 
BRANCH   7  10
ATOM     10  C   UNL A   1      33.757  19.032  24.564  1.00  0.00     0.017 C 
ATOM     11  H   UNL A   1      33.698  19.272  23.524  1.00  0.00     0.049 H 
ATOM     12  H   UNL A   1      33.444  18.034  24.788  1.00  0.00     0.049 H 
BRANCH  10  13
ATOM     13  N   UNL A   1      32.859  19.907  25.277  1.00  0.00    -0.356 N 
ATOM     14  C   UNL A   1      32.347  21.116  24.927  1.00  0.00     0.227 C 
ATOM     15  O   UNL A   1      31.339  21.454  25.567  1.00  0.00    -0.274 OA
ATOM     16  H   UNL A   1      32.570  19.576  26.159  1.00  0.00     0.163 HD
BRANCH  14  17
ATOM     17  C   UNL A   1      32.956  22.122  23.929  1.00  0.00     0.060 C 
ATOM     18  H   UNL A   1      33.997  21.885  23.861  1.00  0.00     0.045 H 
BRANCH  17  19
ATOM     19  C   UNL A   1      32.154  21.922  22.624  1.00  0.00    -0.049 C 
ATOM     20  H   UNL A   1      32.780  22.141  21.784  1.00  0.00     0.024 H 
ATOM     21  H   UNL A   1      31.309  22.579  22.620  1.00  0.00     0.024 H 
ATOM     22  H   UNL A   1      31.817  20.909  22.563  1.00  0.00     0.024 H 
ENDBRANCH  17  19
BRANCH  17  23
ATOM     23  C   UNL A   1      33.150  23.590  24.311  1.00  0.00    -0.034 A 
ATOM     24  C   UNL A   1      34.268  24.009  25.054  1.00  0.00    -0.057 A 
ATOM     25  C   UNL A   1      32.237  24.575  23.887  1.00  0.00    -0.034 A 
ATOM     26  C   UNL A   1      34.395  25.336  25.521  1.00  0.00    -0.052 A 
ATOM     27  H   UNL A   1      35.015  23.329  25.264  1.00  0.00     0.063 H 
ATOM     28  C   UNL A   1      32.390  25.890  24.334  1.00  0.00     0.047 A 
ATOM     29  H   UNL A   1      31.462  24.327  23.254  1.00  0.00     0.065 H 
ATOM     30  C   UNL A   1      33.415  26.294  25.181  1.00  0.00     0.007 A 
ATOM     31  H   UNL A   1      35.199  25.604  26.109  1.00  0.00     0.063 H 
ATOM     32  N   UNL A   1      31.614  26.989  24.071  1.00  0.00    -0.355 N 
ATOM     33  C   UNL A   1      33.151  27.664  25.531  1.00  0.00     0.009 A 
ATOM     34  C   UNL A   1      31.999  28.054  24.844  1.00  0.00     0.047 A 
ATOM     35  H   UNL A   1      30.879  27.012  23.415  1.00  0.00     0.167 HD
ATOM     36  C   UNL A   1      33.756  28.603  26.393  1.00  0.00    -0.033 A 
ATOM     37  C   UNL A   1      31.404  29.313  24.980  1.00  0.00    -0.036 A 
ATOM     38  C   UNL A   1      33.164  29.865  26.548  1.00  0.00     0.041 A 
ATOM     39  H   UNL A   1      34.623  28.366  26.901  1.00  0.00     0.065 H 
ATOM     40  C   UNL A   1      32.005  30.213  25.860  1.00  0.00    -0.041 A 
ATOM     41  H   UNL A   1      30.556  29.565  24.450  1.00  0.00     0.065 H 
ATOM     42  Cl  UNL A   1      33.873  31.006  27.627  1.00  0.00    -0.084 Cl
ATOM     43  H   UNL A   1      31.585  31.146  26.004  1.00  0.00     0.064 H 
ENDBRANCH  17  23
ENDBRANCH  14  17
ENDBRANCH  10  13
ENDBRANCH   7  10
ENDBRANCH   4   7
ENDBRANCH   1   4
BRANCH   1  44
ATOM     44  C   UNL A   1      38.244  19.493  24.944  1.00  0.00    -0.036 C 
ATOM     45  H   UNL A   1      38.757  19.234  24.041  1.00  0.00     0.028 H 
ATOM     46  H   UNL A   1      37.615  18.719  25.330  1.00  0.00     0.028 H 
BRANCH  44  47
ATOM     47  C   UNL A   1      39.292  19.742  26.019  1.00  0.00     0.018 C 
ATOM     48  H   UNL A   1      38.842  19.579  26.976  1.00  0.00     0.049 H 
ATOM     49  H   UNL A   1      39.635  20.750  25.900  1.00  0.00     0.049 H 
BRANCH  47  50
ATOM     50  N   UNL A   1      40.454  18.879  25.903  1.00  0.00    -0.352 N 
ATOM     51  C   UNL A   1      41.789  19.203  25.984  1.00  0.00     0.251 C 
ATOM     52  H   UNL A   1      40.259  17.927  25.744  1.00  0.00     0.163 HD
ATOM     53  O   UNL A   1      42.650  18.369  25.752  1.00  0.00    -0.269 OA
BRANCH  51  54
ATOM     54  C   UNL A   1      42.180  20.589  26.331  1.00  0.00     0.039 A 
ATOM     55  C   UNL A   1      42.337  20.932  27.676  1.00  0.00    -0.049 A 
ATOM     56  C   UNL A   1      42.402  21.539  25.330  1.00  0.00    -0.049 A 
ATOM     57  C   UNL A   1      42.779  22.213  28.018  1.00  0.00    -0.053 A 
ATOM     58  H   UNL A   1      42.126  20.242  28.415  1.00  0.00     0.063 H 
ATOM     59  C   UNL A   1      42.916  22.786  25.667  1.00  0.00    -0.053 A 
ATOM     60  H   UNL A   1      42.186  21.315  24.346  1.00  0.00     0.063 H 
ATOM     61  C   UNL A   1      43.103  23.139  27.014  1.00  0.00    -0.014 A 
ATOM     62  H   UNL A   1      42.869  22.480  29.011  1.00  0.00     0.063 H 
ATOM     63  H   UNL A   1      43.161  23.456  24.923  1.00  0.00     0.063 H 
BRANCH  61  64
ATOM     64  C   UNL A   1      43.608  24.499  27.329  1.00  0.00     0.031 A 
ATOM     65  C   UNL A   1      42.651  25.544  27.827  1.00  0.00     0.074 A 
ATOM     66  C   UNL A   1      44.888  24.823  27.067  1.00  0.00     0.049 A 
ATOM     67  N   UNL A   1      42.835  26.828  27.996  1.00  0.00    -0.248 NA
ATOM     68  C   UNL A   1      41.291  25.083  28.142  1.00  0.00    -0.034 C 
ATOM     69  C   UNL A   1      45.905  23.906  26.555  1.00  0.00    -0.036 A 
ATOM     70  N   UNL A   1      45.542  26.026  27.170  1.00  0.00    -0.354 N 
ATOM     71  C   UNL A   1      41.607  27.331  28.403  1.00  0.00     0.074 A 
ATOM     72  C   UNL A   1      40.675  26.224  28.407  1.00  0.00    -0.034 C 
ATOM     73  H   UNL A   1      40.915  24.122  28.154  1.00  0.00     0.065 H 
ATOM     74  C   UNL A   1      47.056  24.578  26.388  1.00  0.00    -0.036 A 
ATOM     75  H   UNL A   1      45.763  22.904  26.355  1.00  0.00     0.065 H 
ATOM     76  C   UNL A   1      46.844  25.981  26.734  1.00  0.00     0.049 A 
ATOM     77  H   UNL A   1      45.119  26.842  27.521  1.00  0.00     0.167 HD
ATOM     78  C   UNL A   1      41.289  28.600  28.757  1.00  0.00     0.037 A 
ATOM     79  H   UNL A   1      39.664  26.313  28.593  1.00  0.00     0.065 H 
ATOM     80  H   UNL A   1      47.948  24.169  26.067  1.00  0.00     0.065 H 
ATOM     81  C   UNL A   1      47.756  26.964  26.605  1.00  0.00     0.037 A 
ATOM     82  C   UNL A   1      42.229  29.689  28.772  1.00  0.00     0.049 A 
ATOM     83  C   UNL A   1      47.382  28.371  26.994  1.00  0.00     0.074 A 
ATOM     84  C   UNL A   1      42.026  30.998  29.171  1.00  0.00    -0.036 A 
ATOM     85  N   UNL A   1      43.550  29.596  28.359  1.00  0.00    -0.354 N 
ATOM     86  N   UNL A   1      46.235  28.829  27.431  1.00  0.00    -0.248 NA
ATOM     87  C   UNL A   1      48.431  29.394  26.876  1.00  0.00    -0.034 C 
ATOM     88  C   UNL A   1      43.210  31.710  28.947  1.00  0.00    -0.036 A 
ATOM     89  H   UNL A   1      41.154  31.383  29.565  1.00  0.00     0.065 H 
ATOM     90  C   UNL A   1      44.170  30.830  28.473  1.00  0.00     0.049 A 
ATOM     91  H   UNL A   1      43.984  28.774  28.034  1.00  0.00     0.167 HD
ATOM     92  C   UNL A   1      46.430  30.181  27.677  1.00  0.00     0.074 A 
ATOM     93  C   UNL A   1      47.808  30.471  27.337  1.00  0.00    -0.034 C 
ATOM     94  H   UNL A   1      49.397  29.299  26.528  1.00  0.00     0.065 H 
ATOM     95  H   UNL A   1      43.344  32.720  29.108  1.00  0.00     0.065 H 
ATOM     96  C   UNL A   1      45.549  31.097  28.149  1.00  0.00     0.037 A 
ATOM     97  H   UNL A   1      48.250  31.398  27.440  1.00  0.00     0.065 H 
BRANCH  78  98
ATOM     98  C   UNL A   1      39.861  28.873  29.138  1.00  0.00     0.064 A 
ATOM     99  C   UNL A   1      39.416  28.779  30.467  1.00  0.00     0.173 A 
ATOM    100  C   UNL A   1      38.921  29.230  28.160  1.00  0.00     0.173 A 
ATOM    101  F   UNL A   1      40.270  28.433  31.442  1.00  0.00    -0.203 F 
ATOM    102  C   UNL A   1      38.077  28.982  30.792  1.00  0.00     0.198 A 
ATOM    103  C   UNL A   1      37.590  29.470  28.494  1.00  0.00     0.198 A 
ATOM    104  F   UNL A   1      39.290  29.344  26.875  1.00  0.00    -0.203 F 
ATOM    105  F   UNL A   1      37.664  28.812  32.056  1.00  0.00    -0.200 F 
ATOM    106  C   UNL A   1      37.167  29.331  29.808  1.00  0.00     0.200 A 
ATOM    107  F   UNL A   1      36.715  29.824  27.543  1.00  0.00    -0.200 F 
ATOM    108  F   UNL A   1      35.878  29.523  30.121  1.00  0.00    -0.200 F 
ENDBRANCH  78  98
BRANCH  81 109
ATOM    109  C   UNL A   1      49.115  26.641  26.100  1.00  0.00     0.064 A 
ATOM    110  C   UNL A   1      50.076  26.061  26.940  1.00  0.00     0.173 A 
ATOM    111  C   UNL A   1      49.472  26.871  24.763  1.00  0.00     0.173 A 
ATOM    112  F   UNL A   1      49.788  25.838  28.232  1.00  0.00    -0.203 F 
ATOM    113  C   UNL A   1      51.344  25.732  26.465  1.00  0.00     0.198 A 
ATOM    114  C   UNL A   1      50.731  26.516  24.283  1.00  0.00     0.198 A 
ATOM    115  F   UNL A   1      48.586  27.416  23.915  1.00  0.00    -0.203 F 
ATOM    116  F   UNL A   1      52.253  25.206  27.298  1.00  0.00    -0.200 F 
ATOM    117  C   UNL A   1      51.667  25.951  25.135  1.00  0.00     0.200 A 
ATOM    118  F   UNL A   1      51.032  26.713  22.992  1.00  0.00    -0.200 F 
ATOM    119  F   UNL A   1      52.881  25.620  24.674  1.00  0.00    -0.200 F 
ENDBRANCH  81 109
BRANCH  96 120
ATOM    120  C   UNL A   1      46.052  32.491  28.391  1.00  0.00     0.064 A 
ATOM    121  C   UNL A   1      45.965  33.493  27.415  1.00  0.00     0.173 A 
ATOM    122  C   UNL A   1      46.552  32.846  29.655  1.00  0.00     0.173 A 
ATOM    123  F   UNL A   1      45.508  33.203  26.188  1.00  0.00    -0.203 F 
ATOM    124  C   UNL A   1      46.371  34.796  27.691  1.00  0.00     0.198 A 
ATOM    125  C   UNL A   1      46.928  34.156  29.935  1.00  0.00     0.198 A 
ATOM    126  F   UNL A   1      46.650  31.926  30.626  1.00  0.00    -0.203 F 
ATOM    127  F   UNL A   1      46.309  35.732  26.733  1.00  0.00    -0.200 F 
ATOM    128  C   UNL A   1      46.840  35.129  28.953  1.00  0.00     0.200 A 
ATOM    129  F   UNL A   1      47.365  34.478  31.162  1.00  0.00    -0.200 F 
ATOM    130  F   UNL A   1      47.210  36.389  29.222  1.00  0.00    -0.200 F 
ENDBRANCH  96 120
ENDBRANCH  61  64
ENDBRANCH  51  54
ENDBRANCH  47  50
ENDBRANCH  44  47
ENDBRANCH   1  44
TORSDOF 15
ENDMDL
MODEL 10
REMARK VINA RESULT:     -11.9      4.309      9.477
REMARK SMILES C[C@H](C(=O)NCCCCCCNC(=O)c1ccc(-c2c3nc(c(-c4c(F)c(F)c(F)c(F)c4F)c4ccc([nH]4)c(-c4c(F)c(F)c(F)c(F)c4F)c4nc(c(-c5c(F)c(F)c(F)c(F)c5F)c5ccc2[nH]5)C=C4)C=C3)cc1)c1ccc2c(c1)[nH]c1ccc(Cl)cc12
REMARK SMILES IDX 9 1 8 4 7 7 6 10 5 13 3 14 4 15 2 17 1 19 78 23 79 24 83 25
REMARK SMILES IDX 80 26 82 28 81 30 84 32 91 33 85 34 90 36 86 37 88 38 87 40
REMARK SMILES IDX 89 42 10 44 11 47 12 50 13 51 14 53 15 54 16 55 77 56 17 57
REMARK SMILES IDX 76 59 18 61 19 64 20 65 70 66 21 67 75 68 69 69 71 70 22 71
REMARK SMILES IDX 74 72 68 74 67 76 23 78 55 81 35 82 54 83 36 84 39 85 53 86
REMARK SMILES IDX 72 87 37 88 38 90 52 92 73 93 40 96 24 98 25 99 33 100
REMARK SMILES IDX 26 101 27 102 31 103 34 104 28 105 29 106 32 107 30 108
REMARK SMILES IDX 56 109 57 110 65 111 58 112 59 113 63 114 66 115 60 116
REMARK SMILES IDX 61 117 64 118 62 119 41 120 42 121 50 122 43 123 44 124
REMARK SMILES IDX 48 125 51 126 45 127 46 128 49 129 47 130
REMARK H PARENT 9 2 9 3 8 5 8 6 7 8 7 9 6 11 6 12 5 16 2 18 1 20 1 21 1 22
REMARK H PARENT 79 27 83 29 80 31 84 35 90 39 86 41 87 43 10 45 10 46 11 48
REMARK H PARENT 11 49 12 52 16 58 77 60 17 62 76 63 75 73 69 75 71 77 74 79
REMARK H PARENT 68 80 36 89 39 91 72 94 37 95 73 97
REMARK Flexibility Score: inf
ROOT
ATOM      1  C   UNL A   1      35.220  23.826  23.939  1.00  0.00    -0.052 C 
ATOM      2  H   UNL A   1      36.093  24.238  23.476  1.00  0.00     0.027 H 
ATOM      3  H   UNL A   1      34.416  23.601  23.268  1.00  0.00     0.027 H 
ENDROOT
BRANCH   1   4
ATOM      4  C   UNL A   1      34.658  24.886  24.889  1.00  0.00    -0.052 C 
ATOM      5  H   UNL A   1      33.893  24.419  25.473  1.00  0.00     0.027 H 
ATOM      6  H   UNL A   1      35.508  25.235  25.437  1.00  0.00     0.027 H 
BRANCH   4   7
ATOM      7  C   UNL A   1      34.054  26.148  24.268  1.00  0.00    -0.036 C 
ATOM      8  H   UNL A   1      34.864  26.746  23.906  1.00  0.00     0.028 H 
ATOM      9  H   UNL A   1      33.379  25.786  23.522  1.00  0.00     0.028 H 
BRANCH   7  10
ATOM     10  C   UNL A   1      33.197  27.037  25.162  1.00  0.00     0.017 C 
ATOM     11  H   UNL A   1      32.735  26.417  25.902  1.00  0.00     0.049 H 
ATOM     12  H   UNL A   1      33.856  27.772  25.575  1.00  0.00     0.049 H 
BRANCH  10  13
ATOM     13  N   UNL A   1      32.158  27.766  24.477  1.00  0.00    -0.356 N 
ATOM     14  C   UNL A   1      30.813  27.569  24.455  1.00  0.00     0.227 C 
ATOM     15  O   UNL A   1      30.155  28.552  24.081  1.00  0.00    -0.274 OA
ATOM     16  H   UNL A   1      32.472  28.528  23.938  1.00  0.00     0.163 HD
BRANCH  14  17
ATOM     17  C   UNL A   1      30.070  26.246  24.726  1.00  0.00     0.060 C 
ATOM     18  H   UNL A   1      30.009  26.147  25.789  1.00  0.00     0.045 H 
BRANCH  17  19
ATOM     19  C   UNL A   1      28.712  26.398  24.006  1.00  0.00    -0.049 C 
ATOM     20  H   UNL A   1      27.979  26.759  24.697  1.00  0.00     0.024 H 
ATOM     21  H   UNL A   1      28.402  25.449  23.621  1.00  0.00     0.024 H 
ATOM     22  H   UNL A   1      28.811  27.093  23.198  1.00  0.00     0.024 H 
ENDBRANCH  17  19
BRANCH  17  23
ATOM     23  C   UNL A   1      30.748  24.897  24.477  1.00  0.00    -0.034 A 
ATOM     24  C   UNL A   1      31.002  24.438  23.172  1.00  0.00    -0.057 A 
ATOM     25  C   UNL A   1      31.180  24.096  25.550  1.00  0.00    -0.034 A 
ATOM     26  C   UNL A   1      31.510  23.144  22.926  1.00  0.00    -0.052 A 
ATOM     27  H   UNL A   1      30.813  25.065  22.374  1.00  0.00     0.063 H 
ATOM     28  C   UNL A   1      31.707  22.827  25.291  1.00  0.00     0.047 A 
ATOM     29  H   UNL A   1      31.108  24.441  26.520  1.00  0.00     0.065 H 
ATOM     30  C   UNL A   1      31.840  22.303  24.011  1.00  0.00     0.007 A 
ATOM     31  H   UNL A   1      31.637  22.813  21.957  1.00  0.00     0.063 H 
ATOM     32  N   UNL A   1      32.160  21.881  26.174  1.00  0.00    -0.355 N 
ATOM     33  C   UNL A   1      32.271  20.940  24.161  1.00  0.00     0.009 A 
ATOM     34  C   UNL A   1      32.428  20.702  25.528  1.00  0.00     0.047 A 
ATOM     35  H   UNL A   1      32.277  22.029  27.141  1.00  0.00     0.167 HD
ATOM     36  C   UNL A   1      32.509  19.870  23.273  1.00  0.00    -0.033 A 
ATOM     37  C   UNL A   1      32.788  19.460  26.063  1.00  0.00    -0.036 A 
ATOM     38  C   UNL A   1      32.858  18.616  23.795  1.00  0.00     0.041 A 
ATOM     39  H   UNL A   1      32.429  20.007  22.253  1.00  0.00     0.065 H 
ATOM     40  C   UNL A   1      32.989  18.411  25.166  1.00  0.00    -0.041 A 
ATOM     41  H   UNL A   1      32.900  19.326  27.080  1.00  0.00     0.065 H 
ATOM     42  Cl  UNL A   1      33.113  17.292  22.722  1.00  0.00    -0.084 Cl
ATOM     43  H   UNL A   1      33.236  17.473  25.522  1.00  0.00     0.064 H 
ENDBRANCH  17  23
ENDBRANCH  14  17
ENDBRANCH  10  13
ENDBRANCH   7  10
ENDBRANCH   4   7
ENDBRANCH   1   4
BRANCH   1  44
ATOM     44  C   UNL A   1      35.611  22.483  24.551  1.00  0.00    -0.036 C 
ATOM     45  H   UNL A   1      36.046  21.885  23.777  1.00  0.00     0.028 H 
ATOM     46  H   UNL A   1      34.709  22.081  24.963  1.00  0.00     0.028 H 
BRANCH  44  47
ATOM     47  C   UNL A   1      36.599  22.534  25.708  1.00  0.00     0.018 C 
ATOM     48  H   UNL A   1      36.047  22.550  26.626  1.00  0.00     0.049 H 
ATOM     49  H   UNL A   1      37.193  23.415  25.579  1.00  0.00     0.049 H 
BRANCH  47  50
ATOM     50  N   UNL A   1      37.511  21.404  25.740  1.00  0.00    -0.352 N 
ATOM     51  C   UNL A   1      38.846  21.375  26.071  1.00  0.00     0.251 C 
ATOM     52  H   UNL A   1      37.118  20.537  25.489  1.00  0.00     0.163 HD
ATOM     53  O   UNL A   1      39.500  20.352  25.937  1.00  0.00    -0.269 OA
BRANCH  51  54
ATOM     54  C   UNL A   1      39.499  22.608  26.567  1.00  0.00     0.039 A 
ATOM     55  C   UNL A   1      40.464  22.505  27.573  1.00  0.00    -0.049 A 
ATOM     56  C   UNL A   1      39.167  23.855  26.033  1.00  0.00    -0.049 A 
ATOM     57  C   UNL A   1      41.145  23.648  27.999  1.00  0.00    -0.053 A 
ATOM     58  H   UNL A   1      40.673  21.588  28.000  1.00  0.00     0.063 H 
ATOM     59  C   UNL A   1      39.899  24.978  26.402  1.00  0.00    -0.053 A 
ATOM     60  H   UNL A   1      38.384  23.942  25.367  1.00  0.00     0.063 H 
ATOM     61  C   UNL A   1      40.891  24.888  27.394  1.00  0.00    -0.014 A 
ATOM     62  H   UNL A   1      41.838  23.581  28.762  1.00  0.00     0.063 H 
ATOM     63  H   UNL A   1      39.713  25.884  25.944  1.00  0.00     0.063 H 
BRANCH  61  64
ATOM     64  C   UNL A   1      41.612  26.123  27.791  1.00  0.00     0.031 A 
ATOM     65  C   UNL A   1      40.871  27.210  28.515  1.00  0.00     0.074 A 
ATOM     66  C   UNL A   1      42.890  26.312  27.412  1.00  0.00     0.049 A 
ATOM     67  N   UNL A   1      41.250  28.430  28.800  1.00  0.00    -0.248 NA
ATOM     68  C   UNL A   1      39.501  26.890  28.943  1.00  0.00    -0.034 C 
ATOM     69  C   UNL A   1      43.707  25.345  26.681  1.00  0.00    -0.036 A 
ATOM     70  N   UNL A   1      43.714  27.400  27.564  1.00  0.00    -0.354 N 
ATOM     71  C   UNL A   1      40.156  29.029  29.408  1.00  0.00     0.074 A 
ATOM     72  C   UNL A   1      39.084  28.058  29.405  1.00  0.00    -0.034 C 
ATOM     73  H   UNL A   1      38.997  25.991  28.896  1.00  0.00     0.065 H 
ATOM     74  C   UNL A   1      44.917  25.881  26.447  1.00  0.00    -0.036 A 
ATOM     75  H   UNL A   1      43.405  24.402  26.391  1.00  0.00     0.065 H 
ATOM     76  C   UNL A   1      44.943  27.245  26.969  1.00  0.00     0.049 A 
ATOM     77  H   UNL A   1      43.450  28.213  28.052  1.00  0.00     0.167 HD
ATOM     78  C   UNL A   1      40.060  30.274  29.935  1.00  0.00     0.037 A 
ATOM     79  H   UNL A   1      38.121  28.250  29.722  1.00  0.00     0.065 H 
ATOM     80  H   UNL A   1      45.702  25.405  25.976  1.00  0.00     0.065 H 
ATOM     81  C   UNL A   1      45.964  28.113  26.838  1.00  0.00     0.037 A 
ATOM     82  C   UNL A   1      41.140  31.224  29.953  1.00  0.00     0.049 A 
ATOM     83  C   UNL A   1      45.836  29.495  27.421  1.00  0.00     0.074 A 
ATOM     84  C   UNL A   1      41.167  32.488  30.516  1.00  0.00    -0.036 A 
ATOM     85  N   UNL A   1      42.383  31.016  29.374  1.00  0.00    -0.354 N 
ATOM     86  N   UNL A   1      44.818  30.037  28.044  1.00  0.00    -0.248 NA
ATOM     87  C   UNL A   1      46.999  30.384  27.288  1.00  0.00    -0.034 C 
ATOM     88  C   UNL A   1      42.408  33.066  30.227  1.00  0.00    -0.036 A 
ATOM     89  H   UNL A   1      40.405  32.928  31.054  1.00  0.00     0.065 H 
ATOM     90  C   UNL A   1      43.178  32.138  29.545  1.00  0.00     0.049 A 
ATOM     91  H   UNL A   1      42.660  30.193  28.909  1.00  0.00     0.167 HD
ATOM     92  C   UNL A   1      45.227  31.312  28.411  1.00  0.00     0.074 A 
ATOM     93  C   UNL A   1      46.588  31.465  27.937  1.00  0.00    -0.034 C 
ATOM     94  H   UNL A   1      47.900  30.211  26.815  1.00  0.00     0.065 H 
ATOM     95  H   UNL A   1      42.700  34.023  30.480  1.00  0.00     0.065 H 
ATOM     96  C   UNL A   1      44.539  32.266  29.085  1.00  0.00     0.037 A 
ATOM     97  H   UNL A   1      47.164  32.308  28.087  1.00  0.00     0.065 H 
BRANCH  78  98
ATOM     98  C   UNL A   1      38.733  30.676  30.517  1.00  0.00     0.064 A 
ATOM     99  C   UNL A   1      37.688  31.161  29.716  1.00  0.00     0.173 A 
ATOM    100  C   UNL A   1      38.505  30.577  31.898  1.00  0.00     0.173 A 
ATOM    101  F   UNL A   1      37.854  31.284  28.390  1.00  0.00    -0.203 F 
ATOM    102  C   UNL A   1      36.486  31.581  30.280  1.00  0.00     0.198 A 
ATOM    103  C   UNL A   1      37.288  30.961  32.455  1.00  0.00     0.198 A 
ATOM    104  F   UNL A   1      39.464  30.111  32.712  1.00  0.00    -0.203 F 
ATOM    105  F   UNL A   1      35.531  32.111  29.502  1.00  0.00    -0.200 F 
ATOM    106  C   UNL A   1      36.284  31.477  31.647  1.00  0.00     0.200 A 
ATOM    107  F   UNL A   1      37.089  30.844  33.775  1.00  0.00    -0.200 F 
ATOM    108  F   UNL A   1      35.128  31.883  32.189  1.00  0.00    -0.200 F 
ENDBRANCH  78  98
BRANCH  81 109
ATOM    109  C   UNL A   1      47.202  27.685  26.136  1.00  0.00     0.064 A 
ATOM    110  C   UNL A   1      48.293  27.170  26.851  1.00  0.00     0.173 A 
ATOM    111  C   UNL A   1      47.310  27.749  24.740  1.00  0.00     0.173 A 
ATOM    112  F   UNL A   1      48.245  27.106  28.191  1.00  0.00    -0.203 F 
ATOM    113  C   UNL A   1      49.447  26.744  26.197  1.00  0.00     0.198 A 
ATOM    114  C   UNL A   1      48.455  27.296  24.084  1.00  0.00     0.198 A 
ATOM    115  F   UNL A   1      46.292  28.226  24.008  1.00  0.00    -0.203 F 
ATOM    116  F   UNL A   1      50.486  26.284  26.907  1.00  0.00    -0.200 F 
ATOM    117  C   UNL A   1      49.522  26.799  24.814  1.00  0.00     0.200 A 
ATOM    118  F   UNL A   1      48.516  27.334  22.747  1.00  0.00    -0.200 F 
ATOM    119  F   UNL A   1      50.626  26.374  24.184  1.00  0.00    -0.200 F 
ENDBRANCH  81 109
BRANCH  96 120
ATOM    120  C   UNL A   1      45.256  33.544  29.415  1.00  0.00     0.064 A 
ATOM    121  C   UNL A   1      45.196  34.667  28.579  1.00  0.00     0.173 A 
ATOM    122  C   UNL A   1      45.945  33.667  30.633  1.00  0.00     0.173 A 
ATOM    123  F   UNL A   1      44.562  34.598  27.399  1.00  0.00    -0.203 F 
ATOM    124  C   UNL A   1      45.809  35.863  28.945  1.00  0.00     0.198 A 
ATOM    125  C   UNL A   1      46.530  34.872  31.008  1.00  0.00     0.198 A 
ATOM    126  F   UNL A   1      46.027  32.622  31.471  1.00  0.00    -0.203 F 
ATOM    127  F   UNL A   1      45.767  36.916  28.116  1.00  0.00    -0.200 F 
ATOM    128  C   UNL A   1      46.464  35.968  30.163  1.00  0.00     0.200 A 
ATOM    129  F   UNL A   1      47.148  34.974  32.194  1.00  0.00    -0.200 F 
ATOM    130  F   UNL A   1      47.035  37.127  30.521  1.00  0.00    -0.200 F 
ENDBRANCH  96 120
ENDBRANCH  61  64
ENDBRANCH  51  54
ENDBRANCH  47  50
ENDBRANCH  44  47
ENDBRANCH   1  44
TORSDOF 15
ENDMDL
