MODEL 1
REMARK VINA RESULT:     -11.5      0.000      0.000
REMARK SMILES COc1ccc([C@H]2CC(c3ccc(S(C)(=O)=O)cc3)=NN2c2ccc(C(=O)NCCCCCCNC(=O)c3ccc(-c4c5nc(c(-c6c(F)c(F)c(F)c(F)c6F)c6ccc([nH]6)c(-c6c(F)c(F)c(F)c(F)c6F)c6nc(c(-c7c(F)c(F)c(F)c(F)c7F)c7ccc4[nH]7)C=C6)C=C5)cc3)cc2)cc1OC
REMARK SMILES IDX 30 1 29 4 28 7 26 8 27 9 25 11 22 12 23 13 102 14 24 15
REMARK SMILES IDX 101 17 21 21 7 22 8 23 9 25 20 28 6 29 3 30 4 31 104 32 5 33
REMARK SMILES IDX 103 35 2 38 1 39 105 43 106 44 10 48 11 49 19 50 12 51 18 53
REMARK SMILES IDX 13 55 14 58 16 59 17 60 15 61 31 65 32 68 33 71 34 74 35 77
REMARK SMILES IDX 36 78 37 80 38 81 39 82 100 83 40 84 99 86 41 88 42 91 43 92
REMARK SMILES IDX 93 93 44 94 98 95 92 96 94 97 45 98 97 99 91 101 90 103
REMARK SMILES IDX 46 105 78 108 58 109 77 110 59 111 62 112 76 113 95 114
REMARK SMILES IDX 60 115 61 117 75 119 96 120 63 123 47 125 48 126 56 127
REMARK SMILES IDX 49 128 50 129 54 130 57 131 51 132 52 133 55 134 53 135
REMARK SMILES IDX 79 136 80 137 88 138 81 139 82 140 86 141 89 142 83 143
REMARK SMILES IDX 84 144 87 145 85 146 64 147 65 148 73 149 66 150 67 151
REMARK SMILES IDX 71 152 74 153 68 154 69 155 72 156 70 157
REMARK H PARENT 30 2 30 3 29 5 29 6 28 10 23 16 102 18 24 19 101 20 7 24 8 26
REMARK H PARENT 8 27 4 34 5 36 103 37 1 40 1 41 1 42 106 45 106 46 106 47
REMARK H PARENT 11 52 19 54 12 56 18 57 15 62 15 63 15 64 31 66 31 67 32 69
REMARK H PARENT 32 70 33 72 33 73 34 75 34 76 35 79 39 85 100 87 40 89 99 90
REMARK H PARENT 98 100 92 102 94 104 97 106 91 107 59 116 62 118 95 121 60 122
REMARK H PARENT 96 124
REMARK Flexibility Score: inf
ROOT
ATOM      1  C   UNL A   1      37.565  29.631  29.254  1.00  0.00    -0.036 C 
ATOM      2  H   UNL A   1      38.244  30.400  29.559  1.00  0.00     0.028 H 
ATOM      3  H   UNL A   1      38.043  28.676  29.198  1.00  0.00     0.028 H 
ENDROOT
BRANCH   1   4
ATOM      4  C   UNL A   1      37.047  29.967  27.853  1.00  0.00     0.018 C 
ATOM      5  H   UNL A   1      37.861  30.297  27.242  1.00  0.00     0.049 H 
ATOM      6  H   UNL A   1      36.604  29.095  27.420  1.00  0.00     0.049 H 
BRANCH   4   7
ATOM      7  N   UNL A   1      36.053  31.017  27.939  1.00  0.00    -0.352 N 
ATOM      8  C   UNL A   1      34.718  31.053  27.631  1.00  0.00     0.251 C 
ATOM      9  O   UNL A   1      34.129  32.124  27.783  1.00  0.00    -0.269 OA
ATOM     10  H   UNL A   1      36.404  31.869  28.285  1.00  0.00     0.163 HD
BRANCH   8  11
ATOM     11  C   UNL A   1      33.950  29.855  27.197  1.00  0.00     0.039 A 
ATOM     12  C   UNL A   1      32.611  27.593  26.160  1.00  0.00     0.060 A 
ATOM     13  C   UNL A   1      33.955  27.831  25.857  1.00  0.00    -0.036 A 
ATOM     14  C   UNL A   1      31.966  28.461  27.042  1.00  0.00    -0.036 A 
ATOM     15  C   UNL A   1      34.613  28.958  26.352  1.00  0.00    -0.047 A 
ATOM     16  H   UNL A   1      34.466  27.164  25.257  1.00  0.00     0.065 H 
ATOM     17  C   UNL A   1      32.642  29.559  27.591  1.00  0.00    -0.047 A 
ATOM     18  H   UNL A   1      30.980  28.292  27.294  1.00  0.00     0.065 H 
ATOM     19  H   UNL A   1      35.596  29.130  26.093  1.00  0.00     0.063 H 
ATOM     20  H   UNL A   1      32.170  30.154  28.290  1.00  0.00     0.063 H 
BRANCH  12  21
ATOM     21  N   UNL A   1      31.963  26.501  25.614  1.00  0.00    -0.257 N 
ATOM     22  C   UNL A   1      30.531  26.438  25.328  1.00  0.00     0.083 C 
ATOM     23  C   UNL A   1      30.337  24.967  24.932  1.00  0.00     0.019 C 
ATOM     24  H   UNL A   1      29.918  26.736  26.152  1.00  0.00     0.061 H 
ATOM     25  C   UNL A   1      31.737  24.455  25.122  1.00  0.00     0.071 C 
ATOM     26  H   UNL A   1      30.013  24.868  23.917  1.00  0.00     0.036 H 
ATOM     27  H   UNL A   1      29.588  24.446  25.492  1.00  0.00     0.036 H 
ATOM     28  N   UNL A   1      32.616  25.319  25.520  1.00  0.00    -0.176 NA
BRANCH  22  29
ATOM     29  C   UNL A   1      30.132  27.393  24.214  1.00  0.00    -0.019 A 
ATOM     30  C   UNL A   1      29.365  29.153  22.147  1.00  0.00     0.160 A 
ATOM     31  C   UNL A   1      30.716  28.838  22.353  1.00  0.00    -0.016 A 
ATOM     32  C   UNL A   1      28.381  28.576  22.955  1.00  0.00     0.161 A 
ATOM     33  C   UNL A   1      31.098  27.972  23.382  1.00  0.00    -0.053 A 
ATOM     34  H   UNL A   1      31.435  29.251  21.738  1.00  0.00     0.066 H 
ATOM     35  C   UNL A   1      28.781  27.707  23.980  1.00  0.00    -0.011 A 
ATOM     36  H   UNL A   1      32.097  27.759  23.530  1.00  0.00     0.063 H 
ATOM     37  H   UNL A   1      28.059  27.282  24.583  1.00  0.00     0.067 H 
BRANCH  30  38
ATOM     38  O   UNL A   1      29.042  29.945  21.078  1.00  0.00    -0.493 OA
BRANCH  38  39
ATOM     39  C   UNL A   1      28.786  31.293  21.476  1.00  0.00     0.078 C 
ATOM     40  H   UNL A   1      27.740  31.499  21.385  1.00  0.00     0.067 H 
ATOM     41  H   UNL A   1      29.336  31.961  20.845  1.00  0.00     0.067 H 
ATOM     42  H   UNL A   1      29.091  31.429  22.492  1.00  0.00     0.067 H 
ENDBRANCH  38  39
ENDBRANCH  30  38
BRANCH  32  43
ATOM     43  O   UNL A   1      27.023  28.721  22.893  1.00  0.00    -0.493 OA
BRANCH  43  44
ATOM     44  C   UNL A   1      26.213  27.928  23.744  1.00  0.00     0.078 C 
ATOM     45  H   UNL A   1      26.760  27.064  24.055  1.00  0.00     0.067 H 
ATOM     46  H   UNL A   1      25.333  27.622  23.216  1.00  0.00     0.067 H 
ATOM     47  H   UNL A   1      25.931  28.501  24.602  1.00  0.00     0.067 H 
ENDBRANCH  43  44
ENDBRANCH  32  43
ENDBRANCH  22  29
BRANCH  25  48
ATOM     48  C   UNL A   1      32.067  23.043  24.914  1.00  0.00    -0.002 A 
ATOM     49  C   UNL A   1      31.941  22.512  23.627  1.00  0.00    -0.052 A 
ATOM     50  C   UNL A   1      32.455  22.245  25.992  1.00  0.00    -0.052 A 
ATOM     51  C   UNL A   1      32.227  21.166  23.407  1.00  0.00    -0.043 A 
ATOM     52  H   UNL A   1      31.639  23.112  22.845  1.00  0.00     0.063 H 
ATOM     53  C   UNL A   1      32.716  20.890  25.779  1.00  0.00    -0.043 A 
ATOM     54  H   UNL A   1      32.548  22.652  26.935  1.00  0.00     0.063 H 
ATOM     55  C   UNL A   1      32.599  20.359  24.489  1.00  0.00     0.067 A 
ATOM     56  H   UNL A   1      32.166  20.768  22.456  1.00  0.00     0.064 H 
ATOM     57  H   UNL A   1      32.994  20.284  26.566  1.00  0.00     0.064 H 
BRANCH  55  58
ATOM     58  S   UNL A   1      32.944  18.639  24.201  1.00  0.00     0.175 S 
ATOM     59  O   UNL A   1      34.384  18.484  24.288  1.00  0.00    -0.224 OA
ATOM     60  O   UNL A   1      32.056  17.865  25.048  1.00  0.00    -0.224 OA
BRANCH  58  61
ATOM     61  C   UNL A   1      32.450  18.371  22.518  1.00  0.00     0.043 C 
ATOM     62  H   UNL A   1      32.138  17.355  22.396  1.00  0.00     0.040 H 
ATOM     63  H   UNL A   1      33.275  18.571  21.867  1.00  0.00     0.040 H 
ATOM     64  H   UNL A   1      31.638  19.025  22.276  1.00  0.00     0.040 H 
ENDBRANCH  58  61
ENDBRANCH  55  58
ENDBRANCH  25  48
ENDBRANCH  12  21
ENDBRANCH   8  11
ENDBRANCH   4   7
ENDBRANCH   1   4
BRANCH   1  65
ATOM     65  C   UNL A   1      36.445  29.525  30.297  1.00  0.00    -0.052 C 
ATOM     66  H   UNL A   1      36.093  28.515  30.308  1.00  0.00     0.027 H 
ATOM     67  H   UNL A   1      35.693  30.229  30.006  1.00  0.00     0.027 H 
BRANCH  65  68
ATOM     68  C   UNL A   1      36.862  29.902  31.725  1.00  0.00    -0.052 C 
ATOM     69  H   UNL A   1      37.868  30.262  31.692  1.00  0.00     0.027 H 
ATOM     70  H   UNL A   1      36.747  29.016  32.314  1.00  0.00     0.027 H 
BRANCH  68  71
ATOM     71  C   UNL A   1      35.994  30.974  32.388  1.00  0.00    -0.036 C 
ATOM     72  H   UNL A   1      36.513  31.340  33.249  1.00  0.00     0.028 H 
ATOM     73  H   UNL A   1      35.062  30.507  32.631  1.00  0.00     0.028 H 
BRANCH  71  74
ATOM     74  C   UNL A   1      35.666  32.161  31.487  1.00  0.00     0.018 C 
ATOM     75  H   UNL A   1      34.619  32.146  31.263  1.00  0.00     0.049 H 
ATOM     76  H   UNL A   1      36.250  32.074  30.595  1.00  0.00     0.049 H 
BRANCH  74  77
ATOM     77  N   UNL A   1      35.993  33.426  32.124  1.00  0.00    -0.352 N 
ATOM     78  C   UNL A   1      37.225  33.969  32.391  1.00  0.00     0.251 C 
ATOM     79  H   UNL A   1      35.222  33.970  32.404  1.00  0.00     0.163 HD
ATOM     80  O   UNL A   1      37.326  34.940  33.134  1.00  0.00    -0.269 OA
BRANCH  78  81
ATOM     81  C   UNL A   1      38.436  33.375  31.790  1.00  0.00     0.039 A 
ATOM     82  C   UNL A   1      39.254  32.561  32.578  1.00  0.00    -0.049 A 
ATOM     83  C   UNL A   1      38.776  33.638  30.458  1.00  0.00    -0.049 A 
ATOM     84  C   UNL A   1      40.387  31.969  32.016  1.00  0.00    -0.053 A 
ATOM     85  H   UNL A   1      39.021  32.400  33.570  1.00  0.00     0.063 H 
ATOM     86  C   UNL A   1      39.868  32.995  29.883  1.00  0.00    -0.053 A 
ATOM     87  H   UNL A   1      38.218  34.306  29.904  1.00  0.00     0.063 H 
ATOM     88  C   UNL A   1      40.687  32.159  30.658  1.00  0.00    -0.014 A 
ATOM     89  H   UNL A   1      41.005  31.388  32.603  1.00  0.00     0.063 H 
ATOM     90  H   UNL A   1      40.077  33.135  28.882  1.00  0.00     0.063 H 
BRANCH  88  91
ATOM     91  C   UNL A   1      41.858  31.498  30.030  1.00  0.00     0.031 A 
ATOM     92  C   UNL A   1      43.113  32.281  29.765  1.00  0.00     0.074 A 
ATOM     93  C   UNL A   1      41.765  30.213  29.639  1.00  0.00     0.049 A 
ATOM     94  N   UNL A   1      44.210  31.904  29.157  1.00  0.00    -0.248 NA
ATOM     95  C   UNL A   1      43.128  33.680  30.220  1.00  0.00    -0.034 C 
ATOM     96  C   UNL A   1      40.583  29.364  29.800  1.00  0.00    -0.036 A 
ATOM     97  N   UNL A   1      42.675  29.399  29.014  1.00  0.00    -0.354 N 
ATOM     98  C   UNL A   1      45.036  33.021  29.142  1.00  0.00     0.074 A 
ATOM     99  C   UNL A   1      44.297  34.102  29.759  1.00  0.00    -0.034 C 
ATOM    100  H   UNL A   1      42.415  34.197  30.758  1.00  0.00     0.065 H 
ATOM    101  C   UNL A   1      40.847  28.145  29.302  1.00  0.00    -0.036 A 
ATOM    102  H   UNL A   1      39.691  29.654  30.229  1.00  0.00     0.065 H 
ATOM    103  C   UNL A   1      42.200  28.137  28.755  1.00  0.00     0.049 A 
ATOM    104  H   UNL A   1      43.584  29.693  28.773  1.00  0.00     0.167 HD
ATOM    105  C   UNL A   1      46.302  33.129  28.677  1.00  0.00     0.037 A 
ATOM    106  H   UNL A   1      44.635  35.075  29.831  1.00  0.00     0.065 H 
ATOM    107  H   UNL A   1      40.197  27.343  29.305  1.00  0.00     0.065 H 
ATOM    108  C   UNL A   1      42.788  27.094  28.138  1.00  0.00     0.037 A 
ATOM    109  C   UNL A   1      47.045  32.042  28.093  1.00  0.00     0.049 A 
ATOM    110  C   UNL A   1      44.199  27.239  27.635  1.00  0.00     0.074 A 
ATOM    111  C   UNL A   1      48.355  32.033  27.648  1.00  0.00    -0.036 A 
ATOM    112  N   UNL A   1      46.539  30.770  27.874  1.00  0.00    -0.354 N 
ATOM    113  N   UNL A   1      44.993  28.281  27.687  1.00  0.00    -0.248 NA
ATOM    114  C   UNL A   1      44.798  26.060  26.995  1.00  0.00    -0.034 C 
ATOM    115  C   UNL A   1      48.630  30.767  27.122  1.00  0.00    -0.036 A 
ATOM    116  H   UNL A   1      49.015  32.825  27.696  1.00  0.00     0.065 H 
ATOM    117  C   UNL A   1      47.506  29.974  27.282  1.00  0.00     0.049 A 
ATOM    118  H   UNL A   1      45.628  30.476  28.104  1.00  0.00     0.167 HD
ATOM    119  C   UNL A   1      46.191  27.877  27.115  1.00  0.00     0.074 A 
ATOM    120  C   UNL A   1      46.025  26.489  26.735  1.00  0.00    -0.034 C 
ATOM    121  H   UNL A   1      44.375  25.140  26.798  1.00  0.00     0.065 H 
ATOM    122  H   UNL A   1      49.519  30.475  26.687  1.00  0.00     0.065 H 
ATOM    123  C   UNL A   1      47.327  28.590  26.922  1.00  0.00     0.037 A 
ATOM    124  H   UNL A   1      46.768  25.908  26.317  1.00  0.00     0.065 H 
BRANCH 105 125
ATOM    125  C   UNL A   1      46.974  34.467  28.784  1.00  0.00     0.064 A 
ATOM    126  C   UNL A   1      47.713  34.829  29.920  1.00  0.00     0.173 A 
ATOM    127  C   UNL A   1      46.919  35.379  27.719  1.00  0.00     0.173 A 
ATOM    128  F   UNL A   1      47.787  33.998  30.970  1.00  0.00    -0.203 F 
ATOM    129  C   UNL A   1      48.352  36.063  29.996  1.00  0.00     0.198 A 
ATOM    130  C   UNL A   1      47.584  36.601  27.786  1.00  0.00     0.198 A 
ATOM    131  F   UNL A   1      46.230  35.081  26.607  1.00  0.00    -0.203 F 
ATOM    132  F   UNL A   1      49.017  36.405  31.108  1.00  0.00    -0.200 F 
ATOM    133  C   UNL A   1      48.294  36.945  28.927  1.00  0.00     0.200 A 
ATOM    134  F   UNL A   1      47.537  37.445  26.747  1.00  0.00    -0.200 F 
ATOM    135  F   UNL A   1      48.919  38.127  28.997  1.00  0.00    -0.200 F 
ENDBRANCH 105 125
BRANCH 108 136
ATOM    136  C   UNL A   1      42.053  25.812  27.979  1.00  0.00     0.064 A 
ATOM    137  C   UNL A   1      42.375  24.696  28.764  1.00  0.00     0.173 A 
ATOM    138  C   UNL A   1      41.024  25.673  27.037  1.00  0.00     0.173 A 
ATOM    139  F   UNL A   1      43.365  24.776  29.665  1.00  0.00    -0.203 F 
ATOM    140  C   UNL A   1      41.713  23.482  28.595  1.00  0.00     0.198 A 
ATOM    141  C   UNL A   1      40.342  24.467  26.888  1.00  0.00     0.198 A 
ATOM    142  F   UNL A   1      40.673  26.712  26.265  1.00  0.00    -0.203 F 
ATOM    143  F   UNL A   1      42.074  22.418  29.324  1.00  0.00    -0.200 F 
ATOM    144  C   UNL A   1      40.694  23.370  27.661  1.00  0.00     0.200 A 
ATOM    145  F   UNL A   1      39.349  24.366  25.994  1.00  0.00    -0.200 F 
ATOM    146  F   UNL A   1      40.056  22.202  27.499  1.00  0.00    -0.200 F 
ENDBRANCH 108 136
BRANCH 123 147
ATOM    147  C   UNL A   1      48.493  27.874  26.306  1.00  0.00     0.064 A 
ATOM    148  C   UNL A   1      49.539  27.363  27.088  1.00  0.00     0.173 A 
ATOM    149  C   UNL A   1      48.542  27.661  24.920  1.00  0.00     0.173 A 
ATOM    150  F   UNL A   1      49.545  27.555  28.416  1.00  0.00    -0.203 F 
ATOM    151  C   UNL A   1      50.604  26.686  26.501  1.00  0.00     0.198 A 
ATOM    152  C   UNL A   1      49.594  26.958  24.340  1.00  0.00     0.198 A 
ATOM    153  F   UNL A   1      47.562  28.124  24.130  1.00  0.00    -0.203 F 
ATOM    154  F   UNL A   1      51.616  26.245  27.262  1.00  0.00    -0.200 F 
ATOM    155  C   UNL A   1      50.627  26.477  25.131  1.00  0.00     0.200 A 
ATOM    156  F   UNL A   1      49.608  26.746  23.017  1.00  0.00    -0.200 F 
ATOM    157  F   UNL A   1      51.649  25.818  24.568  1.00  0.00    -0.200 F 
ENDBRANCH 123 147
ENDBRANCH  88  91
ENDBRANCH  78  81
ENDBRANCH  74  77
ENDBRANCH  71  74
ENDBRANCH  68  71
ENDBRANCH  65  68
ENDBRANCH   1  65
TORSDOF 22
ENDMDL
MODEL 2
REMARK VINA RESULT:     -11.4      1.103      6.933
REMARK SMILES COc1ccc([C@H]2CC(c3ccc(S(C)(=O)=O)cc3)=NN2c2ccc(C(=O)NCCCCCCNC(=O)c3ccc(-c4c5nc(c(-c6c(F)c(F)c(F)c(F)c6F)c6ccc([nH]6)c(-c6c(F)c(F)c(F)c(F)c6F)c6nc(c(-c7c(F)c(F)c(F)c(F)c7F)c7ccc4[nH]7)C=C6)C=C5)cc3)cc2)cc1OC
REMARK SMILES IDX 30 1 29 4 28 7 26 8 27 9 25 11 22 12 23 13 102 14 24 15
REMARK SMILES IDX 101 17 21 21 7 22 8 23 9 25 20 28 6 29 3 30 4 31 104 32 5 33
REMARK SMILES IDX 103 35 2 38 1 39 105 43 106 44 10 48 11 49 19 50 12 51 18 53
REMARK SMILES IDX 13 55 14 58 16 59 17 60 15 61 31 65 32 68 33 71 34 74 35 77
REMARK SMILES IDX 36 78 37 80 38 81 39 82 100 83 40 84 99 86 41 88 42 91 43 92
REMARK SMILES IDX 93 93 44 94 98 95 92 96 94 97 45 98 97 99 91 101 90 103
REMARK SMILES IDX 46 105 78 108 58 109 77 110 59 111 62 112 76 113 95 114
REMARK SMILES IDX 60 115 61 117 75 119 96 120 63 123 47 125 48 126 56 127
REMARK SMILES IDX 49 128 50 129 54 130 57 131 51 132 52 133 55 134 53 135
REMARK SMILES IDX 79 136 80 137 88 138 81 139 82 140 86 141 89 142 83 143
REMARK SMILES IDX 84 144 87 145 85 146 64 147 65 148 73 149 66 150 67 151
REMARK SMILES IDX 71 152 74 153 68 154 69 155 72 156 70 157
REMARK H PARENT 30 2 30 3 29 5 29 6 28 10 23 16 102 18 24 19 101 20 7 24 8 26
REMARK H PARENT 8 27 4 34 5 36 103 37 1 40 1 41 1 42 106 45 106 46 106 47
REMARK H PARENT 11 52 19 54 12 56 18 57 15 62 15 63 15 64 31 66 31 67 32 69
REMARK H PARENT 32 70 33 72 33 73 34 75 34 76 35 79 39 85 100 87 40 89 99 90
REMARK H PARENT 98 100 92 102 94 104 97 106 91 107 59 116 62 118 95 121 60 122
REMARK H PARENT 96 124
REMARK Flexibility Score: inf
ROOT
ATOM      1  C   UNL A   1      37.725  29.847  29.012  1.00  0.00    -0.036 C 
ATOM      2  H   UNL A   1      38.553  30.514  29.130  1.00  0.00     0.028 H 
ATOM      3  H   UNL A   1      38.042  28.829  28.926  1.00  0.00     0.028 H 
ENDROOT
BRANCH   1   4
ATOM      4  C   UNL A   1      36.989  30.208  27.719  1.00  0.00     0.018 C 
ATOM      5  H   UNL A   1      37.682  30.624  27.020  1.00  0.00     0.049 H 
ATOM      6  H   UNL A   1      36.546  29.327  27.306  1.00  0.00     0.049 H 
BRANCH   4   7
ATOM      7  N   UNL A   1      35.951  31.178  28.004  1.00  0.00    -0.352 N 
ATOM      8  C   UNL A   1      34.593  31.158  27.823  1.00  0.00     0.251 C 
ATOM      9  O   UNL A   1      33.964  32.168  28.138  1.00  0.00    -0.269 OA
ATOM     10  H   UNL A   1      36.287  32.013  28.404  1.00  0.00     0.163 HD
BRANCH   8  11
ATOM     11  C   UNL A   1      33.854  29.962  27.336  1.00  0.00     0.039 A 
ATOM     12  C   UNL A   1      32.621  27.668  26.240  1.00  0.00     0.060 A 
ATOM     13  C   UNL A   1      34.014  27.782  26.279  1.00  0.00    -0.036 A 
ATOM     14  C   UNL A   1      31.856  28.682  26.817  1.00  0.00    -0.036 A 
ATOM     15  C   UNL A   1      34.625  28.923  26.803  1.00  0.00    -0.047 A 
ATOM     16  H   UNL A   1      34.598  27.013  25.915  1.00  0.00     0.065 H 
ATOM     17  C   UNL A   1      32.467  29.800  27.400  1.00  0.00    -0.047 A 
ATOM     18  H   UNL A   1      30.826  28.608  26.816  1.00  0.00     0.065 H 
ATOM     19  H   UNL A   1      35.654  29.000  26.796  1.00  0.00     0.063 H 
ATOM     20  H   UNL A   1      31.889  30.509  27.877  1.00  0.00     0.063 H 
BRANCH  12  21
ATOM     21  N   UNL A   1      32.036  26.555  25.666  1.00  0.00    -0.257 N 
ATOM     22  C   UNL A   1      30.620  26.439  25.326  1.00  0.00     0.083 C 
ATOM     23  C   UNL A   1      30.496  24.963  24.918  1.00  0.00     0.019 C 
ATOM     24  H   UNL A   1      29.965  26.710  26.127  1.00  0.00     0.061 H 
ATOM     25  C   UNL A   1      31.907  24.504  25.160  1.00  0.00     0.071 C 
ATOM     26  H   UNL A   1      30.214  24.856  23.892  1.00  0.00     0.036 H 
ATOM     27  H   UNL A   1      29.747  24.412  25.449  1.00  0.00     0.036 H 
ATOM     28  N   UNL A   1      32.737  25.399  25.593  1.00  0.00    -0.176 NA
BRANCH  22  29
ATOM     29  C   UNL A   1      30.227  27.383  24.201  1.00  0.00    -0.019 A 
ATOM     30  C   UNL A   1      29.470  29.123  22.113  1.00  0.00     0.160 A 
ATOM     31  C   UNL A   1      30.818  28.795  22.316  1.00  0.00    -0.016 A 
ATOM     32  C   UNL A   1      28.484  28.570  22.935  1.00  0.00     0.161 A 
ATOM     33  C   UNL A   1      31.195  27.938  23.356  1.00  0.00    -0.053 A 
ATOM     34  H   UNL A   1      31.539  29.189  21.692  1.00  0.00     0.066 H 
ATOM     35  C   UNL A   1      28.878  27.711  23.970  1.00  0.00    -0.011 A 
ATOM     36  H   UNL A   1      32.192  27.714  23.501  1.00  0.00     0.063 H 
ATOM     37  H   UNL A   1      28.154  27.304  24.583  1.00  0.00     0.067 H 
BRANCH  30  38
ATOM     38  O   UNL A   1      29.152  29.905  21.036  1.00  0.00    -0.493 OA
BRANCH  38  39
ATOM     39  C   UNL A   1      28.749  31.217  21.432  1.00  0.00     0.078 C 
ATOM     40  H   UNL A   1      29.182  31.452  22.381  1.00  0.00     0.067 H 
ATOM     41  H   UNL A   1      27.682  31.253  21.508  1.00  0.00     0.067 H 
ATOM     42  H   UNL A   1      29.079  31.926  20.702  1.00  0.00     0.067 H 
ENDBRANCH  38  39
ENDBRANCH  30  38
BRANCH  32  43
ATOM     43  O   UNL A   1      27.127  28.732  22.878  1.00  0.00    -0.493 OA
BRANCH  43  44
ATOM     44  C   UNL A   1      26.311  27.949  23.732  1.00  0.00     0.078 C 
ATOM     45  H   UNL A   1      25.998  28.540  24.567  1.00  0.00     0.067 H 
ATOM     46  H   UNL A   1      26.867  27.105  24.083  1.00  0.00     0.067 H 
ATOM     47  H   UNL A   1      25.452  27.610  23.192  1.00  0.00     0.067 H 
ENDBRANCH  43  44
ENDBRANCH  32  43
ENDBRANCH  22  29
BRANCH  25  48
ATOM     48  C   UNL A   1      32.298  23.107  24.960  1.00  0.00    -0.002 A 
ATOM     49  C   UNL A   1      32.082  22.527  23.707  1.00  0.00    -0.052 A 
ATOM     50  C   UNL A   1      32.832  22.367  26.017  1.00  0.00    -0.052 A 
ATOM     51  C   UNL A   1      32.424  21.192  23.497  1.00  0.00    -0.043 A 
ATOM     52  H   UNL A   1      31.673  23.083  22.940  1.00  0.00     0.063 H 
ATOM     53  C   UNL A   1      33.151  21.023  25.817  1.00  0.00    -0.043 A 
ATOM     54  H   UNL A   1      32.990  22.810  26.935  1.00  0.00     0.063 H 
ATOM     55  C   UNL A   1      32.943  20.443  24.560  1.00  0.00     0.067 A 
ATOM     56  H   UNL A   1      32.297  20.760  22.568  1.00  0.00     0.064 H 
ATOM     57  H   UNL A   1      33.538  20.460  26.590  1.00  0.00     0.064 H 
BRANCH  55  58
ATOM     58  S   UNL A   1      33.361  18.737  24.288  1.00  0.00     0.175 S 
ATOM     59  O   UNL A   1      32.683  18.332  23.071  1.00  0.00    -0.224 OA
ATOM     60  O   UNL A   1      34.800  18.610  24.419  1.00  0.00    -0.224 OA
BRANCH  58  61
ATOM     61  C   UNL A   1      32.621  17.884  25.656  1.00  0.00     0.043 C 
ATOM     62  H   UNL A   1      31.967  18.550  26.180  1.00  0.00     0.040 H 
ATOM     63  H   UNL A   1      33.387  17.541  26.319  1.00  0.00     0.040 H 
ATOM     64  H   UNL A   1      32.061  17.046  25.295  1.00  0.00     0.040 H 
ENDBRANCH  58  61
ENDBRANCH  55  58
ENDBRANCH  25  48
ENDBRANCH  12  21
ENDBRANCH   8  11
ENDBRANCH   4   7
ENDBRANCH   1   4
BRANCH   1  65
ATOM     65  C   UNL A   1      36.835  29.949  30.258  1.00  0.00    -0.052 C 
ATOM     66  H   UNL A   1      35.894  29.489  30.034  1.00  0.00     0.027 H 
ATOM     67  H   UNL A   1      36.750  30.991  30.484  1.00  0.00     0.027 H 
BRANCH  65  68
ATOM     68  C   UNL A   1      37.409  29.277  31.512  1.00  0.00    -0.052 C 
ATOM     69  H   UNL A   1      38.474  29.367  31.478  1.00  0.00     0.027 H 
ATOM     70  H   UNL A   1      37.067  28.263  31.492  1.00  0.00     0.027 H 
BRANCH  68  71
ATOM     71  C   UNL A   1      36.924  29.867  32.838  1.00  0.00    -0.036 C 
ATOM     72  H   UNL A   1      37.748  29.885  33.520  1.00  0.00     0.028 H 
ATOM     73  H   UNL A   1      36.119  29.247  33.174  1.00  0.00     0.028 H 
BRANCH  71  74
ATOM     74  C   UNL A   1      36.365  31.283  32.728  1.00  0.00     0.018 C 
ATOM     75  H   UNL A   1      35.302  31.247  32.843  1.00  0.00     0.049 H 
ATOM     76  H   UNL A   1      36.633  31.674  31.768  1.00  0.00     0.049 H 
BRANCH  74  77
ATOM     77  N   UNL A   1      36.920  32.161  33.746  1.00  0.00    -0.352 N 
ATOM     78  C   UNL A   1      38.233  32.430  34.037  1.00  0.00     0.251 C 
ATOM     79  H   UNL A   1      36.259  32.628  34.306  1.00  0.00     0.163 HD
ATOM     80  O   UNL A   1      38.531  33.019  35.071  1.00  0.00    -0.269 OA
BRANCH  78  81
ATOM     81  C   UNL A   1      39.295  31.998  33.105  1.00  0.00     0.039 A 
ATOM     82  C   UNL A   1      40.245  31.073  33.545  1.00  0.00    -0.049 A 
ATOM     83  C   UNL A   1      39.367  32.522  31.810  1.00  0.00    -0.049 A 
ATOM     84  C   UNL A   1      41.239  30.633  32.668  1.00  0.00    -0.053 A 
ATOM     85  H   UNL A   1      40.213  30.717  34.512  1.00  0.00     0.063 H 
ATOM     86  C   UNL A   1      40.318  32.035  30.918  1.00  0.00    -0.053 A 
ATOM     87  H   UNL A   1      38.716  33.267  31.517  1.00  0.00     0.063 H 
ATOM     88  C   UNL A   1      41.266  31.089  31.340  1.00  0.00    -0.014 A 
ATOM     89  H   UNL A   1      41.956  29.968  32.997  1.00  0.00     0.063 H 
ATOM     90  H   UNL A   1      40.325  32.370  29.943  1.00  0.00     0.063 H 
BRANCH  88  91
ATOM     91  C   UNL A   1      42.283  30.596  30.378  1.00  0.00     0.031 A 
ATOM     92  C   UNL A   1      42.080  29.284  29.674  1.00  0.00     0.074 A 
ATOM     93  C   UNL A   1      43.416  31.298  30.192  1.00  0.00     0.049 A 
ATOM     94  N   UNL A   1      42.885  28.648  28.861  1.00  0.00    -0.248 NA
ATOM     95  C   UNL A   1      40.815  28.580  29.938  1.00  0.00    -0.034 C 
ATOM     96  C   UNL A   1      43.748  32.560  30.854  1.00  0.00    -0.036 A 
ATOM     97  N   UNL A   1      44.508  31.042  29.400  1.00  0.00    -0.354 N 
ATOM     98  C   UNL A   1      42.234  27.466  28.531  1.00  0.00     0.074 A 
ATOM     99  C   UNL A   1      40.988  27.450  29.267  1.00  0.00    -0.034 C 
ATOM    100  H   UNL A   1      40.004  28.887  30.498  1.00  0.00     0.065 H 
ATOM    101  C   UNL A   1      44.951  32.976  30.429  1.00  0.00    -0.036 A 
ATOM    102  H   UNL A   1      43.151  33.053  31.537  1.00  0.00     0.065 H 
ATOM    103  C   UNL A   1      45.492  31.995  29.494  1.00  0.00     0.049 A 
ATOM    104  H   UNL A   1      44.579  30.249  28.821  1.00  0.00     0.167 HD
ATOM    105  C   UNL A   1      42.629  26.495  27.675  1.00  0.00     0.037 A 
ATOM    106  H   UNL A   1      40.321  26.662  29.270  1.00  0.00     0.065 H 
ATOM    107  H   UNL A   1      45.419  33.851  30.718  1.00  0.00     0.065 H 
ATOM    108  C   UNL A   1      46.698  32.063  28.900  1.00  0.00     0.037 A 
ATOM    109  C   UNL A   1      43.854  26.531  26.921  1.00  0.00     0.049 A 
ATOM    110  C   UNL A   1      47.110  30.972  27.948  1.00  0.00     0.074 A 
ATOM    111  C   UNL A   1      44.316  25.626  25.981  1.00  0.00    -0.036 A 
ATOM    112  N   UNL A   1      44.813  27.527  27.021  1.00  0.00    -0.354 N 
ATOM    113  N   UNL A   1      46.456  29.892  27.594  1.00  0.00    -0.248 NA
ATOM    114  C   UNL A   1      48.425  31.113  27.308  1.00  0.00    -0.034 C 
ATOM    115  C   UNL A   1      45.573  26.053  25.542  1.00  0.00    -0.036 A 
ATOM    116  H   UNL A   1      43.818  24.781  25.659  1.00  0.00     0.065 H 
ATOM    117  C   UNL A   1      45.873  27.249  26.173  1.00  0.00     0.049 A 
ATOM    118  H   UNL A   1      44.751  28.316  27.607  1.00  0.00     0.167 HD
ATOM    119  C   UNL A   1      47.263  29.242  26.671  1.00  0.00     0.074 A 
ATOM    120  C   UNL A   1      48.450  30.056  26.509  1.00  0.00    -0.034 C 
ATOM    121  H   UNL A   1      49.141  31.843  27.445  1.00  0.00     0.065 H 
ATOM    122  H   UNL A   1      46.175  25.560  24.864  1.00  0.00     0.065 H 
ATOM    123  C   UNL A   1      47.042  28.077  26.015  1.00  0.00     0.037 A 
ATOM    124  H   UNL A   1      49.218  29.841  25.853  1.00  0.00     0.065 H 
BRANCH 105 125
ATOM    125  C   UNL A   1      41.726  25.309  27.500  1.00  0.00     0.064 A 
ATOM    126  C   UNL A   1      40.594  25.363  26.673  1.00  0.00     0.173 A 
ATOM    127  C   UNL A   1      42.021  24.090  28.129  1.00  0.00     0.173 A 
ATOM    128  F   UNL A   1      40.262  26.508  26.058  1.00  0.00    -0.203 F 
ATOM    129  C   UNL A   1      39.779  24.248  26.499  1.00  0.00     0.198 A 
ATOM    130  C   UNL A   1      41.219  22.968  27.931  1.00  0.00     0.198 A 
ATOM    131  F   UNL A   1      43.094  23.982  28.927  1.00  0.00    -0.203 F 
ATOM    132  F   UNL A   1      38.680  24.335  25.738  1.00  0.00    -0.200 F 
ATOM    133  C   UNL A   1      40.096  23.050  27.122  1.00  0.00     0.200 A 
ATOM    134  F   UNL A   1      41.535  21.808  28.522  1.00  0.00    -0.200 F 
ATOM    135  F   UNL A   1      39.317  21.975  26.945  1.00  0.00    -0.200 F 
ENDBRANCH 105 125
BRANCH 108 136
ATOM    136  C   UNL A   1      47.596  33.216  29.168  1.00  0.00     0.064 A 
ATOM    137  C   UNL A   1      47.544  34.369  28.373  1.00  0.00     0.173 A 
ATOM    138  C   UNL A   1      48.529  33.186  30.214  1.00  0.00     0.173 A 
ATOM    139  F   UNL A   1      46.682  34.436  27.348  1.00  0.00    -0.203 F 
ATOM    140  C   UNL A   1      48.407  35.439  28.598  1.00  0.00     0.198 A 
ATOM    141  C   UNL A   1      49.373  34.268  30.457  1.00  0.00     0.198 A 
ATOM    142  F   UNL A   1      48.616  32.109  31.008  1.00  0.00    -0.203 F 
ATOM    143  F   UNL A   1      48.370  36.509  27.792  1.00  0.00    -0.200 F 
ATOM    144  C   UNL A   1      49.318  35.390  29.643  1.00  0.00     0.200 A 
ATOM    145  F   UNL A   1      50.242  34.222  31.476  1.00  0.00    -0.200 F 
ATOM    146  F   UNL A   1      50.149  36.418  29.860  1.00  0.00    -0.200 F 
ENDBRANCH 108 136
BRANCH 123 147
ATOM    147  C   UNL A   1      48.086  27.630  25.035  1.00  0.00     0.064 A 
ATOM    148  C   UNL A   1      47.919  27.802  23.653  1.00  0.00     0.173 A 
ATOM    149  C   UNL A   1      49.285  27.060  25.488  1.00  0.00     0.173 A 
ATOM    150  F   UNL A   1      46.783  28.328  23.170  1.00  0.00    -0.203 F 
ATOM    151  C   UNL A   1      48.906  27.396  22.759  1.00  0.00     0.198 A 
ATOM    152  C   UNL A   1      50.282  26.683  24.593  1.00  0.00     0.198 A 
ATOM    153  F   UNL A   1      49.495  26.880  26.800  1.00  0.00    -0.203 F 
ATOM    154  F   UNL A   1      48.707  27.528  21.440  1.00  0.00    -0.200 F 
ATOM    155  C   UNL A   1      50.089  26.845  23.229  1.00  0.00     0.200 A 
ATOM    156  F   UNL A   1      51.429  26.162  25.049  1.00  0.00    -0.200 F 
ATOM    157  F   UNL A   1      51.041  26.463  22.367  1.00  0.00    -0.200 F 
ENDBRANCH 123 147
ENDBRANCH  88  91
ENDBRANCH  78  81
ENDBRANCH  74  77
ENDBRANCH  71  74
ENDBRANCH  68  71
ENDBRANCH  65  68
ENDBRANCH   1  65
TORSDOF 22
ENDMDL
MODEL 3
REMARK VINA RESULT:     -11.4      5.303     10.467
REMARK SMILES COc1ccc([C@H]2CC(c3ccc(S(C)(=O)=O)cc3)=NN2c2ccc(C(=O)NCCCCCCNC(=O)c3ccc(-c4c5nc(c(-c6c(F)c(F)c(F)c(F)c6F)c6ccc([nH]6)c(-c6c(F)c(F)c(F)c(F)c6F)c6nc(c(-c7c(F)c(F)c(F)c(F)c7F)c7ccc4[nH]7)C=C6)C=C5)cc3)cc2)cc1OC
REMARK SMILES IDX 30 1 29 4 28 7 26 8 27 9 25 11 22 12 23 13 102 14 24 15
REMARK SMILES IDX 101 17 21 21 7 22 8 23 9 25 20 28 6 29 3 30 4 31 104 32 5 33
REMARK SMILES IDX 103 35 2 38 1 39 105 43 106 44 10 48 11 49 19 50 12 51 18 53
REMARK SMILES IDX 13 55 14 58 16 59 17 60 15 61 31 65 32 68 33 71 34 74 35 77
REMARK SMILES IDX 36 78 37 80 38 81 39 82 100 83 40 84 99 86 41 88 42 91 43 92
REMARK SMILES IDX 93 93 44 94 98 95 92 96 94 97 45 98 97 99 91 101 90 103
REMARK SMILES IDX 46 105 78 108 58 109 77 110 59 111 62 112 76 113 95 114
REMARK SMILES IDX 60 115 61 117 75 119 96 120 63 123 47 125 48 126 56 127
REMARK SMILES IDX 49 128 50 129 54 130 57 131 51 132 52 133 55 134 53 135
REMARK SMILES IDX 79 136 80 137 88 138 81 139 82 140 86 141 89 142 83 143
REMARK SMILES IDX 84 144 87 145 85 146 64 147 65 148 73 149 66 150 67 151
REMARK SMILES IDX 71 152 74 153 68 154 69 155 72 156 70 157
REMARK H PARENT 30 2 30 3 29 5 29 6 28 10 23 16 102 18 24 19 101 20 7 24 8 26
REMARK H PARENT 8 27 4 34 5 36 103 37 1 40 1 41 1 42 106 45 106 46 106 47
REMARK H PARENT 11 52 19 54 12 56 18 57 15 62 15 63 15 64 31 66 31 67 32 69
REMARK H PARENT 32 70 33 72 33 73 34 75 34 76 35 79 39 85 100 87 40 89 99 90
REMARK H PARENT 98 100 92 102 94 104 97 106 91 107 59 116 62 118 95 121 60 122
REMARK H PARENT 96 124
REMARK Flexibility Score: inf
ROOT
ATOM      1  C   UNL A   1      42.681  24.273  29.020  1.00  0.00    -0.036 C 
ATOM      2  H   UNL A   1      42.428  24.324  30.058  1.00  0.00     0.028 H 
ATOM      3  H   UNL A   1      43.132  25.179  28.674  1.00  0.00     0.028 H 
ENDROOT
BRANCH   1   4
ATOM      4  C   UNL A   1      41.395  24.065  28.215  1.00  0.00     0.018 C 
ATOM      5  H   UNL A   1      41.250  23.020  28.041  1.00  0.00     0.049 H 
ATOM      6  H   UNL A   1      40.566  24.458  28.765  1.00  0.00     0.049 H 
BRANCH   4   7
ATOM      7  N   UNL A   1      41.498  24.755  26.946  1.00  0.00    -0.352 N 
ATOM      8  C   UNL A   1      40.997  25.949  26.500  1.00  0.00     0.251 C 
ATOM      9  O   UNL A   1      41.230  26.263  25.332  1.00  0.00    -0.269 OA
ATOM     10  H   UNL A   1      42.031  24.272  26.273  1.00  0.00     0.163 HD
BRANCH   8  11
ATOM     11  C   UNL A   1      40.255  26.899  27.374  1.00  0.00     0.039 A 
ATOM     12  C   UNL A   1      39.033  28.858  29.002  1.00  0.00     0.060 A 
ATOM     13  C   UNL A   1      39.771  29.225  27.873  1.00  0.00    -0.036 A 
ATOM     14  C   UNL A   1      38.856  27.499  29.267  1.00  0.00    -0.036 A 
ATOM     15  C   UNL A   1      40.392  28.260  27.077  1.00  0.00    -0.047 A 
ATOM     16  H   UNL A   1      39.858  30.223  27.624  1.00  0.00     0.065 H 
ATOM     17  C   UNL A   1      39.427  26.526  28.436  1.00  0.00    -0.047 A 
ATOM     18  H   UNL A   1      38.299  27.207  30.085  1.00  0.00     0.065 H 
ATOM     19  H   UNL A   1      40.955  28.553  26.265  1.00  0.00     0.063 H 
ATOM     20  H   UNL A   1      39.234  25.527  28.610  1.00  0.00     0.063 H 
BRANCH  12  21
ATOM     21  N   UNL A   1      38.473  29.832  29.807  1.00  0.00    -0.257 N 
ATOM     22  C   UNL A   1      37.889  31.081  29.321  1.00  0.00     0.083 C 
ATOM     23  C   UNL A   1      37.612  31.846  30.624  1.00  0.00     0.019 C 
ATOM     24  H   UNL A   1      38.525  31.615  28.647  1.00  0.00     0.061 H 
ATOM     25  C   UNL A   1      38.154  30.866  31.626  1.00  0.00     0.071 C 
ATOM     26  H   UNL A   1      36.566  32.023  30.767  1.00  0.00     0.036 H 
ATOM     27  H   UNL A   1      38.046  32.824  30.672  1.00  0.00     0.036 H 
ATOM     28  N   UNL A   1      38.644  29.766  31.148  1.00  0.00    -0.176 NA
BRANCH  22  29
ATOM     29  C   UNL A   1      36.624  30.840  28.513  1.00  0.00    -0.019 A 
ATOM     30  C   UNL A   1      34.264  30.419  27.025  1.00  0.00     0.160 A 
ATOM     31  C   UNL A   1      35.096  29.343  27.366  1.00  0.00    -0.016 A 
ATOM     32  C   UNL A   1      34.590  31.713  27.441  1.00  0.00     0.161 A 
ATOM     33  C   UNL A   1      36.270  29.551  28.097  1.00  0.00    -0.053 A 
ATOM     34  H   UNL A   1      34.839  28.387  27.075  1.00  0.00     0.066 H 
ATOM     35  C   UNL A   1      35.767  31.905  28.176  1.00  0.00    -0.011 A 
ATOM     36  H   UNL A   1      36.879  28.751  28.331  1.00  0.00     0.063 H 
ATOM     37  H   UNL A   1      36.015  32.859  28.481  1.00  0.00     0.067 H 
BRANCH  30  38
ATOM     38  O   UNL A   1      33.091  30.148  26.374  1.00  0.00    -0.493 OA
BRANCH  38  39
ATOM     39  C   UNL A   1      32.114  29.587  27.253  1.00  0.00     0.078 C 
ATOM     40  H   UNL A   1      31.851  30.306  28.000  1.00  0.00     0.067 H 
ATOM     41  H   UNL A   1      32.518  28.714  27.723  1.00  0.00     0.067 H 
ATOM     42  H   UNL A   1      31.243  29.319  26.692  1.00  0.00     0.067 H 
ENDBRANCH  38  39
ENDBRANCH  30  38
BRANCH  32  43
ATOM     43  O   UNL A   1      33.899  32.878  27.247  1.00  0.00    -0.493 OA
BRANCH  43  44
ATOM     44  C   UNL A   1      33.262  33.486  28.358  1.00  0.00     0.078 C 
ATOM     45  H   UNL A   1      33.313  34.550  28.261  1.00  0.00     0.067 H 
ATOM     46  H   UNL A   1      33.754  33.187  29.260  1.00  0.00     0.067 H 
ATOM     47  H   UNL A   1      32.237  33.179  28.393  1.00  0.00     0.067 H 
ENDBRANCH  43  44
ENDBRANCH  32  43
ENDBRANCH  22  29
BRANCH  25  48
ATOM     48  C   UNL A   1      38.167  31.170  33.058  1.00  0.00    -0.002 A 
ATOM     49  C   UNL A   1      38.916  30.350  33.907  1.00  0.00    -0.052 A 
ATOM     50  C   UNL A   1      37.410  32.231  33.560  1.00  0.00    -0.052 A 
ATOM     51  C   UNL A   1      38.927  30.605  35.278  1.00  0.00    -0.043 A 
ATOM     52  H   UNL A   1      39.458  29.561  33.522  1.00  0.00     0.063 H 
ATOM     53  C   UNL A   1      37.398  32.471  34.935  1.00  0.00    -0.043 A 
ATOM     54  H   UNL A   1      36.866  32.830  32.921  1.00  0.00     0.063 H 
ATOM     55  C   UNL A   1      38.155  31.656  35.785  1.00  0.00     0.067 A 
ATOM     56  H   UNL A   1      39.499  30.024  35.912  1.00  0.00     0.064 H 
ATOM     57  H   UNL A   1      36.836  33.245  35.322  1.00  0.00     0.064 H 
BRANCH  55  58
ATOM     58  S   UNL A   1      38.162  31.962  37.536  1.00  0.00     0.175 S 
ATOM     59  O   UNL A   1      37.439  30.866  38.152  1.00  0.00    -0.224 OA
ATOM     60  O   UNL A   1      39.527  32.270  37.923  1.00  0.00    -0.224 OA
BRANCH  58  61
ATOM     61  C   UNL A   1      37.205  33.445  37.723  1.00  0.00     0.043 C 
ATOM     62  H   UNL A   1      36.532  33.541  36.897  1.00  0.00     0.040 H 
ATOM     63  H   UNL A   1      37.860  34.291  37.750  1.00  0.00     0.040 H 
ATOM     64  H   UNL A   1      36.646  33.397  38.635  1.00  0.00     0.040 H 
ENDBRANCH  58  61
ENDBRANCH  55  58
ENDBRANCH  25  48
ENDBRANCH  12  21
ENDBRANCH   8  11
ENDBRANCH   4   7
ENDBRANCH   1   4
BRANCH   1  65
ATOM     65  C   UNL A   1      43.702  23.145  28.820  1.00  0.00    -0.052 C 
ATOM     66  H   UNL A   1      43.254  22.395  28.202  1.00  0.00     0.027 H 
ATOM     67  H   UNL A   1      43.953  22.789  29.797  1.00  0.00     0.027 H 
BRANCH  65  68
ATOM     68  C   UNL A   1      45.019  23.582  28.165  1.00  0.00    -0.052 C 
ATOM     69  H   UNL A   1      45.822  23.281  28.803  1.00  0.00     0.027 H 
ATOM     70  H   UNL A   1      44.952  24.642  28.037  1.00  0.00     0.027 H 
BRANCH  68  71
ATOM     71  C   UNL A   1      45.271  22.996  26.774  1.00  0.00    -0.036 C 
ATOM     72  H   UNL A   1      44.792  22.041  26.719  1.00  0.00     0.028 H 
ATOM     73  H   UNL A   1      46.333  22.936  26.654  1.00  0.00     0.028 H 
BRANCH  71  74
ATOM     74  C   UNL A   1      44.751  23.858  25.627  1.00  0.00     0.018 C 
ATOM     75  H   UNL A   1      44.088  24.599  26.023  1.00  0.00     0.049 H 
ATOM     76  H   UNL A   1      44.242  23.220  24.934  1.00  0.00     0.049 H 
BRANCH  74  77
ATOM     77  N   UNL A   1      45.833  24.524  24.920  1.00  0.00    -0.352 N 
ATOM     78  C   UNL A   1      46.280  25.815  25.039  1.00  0.00     0.251 C 
ATOM     79  H   UNL A   1      46.312  23.970  24.263  1.00  0.00     0.163 HD
ATOM     80  O   UNL A   1      47.055  26.282  24.211  1.00  0.00    -0.269 OA
BRANCH  78  81
ATOM     81  C   UNL A   1      45.817  26.652  26.165  1.00  0.00     0.039 A 
ATOM     82  C   UNL A   1      46.765  27.223  27.018  1.00  0.00    -0.049 A 
ATOM     83  C   UNL A   1      44.452  26.854  26.392  1.00  0.00    -0.049 A 
ATOM     84  C   UNL A   1      46.345  28.039  28.071  1.00  0.00    -0.053 A 
ATOM     85  H   UNL A   1      47.770  27.042  26.872  1.00  0.00     0.063 H 
ATOM     86  C   UNL A   1      44.038  27.719  27.400  1.00  0.00    -0.053 A 
ATOM     87  H   UNL A   1      43.753  26.363  25.812  1.00  0.00     0.063 H 
ATOM     88  C   UNL A   1      44.980  28.316  28.252  1.00  0.00    -0.014 A 
ATOM     89  H   UNL A   1      47.041  28.443  28.717  1.00  0.00     0.063 H 
ATOM     90  H   UNL A   1      43.034  27.922  27.521  1.00  0.00     0.063 H 
BRANCH  88  91
ATOM     91  C   UNL A   1      44.517  29.222  29.333  1.00  0.00     0.031 A 
ATOM     92  C   UNL A   1      44.489  30.708  29.111  1.00  0.00     0.074 A 
ATOM     93  C   UNL A   1      44.187  28.708  30.533  1.00  0.00     0.049 A 
ATOM     94  N   UNL A   1      44.192  31.664  29.954  1.00  0.00    -0.248 NA
ATOM     95  C   UNL A   1      44.869  31.183  27.772  1.00  0.00    -0.034 C 
ATOM     96  C   UNL A   1      44.219  27.288  30.884  1.00  0.00    -0.036 A 
ATOM     97  N   UNL A   1      43.771  29.325  31.687  1.00  0.00    -0.354 N 
ATOM     98  C   UNL A   1      44.365  32.852  29.254  1.00  0.00     0.074 A 
ATOM     99  C   UNL A   1      44.838  32.499  27.933  1.00  0.00    -0.034 C 
ATOM    100  H   UNL A   1      45.099  30.636  26.927  1.00  0.00     0.065 H 
ATOM    101  C   UNL A   1      43.824  27.140  32.158  1.00  0.00    -0.036 A 
ATOM    102  H   UNL A   1      44.499  26.522  30.252  1.00  0.00     0.065 H 
ATOM    103  C   UNL A   1      43.546  28.456  32.726  1.00  0.00     0.049 A 
ATOM    104  H   UNL A   1      43.647  30.299  31.762  1.00  0.00     0.167 HD
ATOM    105  C   UNL A   1      44.131  34.119  29.669  1.00  0.00     0.037 A 
ATOM    106  H   UNL A   1      45.116  33.182  27.210  1.00  0.00     0.065 H 
ATOM    107  H   UNL A   1      43.733  26.240  32.657  1.00  0.00     0.065 H 
ATOM    108  C   UNL A   1      43.166  28.695  33.995  1.00  0.00     0.037 A 
ATOM    109  C   UNL A   1      43.629  34.463  30.974  1.00  0.00     0.049 A 
ATOM    110  C   UNL A   1      42.906  30.113  34.429  1.00  0.00     0.074 A 
ATOM    111  C   UNL A   1      43.299  35.712  31.470  1.00  0.00    -0.036 A 
ATOM    112  N   UNL A   1      43.386  33.552  31.991  1.00  0.00    -0.354 N 
ATOM    113  N   UNL A   1      43.011  31.222  33.737  1.00  0.00    -0.248 NA
ATOM    114  C   UNL A   1      42.468  30.311  35.817  1.00  0.00    -0.034 C 
ATOM    115  C   UNL A   1      42.895  35.562  32.801  1.00  0.00    -0.036 A 
ATOM    116  H   UNL A   1      43.344  36.601  30.948  1.00  0.00     0.065 H 
ATOM    117  C   UNL A   1      42.928  34.214  33.118  1.00  0.00     0.049 A 
ATOM    118  H   UNL A   1      43.519  32.578  31.922  1.00  0.00     0.167 HD
ATOM    119  C   UNL A   1      42.624  32.244  34.593  1.00  0.00     0.074 A 
ATOM    120  C   UNL A   1      42.270  31.621  35.852  1.00  0.00    -0.034 C 
ATOM    121  H   UNL A   1      42.348  29.614  36.568  1.00  0.00     0.065 H 
ATOM    122  H   UNL A   1      42.620  36.326  33.437  1.00  0.00     0.065 H 
ATOM    123  C   UNL A   1      42.568  33.577  34.359  1.00  0.00     0.037 A 
ATOM    124  H   UNL A   1      41.908  32.133  36.673  1.00  0.00     0.065 H 
BRANCH 105 125
ATOM    125  C   UNL A   1      44.406  35.232  28.702  1.00  0.00     0.064 A 
ATOM    126  C   UNL A   1      43.386  35.794  27.918  1.00  0.00     0.173 A 
ATOM    127  C   UNL A   1      45.693  35.777  28.590  1.00  0.00     0.173 A 
ATOM    128  F   UNL A   1      42.140  35.301  27.979  1.00  0.00    -0.203 F 
ATOM    129  C   UNL A   1      43.650  36.844  27.043  1.00  0.00     0.198 A 
ATOM    130  C   UNL A   1      45.948  36.847  27.735  1.00  0.00     0.198 A 
ATOM    131  F   UNL A   1      46.704  35.282  29.320  1.00  0.00    -0.203 F 
ATOM    132  F   UNL A   1      42.669  37.335  26.274  1.00  0.00    -0.200 F 
ATOM    133  C   UNL A   1      44.928  37.374  26.958  1.00  0.00     0.200 A 
ATOM    134  F   UNL A   1      47.181  37.367  27.663  1.00  0.00    -0.200 F 
ATOM    135  F   UNL A   1      45.178  38.392  26.123  1.00  0.00    -0.200 F 
ENDBRANCH 105 125
BRANCH 108 136
ATOM    136  C   UNL A   1      42.988  27.566  34.945  1.00  0.00     0.064 A 
ATOM    137  C   UNL A   1      41.795  26.830  34.971  1.00  0.00     0.173 A 
ATOM    138  C   UNL A   1      43.997  27.205  35.848  1.00  0.00     0.173 A 
ATOM    139  F   UNL A   1      40.793  27.151  34.139  1.00  0.00    -0.203 F 
ATOM    140  C   UNL A   1      41.608  25.793  35.882  1.00  0.00     0.198 A 
ATOM    141  C   UNL A   1      43.821  26.150  36.741  1.00  0.00     0.198 A 
ATOM    142  F   UNL A   1      45.160  27.874  35.860  1.00  0.00    -0.203 F 
ATOM    143  F   UNL A   1      40.440  25.138  35.919  1.00  0.00    -0.200 F 
ATOM    144  C   UNL A   1      42.623  25.450  36.763  1.00  0.00     0.200 A 
ATOM    145  F   UNL A   1      44.810  25.813  37.580  1.00  0.00    -0.200 F 
ATOM    146  F   UNL A   1      42.445  24.452  37.639  1.00  0.00    -0.200 F 
ENDBRANCH 108 136
BRANCH 123 147
ATOM    147  C   UNL A   1      42.070  34.451  35.473  1.00  0.00     0.064 A 
ATOM    148  C   UNL A   1      42.939  34.968  36.445  1.00  0.00     0.173 A 
ATOM    149  C   UNL A   1      40.716  34.807  35.543  1.00  0.00     0.173 A 
ATOM    150  F   UNL A   1      44.240  34.644  36.430  1.00  0.00    -0.203 F 
ATOM    151  C   UNL A   1      42.463  35.791  37.462  1.00  0.00     0.198 A 
ATOM    152  C   UNL A   1      40.249  35.654  36.544  1.00  0.00     0.198 A 
ATOM    153  F   UNL A   1      39.847  34.343  34.633  1.00  0.00    -0.203 F 
ATOM    154  F   UNL A   1      43.301  36.238  38.407  1.00  0.00    -0.200 F 
ATOM    155  C   UNL A   1      41.121  36.140  37.506  1.00  0.00     0.200 A 
ATOM    156  F   UNL A   1      38.955  36.000  36.578  1.00  0.00    -0.200 F 
ATOM    157  F   UNL A   1      40.666  36.939  38.481  1.00  0.00    -0.200 F 
ENDBRANCH 123 147
ENDBRANCH  88  91
ENDBRANCH  78  81
ENDBRANCH  74  77
ENDBRANCH  71  74
ENDBRANCH  68  71
ENDBRANCH  65  68
ENDBRANCH   1  65
TORSDOF 22
ENDMDL
MODEL 4
REMARK VINA RESULT:     -11.3      3.490      8.750
REMARK SMILES COc1ccc([C@H]2CC(c3ccc(S(C)(=O)=O)cc3)=NN2c2ccc(C(=O)NCCCCCCNC(=O)c3ccc(-c4c5nc(c(-c6c(F)c(F)c(F)c(F)c6F)c6ccc([nH]6)c(-c6c(F)c(F)c(F)c(F)c6F)c6nc(c(-c7c(F)c(F)c(F)c(F)c7F)c7ccc4[nH]7)C=C6)C=C5)cc3)cc2)cc1OC
REMARK SMILES IDX 30 1 29 4 28 7 26 8 27 9 25 11 22 12 23 13 102 14 24 15
REMARK SMILES IDX 101 17 21 21 7 22 8 23 9 25 20 28 6 29 3 30 4 31 104 32 5 33
REMARK SMILES IDX 103 35 2 38 1 39 105 43 106 44 10 48 11 49 19 50 12 51 18 53
REMARK SMILES IDX 13 55 14 58 16 59 17 60 15 61 31 65 32 68 33 71 34 74 35 77
REMARK SMILES IDX 36 78 37 80 38 81 39 82 100 83 40 84 99 86 41 88 42 91 43 92
REMARK SMILES IDX 93 93 44 94 98 95 92 96 94 97 45 98 97 99 91 101 90 103
REMARK SMILES IDX 46 105 78 108 58 109 77 110 59 111 62 112 76 113 95 114
REMARK SMILES IDX 60 115 61 117 75 119 96 120 63 123 47 125 48 126 56 127
REMARK SMILES IDX 49 128 50 129 54 130 57 131 51 132 52 133 55 134 53 135
REMARK SMILES IDX 79 136 80 137 88 138 81 139 82 140 86 141 89 142 83 143
REMARK SMILES IDX 84 144 87 145 85 146 64 147 65 148 73 149 66 150 67 151
REMARK SMILES IDX 71 152 74 153 68 154 69 155 72 156 70 157
REMARK H PARENT 30 2 30 3 29 5 29 6 28 10 23 16 102 18 24 19 101 20 7 24 8 26
REMARK H PARENT 8 27 4 34 5 36 103 37 1 40 1 41 1 42 106 45 106 46 106 47
REMARK H PARENT 11 52 19 54 12 56 18 57 15 62 15 63 15 64 31 66 31 67 32 69
REMARK H PARENT 32 70 33 72 33 73 34 75 34 76 35 79 39 85 100 87 40 89 99 90
REMARK H PARENT 98 100 92 102 94 104 97 106 91 107 59 116 62 118 95 121 60 122
REMARK H PARENT 96 124
REMARK Flexibility Score: inf
ROOT
ATOM      1  C   UNL A   1      38.238  29.611  28.653  1.00  0.00    -0.036 C 
ATOM      2  H   UNL A   1      38.811  29.862  29.521  1.00  0.00     0.028 H 
ATOM      3  H   UNL A   1      38.257  30.394  27.924  1.00  0.00     0.028 H 
ENDROOT
BRANCH   1   4
ATOM      4  C   UNL A   1      36.780  29.410  29.072  1.00  0.00     0.018 C 
ATOM      5  H   UNL A   1      36.411  28.499  28.650  1.00  0.00     0.049 H 
ATOM      6  H   UNL A   1      36.721  29.363  30.138  1.00  0.00     0.049 H 
BRANCH   4   7
ATOM      7  N   UNL A   1      35.978  30.520  28.597  1.00  0.00    -0.352 N 
ATOM      8  C   UNL A   1      34.848  30.580  27.826  1.00  0.00     0.251 C 
ATOM      9  O   UNL A   1      34.404  31.695  27.554  1.00  0.00    -0.269 OA
ATOM     10  H   UNL A   1      36.310  31.401  28.884  1.00  0.00     0.163 HD
BRANCH   8  11
ATOM     11  C   UNL A   1      34.108  29.371  27.370  1.00  0.00     0.039 A 
ATOM     12  C   UNL A   1      32.812  27.106  26.287  1.00  0.00     0.060 A 
ATOM     13  C   UNL A   1      34.127  27.417  25.929  1.00  0.00    -0.036 A 
ATOM     14  C   UNL A   1      32.179  27.901  27.243  1.00  0.00    -0.036 A 
ATOM     15  C   UNL A   1      34.763  28.547  26.448  1.00  0.00    -0.047 A 
ATOM     16  H   UNL A   1      34.634  26.804  25.272  1.00  0.00     0.065 H 
ATOM     17  C   UNL A   1      32.836  29.000  27.813  1.00  0.00    -0.047 A 
ATOM     18  H   UNL A   1      31.214  27.676  27.535  1.00  0.00     0.065 H 
ATOM     19  H   UNL A   1      35.724  28.775  26.149  1.00  0.00     0.063 H 
ATOM     20  H   UNL A   1      32.377  29.538  28.563  1.00  0.00     0.063 H 
BRANCH  12  21
ATOM     21  N   UNL A   1      32.183  26.014  25.719  1.00  0.00    -0.257 N 
ATOM     22  C   UNL A   1      30.750  25.929  25.441  1.00  0.00     0.083 C 
ATOM     23  C   UNL A   1      30.583  24.464  25.011  1.00  0.00     0.019 C 
ATOM     24  H   UNL A   1      30.138  26.194  26.276  1.00  0.00     0.061 H 
ATOM     25  C   UNL A   1      31.995  23.977  25.178  1.00  0.00     0.071 C 
ATOM     26  H   UNL A   1      30.253  24.383  23.996  1.00  0.00     0.036 H 
ATOM     27  H   UNL A   1      29.849  23.914  25.563  1.00  0.00     0.036 H 
ATOM     28  N   UNL A   1      32.859  24.849  25.591  1.00  0.00    -0.176 NA
BRANCH  22  29
ATOM     29  C   UNL A   1      30.324  26.902  24.354  1.00  0.00    -0.019 A 
ATOM     30  C   UNL A   1      29.557  28.724  22.340  1.00  0.00     0.160 A 
ATOM     31  C   UNL A   1      28.594  27.969  23.025  1.00  0.00    -0.016 A 
ATOM     32  C   UNL A   1      30.910  28.594  22.668  1.00  0.00     0.161 A 
ATOM     33  C   UNL A   1      28.974  27.059  24.018  1.00  0.00    -0.053 A 
ATOM     34  H   UNL A   1      27.595  28.085  22.794  1.00  0.00     0.066 H 
ATOM     35  C   UNL A   1      31.273  27.681  23.668  1.00  0.00    -0.011 A 
ATOM     36  H   UNL A   1      28.255  26.502  24.506  1.00  0.00     0.063 H 
ATOM     37  H   UNL A   1      32.271  27.577  23.909  1.00  0.00     0.067 H 
BRANCH  30  38
ATOM     38  O   UNL A   1      29.124  29.651  21.432  1.00  0.00    -0.493 OA
BRANCH  38  39
ATOM     39  C   UNL A   1      27.890  30.250  21.832  1.00  0.00     0.078 C 
ATOM     40  H   UNL A   1      27.252  29.504  22.257  1.00  0.00     0.067 H 
ATOM     41  H   UNL A   1      27.412  30.684  20.978  1.00  0.00     0.067 H 
ATOM     42  H   UNL A   1      28.083  31.011  22.559  1.00  0.00     0.067 H 
ENDBRANCH  38  39
ENDBRANCH  30  38
BRANCH  32  43
ATOM     43  O   UNL A   1      31.987  29.259  22.151  1.00  0.00    -0.493 OA
BRANCH  43  44
ATOM     44  C   UNL A   1      33.285  28.910  22.601  1.00  0.00     0.078 C 
ATOM     45  H   UNL A   1      34.011  29.524  22.111  1.00  0.00     0.067 H 
ATOM     46  H   UNL A   1      33.477  27.882  22.374  1.00  0.00     0.067 H 
ATOM     47  H   UNL A   1      33.347  29.058  23.659  1.00  0.00     0.067 H 
ENDBRANCH  43  44
ENDBRANCH  32  43
ENDBRANCH  22  29
BRANCH  25  48
ATOM     48  C   UNL A   1      32.352  22.578  24.933  1.00  0.00    -0.002 A 
ATOM     49  C   UNL A   1      32.080  22.030  23.677  1.00  0.00    -0.052 A 
ATOM     50  C   UNL A   1      32.911  21.805  25.954  1.00  0.00    -0.052 A 
ATOM     51  C   UNL A   1      32.389  20.695  23.425  1.00  0.00    -0.043 A 
ATOM     52  H   UNL A   1      31.653  22.611  22.939  1.00  0.00     0.063 H 
ATOM     53  C   UNL A   1      33.197  20.460  25.712  1.00  0.00    -0.043 A 
ATOM     54  H   UNL A   1      33.111  22.224  26.875  1.00  0.00     0.063 H 
ATOM     55  C   UNL A   1      32.933  19.913  24.451  1.00  0.00     0.067 A 
ATOM     56  H   UNL A   1      32.219  20.286  22.492  1.00  0.00     0.064 H 
ATOM     57  H   UNL A   1      33.601  19.873  26.459  1.00  0.00     0.064 H 
BRANCH  55  58
ATOM     58  S   UNL A   1      33.308  18.206  24.126  1.00  0.00     0.175 S 
ATOM     59  O   UNL A   1      32.620  17.856  22.898  1.00  0.00    -0.224 OA
ATOM     60  O   UNL A   1      34.744  18.040  24.254  1.00  0.00    -0.224 OA
BRANCH  58  61
ATOM     61  C   UNL A   1      32.546  17.330  25.468  1.00  0.00     0.043 C 
ATOM     62  H   UNL A   1      33.157  16.495  25.742  1.00  0.00     0.040 H 
ATOM     63  H   UNL A   1      31.581  16.981  25.164  1.00  0.00     0.040 H 
ATOM     64  H   UNL A   1      32.440  17.985  26.308  1.00  0.00     0.040 H 
ENDBRANCH  58  61
ENDBRANCH  55  58
ENDBRANCH  25  48
ENDBRANCH  12  21
ENDBRANCH   8  11
ENDBRANCH   4   7
ENDBRANCH   1   4
BRANCH   1  65
ATOM     65  C   UNL A   1      38.853  28.364  28.004  1.00  0.00    -0.052 C 
ATOM     66  H   UNL A   1      39.654  28.678  27.369  1.00  0.00     0.027 H 
ATOM     67  H   UNL A   1      38.061  27.878  27.473  1.00  0.00     0.027 H 
BRANCH  65  68
ATOM     68  C   UNL A   1      39.406  27.333  28.997  1.00  0.00    -0.052 C 
ATOM     69  H   UNL A   1      38.649  27.136  29.726  1.00  0.00     0.027 H 
ATOM     70  H   UNL A   1      40.294  27.763  29.412  1.00  0.00     0.027 H 
BRANCH  68  71
ATOM     71  C   UNL A   1      39.826  26.000  28.374  1.00  0.00    -0.036 C 
ATOM     72  H   UNL A   1      39.322  25.212  28.895  1.00  0.00     0.028 H 
ATOM     73  H   UNL A   1      40.891  25.942  28.462  1.00  0.00     0.028 H 
BRANCH  71  74
ATOM     74  C   UNL A   1      39.504  25.872  26.888  1.00  0.00     0.018 C 
ATOM     75  H   UNL A   1      39.332  26.850  26.486  1.00  0.00     0.049 H 
ATOM     76  H   UNL A   1      38.634  25.258  26.787  1.00  0.00     0.049 H 
BRANCH  74  77
ATOM     77  N   UNL A   1      40.591  25.246  26.154  1.00  0.00    -0.352 N 
ATOM     78  C   UNL A   1      41.828  25.750  25.837  1.00  0.00     0.251 C 
ATOM     79  H   UNL A   1      40.415  24.331  25.837  1.00  0.00     0.163 HD
ATOM     80  O   UNL A   1      42.541  25.176  25.021  1.00  0.00    -0.269 OA
BRANCH  78  81
ATOM     81  C   UNL A   1      42.298  26.996  26.476  1.00  0.00     0.039 A 
ATOM     82  C   UNL A   1      41.911  28.223  25.931  1.00  0.00    -0.049 A 
ATOM     83  C   UNL A   1      43.136  26.954  27.595  1.00  0.00    -0.049 A 
ATOM     84  C   UNL A   1      42.324  29.411  26.539  1.00  0.00    -0.053 A 
ATOM     85  H   UNL A   1      41.324  28.251  25.083  1.00  0.00     0.063 H 
ATOM     86  C   UNL A   1      43.493  28.137  28.237  1.00  0.00    -0.053 A 
ATOM     87  H   UNL A   1      43.489  26.050  27.943  1.00  0.00     0.063 H 
ATOM     88  C   UNL A   1      43.094  29.376  27.712  1.00  0.00    -0.014 A 
ATOM     89  H   UNL A   1      42.059  30.318  26.124  1.00  0.00     0.063 H 
ATOM     90  H   UNL A   1      44.053  28.101  29.103  1.00  0.00     0.063 H 
BRANCH  88  91
ATOM     91  C   UNL A   1      43.500  30.626  28.402  1.00  0.00     0.031 A 
ATOM     92  C   UNL A   1      42.641  31.197  29.495  1.00  0.00     0.074 A 
ATOM     93  C   UNL A   1      44.606  31.278  27.997  1.00  0.00     0.049 A 
ATOM     94  N   UNL A   1      42.785  32.315  30.161  1.00  0.00    -0.248 NA
ATOM     95  C   UNL A   1      41.449  30.422  29.871  1.00  0.00    -0.034 C 
ATOM     96  C   UNL A   1      45.495  30.847  26.917  1.00  0.00    -0.036 A 
ATOM     97  N   UNL A   1      45.166  32.451  28.439  1.00  0.00    -0.354 N 
ATOM     98  C   UNL A   1      41.695  32.385  31.020  1.00  0.00     0.074 A 
ATOM     99  C   UNL A   1      40.875  31.222  30.759  1.00  0.00    -0.034 C 
ATOM    100  H   UNL A   1      41.139  29.497  29.534  1.00  0.00     0.065 H 
ATOM    101  C   UNL A   1      46.495  31.734  26.791  1.00  0.00    -0.036 A 
ATOM    102  H   UNL A   1      45.373  29.998  26.345  1.00  0.00     0.065 H 
ATOM    103  C   UNL A   1      46.300  32.812  27.755  1.00  0.00     0.049 A 
ATOM    104  H   UNL A   1      44.788  32.984  29.176  1.00  0.00     0.167 HD
ATOM    105  C   UNL A   1      41.417  33.323  31.956  1.00  0.00     0.037 A 
ATOM    106  H   UNL A   1      39.962  31.038  31.206  1.00  0.00     0.065 H 
ATOM    107  H   UNL A   1      47.277  31.664  26.119  1.00  0.00     0.065 H 
ATOM    108  C   UNL A   1      47.088  33.896  27.885  1.00  0.00     0.037 A 
ATOM    109  C   UNL A   1      42.253  34.461  32.234  1.00  0.00     0.049 A 
ATOM    110  C   UNL A   1      46.759  34.921  28.938  1.00  0.00     0.074 A 
ATOM    111  C   UNL A   1      42.091  35.434  33.204  1.00  0.00    -0.036 A 
ATOM    112  N   UNL A   1      43.410  34.778  31.539  1.00  0.00    -0.354 N 
ATOM    113  N   UNL A   1      45.762  34.941  29.789  1.00  0.00    -0.248 NA
ATOM    114  C   UNL A   1      47.670  36.068  29.053  1.00  0.00    -0.034 C 
ATOM    115  C   UNL A   1      43.128  36.364  33.070  1.00  0.00    -0.036 A 
ATOM    116  H   UNL A   1      41.335  35.469  33.906  1.00  0.00     0.065 H 
ATOM    117  C   UNL A   1      43.962  35.943  32.047  1.00  0.00     0.049 A 
ATOM    118  H   UNL A   1      43.785  34.254  30.794  1.00  0.00     0.167 HD
ATOM    119  C   UNL A   1      45.940  36.083  30.558  1.00  0.00     0.074 A 
ATOM    120  C   UNL A   1      47.149  36.722  30.081  1.00  0.00    -0.034 C 
ATOM    121  H   UNL A   1      48.496  36.303  28.482  1.00  0.00     0.065 H 
ATOM    122  H   UNL A   1      43.250  37.218  33.636  1.00  0.00     0.065 H 
ATOM    123  C   UNL A   1      45.173  36.559  31.568  1.00  0.00     0.037 A 
ATOM    124  H   UNL A   1      47.555  37.578  30.491  1.00  0.00     0.065 H 
BRANCH 105 125
ATOM    125  C   UNL A   1      40.159  33.157  32.757  1.00  0.00     0.064 A 
ATOM    126  C   UNL A   1      40.114  32.334  33.893  1.00  0.00     0.173 A 
ATOM    127  C   UNL A   1      38.998  33.866  32.415  1.00  0.00     0.173 A 
ATOM    128  F   UNL A   1      41.194  31.626  34.256  1.00  0.00    -0.203 F 
ATOM    129  C   UNL A   1      38.947  32.210  34.642  1.00  0.00     0.198 A 
ATOM    130  C   UNL A   1      37.841  33.762  33.183  1.00  0.00     0.198 A 
ATOM    131  F   UNL A   1      38.988  34.671  31.342  1.00  0.00    -0.203 F 
ATOM    132  F   UNL A   1      38.916  31.385  35.697  1.00  0.00    -0.200 F 
ATOM    133  C   UNL A   1      37.815  32.929  34.292  1.00  0.00     0.200 A 
ATOM    134  F   UNL A   1      36.752  34.468  32.851  1.00  0.00    -0.200 F 
ATOM    135  F   UNL A   1      36.696  32.816  35.020  1.00  0.00    -0.200 F 
ENDBRANCH 105 125
BRANCH 108 136
ATOM    136  C   UNL A   1      48.279  34.061  27.011  1.00  0.00     0.064 A 
ATOM    137  C   UNL A   1      48.270  34.976  25.949  1.00  0.00     0.173 A 
ATOM    138  C   UNL A   1      49.442  33.304  27.212  1.00  0.00     0.173 A 
ATOM    139  F   UNL A   1      47.173  35.708  25.706  1.00  0.00    -0.203 F 
ATOM    140  C   UNL A   1      49.371  35.110  25.105  1.00  0.00     0.198 A 
ATOM    141  C   UNL A   1      50.553  33.459  26.385  1.00  0.00     0.198 A 
ATOM    142  F   UNL A   1      49.503  32.419  28.217  1.00  0.00    -0.203 F 
ATOM    143  F   UNL A   1      49.318  35.956  24.068  1.00  0.00    -0.200 F 
ATOM    144  C   UNL A   1      50.513  34.355  25.327  1.00  0.00     0.200 A 
ATOM    145  F   UNL A   1      51.659  32.738  26.611  1.00  0.00    -0.200 F 
ATOM    146  F   UNL A   1      51.572  34.483  24.516  1.00  0.00    -0.200 F 
ENDBRANCH 108 136
BRANCH 123 147
ATOM    147  C   UNL A   1      45.636  37.812  32.252  1.00  0.00     0.064 A 
ATOM    148  C   UNL A   1      45.173  39.077  31.861  1.00  0.00     0.173 A 
ATOM    149  C   UNL A   1      46.521  37.741  33.338  1.00  0.00     0.173 A 
ATOM    150  F   UNL A   1      44.337  39.198  30.819  1.00  0.00    -0.203 F 
ATOM    151  C   UNL A   1      45.600  40.228  32.518  1.00  0.00     0.198 A 
ATOM    152  C   UNL A   1      46.923  38.891  34.010  1.00  0.00     0.198 A 
ATOM    153  F   UNL A   1      46.987  36.554  33.753  1.00  0.00    -0.203 F 
ATOM    154  F   UNL A   1      45.181  41.430  32.100  1.00  0.00    -0.200 F 
ATOM    155  C   UNL A   1      46.467  40.134  33.596  1.00  0.00     0.200 A 
ATOM    156  F   UNL A   1      47.751  38.798  35.060  1.00  0.00    -0.200 F 
ATOM    157  F   UNL A   1      46.870  41.242  34.232  1.00  0.00    -0.200 F 
ENDBRANCH 123 147
ENDBRANCH  88  91
ENDBRANCH  78  81
ENDBRANCH  74  77
ENDBRANCH  71  74
ENDBRANCH  68  71
ENDBRANCH  65  68
ENDBRANCH   1  65
TORSDOF 22
ENDMDL
MODEL 5
REMARK VINA RESULT:     -11.2      3.612      9.193
REMARK SMILES COc1ccc([C@H]2CC(c3ccc(S(C)(=O)=O)cc3)=NN2c2ccc(C(=O)NCCCCCCNC(=O)c3ccc(-c4c5nc(c(-c6c(F)c(F)c(F)c(F)c6F)c6ccc([nH]6)c(-c6c(F)c(F)c(F)c(F)c6F)c6nc(c(-c7c(F)c(F)c(F)c(F)c7F)c7ccc4[nH]7)C=C6)C=C5)cc3)cc2)cc1OC
REMARK SMILES IDX 30 1 29 4 28 7 26 8 27 9 25 11 22 12 23 13 102 14 24 15
REMARK SMILES IDX 101 17 21 21 7 22 8 23 9 25 20 28 6 29 3 30 4 31 104 32 5 33
REMARK SMILES IDX 103 35 2 38 1 39 105 43 106 44 10 48 11 49 19 50 12 51 18 53
REMARK SMILES IDX 13 55 14 58 16 59 17 60 15 61 31 65 32 68 33 71 34 74 35 77
REMARK SMILES IDX 36 78 37 80 38 81 39 82 100 83 40 84 99 86 41 88 42 91 43 92
REMARK SMILES IDX 93 93 44 94 98 95 92 96 94 97 45 98 97 99 91 101 90 103
REMARK SMILES IDX 46 105 78 108 58 109 77 110 59 111 62 112 76 113 95 114
REMARK SMILES IDX 60 115 61 117 75 119 96 120 63 123 47 125 48 126 56 127
REMARK SMILES IDX 49 128 50 129 54 130 57 131 51 132 52 133 55 134 53 135
REMARK SMILES IDX 79 136 80 137 88 138 81 139 82 140 86 141 89 142 83 143
REMARK SMILES IDX 84 144 87 145 85 146 64 147 65 148 73 149 66 150 67 151
REMARK SMILES IDX 71 152 74 153 68 154 69 155 72 156 70 157
REMARK H PARENT 30 2 30 3 29 5 29 6 28 10 23 16 102 18 24 19 101 20 7 24 8 26
REMARK H PARENT 8 27 4 34 5 36 103 37 1 40 1 41 1 42 106 45 106 46 106 47
REMARK H PARENT 11 52 19 54 12 56 18 57 15 62 15 63 15 64 31 66 31 67 32 69
REMARK H PARENT 32 70 33 72 33 73 34 75 34 76 35 79 39 85 100 87 40 89 99 90
REMARK H PARENT 98 100 92 102 94 104 97 106 91 107 59 116 62 118 95 121 60 122
REMARK H PARENT 96 124
REMARK Flexibility Score: inf
ROOT
ATOM      1  C   UNL A   1      36.327  21.806  25.886  1.00  0.00    -0.036 C 
ATOM      2  H   UNL A   1      36.371  21.136  26.719  1.00  0.00     0.028 H 
ATOM      3  H   UNL A   1      35.580  22.560  26.020  1.00  0.00     0.028 H 
ENDROOT
BRANCH   1   4
ATOM      4  C   UNL A   1      35.951  21.005  24.637  1.00  0.00     0.018 C 
ATOM      5  H   UNL A   1      36.221  21.560  23.764  1.00  0.00     0.049 H 
ATOM      6  H   UNL A   1      36.472  20.071  24.645  1.00  0.00     0.049 H 
BRANCH   4   7
ATOM      7  N   UNL A   1      34.524  20.758  24.627  1.00  0.00    -0.352 N 
ATOM      8  C   UNL A   1      33.442  21.586  24.768  1.00  0.00     0.251 C 
ATOM      9  O   UNL A   1      32.324  21.070  24.748  1.00  0.00    -0.269 OA
ATOM     10  H   UNL A   1      34.285  19.812  24.494  1.00  0.00     0.163 HD
BRANCH   8  11
ATOM     11  C   UNL A   1      33.557  23.067  24.869  1.00  0.00     0.039 A 
ATOM     12  C   UNL A   1      33.579  25.872  25.207  1.00  0.00     0.060 A 
ATOM     13  C   UNL A   1      33.208  25.027  26.258  1.00  0.00    -0.036 A 
ATOM     14  C   UNL A   1      34.004  25.294  24.010  1.00  0.00    -0.036 A 
ATOM     15  C   UNL A   1      33.178  23.642  26.088  1.00  0.00    -0.047 A 
ATOM     16  H   UNL A   1      32.952  25.434  27.171  1.00  0.00     0.065 H 
ATOM     17  C   UNL A   1      34.034  23.902  23.856  1.00  0.00    -0.047 A 
ATOM     18  H   UNL A   1      34.300  25.900  23.229  1.00  0.00     0.065 H 
ATOM     19  H   UNL A   1      32.874  23.038  26.866  1.00  0.00     0.063 H 
ATOM     20  H   UNL A   1      34.411  23.491  22.988  1.00  0.00     0.063 H 
BRANCH  12  21
ATOM     21  N   UNL A   1      33.548  27.243  25.381  1.00  0.00    -0.257 N 
ATOM     22  C   UNL A   1      33.213  28.208  24.336  1.00  0.00     0.083 C 
ATOM     23  C   UNL A   1      33.525  29.551  25.013  1.00  0.00     0.019 C 
ATOM     24  H   UNL A   1      33.757  28.059  23.427  1.00  0.00     0.061 H 
ATOM     25  C   UNL A   1      34.037  29.065  26.340  1.00  0.00     0.071 C 
ATOM     26  H   UNL A   1      32.648  30.154  25.123  1.00  0.00     0.036 H 
ATOM     27  H   UNL A   1      34.202  30.180  24.473  1.00  0.00     0.036 H 
ATOM     28  N   UNL A   1      34.060  27.782  26.512  1.00  0.00    -0.176 NA
BRANCH  22  29
ATOM     29  C   UNL A   1      31.757  28.101  23.910  1.00  0.00    -0.019 A 
ATOM     30  C   UNL A   1      29.058  27.930  23.107  1.00  0.00     0.160 A 
ATOM     31  C   UNL A   1      29.541  27.145  24.164  1.00  0.00    -0.016 A 
ATOM     32  C   UNL A   1      29.911  28.824  22.454  1.00  0.00     0.161 A 
ATOM     33  C   UNL A   1      30.881  27.223  24.558  1.00  0.00    -0.053 A 
ATOM     34  H   UNL A   1      28.900  26.503  24.657  1.00  0.00     0.066 H 
ATOM     35  C   UNL A   1      31.250  28.893  22.863  1.00  0.00    -0.011 A 
ATOM     36  H   UNL A   1      31.225  26.631  25.330  1.00  0.00     0.063 H 
ATOM     37  H   UNL A   1      31.886  29.547  22.380  1.00  0.00     0.067 H 
BRANCH  30  38
ATOM     38  O   UNL A   1      27.723  27.868  22.814  1.00  0.00    -0.493 OA
BRANCH  38  39
ATOM     39  C   UNL A   1      26.986  28.898  23.474  1.00  0.00     0.078 C 
ATOM     40  H   UNL A   1      27.298  29.853  23.106  1.00  0.00     0.067 H 
ATOM     41  H   UNL A   1      27.167  28.846  24.528  1.00  0.00     0.067 H 
ATOM     42  H   UNL A   1      25.941  28.766  23.285  1.00  0.00     0.067 H 
ENDBRANCH  38  39
ENDBRANCH  30  38
BRANCH  32  43
ATOM     43  O   UNL A   1      29.629  29.695  21.438  1.00  0.00    -0.493 OA
BRANCH  43  44
ATOM     44  C   UNL A   1      29.248  31.021  21.763  1.00  0.00     0.078 C 
ATOM     45  H   UNL A   1      30.005  31.472  22.370  1.00  0.00     0.067 H 
ATOM     46  H   UNL A   1      28.323  31.005  22.301  1.00  0.00     0.067 H 
ATOM     47  H   UNL A   1      29.126  31.587  20.863  1.00  0.00     0.067 H 
ENDBRANCH  43  44
ENDBRANCH  32  43
ENDBRANCH  22  29
BRANCH  25  48
ATOM     48  C   UNL A   1      34.528  29.999  27.355  1.00  0.00    -0.002 A 
ATOM     49  C   UNL A   1      35.668  29.652  28.085  1.00  0.00    -0.052 A 
ATOM     50  C   UNL A   1      33.839  31.187  27.611  1.00  0.00    -0.052 A 
ATOM     51  C   UNL A   1      36.143  30.513  29.073  1.00  0.00    -0.043 A 
ATOM     52  H   UNL A   1      36.157  28.763  27.894  1.00  0.00     0.063 H 
ATOM     53  C   UNL A   1      34.297  32.038  28.617  1.00  0.00    -0.043 A 
ATOM     54  H   UNL A   1      33.002  31.432  27.061  1.00  0.00     0.063 H 
ATOM     55  C   UNL A   1      35.445  31.696  29.343  1.00  0.00     0.067 A 
ATOM     56  H   UNL A   1      37.000  30.282  29.599  1.00  0.00     0.064 H 
ATOM     57  H   UNL A   1      33.794  32.915  28.825  1.00  0.00     0.064 H 
BRANCH  55  58
ATOM     58  S   UNL A   1      36.047  32.780  30.616  1.00  0.00     0.175 S 
ATOM     59  O   UNL A   1      37.378  32.317  30.960  1.00  0.00    -0.224 OA
ATOM     60  O   UNL A   1      35.820  34.144  30.176  1.00  0.00    -0.224 OA
BRANCH  58  61
ATOM     61  C   UNL A   1      34.971  32.475  31.994  1.00  0.00     0.043 C 
ATOM     62  H   UNL A   1      35.542  32.097  32.816  1.00  0.00     0.040 H 
ATOM     63  H   UNL A   1      34.229  31.756  31.714  1.00  0.00     0.040 H 
ATOM     64  H   UNL A   1      34.492  33.387  32.282  1.00  0.00     0.040 H 
ENDBRANCH  58  61
ENDBRANCH  55  58
ENDBRANCH  25  48
ENDBRANCH  12  21
ENDBRANCH   8  11
ENDBRANCH   4   7
ENDBRANCH   1   4
BRANCH   1  65
ATOM     65  C   UNL A   1      37.681  22.516  25.758  1.00  0.00    -0.052 C 
ATOM     66  H   UNL A   1      38.013  22.423  24.744  1.00  0.00     0.027 H 
ATOM     67  H   UNL A   1      38.338  22.044  26.459  1.00  0.00     0.027 H 
BRANCH  65  68
ATOM     68  C   UNL A   1      37.659  24.007  26.118  1.00  0.00    -0.052 C 
ATOM     69  H   UNL A   1      36.701  24.233  26.535  1.00  0.00     0.027 H 
ATOM     70  H   UNL A   1      37.864  24.537  25.212  1.00  0.00     0.027 H 
BRANCH  68  71
ATOM     71  C   UNL A   1      38.729  24.443  27.122  1.00  0.00    -0.036 C 
ATOM     72  H   UNL A   1      38.856  23.660  27.839  1.00  0.00     0.028 H 
ATOM     73  H   UNL A   1      38.385  25.357  27.559  1.00  0.00     0.028 H 
BRANCH  71  74
ATOM     74  C   UNL A   1      40.089  24.744  26.497  1.00  0.00     0.018 C 
ATOM     75  H   UNL A   1      40.599  25.462  27.106  1.00  0.00     0.049 H 
ATOM     76  H   UNL A   1      39.926  25.125  25.511  1.00  0.00     0.049 H 
BRANCH  74  77
ATOM     77  N   UNL A   1      40.910  23.548  26.393  1.00  0.00    -0.352 N 
ATOM     78  C   UNL A   1      42.256  23.439  26.153  1.00  0.00     0.251 C 
ATOM     79  H   UNL A   1      40.431  22.697  26.510  1.00  0.00     0.163 HD
ATOM     80  O   UNL A   1      42.750  22.352  25.873  1.00  0.00    -0.269 OA
BRANCH  78  81
ATOM     81  C   UNL A   1      43.114  24.640  26.220  1.00  0.00     0.039 A 
ATOM     82  C   UNL A   1      43.673  25.004  27.448  1.00  0.00    -0.049 A 
ATOM     83  C   UNL A   1      43.347  25.417  25.081  1.00  0.00    -0.049 A 
ATOM     84  C   UNL A   1      44.508  26.121  27.523  1.00  0.00    -0.053 A 
ATOM     85  H   UNL A   1      43.468  24.452  28.294  1.00  0.00     0.063 H 
ATOM     86  C   UNL A   1      44.231  26.491  25.144  1.00  0.00    -0.053 A 
ATOM     87  H   UNL A   1      42.865  25.195  24.196  1.00  0.00     0.063 H 
ATOM     88  C   UNL A   1      44.816  26.855  26.366  1.00  0.00    -0.014 A 
ATOM     89  H   UNL A   1      44.903  26.406  28.433  1.00  0.00     0.063 H 
ATOM     90  H   UNL A   1      44.457  27.020  24.288  1.00  0.00     0.063 H 
BRANCH  88  91
ATOM     91  C   UNL A   1      45.742  28.014  26.416  1.00  0.00     0.031 A 
ATOM     92  C   UNL A   1      47.219  27.807  26.231  1.00  0.00     0.074 A 
ATOM     93  C   UNL A   1      45.258  29.240  26.693  1.00  0.00     0.049 A 
ATOM     94  N   UNL A   1      48.193  28.678  26.316  1.00  0.00    -0.248 NA
ATOM     95  C   UNL A   1      47.662  26.436  25.935  1.00  0.00    -0.034 C 
ATOM     96  C   UNL A   1      43.850  29.557  26.938  1.00  0.00    -0.036 A 
ATOM     97  N   UNL A   1      45.898  30.446  26.830  1.00  0.00    -0.354 N 
ATOM     98  C   UNL A   1      49.362  27.958  26.103  1.00  0.00     0.074 A 
ATOM     99  C   UNL A   1      48.981  26.573  25.931  1.00  0.00    -0.034 C 
ATOM    100  H   UNL A   1      47.096  25.589  25.773  1.00  0.00     0.065 H 
ATOM    101  C   UNL A   1      43.732  30.873  27.178  1.00  0.00    -0.036 A 
ATOM    102  H   UNL A   1      43.073  28.879  26.927  1.00  0.00     0.065 H 
ATOM    103  C   UNL A   1      45.057  31.485  27.140  1.00  0.00     0.049 A 
ATOM    104  H   UNL A   1      46.870  30.555  26.716  1.00  0.00     0.167 HD
ATOM    105  C   UNL A   1      50.635  28.415  26.036  1.00  0.00     0.037 A 
ATOM    106  H   UNL A   1      49.648  25.793  25.819  1.00  0.00     0.065 H 
ATOM    107  H   UNL A   1      42.846  31.371  27.361  1.00  0.00     0.065 H 
ATOM    108  C   UNL A   1      45.325  32.783  27.376  1.00  0.00     0.037 A 
ATOM    109  C   UNL A   1      51.005  29.799  26.176  1.00  0.00     0.049 A 
ATOM    110  C   UNL A   1      46.748  33.266  27.289  1.00  0.00     0.074 A 
ATOM    111  C   UNL A   1      52.260  30.372  26.062  1.00  0.00    -0.036 A 
ATOM    112  N   UNL A   1      50.121  30.828  26.462  1.00  0.00    -0.354 N 
ATOM    113  N   UNL A   1      47.837  32.587  27.021  1.00  0.00    -0.248 NA
ATOM    114  C   UNL A   1      46.978  34.697  27.530  1.00  0.00    -0.034 C 
ATOM    115  C   UNL A   1      52.141  31.742  26.319  1.00  0.00    -0.036 A 
ATOM    116  H   UNL A   1      53.133  29.874  25.828  1.00  0.00     0.065 H 
ATOM    117  C   UNL A   1      50.805  32.029  26.547  1.00  0.00     0.049 A 
ATOM    118  H   UNL A   1      49.150  30.721  26.587  1.00  0.00     0.167 HD
ATOM    119  C   UNL A   1      48.875  33.509  27.031  1.00  0.00     0.074 A 
ATOM    120  C   UNL A   1      48.282  34.799  27.319  1.00  0.00    -0.034 C 
ATOM    121  H   UNL A   1      46.301  35.430  27.794  1.00  0.00     0.065 H 
ATOM    122  H   UNL A   1      52.917  32.422  26.338  1.00  0.00     0.065 H 
ATOM    123  C   UNL A   1      50.198  33.307  26.822  1.00  0.00     0.037 A 
ATOM    124  H   UNL A   1      48.809  35.686  27.354  1.00  0.00     0.065 H 
BRANCH 105 125
ATOM    125  C   UNL A   1      51.724  27.413  25.793  1.00  0.00     0.064 A 
ATOM    126  C   UNL A   1      52.417  26.809  26.853  1.00  0.00     0.173 A 
ATOM    127  C   UNL A   1      52.048  27.015  24.487  1.00  0.00     0.173 A 
ATOM    128  F   UNL A   1      52.154  27.163  28.120  1.00  0.00    -0.203 F 
ATOM    129  C   UNL A   1      53.409  25.861  26.614  1.00  0.00     0.198 A 
ATOM    130  C   UNL A   1      53.020  26.046  24.252  1.00  0.00     0.198 A 
ATOM    131  F   UNL A   1      51.413  27.557  23.437  1.00  0.00    -0.203 F 
ATOM    132  F   UNL A   1      54.087  25.329  27.640  1.00  0.00    -0.200 F 
ATOM    133  C   UNL A   1      53.704  25.475  25.315  1.00  0.00     0.200 A 
ATOM    134  F   UNL A   1      53.295  25.664  22.998  1.00  0.00    -0.200 F 
ATOM    135  F   UNL A   1      54.651  24.555  25.087  1.00  0.00    -0.200 F 
ENDBRANCH 105 125
BRANCH 108 136
ATOM    136  C   UNL A   1      44.222  33.725  27.697  1.00  0.00     0.064 A 
ATOM    137  C   UNL A   1      43.695  34.577  26.716  1.00  0.00     0.173 A 
ATOM    138  C   UNL A   1      43.679  33.801  28.988  1.00  0.00     0.173 A 
ATOM    139  F   UNL A   1      44.195  34.554  25.472  1.00  0.00    -0.203 F 
ATOM    140  C   UNL A   1      42.684  35.486  27.020  1.00  0.00     0.198 A 
ATOM    141  C   UNL A   1      42.649  34.692  29.284  1.00  0.00     0.198 A 
ATOM    142  F   UNL A   1      44.144  33.005  29.961  1.00  0.00    -0.203 F 
ATOM    143  F   UNL A   1      42.233  36.323  26.075  1.00  0.00    -0.200 F 
ATOM    144  C   UNL A   1      42.159  35.540  28.302  1.00  0.00     0.200 A 
ATOM    145  F   UNL A   1      42.135  34.730  30.521  1.00  0.00    -0.200 F 
ATOM    146  F   UNL A   1      41.187  36.414  28.595  1.00  0.00    -0.200 F 
ENDBRANCH 108 136
BRANCH 123 147
ATOM    147  C   UNL A   1      51.092  34.511  26.857  1.00  0.00     0.064 A 
ATOM    148  C   UNL A   1      51.307  35.301  25.719  1.00  0.00     0.173 A 
ATOM    149  C   UNL A   1      51.708  34.901  28.056  1.00  0.00     0.173 A 
ATOM    150  F   UNL A   1      50.753  34.960  24.545  1.00  0.00    -0.203 F 
ATOM    151  C   UNL A   1      52.127  36.425  25.774  1.00  0.00     0.198 A 
ATOM    152  C   UNL A   1      52.503  36.042  28.114  1.00  0.00     0.198 A 
ATOM    153  F   UNL A   1      51.528  34.182  29.173  1.00  0.00    -0.203 F 
ATOM    154  F   UNL A   1      52.356  37.140  24.664  1.00  0.00    -0.200 F 
ATOM    155  C   UNL A   1      52.717  36.799  26.972  1.00  0.00     0.200 A 
ATOM    156  F   UNL A   1      53.062  36.409  29.275  1.00  0.00    -0.200 F 
ATOM    157  F   UNL A   1      53.499  37.886  27.025  1.00  0.00    -0.200 F 
ENDBRANCH 123 147
ENDBRANCH  88  91
ENDBRANCH  78  81
ENDBRANCH  74  77
ENDBRANCH  71  74
ENDBRANCH  68  71
ENDBRANCH  65  68
ENDBRANCH   1  65
TORSDOF 22
ENDMDL
MODEL 6
REMARK VINA RESULT:     -11.2      3.513      8.679
REMARK SMILES COc1ccc([C@H]2CC(c3ccc(S(C)(=O)=O)cc3)=NN2c2ccc(C(=O)NCCCCCCNC(=O)c3ccc(-c4c5nc(c(-c6c(F)c(F)c(F)c(F)c6F)c6ccc([nH]6)c(-c6c(F)c(F)c(F)c(F)c6F)c6nc(c(-c7c(F)c(F)c(F)c(F)c7F)c7ccc4[nH]7)C=C6)C=C5)cc3)cc2)cc1OC
REMARK SMILES IDX 30 1 29 4 28 7 26 8 27 9 25 11 22 12 23 13 102 14 24 15
REMARK SMILES IDX 101 17 21 21 7 22 8 23 9 25 20 28 6 29 3 30 4 31 104 32 5 33
REMARK SMILES IDX 103 35 2 38 1 39 105 43 106 44 10 48 11 49 19 50 12 51 18 53
REMARK SMILES IDX 13 55 14 58 16 59 17 60 15 61 31 65 32 68 33 71 34 74 35 77
REMARK SMILES IDX 36 78 37 80 38 81 39 82 100 83 40 84 99 86 41 88 42 91 43 92
REMARK SMILES IDX 93 93 44 94 98 95 92 96 94 97 45 98 97 99 91 101 90 103
REMARK SMILES IDX 46 105 78 108 58 109 77 110 59 111 62 112 76 113 95 114
REMARK SMILES IDX 60 115 61 117 75 119 96 120 63 123 47 125 48 126 56 127
REMARK SMILES IDX 49 128 50 129 54 130 57 131 51 132 52 133 55 134 53 135
REMARK SMILES IDX 79 136 80 137 88 138 81 139 82 140 86 141 89 142 83 143
REMARK SMILES IDX 84 144 87 145 85 146 64 147 65 148 73 149 66 150 67 151
REMARK SMILES IDX 71 152 74 153 68 154 69 155 72 156 70 157
REMARK H PARENT 30 2 30 3 29 5 29 6 28 10 23 16 102 18 24 19 101 20 7 24 8 26
REMARK H PARENT 8 27 4 34 5 36 103 37 1 40 1 41 1 42 106 45 106 46 106 47
REMARK H PARENT 11 52 19 54 12 56 18 57 15 62 15 63 15 64 31 66 31 67 32 69
REMARK H PARENT 32 70 33 72 33 73 34 75 34 76 35 79 39 85 100 87 40 89 99 90
REMARK H PARENT 98 100 92 102 94 104 97 106 91 107 59 116 62 118 95 121 60 122
REMARK H PARENT 96 124
REMARK Flexibility Score: inf
ROOT
ATOM      1  C   UNL A   1      38.169  29.669  28.934  1.00  0.00    -0.036 C 
ATOM      2  H   UNL A   1      38.610  29.791  29.901  1.00  0.00     0.028 H 
ATOM      3  H   UNL A   1      38.309  30.533  28.320  1.00  0.00     0.028 H 
ENDROOT
BRANCH   1   4
ATOM      4  C   UNL A   1      36.661  29.471  29.108  1.00  0.00     0.018 C 
ATOM      5  H   UNL A   1      36.349  28.609  28.557  1.00  0.00     0.049 H 
ATOM      6  H   UNL A   1      36.439  29.334  30.145  1.00  0.00     0.049 H 
BRANCH   4   7
ATOM      7  N   UNL A   1      35.956  30.637  28.617  1.00  0.00    -0.352 N 
ATOM      8  C   UNL A   1      34.862  30.782  27.805  1.00  0.00     0.251 C 
ATOM      9  O   UNL A   1      34.506  31.928  27.531  1.00  0.00    -0.269 OA
ATOM     10  H   UNL A   1      36.336  31.491  28.927  1.00  0.00     0.163 HD
BRANCH   8  11
ATOM     11  C   UNL A   1      34.058  29.631  27.309  1.00  0.00     0.039 A 
ATOM     12  C   UNL A   1      32.665  27.458  26.160  1.00  0.00     0.060 A 
ATOM     13  C   UNL A   1      34.033  27.633  25.930  1.00  0.00    -0.036 A 
ATOM     14  C   UNL A   1      32.020  28.342  27.025  1.00  0.00    -0.036 A 
ATOM     15  C   UNL A   1      34.720  28.717  26.481  1.00  0.00    -0.047 A 
ATOM     16  H   UNL A   1      34.542  26.952  25.344  1.00  0.00     0.065 H 
ATOM     17  C   UNL A   1      32.719  29.395  27.629  1.00  0.00    -0.047 A 
ATOM     18  H   UNL A   1      31.014  28.219  27.223  1.00  0.00     0.065 H 
ATOM     19  H   UNL A   1      35.722  28.844  26.276  1.00  0.00     0.063 H 
ATOM     20  H   UNL A   1      32.241  30.001  28.315  1.00  0.00     0.063 H 
BRANCH  12  21
ATOM     21  N   UNL A   1      31.994  26.410  25.560  1.00  0.00    -0.257 N 
ATOM     22  C   UNL A   1      30.575  26.420  25.208  1.00  0.00     0.083 C 
ATOM     23  C   UNL A   1      30.331  24.969  24.769  1.00  0.00     0.019 C 
ATOM     24  H   UNL A   1      29.939  26.729  26.011  1.00  0.00     0.061 H 
ATOM     25  C   UNL A   1      31.697  24.388  25.010  1.00  0.00     0.071 C 
ATOM     26  H   UNL A   1      30.050  24.907  23.739  1.00  0.00     0.036 H 
ATOM     27  H   UNL A   1      29.534  24.471  25.283  1.00  0.00     0.036 H 
ATOM     28  N   UNL A   1      32.595  25.200  25.467  1.00  0.00    -0.176 NA
BRANCH  22  29
ATOM     29  C   UNL A   1      30.272  27.416  24.100  1.00  0.00    -0.019 A 
ATOM     30  C   UNL A   1      29.681  29.255  22.043  1.00  0.00     0.160 A 
ATOM     31  C   UNL A   1      31.003  28.857  22.289  1.00  0.00    -0.016 A 
ATOM     32  C   UNL A   1      28.638  28.723  22.807  1.00  0.00     0.161 A 
ATOM     33  C   UNL A   1      31.299  27.952  23.313  1.00  0.00    -0.053 A 
ATOM     34  H   UNL A   1      31.767  29.236  21.707  1.00  0.00     0.066 H 
ATOM     35  C   UNL A   1      28.950  27.814  23.827  1.00  0.00    -0.011 A 
ATOM     36  H   UNL A   1      32.277  27.676  23.490  1.00  0.00     0.063 H 
ATOM     37  H   UNL A   1      28.184  27.423  24.398  1.00  0.00     0.067 H 
BRANCH  30  38
ATOM     38  O   UNL A   1      29.443  30.084  20.981  1.00  0.00    -0.493 OA
BRANCH  38  39
ATOM     39  C   UNL A   1      28.740  31.263  21.374  1.00  0.00     0.078 C 
ATOM     40  H   UNL A   1      27.917  30.995  22.003  1.00  0.00     0.067 H 
ATOM     41  H   UNL A   1      28.373  31.766  20.503  1.00  0.00     0.067 H 
ATOM     42  H   UNL A   1      29.402  31.911  21.908  1.00  0.00     0.067 H 
ENDBRANCH  38  39
ENDBRANCH  30  38
BRANCH  32  43
ATOM     43  O   UNL A   1      27.294  28.950  22.702  1.00  0.00    -0.493 OA
BRANCH  43  44
ATOM     44  C   UNL A   1      26.410  28.200  23.518  1.00  0.00     0.078 C 
ATOM     45  H   UNL A   1      26.226  27.249  23.065  1.00  0.00     0.067 H 
ATOM     46  H   UNL A   1      25.485  28.729  23.622  1.00  0.00     0.067 H 
ATOM     47  H   UNL A   1      26.850  28.058  24.483  1.00  0.00     0.067 H 
ENDBRANCH  43  44
ENDBRANCH  32  43
ENDBRANCH  22  29
BRANCH  25  48
ATOM     48  C   UNL A   1      31.970  22.967  24.784  1.00  0.00    -0.002 A 
ATOM     49  C   UNL A   1      32.309  22.170  25.880  1.00  0.00    -0.052 A 
ATOM     50  C   UNL A   1      31.934  22.440  23.490  1.00  0.00    -0.052 A 
ATOM     51  C   UNL A   1      32.596  20.820  25.688  1.00  0.00    -0.043 A 
ATOM     52  H   UNL A   1      32.345  22.578  26.827  1.00  0.00     0.063 H 
ATOM     53  C   UNL A   1      32.248  21.095  23.292  1.00  0.00    -0.043 A 
ATOM     54  H   UNL A   1      31.678  23.040  22.691  1.00  0.00     0.063 H 
ATOM     55  C   UNL A   1      32.578  20.293  24.392  1.00  0.00     0.067 A 
ATOM     56  H   UNL A   1      32.819  20.214  26.494  1.00  0.00     0.064 H 
ATOM     57  H   UNL A   1      32.235  20.693  22.342  1.00  0.00     0.064 H 
BRANCH  55  58
ATOM     58  S   UNL A   1      32.963  18.574  24.155  1.00  0.00     0.175 S 
ATOM     59  O   UNL A   1      34.403  18.450  24.274  1.00  0.00    -0.224 OA
ATOM     60  O   UNL A   1      32.073  17.804  25.004  1.00  0.00    -0.224 OA
BRANCH  58  61
ATOM     61  C   UNL A   1      32.507  18.254  22.470  1.00  0.00     0.043 C 
ATOM     62  H   UNL A   1      33.390  18.148  21.876  1.00  0.00     0.040 H 
ATOM     63  H   UNL A   1      31.922  19.069  22.098  1.00  0.00     0.040 H 
ATOM     64  H   UNL A   1      31.933  17.352  22.421  1.00  0.00     0.040 H 
ENDBRANCH  58  61
ENDBRANCH  55  58
ENDBRANCH  25  48
ENDBRANCH  12  21
ENDBRANCH   8  11
ENDBRANCH   4   7
ENDBRANCH   1   4
BRANCH   1  65
ATOM     65  C   UNL A   1      38.851  28.488  28.231  1.00  0.00    -0.052 C 
ATOM     66  H   UNL A   1      39.726  28.855  27.735  1.00  0.00     0.027 H 
ATOM     67  H   UNL A   1      38.128  28.078  27.558  1.00  0.00     0.027 H 
BRANCH  65  68
ATOM     68  C   UNL A   1      39.274  27.345  29.164  1.00  0.00    -0.052 C 
ATOM     69  H   UNL A   1      38.442  27.104  29.791  1.00  0.00     0.027 H 
ATOM     70  H   UNL A   1      40.126  27.700  29.705  1.00  0.00     0.027 H 
BRANCH  68  71
ATOM     71  C   UNL A   1      39.720  26.065  28.453  1.00  0.00    -0.036 C 
ATOM     72  H   UNL A   1      39.225  25.236  28.913  1.00  0.00     0.028 H 
ATOM     73  H   UNL A   1      40.785  26.018  28.545  1.00  0.00     0.028 H 
BRANCH  71  74
ATOM     74  C   UNL A   1      39.410  26.037  26.959  1.00  0.00     0.018 C 
ATOM     75  H   UNL A   1      39.273  27.042  26.614  1.00  0.00     0.049 H 
ATOM     76  H   UNL A   1      38.523  25.457  26.813  1.00  0.00     0.049 H 
BRANCH  74  77
ATOM     77  N   UNL A   1      40.486  25.422  26.198  1.00  0.00    -0.352 N 
ATOM     78  C   UNL A   1      41.711  25.936  25.857  1.00  0.00     0.251 C 
ATOM     79  H   UNL A   1      40.309  24.507  25.882  1.00  0.00     0.163 HD
ATOM     80  O   UNL A   1      42.411  25.371  25.023  1.00  0.00    -0.269 OA
BRANCH  78  81
ATOM     81  C   UNL A   1      42.186  27.183  26.490  1.00  0.00     0.039 A 
ATOM     82  C   UNL A   1      41.805  28.409  25.939  1.00  0.00    -0.049 A 
ATOM     83  C   UNL A   1      43.023  27.143  27.611  1.00  0.00    -0.049 A 
ATOM     84  C   UNL A   1      42.223  29.598  26.543  1.00  0.00    -0.053 A 
ATOM     85  H   UNL A   1      41.220  28.436  25.091  1.00  0.00     0.063 H 
ATOM     86  C   UNL A   1      43.384  28.326  28.248  1.00  0.00    -0.053 A 
ATOM     87  H   UNL A   1      43.371  26.238  27.964  1.00  0.00     0.063 H 
ATOM     88  C   UNL A   1      42.991  29.565  27.717  1.00  0.00    -0.014 A 
ATOM     89  H   UNL A   1      41.963  30.504  26.124  1.00  0.00     0.063 H 
ATOM     90  H   UNL A   1      43.942  28.292  29.115  1.00  0.00     0.063 H 
BRANCH  88  91
ATOM     91  C   UNL A   1      43.402  30.816  28.402  1.00  0.00     0.031 A 
ATOM     92  C   UNL A   1      42.558  31.381  29.510  1.00  0.00     0.074 A 
ATOM     93  C   UNL A   1      44.498  31.475  27.980  1.00  0.00     0.049 A 
ATOM     94  N   UNL A   1      42.707  32.499  30.175  1.00  0.00    -0.248 NA
ATOM     95  C   UNL A   1      41.377  30.599  29.905  1.00  0.00    -0.034 C 
ATOM     96  C   UNL A   1      45.370  31.051  26.884  1.00  0.00    -0.036 A 
ATOM     97  N   UNL A   1      45.058  32.651  28.414  1.00  0.00    -0.354 N 
ATOM     98  C   UNL A   1      41.632  32.562  31.053  1.00  0.00     0.074 A 
ATOM     99  C   UNL A   1      40.814  31.394  30.804  1.00  0.00    -0.034 C 
ATOM    100  H   UNL A   1      41.067  29.673  29.571  1.00  0.00     0.065 H 
ATOM    101  C   UNL A   1      46.363  31.943  26.743  1.00  0.00    -0.036 A 
ATOM    102  H   UNL A   1      45.243  30.201  26.313  1.00  0.00     0.065 H 
ATOM    103  C   UNL A   1      46.179  33.019  27.711  1.00  0.00     0.049 A 
ATOM    104  H   UNL A   1      44.690  33.180  29.158  1.00  0.00     0.167 HD
ATOM    105  C   UNL A   1      41.364  33.497  31.994  1.00  0.00     0.037 A 
ATOM    106  H   UNL A   1      39.910  31.205  31.265  1.00  0.00     0.065 H 
ATOM    107  H   UNL A   1      47.134  31.878  26.058  1.00  0.00     0.065 H 
ATOM    108  C   UNL A   1      46.963  34.107  27.830  1.00  0.00     0.037 A 
ATOM    109  C   UNL A   1      42.199  34.639  32.260  1.00  0.00     0.049 A 
ATOM    110  C   UNL A   1      46.646  35.128  28.889  1.00  0.00     0.074 A 
ATOM    111  C   UNL A   1      42.048  35.610  33.234  1.00  0.00    -0.036 A 
ATOM    112  N   UNL A   1      43.342  34.964  31.546  1.00  0.00    -0.354 N 
ATOM    113  N   UNL A   1      45.663  35.142  29.757  1.00  0.00    -0.248 NA
ATOM    114  C   UNL A   1      47.552  36.281  28.991  1.00  0.00    -0.034 C 
ATOM    115  C   UNL A   1      43.077  36.545  33.084  1.00  0.00    -0.036 A 
ATOM    116  H   UNL A   1      41.303  35.639  33.949  1.00  0.00     0.065 H 
ATOM    117  C   UNL A   1      43.896  36.131  32.047  1.00  0.00     0.049 A 
ATOM    118  H   UNL A   1      43.707  34.442  30.794  1.00  0.00     0.167 HD
ATOM    119  C   UNL A   1      45.848  36.283  30.525  1.00  0.00     0.074 A 
ATOM    120  C   UNL A   1      47.045  36.930  30.029  1.00  0.00    -0.034 C 
ATOM    121  H   UNL A   1      48.367  36.521  28.406  1.00  0.00     0.065 H 
ATOM    122  H   UNL A   1      43.204  37.399  33.650  1.00  0.00     0.065 H 
ATOM    123  C   UNL A   1      45.095  36.754  31.549  1.00  0.00     0.037 A 
ATOM    124  H   UNL A   1      47.453  37.788  30.433  1.00  0.00     0.065 H 
BRANCH 105 125
ATOM    125  C   UNL A   1      40.121  33.323  32.817  1.00  0.00     0.064 A 
ATOM    126  C   UNL A   1      38.933  34.003  32.506  1.00  0.00     0.173 A 
ATOM    127  C   UNL A   1      40.101  32.431  33.899  1.00  0.00     0.173 A 
ATOM    128  F   UNL A   1      38.902  34.876  31.488  1.00  0.00    -0.203 F 
ATOM    129  C   UNL A   1      37.780  33.813  33.261  1.00  0.00     0.198 A 
ATOM    130  C   UNL A   1      38.938  32.222  34.636  1.00  0.00     0.198 A 
ATOM    131  F   UNL A   1      41.208  31.752  34.237  1.00  0.00    -0.203 F 
ATOM    132  F   UNL A   1      36.670  34.505  32.972  1.00  0.00    -0.200 F 
ATOM    133  C   UNL A   1      37.781  32.918  34.320  1.00  0.00     0.200 A 
ATOM    134  F   UNL A   1      38.937  31.346  35.650  1.00  0.00    -0.200 F 
ATOM    135  F   UNL A   1      36.667  32.728  35.040  1.00  0.00    -0.200 F 
ENDBRANCH 105 125
BRANCH 108 136
ATOM    136  C   UNL A   1      48.138  34.280  26.936  1.00  0.00     0.064 A 
ATOM    137  C   UNL A   1      49.314  33.547  27.146  1.00  0.00     0.173 A 
ATOM    138  C   UNL A   1      48.113  35.183  25.864  1.00  0.00     0.173 A 
ATOM    139  F   UNL A   1      49.392  32.686  28.170  1.00  0.00    -0.203 F 
ATOM    140  C   UNL A   1      50.431  33.730  26.332  1.00  0.00     0.198 A 
ATOM    141  C   UNL A   1      49.220  35.345  25.034  1.00  0.00     0.198 A 
ATOM    142  F   UNL A   1      47.009  35.904  25.618  1.00  0.00    -0.203 F 
ATOM    143  F   UNL A   1      51.559  33.053  26.585  1.00  0.00    -0.200 F 
ATOM    144  C   UNL A   1      50.381  34.625  25.274  1.00  0.00     0.200 A 
ATOM    145  F   UNL A   1      49.162  36.200  24.004  1.00  0.00    -0.200 F 
ATOM    146  F   UNL A   1      51.454  34.801  24.491  1.00  0.00    -0.200 F 
ENDBRANCH 108 136
BRANCH 123 147
ATOM    147  C   UNL A   1      45.562  38.009  32.226  1.00  0.00     0.064 A 
ATOM    148  C   UNL A   1      46.521  37.978  33.249  1.00  0.00     0.173 A 
ATOM    149  C   UNL A   1      45.074  39.259  31.818  1.00  0.00     0.173 A 
ATOM    150  F   UNL A   1      47.007  36.806  33.685  1.00  0.00    -0.203 F 
ATOM    151  C   UNL A   1      46.956  39.154  33.855  1.00  0.00     0.198 A 
ATOM    152  C   UNL A   1      45.532  40.434  32.407  1.00  0.00     0.198 A 
ATOM    153  F   UNL A   1      44.160  39.340  30.840  1.00  0.00    -0.203 F 
ATOM    154  F   UNL A   1      47.839  39.099  34.862  1.00  0.00    -0.200 F 
ATOM    155  C   UNL A   1      46.468  40.380  33.429  1.00  0.00     0.200 A 
ATOM    156  F   UNL A   1      45.069  41.618  31.985  1.00  0.00    -0.200 F 
ATOM    157  F   UNL A   1      46.893  41.511  34.008  1.00  0.00    -0.200 F 
ENDBRANCH 123 147
ENDBRANCH  88  91
ENDBRANCH  78  81
ENDBRANCH  74  77
ENDBRANCH  71  74
ENDBRANCH  68  71
ENDBRANCH  65  68
ENDBRANCH   1  65
TORSDOF 22
ENDMDL
MODEL 7
REMARK VINA RESULT:     -11.1      5.476     10.500
REMARK SMILES COc1ccc([C@H]2CC(c3ccc(S(C)(=O)=O)cc3)=NN2c2ccc(C(=O)NCCCCCCNC(=O)c3ccc(-c4c5nc(c(-c6c(F)c(F)c(F)c(F)c6F)c6ccc([nH]6)c(-c6c(F)c(F)c(F)c(F)c6F)c6nc(c(-c7c(F)c(F)c(F)c(F)c7F)c7ccc4[nH]7)C=C6)C=C5)cc3)cc2)cc1OC
REMARK SMILES IDX 30 1 29 4 28 7 26 8 27 9 25 11 22 12 23 13 102 14 24 15
REMARK SMILES IDX 101 17 21 21 7 22 8 23 9 25 20 28 6 29 3 30 4 31 104 32 5 33
REMARK SMILES IDX 103 35 2 38 1 39 105 43 106 44 10 48 11 49 19 50 12 51 18 53
REMARK SMILES IDX 13 55 14 58 16 59 17 60 15 61 31 65 32 68 33 71 34 74 35 77
REMARK SMILES IDX 36 78 37 80 38 81 39 82 100 83 40 84 99 86 41 88 42 91 43 92
REMARK SMILES IDX 93 93 44 94 98 95 92 96 94 97 45 98 97 99 91 101 90 103
REMARK SMILES IDX 46 105 78 108 58 109 77 110 59 111 62 112 76 113 95 114
REMARK SMILES IDX 60 115 61 117 75 119 96 120 63 123 47 125 48 126 56 127
REMARK SMILES IDX 49 128 50 129 54 130 57 131 51 132 52 133 55 134 53 135
REMARK SMILES IDX 79 136 80 137 88 138 81 139 82 140 86 141 89 142 83 143
REMARK SMILES IDX 84 144 87 145 85 146 64 147 65 148 73 149 66 150 67 151
REMARK SMILES IDX 71 152 74 153 68 154 69 155 72 156 70 157
REMARK H PARENT 30 2 30 3 29 5 29 6 28 10 23 16 102 18 24 19 101 20 7 24 8 26
REMARK H PARENT 8 27 4 34 5 36 103 37 1 40 1 41 1 42 106 45 106 46 106 47
REMARK H PARENT 11 52 19 54 12 56 18 57 15 62 15 63 15 64 31 66 31 67 32 69
REMARK H PARENT 32 70 33 72 33 73 34 75 34 76 35 79 39 85 100 87 40 89 99 90
REMARK H PARENT 98 100 92 102 94 104 97 106 91 107 59 116 62 118 95 121 60 122
REMARK H PARENT 96 124
REMARK Flexibility Score: inf
ROOT
ATOM      1  C   UNL A   1      40.789  26.362  27.127  1.00  0.00    -0.036 C 
ATOM      2  H   UNL A   1      40.318  26.227  28.078  1.00  0.00     0.028 H 
ATOM      3  H   UNL A   1      40.808  27.391  26.834  1.00  0.00     0.028 H 
ENDROOT
BRANCH   1   4
ATOM      4  C   UNL A   1      39.983  25.602  26.071  1.00  0.00     0.018 C 
ATOM      5  H   UNL A   1      38.968  25.939  26.087  1.00  0.00     0.049 H 
ATOM      6  H   UNL A   1      40.406  25.781  25.105  1.00  0.00     0.049 H 
BRANCH   4   7
ATOM      7  N   UNL A   1      40.022  24.182  26.356  1.00  0.00    -0.352 N 
ATOM      8  C   UNL A   1      39.070  23.200  26.290  1.00  0.00     0.251 C 
ATOM      9  O   UNL A   1      39.400  22.065  26.635  1.00  0.00    -0.269 OA
ATOM     10  H   UNL A   1      40.904  23.861  26.655  1.00  0.00     0.163 HD
BRANCH   8  11
ATOM     11  C   UNL A   1      37.698  23.429  25.762  1.00  0.00     0.039 A 
ATOM     12  C   UNL A   1      35.194  23.890  24.537  1.00  0.00     0.060 A 
ATOM     13  C   UNL A   1      36.192  23.169  23.875  1.00  0.00    -0.036 A 
ATOM     14  C   UNL A   1      35.438  24.317  25.843  1.00  0.00    -0.036 A 
ATOM     15  C   UNL A   1      37.437  22.957  24.470  1.00  0.00    -0.047 A 
ATOM     16  H   UNL A   1      36.006  22.790  22.934  1.00  0.00     0.065 H 
ATOM     17  C   UNL A   1      36.664  24.052  26.467  1.00  0.00    -0.047 A 
ATOM     18  H   UNL A   1      34.707  24.834  26.356  1.00  0.00     0.065 H 
ATOM     19  H   UNL A   1      38.170  22.447  23.954  1.00  0.00     0.063 H 
ATOM     20  H   UNL A   1      36.805  24.319  27.454  1.00  0.00     0.063 H 
BRANCH  12  21
ATOM     21  N   UNL A   1      33.988  24.137  23.908  1.00  0.00    -0.257 N 
ATOM     22  C   UNL A   1      33.420  23.313  22.842  1.00  0.00     0.083 C 
ATOM     23  C   UNL A   1      32.207  24.142  22.394  1.00  0.00     0.019 C 
ATOM     24  H   UNL A   1      34.107  23.110  22.048  1.00  0.00     0.061 H 
ATOM     25  C   UNL A   1      32.356  25.336  23.294  1.00  0.00     0.071 C 
ATOM     26  H   UNL A   1      31.286  23.626  22.569  1.00  0.00     0.036 H 
ATOM     27  H   UNL A   1      32.179  24.368  21.347  1.00  0.00     0.036 H 
ATOM     28  N   UNL A   1      33.362  25.320  24.110  1.00  0.00    -0.176 NA
BRANCH  22  29
ATOM     29  C   UNL A   1      33.023  21.933  23.341  1.00  0.00    -0.019 A 
ATOM     30  C   UNL A   1      32.307  19.375  24.289  1.00  0.00     0.160 A 
ATOM     31  C   UNL A   1      32.111  19.718  22.944  1.00  0.00    -0.016 A 
ATOM     32  C   UNL A   1      32.882  20.295  25.170  1.00  0.00     0.161 A 
ATOM     33  C   UNL A   1      32.459  20.989  22.474  1.00  0.00    -0.053 A 
ATOM     34  H   UNL A   1      31.707  19.026  22.293  1.00  0.00     0.066 H 
ATOM     35  C   UNL A   1      33.228  21.563  24.683  1.00  0.00    -0.011 A 
ATOM     36  H   UNL A   1      32.299  21.233  21.484  1.00  0.00     0.063 H 
ATOM     37  H   UNL A   1      33.647  22.248  25.330  1.00  0.00     0.067 H 
BRANCH  30  38
ATOM     38  O   UNL A   1      32.019  18.093  24.676  1.00  0.00    -0.493 OA
BRANCH  38  39
ATOM     39  C   UNL A   1      32.862  17.140  24.027  1.00  0.00     0.078 C 
ATOM     40  H   UNL A   1      32.309  16.636  23.263  1.00  0.00     0.067 H 
ATOM     41  H   UNL A   1      33.210  16.427  24.745  1.00  0.00     0.067 H 
ATOM     42  H   UNL A   1      33.698  17.644  23.590  1.00  0.00     0.067 H 
ENDBRANCH  38  39
ENDBRANCH  30  38
BRANCH  32  43
ATOM     43  O   UNL A   1      33.188  20.142  26.494  1.00  0.00    -0.493 OA
BRANCH  43  44
ATOM     44  C   UNL A   1      33.626  21.273  27.227  1.00  0.00     0.078 C 
ATOM     45  H   UNL A   1      34.662  21.162  27.470  1.00  0.00     0.067 H 
ATOM     46  H   UNL A   1      33.056  21.357  28.129  1.00  0.00     0.067 H 
ATOM     47  H   UNL A   1      33.490  22.155  26.637  1.00  0.00     0.067 H 
ENDBRANCH  43  44
ENDBRANCH  32  43
ENDBRANCH  22  29
BRANCH  25  48
ATOM     48  C   UNL A   1      31.437  26.474  23.209  1.00  0.00    -0.002 A 
ATOM     49  C   UNL A   1      31.937  27.704  22.772  1.00  0.00    -0.052 A 
ATOM     50  C   UNL A   1      30.104  26.332  23.600  1.00  0.00    -0.052 A 
ATOM     51  C   UNL A   1      31.088  28.807  22.704  1.00  0.00    -0.043 A 
ATOM     52  H   UNL A   1      32.928  27.794  22.500  1.00  0.00     0.063 H 
ATOM     53  C   UNL A   1      29.259  27.442  23.558  1.00  0.00    -0.043 A 
ATOM     54  H   UNL A   1      29.748  25.417  23.916  1.00  0.00     0.063 H 
ATOM     55  C   UNL A   1      29.756  28.673  23.112  1.00  0.00     0.067 A 
ATOM     56  H   UNL A   1      31.438  29.714  22.355  1.00  0.00     0.064 H 
ATOM     57  H   UNL A   1      28.274  27.357  23.853  1.00  0.00     0.064 H 
BRANCH  55  58
ATOM     58  S   UNL A   1      28.686  30.090  23.038  1.00  0.00     0.175 S 
ATOM     59  O   UNL A   1      27.333  29.599  23.217  1.00  0.00    -0.224 OA
ATOM     60  O   UNL A   1      29.237  31.103  23.920  1.00  0.00    -0.224 OA
BRANCH  58  61
ATOM     61  C   UNL A   1      28.856  30.678  21.373  1.00  0.00     0.043 C 
ATOM     62  H   UNL A   1      28.431  29.966  20.698  1.00  0.00     0.040 H 
ATOM     63  H   UNL A   1      29.894  30.810  21.146  1.00  0.00     0.040 H 
ATOM     64  H   UNL A   1      28.348  31.614  21.271  1.00  0.00     0.040 H 
ENDBRANCH  58  61
ENDBRANCH  55  58
ENDBRANCH  25  48
ENDBRANCH  12  21
ENDBRANCH   8  11
ENDBRANCH   4   7
ENDBRANCH   1   4
BRANCH   1  65
ATOM     65  C   UNL A   1      42.244  25.885  27.228  1.00  0.00    -0.052 C 
ATOM     66  H   UNL A   1      42.242  24.889  27.620  1.00  0.00     0.027 H 
ATOM     67  H   UNL A   1      42.748  26.584  27.862  1.00  0.00     0.027 H 
BRANCH  65  68
ATOM     68  C   UNL A   1      43.009  25.874  25.899  1.00  0.00    -0.052 C 
ATOM     69  H   UNL A   1      43.841  26.539  25.989  1.00  0.00     0.027 H 
ATOM     70  H   UNL A   1      42.307  26.172  25.147  1.00  0.00     0.027 H 
BRANCH  68  71
ATOM     71  C   UNL A   1      43.539  24.504  25.471  1.00  0.00    -0.036 C 
ATOM     72  H   UNL A   1      44.419  24.653  24.881  1.00  0.00     0.028 H 
ATOM     73  H   UNL A   1      42.751  24.024  24.930  1.00  0.00     0.028 H 
BRANCH  71  74
ATOM     74  C   UNL A   1      43.895  23.579  26.632  1.00  0.00     0.018 C 
ATOM     75  H   UNL A   1      43.493  22.607  26.437  1.00  0.00     0.049 H 
ATOM     76  H   UNL A   1      43.480  23.993  27.528  1.00  0.00     0.049 H 
BRANCH  74  77
ATOM     77  N   UNL A   1      45.334  23.466  26.809  1.00  0.00    -0.352 N 
ATOM     78  C   UNL A   1      46.176  24.228  27.580  1.00  0.00     0.251 C 
ATOM     79  H   UNL A   1      45.766  22.742  26.302  1.00  0.00     0.163 HD
ATOM     80  O   UNL A   1      47.391  24.142  27.441  1.00  0.00    -0.269 OA
BRANCH  78  81
ATOM     81  C   UNL A   1      45.614  25.165  28.574  1.00  0.00     0.039 A 
ATOM     82  C   UNL A   1      45.881  26.530  28.443  1.00  0.00    -0.049 A 
ATOM     83  C   UNL A   1      44.846  24.696  29.644  1.00  0.00    -0.049 A 
ATOM     84  C   UNL A   1      45.334  27.432  29.358  1.00  0.00    -0.053 A 
ATOM     85  H   UNL A   1      46.479  26.870  27.675  1.00  0.00     0.063 H 
ATOM     86  C   UNL A   1      44.249  25.601  30.517  1.00  0.00    -0.053 A 
ATOM     87  H   UNL A   1      44.721  23.682  29.786  1.00  0.00     0.063 H 
ATOM     88  C   UNL A   1      44.491  26.977  30.385  1.00  0.00    -0.014 A 
ATOM     89  H   UNL A   1      45.549  28.438  29.278  1.00  0.00     0.063 H 
ATOM     90  H   UNL A   1      43.625  25.258  31.264  1.00  0.00     0.063 H 
BRANCH  88  91
ATOM     91  C   UNL A   1      43.859  27.925  31.337  1.00  0.00     0.031 A 
ATOM     92  C   UNL A   1      44.456  28.133  32.701  1.00  0.00     0.074 A 
ATOM     93  C   UNL A   1      42.714  28.544  30.996  1.00  0.00     0.049 A 
ATOM     94  N   UNL A   1      44.010  28.855  33.698  1.00  0.00    -0.248 NA
ATOM     95  C   UNL A   1      45.707  27.414  32.992  1.00  0.00    -0.034 C 
ATOM     96  C   UNL A   1      42.014  28.386  29.720  1.00  0.00    -0.036 A 
ATOM     97  N   UNL A   1      41.927  29.422  31.699  1.00  0.00    -0.354 N 
ATOM     98  C   UNL A   1      44.913  28.665  34.736  1.00  0.00     0.074 A 
ATOM     99  C   UNL A   1      45.906  27.723  34.266  1.00  0.00    -0.034 C 
ATOM    100  H   UNL A   1      46.279  26.824  32.368  1.00  0.00     0.065 H 
ATOM    101  C   UNL A   1      40.913  29.153  29.726  1.00  0.00    -0.036 A 
ATOM    102  H   UNL A   1      42.320  27.783  28.941  1.00  0.00     0.065 H 
ATOM    103  C   UNL A   1      40.808  29.828  31.015  1.00  0.00     0.049 A 
ATOM    104  H   UNL A   1      42.144  29.730  32.609  1.00  0.00     0.167 HD
ATOM    105  C   UNL A   1      44.924  29.239  35.961  1.00  0.00     0.037 A 
ATOM    106  H   UNL A   1      46.671  27.342  34.845  1.00  0.00     0.065 H 
ATOM    107  H   UNL A   1      40.246  29.250  28.942  1.00  0.00     0.065 H 
ATOM    108  C   UNL A   1      39.807  30.646  31.391  1.00  0.00     0.037 A 
ATOM    109  C   UNL A   1      43.952  30.200  36.413  1.00  0.00     0.049 A 
ATOM    110  C   UNL A   1      39.847  31.277  32.757  1.00  0.00     0.074 A 
ATOM    111  C   UNL A   1      43.911  30.887  37.613  1.00  0.00    -0.036 A 
ATOM    112  N   UNL A   1      42.848  30.609  35.680  1.00  0.00    -0.354 N 
ATOM    113  N   UNL A   1      40.742  31.139  33.705  1.00  0.00    -0.248 NA
ATOM    114  C   UNL A   1      38.742  32.182  33.102  1.00  0.00    -0.034 C 
ATOM    115  C   UNL A   1      42.760  31.682  37.624  1.00  0.00    -0.036 A 
ATOM    116  H   UNL A   1      44.610  30.824  38.370  1.00  0.00     0.065 H 
ATOM    117  C   UNL A   1      42.110  31.525  36.412  1.00  0.00     0.049 A 
ATOM    118  H   UNL A   1      42.622  30.295  34.775  1.00  0.00     0.167 HD
ATOM    119  C   UNL A   1      40.326  31.960  34.744  1.00  0.00     0.074 A 
ATOM    120  C   UNL A   1      39.104  32.603  34.305  1.00  0.00    -0.034 C 
ATOM    121  H   UNL A   1      37.903  32.424  32.552  1.00  0.00     0.065 H 
ATOM    122  H   UNL A   1      42.448  32.281  38.404  1.00  0.00     0.065 H 
ATOM    123  C   UNL A   1      40.902  32.164  35.954  1.00  0.00     0.037 A 
ATOM    124  H   UNL A   1      38.582  33.301  34.858  1.00  0.00     0.065 H 
BRANCH 105 125
ATOM    125  C   UNL A   1      46.026  28.853  36.904  1.00  0.00     0.064 A 
ATOM    126  C   UNL A   1      45.881  27.791  37.808  1.00  0.00     0.173 A 
ATOM    127  C   UNL A   1      47.260  29.520  36.870  1.00  0.00     0.173 A 
ATOM    128  F   UNL A   1      44.717  27.127  37.889  1.00  0.00    -0.203 F 
ATOM    129  C   UNL A   1      46.920  27.426  38.660  1.00  0.00     0.198 A 
ATOM    130  C   UNL A   1      48.308  29.135  37.702  1.00  0.00     0.198 A 
ATOM    131  F   UNL A   1      47.454  30.540  36.020  1.00  0.00    -0.203 F 
ATOM    132  F   UNL A   1      46.743  26.436  39.545  1.00  0.00    -0.200 F 
ATOM    133  C   UNL A   1      48.135  28.093  38.600  1.00  0.00     0.200 A 
ATOM    134  F   UNL A   1      49.485  29.771  37.634  1.00  0.00    -0.200 F 
ATOM    135  F   UNL A   1      49.138  27.734  39.413  1.00  0.00    -0.200 F 
ENDBRANCH 105 125
BRANCH 108 136
ATOM    136  C   UNL A   1      38.690  30.935  30.454  1.00  0.00     0.064 A 
ATOM    137  C   UNL A   1      37.668  29.999  30.243  1.00  0.00     0.173 A 
ATOM    138  C   UNL A   1      38.625  32.143  29.745  1.00  0.00     0.173 A 
ATOM    139  F   UNL A   1      37.697  28.821  30.883  1.00  0.00    -0.203 F 
ATOM    140  C   UNL A   1      36.637  30.250  29.340  1.00  0.00     0.198 A 
ATOM    141  C   UNL A   1      37.579  32.406  28.863  1.00  0.00     0.198 A 
ATOM    142  F   UNL A   1      39.576  33.074  29.916  1.00  0.00    -0.203 F 
ATOM    143  F   UNL A   1      35.700  29.318  29.120  1.00  0.00    -0.200 F 
ATOM    144  C   UNL A   1      36.590  31.455  28.655  1.00  0.00     0.200 A 
ATOM    145  F   UNL A   1      37.530  33.577  28.214  1.00  0.00    -0.200 F 
ATOM    146  F   UNL A   1      35.599  31.697  27.786  1.00  0.00    -0.200 F 
ENDBRANCH 108 136
BRANCH 123 147
ATOM    147  C   UNL A   1      40.242  33.149  36.874  1.00  0.00     0.064 A 
ATOM    148  C   UNL A   1      39.128  32.796  37.650  1.00  0.00     0.173 A 
ATOM    149  C   UNL A   1      40.756  34.447  37.009  1.00  0.00     0.173 A 
ATOM    150  F   UNL A   1      38.591  31.572  37.544  1.00  0.00    -0.203 F 
ATOM    151  C   UNL A   1      38.539  33.718  38.512  1.00  0.00     0.198 A 
ATOM    152  C   UNL A   1      40.181  35.356  37.893  1.00  0.00     0.198 A 
ATOM    153  F   UNL A   1      41.823  34.829  36.292  1.00  0.00    -0.203 F 
ATOM    154  F   UNL A   1      37.448  33.375  39.211  1.00  0.00    -0.200 F 
ATOM    155  C   UNL A   1      39.070  34.992  38.638  1.00  0.00     0.200 A 
ATOM    156  F   UNL A   1      40.703  36.583  38.023  1.00  0.00    -0.200 F 
ATOM    157  F   UNL A   1      38.506  35.875  39.474  1.00  0.00    -0.200 F 
ENDBRANCH 123 147
ENDBRANCH  88  91
ENDBRANCH  78  81
ENDBRANCH  74  77
ENDBRANCH  71  74
ENDBRANCH  68  71
ENDBRANCH  65  68
ENDBRANCH   1  65
TORSDOF 22
ENDMDL
MODEL 8
REMARK VINA RESULT:     -11.1      5.650     12.142
REMARK SMILES COc1ccc([C@H]2CC(c3ccc(S(C)(=O)=O)cc3)=NN2c2ccc(C(=O)NCCCCCCNC(=O)c3ccc(-c4c5nc(c(-c6c(F)c(F)c(F)c(F)c6F)c6ccc([nH]6)c(-c6c(F)c(F)c(F)c(F)c6F)c6nc(c(-c7c(F)c(F)c(F)c(F)c7F)c7ccc4[nH]7)C=C6)C=C5)cc3)cc2)cc1OC
REMARK SMILES IDX 30 1 29 4 28 7 26 8 27 9 25 11 22 12 23 13 102 14 24 15
REMARK SMILES IDX 101 17 21 21 7 22 8 23 9 25 20 28 6 29 3 30 4 31 104 32 5 33
REMARK SMILES IDX 103 35 2 38 1 39 105 43 106 44 10 48 11 49 19 50 12 51 18 53
REMARK SMILES IDX 13 55 14 58 16 59 17 60 15 61 31 65 32 68 33 71 34 74 35 77
REMARK SMILES IDX 36 78 37 80 38 81 39 82 100 83 40 84 99 86 41 88 42 91 43 92
REMARK SMILES IDX 93 93 44 94 98 95 92 96 94 97 45 98 97 99 91 101 90 103
REMARK SMILES IDX 46 105 78 108 58 109 77 110 59 111 62 112 76 113 95 114
REMARK SMILES IDX 60 115 61 117 75 119 96 120 63 123 47 125 48 126 56 127
REMARK SMILES IDX 49 128 50 129 54 130 57 131 51 132 52 133 55 134 53 135
REMARK SMILES IDX 79 136 80 137 88 138 81 139 82 140 86 141 89 142 83 143
REMARK SMILES IDX 84 144 87 145 85 146 64 147 65 148 73 149 66 150 67 151
REMARK SMILES IDX 71 152 74 153 68 154 69 155 72 156 70 157
REMARK H PARENT 30 2 30 3 29 5 29 6 28 10 23 16 102 18 24 19 101 20 7 24 8 26
REMARK H PARENT 8 27 4 34 5 36 103 37 1 40 1 41 1 42 106 45 106 46 106 47
REMARK H PARENT 11 52 19 54 12 56 18 57 15 62 15 63 15 64 31 66 31 67 32 69
REMARK H PARENT 32 70 33 72 33 73 34 75 34 76 35 79 39 85 100 87 40 89 99 90
REMARK H PARENT 98 100 92 102 94 104 97 106 91 107 59 116 62 118 95 121 60 122
REMARK H PARENT 96 124
REMARK Flexibility Score: inf
ROOT
ATOM      1  C   UNL A   1      43.653  24.612  28.718  1.00  0.00    -0.036 C 
ATOM      2  H   UNL A   1      44.137  24.305  29.622  1.00  0.00     0.028 H 
ATOM      3  H   UNL A   1      44.338  25.067  28.034  1.00  0.00     0.028 H 
ENDROOT
BRANCH   1   4
ATOM      4  C   UNL A   1      42.591  25.658  29.065  1.00  0.00     0.018 C 
ATOM      5  H   UNL A   1      42.273  25.520  30.077  1.00  0.00     0.049 H 
ATOM      6  H   UNL A   1      43.005  26.636  28.948  1.00  0.00     0.049 H 
BRANCH   4   7
ATOM      7  N   UNL A   1      41.453  25.510  28.180  1.00  0.00    -0.352 N 
ATOM      8  C   UNL A   1      40.259  26.175  28.091  1.00  0.00     0.251 C 
ATOM      9  O   UNL A   1      39.458  25.793  27.238  1.00  0.00    -0.269 OA
ATOM     10  H   UNL A   1      41.560  24.793  27.513  1.00  0.00     0.163 HD
BRANCH   8  11
ATOM     11  C   UNL A   1      39.924  27.363  28.923  1.00  0.00     0.039 A 
ATOM     12  C   UNL A   1      39.059  29.537  30.507  1.00  0.00     0.060 A 
ATOM     13  C   UNL A   1      38.521  28.260  30.690  1.00  0.00    -0.036 A 
ATOM     14  C   UNL A   1      40.082  29.698  29.572  1.00  0.00    -0.036 A 
ATOM     15  C   UNL A   1      38.933  27.188  29.895  1.00  0.00    -0.047 A 
ATOM     16  H   UNL A   1      37.809  28.108  31.421  1.00  0.00     0.065 H 
ATOM     17  C   UNL A   1      40.542  28.612  28.815  1.00  0.00    -0.047 A 
ATOM     18  H   UNL A   1      40.506  30.630  29.435  1.00  0.00     0.065 H 
ATOM     19  H   UNL A   1      38.503  26.260  30.027  1.00  0.00     0.063 H 
ATOM     20  H   UNL A   1      41.341  28.736  28.174  1.00  0.00     0.063 H 
BRANCH  12  21
ATOM     21  N   UNL A   1      38.597  30.595  31.266  1.00  0.00    -0.257 N 
ATOM     22  C   UNL A   1      38.237  31.909  30.735  1.00  0.00     0.083 C 
ATOM     23  C   UNL A   1      37.991  32.726  32.012  1.00  0.00     0.019 C 
ATOM     24  H   UNL A   1      38.988  32.333  30.103  1.00  0.00     0.061 H 
ATOM     25  C   UNL A   1      38.315  31.692  33.053  1.00  0.00     0.071 C 
ATOM     26  H   UNL A   1      36.975  33.057  32.083  1.00  0.00     0.036 H 
ATOM     27  H   UNL A   1      38.560  33.630  32.083  1.00  0.00     0.036 H 
ATOM     28  N   UNL A   1      38.667  30.526  32.616  1.00  0.00    -0.176 NA
BRANCH  22  29
ATOM     29  C   UNL A   1      37.007  31.844  29.845  1.00  0.00    -0.019 A 
ATOM     30  C   UNL A   1      34.706  31.735  28.215  1.00  0.00     0.160 A 
ATOM     31  C   UNL A   1      35.810  30.912  27.949  1.00  0.00    -0.016 A 
ATOM     32  C   UNL A   1      34.730  32.604  29.309  1.00  0.00     0.161 A 
ATOM     33  C   UNL A   1      36.955  30.971  28.752  1.00  0.00    -0.053 A 
ATOM     34  H   UNL A   1      35.778  30.256  27.153  1.00  0.00     0.066 H 
ATOM     35  C   UNL A   1      35.882  32.649  30.106  1.00  0.00    -0.011 A 
ATOM     36  H   UNL A   1      37.764  30.367  28.538  1.00  0.00     0.063 H 
ATOM     37  H   UNL A   1      35.907  33.293  30.911  1.00  0.00     0.067 H 
BRANCH  30  38
ATOM     38  O   UNL A   1      33.586  31.581  27.444  1.00  0.00    -0.493 OA
BRANCH  38  39
ATOM     39  C   UNL A   1      33.405  30.224  27.035  1.00  0.00     0.078 C 
ATOM     40  H   UNL A   1      32.360  29.992  27.021  1.00  0.00     0.067 H 
ATOM     41  H   UNL A   1      33.905  29.575  27.724  1.00  0.00     0.067 H 
ATOM     42  H   UNL A   1      33.814  30.090  26.056  1.00  0.00     0.067 H 
ENDBRANCH  38  39
ENDBRANCH  30  38
BRANCH  32  43
ATOM     43  O   UNL A   1      33.753  33.451  29.755  1.00  0.00    -0.493 OA
BRANCH  43  44
ATOM     44  C   UNL A   1      33.602  34.711  29.125  1.00  0.00     0.078 C 
ATOM     45  H   UNL A   1      32.629  35.102  29.335  1.00  0.00     0.067 H 
ATOM     46  H   UNL A   1      33.719  34.597  28.067  1.00  0.00     0.067 H 
ATOM     47  H   UNL A   1      34.346  35.386  29.494  1.00  0.00     0.067 H 
ENDBRANCH  43  44
ENDBRANCH  32  43
ENDBRANCH  22  29
BRANCH  25  48
ATOM     48  C   UNL A   1      38.278  32.014  34.482  1.00  0.00    -0.002 A 
ATOM     49  C   UNL A   1      37.380  32.989  34.924  1.00  0.00    -0.052 A 
ATOM     50  C   UNL A   1      39.156  31.385  35.368  1.00  0.00    -0.052 A 
ATOM     51  C   UNL A   1      37.342  33.330  36.275  1.00  0.00    -0.043 A 
ATOM     52  H   UNL A   1      36.749  33.455  34.253  1.00  0.00     0.063 H 
ATOM     53  C   UNL A   1      39.138  31.743  36.717  1.00  0.00    -0.043 A 
ATOM     54  H   UNL A   1      39.810  30.663  35.029  1.00  0.00     0.063 H 
ATOM     55  C   UNL A   1      38.232  32.714  37.162  1.00  0.00     0.067 A 
ATOM     56  H   UNL A   1      36.663  34.028  36.618  1.00  0.00     0.064 H 
ATOM     57  H   UNL A   1      39.786  31.295  37.382  1.00  0.00     0.064 H 
BRANCH  55  58
ATOM     58  S   UNL A   1      38.188  33.167  38.880  1.00  0.00     0.175 S 
ATOM     59  O   UNL A   1      39.151  32.321  39.558  1.00  0.00    -0.224 OA
ATOM     60  O   UNL A   1      38.278  34.614  38.955  1.00  0.00    -0.224 OA
BRANCH  58  61
ATOM     61  C   UNL A   1      36.559  32.703  39.410  1.00  0.00     0.043 C 
ATOM     62  H   UNL A   1      36.542  32.621  40.477  1.00  0.00     0.040 H 
ATOM     63  H   UNL A   1      36.297  31.761  38.975  1.00  0.00     0.040 H 
ATOM     64  H   UNL A   1      35.856  33.448  39.098  1.00  0.00     0.040 H 
ENDBRANCH  58  61
ENDBRANCH  55  58
ENDBRANCH  25  48
ENDBRANCH  12  21
ENDBRANCH   8  11
ENDBRANCH   4   7
ENDBRANCH   1   4
BRANCH   1  65
ATOM     65  C   UNL A   1      43.070  23.371  28.029  1.00  0.00    -0.052 C 
ATOM     66  H   UNL A   1      42.057  23.584  27.759  1.00  0.00     0.027 H 
ATOM     67  H   UNL A   1      43.158  22.567  28.730  1.00  0.00     0.027 H 
BRANCH  65  68
ATOM     68  C   UNL A   1      43.819  22.929  26.765  1.00  0.00    -0.052 C 
ATOM     69  H   UNL A   1      43.881  21.862  26.772  1.00  0.00     0.027 H 
ATOM     70  H   UNL A   1      44.774  23.410  26.799  1.00  0.00     0.027 H 
BRANCH  68  71
ATOM     71  C   UNL A   1      43.169  23.359  25.448  1.00  0.00    -0.036 C 
ATOM     72  H   UNL A   1      42.119  23.160  25.510  1.00  0.00     0.028 H 
ATOM     73  H   UNL A   1      43.652  22.804  24.671  1.00  0.00     0.028 H 
BRANCH  71  74
ATOM     74  C   UNL A   1      43.355  24.836  25.109  1.00  0.00     0.018 C 
ATOM     75  H   UNL A   1      43.159  25.419  25.985  1.00  0.00     0.049 H 
ATOM     76  H   UNL A   1      42.674  25.086  24.322  1.00  0.00     0.049 H 
BRANCH  74  77
ATOM     77  N   UNL A   1      44.705  25.116  24.649  1.00  0.00    -0.352 N 
ATOM     78  C   UNL A   1      45.543  26.146  24.994  1.00  0.00     0.251 C 
ATOM     79  H   UNL A   1      45.069  24.477  23.995  1.00  0.00     0.163 HD
ATOM     80  O   UNL A   1      46.561  26.361  24.346  1.00  0.00    -0.269 OA
BRANCH  78  81
ATOM     81  C   UNL A   1      45.209  27.008  26.147  1.00  0.00     0.039 A 
ATOM     82  C   UNL A   1      46.108  27.090  27.213  1.00  0.00    -0.049 A 
ATOM     83  C   UNL A   1      44.003  27.716  26.185  1.00  0.00    -0.049 A 
ATOM     84  C   UNL A   1      45.821  27.922  28.297  1.00  0.00    -0.053 A 
ATOM     85  H   UNL A   1      46.979  26.537  27.200  1.00  0.00     0.063 H 
ATOM     86  C   UNL A   1      43.749  28.594  27.235  1.00  0.00    -0.053 A 
ATOM     87  H   UNL A   1      43.305  27.588  25.437  1.00  0.00     0.063 H 
ATOM     88  C   UNL A   1      44.653  28.701  28.303  1.00  0.00    -0.014 A 
ATOM     89  H   UNL A   1      46.471  27.965  29.097  1.00  0.00     0.063 H 
ATOM     90  H   UNL A   1      42.892  29.168  27.227  1.00  0.00     0.063 H 
BRANCH  88  91
ATOM     91  C   UNL A   1      44.354  29.630  29.422  1.00  0.00     0.031 A 
ATOM     92  C   UNL A   1      44.070  29.089  30.795  1.00  0.00     0.074 A 
ATOM     93  C   UNL A   1      44.275  30.953  29.184  1.00  0.00     0.049 A 
ATOM     94  N   UNL A   1      43.714  29.730  31.879  1.00  0.00    -0.248 NA
ATOM     95  C   UNL A   1      44.175  27.631  30.966  1.00  0.00    -0.034 C 
ATOM     96  C   UNL A   1      44.484  31.592  27.884  1.00  0.00    -0.036 A 
ATOM     97  N   UNL A   1      43.982  31.997  30.025  1.00  0.00    -0.354 N 
ATOM     98  C   UNL A   1      43.536  28.755  32.853  1.00  0.00     0.074 A 
ATOM     99  C   UNL A   1      43.778  27.476  32.221  1.00  0.00    -0.034 C 
ATOM    100  H   UNL A   1      44.479  26.916  30.287  1.00  0.00     0.065 H 
ATOM    101  C   UNL A   1      44.330  32.919  28.018  1.00  0.00    -0.036 A 
ATOM    102  H   UNL A   1      44.715  31.102  27.006  1.00  0.00     0.065 H 
ATOM    103  C   UNL A   1      43.976  33.221  29.401  1.00  0.00     0.049 A 
ATOM    104  H   UNL A   1      43.794  31.880  30.984  1.00  0.00     0.167 HD
ATOM    105  C   UNL A   1      43.221  28.915  34.160  1.00  0.00     0.037 A 
ATOM    106  H   UNL A   1      43.657  26.562  32.686  1.00  0.00     0.065 H 
ATOM    107  H   UNL A   1      44.443  33.614  27.263  1.00  0.00     0.065 H 
ATOM    108  C   UNL A   1      43.706  34.446  29.890  1.00  0.00     0.037 A 
ATOM    109  C   UNL A   1      43.014  30.192  34.792  1.00  0.00     0.049 A 
ATOM    110  C   UNL A   1      43.365  34.596  31.348  1.00  0.00     0.074 A 
ATOM    111  C   UNL A   1      42.753  30.463  36.123  1.00  0.00    -0.036 A 
ATOM    112  N   UNL A   1      43.044  31.412  34.134  1.00  0.00    -0.354 N 
ATOM    113  N   UNL A   1      43.265  33.673  32.274  1.00  0.00    -0.248 NA
ATOM    114  C   UNL A   1      43.106  35.959  31.831  1.00  0.00    -0.034 C 
ATOM    115  C   UNL A   1      42.584  31.845  36.264  1.00  0.00    -0.036 A 
ATOM    116  H   UNL A   1      42.693  29.766  36.882  1.00  0.00     0.065 H 
ATOM    117  C   UNL A   1      42.787  32.437  35.029  1.00  0.00     0.049 A 
ATOM    118  H   UNL A   1      43.221  31.532  33.172  1.00  0.00     0.167 HD
ATOM    119  C   UNL A   1      42.963  34.343  33.451  1.00  0.00     0.074 A 
ATOM    120  C   UNL A   1      42.908  35.753  33.125  1.00  0.00    -0.034 C 
ATOM    121  H   UNL A   1      43.084  36.844  31.301  1.00  0.00     0.065 H 
ATOM    122  H   UNL A   1      42.347  32.338  37.139  1.00  0.00     0.065 H 
ATOM    123  C   UNL A   1      42.749  33.837  34.690  1.00  0.00     0.037 A 
ATOM    124  H   UNL A   1      42.738  36.503  33.814  1.00  0.00     0.065 H 
BRANCH 105 125
ATOM    125  C   UNL A   1      43.089  27.680  35.002  1.00  0.00     0.064 A 
ATOM    126  C   UNL A   1      44.122  27.254  35.850  1.00  0.00     0.173 A 
ATOM    127  C   UNL A   1      41.897  26.940  34.998  1.00  0.00     0.173 A 
ATOM    128  F   UNL A   1      45.286  27.920  35.882  1.00  0.00    -0.203 F 
ATOM    129  C   UNL A   1      43.976  26.121  36.645  1.00  0.00     0.198 A 
ATOM    130  C   UNL A   1      41.744  25.823  35.816  1.00  0.00     0.198 A 
ATOM    131  F   UNL A   1      40.875  27.306  34.210  1.00  0.00    -0.203 F 
ATOM    132  F   UNL A   1      44.993  25.708  37.415  1.00  0.00    -0.200 F 
ATOM    133  C   UNL A   1      42.785  25.411  36.633  1.00  0.00     0.200 A 
ATOM    134  F   UNL A   1      40.587  25.146  35.814  1.00  0.00    -0.200 F 
ATOM    135  F   UNL A   1      42.643  24.326  37.407  1.00  0.00    -0.200 F 
ENDBRANCH 105 125
BRANCH 108 136
ATOM    136  C   UNL A   1      43.767  35.633  28.998  1.00  0.00     0.064 A 
ATOM    137  C   UNL A   1      42.618  36.104  28.347  1.00  0.00     0.173 A 
ATOM    138  C   UNL A   1      44.971  36.314  28.772  1.00  0.00     0.173 A 
ATOM    139  F   UNL A   1      41.447  35.473  28.517  1.00  0.00    -0.203 F 
ATOM    140  C   UNL A   1      42.677  37.196  27.483  1.00  0.00     0.198 A 
ATOM    141  C   UNL A   1      45.024  37.424  27.930  1.00  0.00     0.198 A 
ATOM    142  F   UNL A   1      46.098  35.908  29.375  1.00  0.00    -0.203 F 
ATOM    143  F   UNL A   1      41.574  37.594  26.835  1.00  0.00    -0.200 F 
ATOM    144  C   UNL A   1      43.878  37.858  27.279  1.00  0.00     0.200 A 
ATOM    145  F   UNL A   1      46.184  38.069  27.747  1.00  0.00    -0.200 F 
ATOM    146  F   UNL A   1      43.935  38.908  26.449  1.00  0.00    -0.200 F 
ENDBRANCH 108 136
BRANCH 123 147
ATOM    147  C   UNL A   1      42.475  34.815  35.794  1.00  0.00     0.064 A 
ATOM    148  C   UNL A   1      43.508  35.346  36.580  1.00  0.00     0.173 A 
ATOM    149  C   UNL A   1      41.166  35.257  36.041  1.00  0.00     0.173 A 
ATOM    150  F   UNL A   1      44.774  34.943  36.393  1.00  0.00    -0.203 F 
ATOM    151  C   UNL A   1      43.236  36.265  37.590  1.00  0.00     0.198 A 
ATOM    152  C   UNL A   1      40.903  36.198  37.032  1.00  0.00     0.198 A 
ATOM    153  F   UNL A   1      40.144  34.783  35.312  1.00  0.00    -0.203 F 
ATOM    154  F   UNL A   1      44.233  36.725  38.359  1.00  0.00    -0.200 F 
ATOM    155  C   UNL A   1      41.937  36.696  37.809  1.00  0.00     0.200 A 
ATOM    156  F   UNL A   1      39.648  36.622  37.234  1.00  0.00    -0.200 F 
ATOM    157  F   UNL A   1      41.679  37.587  38.776  1.00  0.00    -0.200 F 
ENDBRANCH 123 147
ENDBRANCH  88  91
ENDBRANCH  78  81
ENDBRANCH  74  77
ENDBRANCH  71  74
ENDBRANCH  68  71
ENDBRANCH  65  68
ENDBRANCH   1  65
TORSDOF 22
ENDMDL
MODEL 9
REMARK VINA RESULT:     -11.1      0.734      6.787
REMARK SMILES COc1ccc([C@H]2CC(c3ccc(S(C)(=O)=O)cc3)=NN2c2ccc(C(=O)NCCCCCCNC(=O)c3ccc(-c4c5nc(c(-c6c(F)c(F)c(F)c(F)c6F)c6ccc([nH]6)c(-c6c(F)c(F)c(F)c(F)c6F)c6nc(c(-c7c(F)c(F)c(F)c(F)c7F)c7ccc4[nH]7)C=C6)C=C5)cc3)cc2)cc1OC
REMARK SMILES IDX 30 1 29 4 28 7 26 8 27 9 25 11 22 12 23 13 102 14 24 15
REMARK SMILES IDX 101 17 21 21 7 22 8 23 9 25 20 28 6 29 3 30 4 31 104 32 5 33
REMARK SMILES IDX 103 35 2 38 1 39 105 43 106 44 10 48 11 49 19 50 12 51 18 53
REMARK SMILES IDX 13 55 14 58 16 59 17 60 15 61 31 65 32 68 33 71 34 74 35 77
REMARK SMILES IDX 36 78 37 80 38 81 39 82 100 83 40 84 99 86 41 88 42 91 43 92
REMARK SMILES IDX 93 93 44 94 98 95 92 96 94 97 45 98 97 99 91 101 90 103
REMARK SMILES IDX 46 105 78 108 58 109 77 110 59 111 62 112 76 113 95 114
REMARK SMILES IDX 60 115 61 117 75 119 96 120 63 123 47 125 48 126 56 127
REMARK SMILES IDX 49 128 50 129 54 130 57 131 51 132 52 133 55 134 53 135
REMARK SMILES IDX 79 136 80 137 88 138 81 139 82 140 86 141 89 142 83 143
REMARK SMILES IDX 84 144 87 145 85 146 64 147 65 148 73 149 66 150 67 151
REMARK SMILES IDX 71 152 74 153 68 154 69 155 72 156 70 157
REMARK H PARENT 30 2 30 3 29 5 29 6 28 10 23 16 102 18 24 19 101 20 7 24 8 26
REMARK H PARENT 8 27 4 34 5 36 103 37 1 40 1 41 1 42 106 45 106 46 106 47
REMARK H PARENT 11 52 19 54 12 56 18 57 15 62 15 63 15 64 31 66 31 67 32 69
REMARK H PARENT 32 70 33 72 33 73 34 75 34 76 35 79 39 85 100 87 40 89 99 90
REMARK H PARENT 98 100 92 102 94 104 97 106 91 107 59 116 62 118 95 121 60 122
REMARK H PARENT 96 124
REMARK Flexibility Score: inf
ROOT
ATOM      1  C   UNL A   1      37.743  29.994  29.092  1.00  0.00    -0.036 C 
ATOM      2  H   UNL A   1      38.029  30.995  29.337  1.00  0.00     0.028 H 
ATOM      3  H   UNL A   1      38.593  29.372  28.903  1.00  0.00     0.028 H 
ENDROOT
BRANCH   1   4
ATOM      4  C   UNL A   1      36.906  30.026  27.811  1.00  0.00     0.018 C 
ATOM      5  H   UNL A   1      37.537  30.259  26.979  1.00  0.00     0.049 H 
ATOM      6  H   UNL A   1      36.451  29.070  27.660  1.00  0.00     0.049 H 
BRANCH   4   7
ATOM      7  N   UNL A   1      35.873  31.034  27.928  1.00  0.00    -0.352 N 
ATOM      8  C   UNL A   1      34.528  31.015  27.666  1.00  0.00     0.251 C 
ATOM      9  O   UNL A   1      33.901  32.060  27.836  1.00  0.00    -0.269 OA
ATOM     10  H   UNL A   1      36.200  31.901  28.261  1.00  0.00     0.163 HD
BRANCH   8  11
ATOM     11  C   UNL A   1      33.795  29.785  27.259  1.00  0.00     0.039 A 
ATOM     12  C   UNL A   1      32.531  27.456  26.278  1.00  0.00     0.060 A 
ATOM     13  C   UNL A   1      33.879  27.708  26.004  1.00  0.00    -0.036 A 
ATOM     14  C   UNL A   1      31.845  28.346  27.105  1.00  0.00    -0.036 A 
ATOM     15  C   UNL A   1      34.501  28.868  26.471  1.00  0.00    -0.047 A 
ATOM     16  H   UNL A   1      34.420  27.029  25.447  1.00  0.00     0.065 H 
ATOM     17  C   UNL A   1      32.482  29.479  27.627  1.00  0.00    -0.047 A 
ATOM     18  H   UNL A   1      30.854  28.168  27.335  1.00  0.00     0.065 H 
ATOM     19  H   UNL A   1      35.488  29.049  26.234  1.00  0.00     0.063 H 
ATOM     20  H   UNL A   1      31.979  30.092  28.287  1.00  0.00     0.063 H 
BRANCH  12  21
ATOM     21  N   UNL A   1      31.921  26.330  25.759  1.00  0.00    -0.257 N 
ATOM     22  C   UNL A   1      30.493  26.214  25.467  1.00  0.00     0.083 C 
ATOM     23  C   UNL A   1      30.347  24.728  25.110  1.00  0.00     0.019 C 
ATOM     24  H   UNL A   1      29.866  26.516  26.280  1.00  0.00     0.061 H 
ATOM     25  C   UNL A   1      31.761  24.266  25.322  1.00  0.00     0.071 C 
ATOM     26  H   UNL A   1      30.032  24.591  24.097  1.00  0.00     0.036 H 
ATOM     27  H   UNL A   1      29.611  24.199  25.681  1.00  0.00     0.036 H 
ATOM     28  N   UNL A   1      32.611  25.167  25.700  1.00  0.00    -0.176 NA
BRANCH  22  29
ATOM     29  C   UNL A   1      30.071  27.126  24.325  1.00  0.00    -0.019 A 
ATOM     30  C   UNL A   1      29.315  28.833  22.211  1.00  0.00     0.160 A 
ATOM     31  C   UNL A   1      28.348  28.121  22.935  1.00  0.00    -0.016 A 
ATOM     32  C   UNL A   1      30.666  28.718  22.548  1.00  0.00     0.161 A 
ATOM     33  C   UNL A   1      28.722  27.268  23.979  1.00  0.00    -0.053 A 
ATOM     34  H   UNL A   1      27.349  28.227  22.696  1.00  0.00     0.066 H 
ATOM     35  C   UNL A   1      31.025  27.862  23.598  1.00  0.00    -0.011 A 
ATOM     36  H   UNL A   1      28.001  26.742  24.496  1.00  0.00     0.063 H 
ATOM     37  H   UNL A   1      32.022  27.769  23.847  1.00  0.00     0.067 H 
BRANCH  30  38
ATOM     38  O   UNL A   1      28.886  29.709  21.251  1.00  0.00    -0.493 OA
BRANCH  38  39
ATOM     39  C   UNL A   1      28.021  30.709  21.792  1.00  0.00     0.078 C 
ATOM     40  H   UNL A   1      27.815  31.446  21.044  1.00  0.00     0.067 H 
ATOM     41  H   UNL A   1      28.496  31.174  22.631  1.00  0.00     0.067 H 
ATOM     42  H   UNL A   1      27.105  30.254  22.107  1.00  0.00     0.067 H 
ENDBRANCH  38  39
ENDBRANCH  30  38
BRANCH  32  43
ATOM     43  O   UNL A   1      31.746  29.350  21.996  1.00  0.00    -0.493 OA
BRANCH  43  44
ATOM     44  C   UNL A   1      33.047  28.953  22.397  1.00  0.00     0.078 C 
ATOM     45  H   UNL A   1      33.775  29.533  21.872  1.00  0.00     0.067 H 
ATOM     46  H   UNL A   1      33.189  27.916  22.172  1.00  0.00     0.067 H 
ATOM     47  H   UNL A   1      33.157  29.106  23.450  1.00  0.00     0.067 H 
ENDBRANCH  43  44
ENDBRANCH  32  43
ENDBRANCH  22  29
BRANCH  25  48
ATOM     48  C   UNL A   1      32.136  22.860  25.154  1.00  0.00    -0.002 A 
ATOM     49  C   UNL A   1      32.926  22.258  26.137  1.00  0.00    -0.052 A 
ATOM     50  C   UNL A   1      31.744  22.158  24.011  1.00  0.00    -0.052 A 
ATOM     51  C   UNL A   1      33.315  20.928  25.990  1.00  0.00    -0.043 A 
ATOM     52  H   UNL A   1      33.219  22.794  26.968  1.00  0.00     0.063 H 
ATOM     53  C   UNL A   1      32.155  20.834  23.848  1.00  0.00    -0.043 A 
ATOM     54  H   UNL A   1      31.157  22.614  23.295  1.00  0.00     0.063 H 
ATOM     55  C   UNL A   1      32.939  20.228  24.837  1.00  0.00     0.067 A 
ATOM     56  H   UNL A   1      33.874  20.463  26.723  1.00  0.00     0.064 H 
ATOM     57  H   UNL A   1      31.882  20.305  23.005  1.00  0.00     0.064 H 
BRANCH  55  58
ATOM     58  S   UNL A   1      33.454  18.537  24.650  1.00  0.00     0.175 S 
ATOM     59  O   UNL A   1      34.904  18.544  24.629  1.00  0.00    -0.224 OA
ATOM     60  O   UNL A   1      32.724  17.745  25.622  1.00  0.00    -0.224 OA
BRANCH  58  61
ATOM     61  C   UNL A   1      32.870  18.079  23.038  1.00  0.00     0.043 C 
ATOM     62  H   UNL A   1      31.813  18.239  22.983  1.00  0.00     0.040 H 
ATOM     63  H   UNL A   1      33.084  17.046  22.861  1.00  0.00     0.040 H 
ATOM     64  H   UNL A   1      33.360  18.676  22.297  1.00  0.00     0.040 H 
ENDBRANCH  58  61
ENDBRANCH  55  58
ENDBRANCH  25  48
ENDBRANCH  12  21
ENDBRANCH   8  11
ENDBRANCH   4   7
ENDBRANCH   1   4
BRANCH   1  65
ATOM     65  C   UNL A   1      36.989  29.394  30.286  1.00  0.00    -0.052 C 
ATOM     66  H   UNL A   1      37.394  28.423  30.483  1.00  0.00     0.027 H 
ATOM     67  H   UNL A   1      35.956  29.370  30.009  1.00  0.00     0.027 H 
BRANCH  65  68
ATOM     68  C   UNL A   1      37.074  30.219  31.576  1.00  0.00    -0.052 C 
ATOM     69  H   UNL A   1      37.983  30.780  31.553  1.00  0.00     0.027 H 
ATOM     70  H   UNL A   1      37.028  29.518  32.384  1.00  0.00     0.027 H 
BRANCH  68  71
ATOM     71  C   UNL A   1      35.917  31.198  31.792  1.00  0.00    -0.036 C 
ATOM     72  H   UNL A   1      35.816  31.372  32.843  1.00  0.00     0.028 H 
ATOM     73  H   UNL A   1      35.048  30.746  31.360  1.00  0.00     0.028 H 
BRANCH  71  74
ATOM     74  C   UNL A   1      36.098  32.546  31.100  1.00  0.00     0.018 C 
ATOM     75  H   UNL A   1      35.170  32.830  30.647  1.00  0.00     0.049 H 
ATOM     76  H   UNL A   1      36.867  32.442  30.364  1.00  0.00     0.049 H 
BRANCH  74  77
ATOM     77  N   UNL A   1      36.501  33.582  32.037  1.00  0.00    -0.352 N 
ATOM     78  C   UNL A   1      37.757  33.900  32.490  1.00  0.00     0.251 C 
ATOM     79  H   UNL A   1      35.770  34.132  32.398  1.00  0.00     0.163 HD
ATOM     80  O   UNL A   1      37.898  34.653  33.447  1.00  0.00    -0.269 OA
BRANCH  78  81
ATOM     81  C   UNL A   1      38.945  33.323  31.827  1.00  0.00     0.039 A 
ATOM     82  C   UNL A   1      39.781  32.475  32.557  1.00  0.00    -0.049 A 
ATOM     83  C   UNL A   1      39.244  33.637  30.497  1.00  0.00    -0.049 A 
ATOM     84  C   UNL A   1      40.893  31.900  31.937  1.00  0.00    -0.053 A 
ATOM     85  H   UNL A   1      39.580  32.276  33.548  1.00  0.00     0.063 H 
ATOM     86  C   UNL A   1      40.314  33.012  29.863  1.00  0.00    -0.053 A 
ATOM     87  H   UNL A   1      38.673  34.329  29.988  1.00  0.00     0.063 H 
ATOM     88  C   UNL A   1      41.151  32.142  30.578  1.00  0.00    -0.014 A 
ATOM     89  H   UNL A   1      41.526  31.293  32.480  1.00  0.00     0.063 H 
ATOM     90  H   UNL A   1      40.492  33.190  28.862  1.00  0.00     0.063 H 
BRANCH  88  91
ATOM     91  C   UNL A   1      42.298  31.500  29.888  1.00  0.00     0.031 A 
ATOM     92  C   UNL A   1      42.170  30.099  29.359  1.00  0.00     0.074 A 
ATOM     93  C   UNL A   1      43.470  32.155  29.797  1.00  0.00     0.049 A 
ATOM     94  N   UNL A   1      43.079  29.340  28.799  1.00  0.00    -0.248 NA
ATOM     95  C   UNL A   1      40.856  29.454  29.503  1.00  0.00    -0.034 C 
ATOM     96  C   UNL A   1      43.729  33.500  30.313  1.00  0.00    -0.036 A 
ATOM     97  N   UNL A   1      44.670  31.773  29.251  1.00  0.00    -0.354 N 
ATOM     98  C   UNL A   1      42.451  28.128  28.539  1.00  0.00     0.074 A 
ATOM     99  C   UNL A   1      41.100  28.234  29.046  1.00  0.00    -0.034 C 
ATOM    100  H   UNL A   1      39.973  29.849  29.865  1.00  0.00     0.065 H 
ATOM    101  C   UNL A   1      45.001  33.837  30.045  1.00  0.00    -0.036 A 
ATOM    102  H   UNL A   1      43.043  34.095  30.804  1.00  0.00     0.065 H 
ATOM    103  C   UNL A   1      45.656  32.720  29.371  1.00  0.00     0.049 A 
ATOM    104  H   UNL A   1      44.809  30.902  28.815  1.00  0.00     0.167 HD
ATOM    105  C   UNL A   1      42.951  27.035  27.916  1.00  0.00     0.037 A 
ATOM    106  H   UNL A   1      40.415  27.462  29.050  1.00  0.00     0.065 H 
ATOM    107  H   UNL A   1      45.443  34.740  30.278  1.00  0.00     0.065 H 
ATOM    108  C   UNL A   1      46.947  32.688  28.988  1.00  0.00     0.037 A 
ATOM    109  C   UNL A   1      44.286  26.946  27.386  1.00  0.00     0.049 A 
ATOM    110  C   UNL A   1      47.475  31.462  28.292  1.00  0.00     0.074 A 
ATOM    111  C   UNL A   1      44.868  25.906  26.682  1.00  0.00    -0.036 A 
ATOM    112  N   UNL A   1      45.249  27.938  27.501  1.00  0.00    -0.354 N 
ATOM    113  N   UNL A   1      46.853  30.347  27.994  1.00  0.00    -0.248 NA
ATOM    114  C   UNL A   1      48.883  31.493  27.873  1.00  0.00    -0.034 C 
ATOM    115  C   UNL A   1      46.195  26.251  26.407  1.00  0.00    -0.036 A 
ATOM    116  H   UNL A   1      44.402  25.027  26.408  1.00  0.00     0.065 H 
ATOM    117  C   UNL A   1      46.426  27.526  26.898  1.00  0.00     0.049 A 
ATOM    118  H   UNL A   1      45.116  28.806  27.946  1.00  0.00     0.167 HD
ATOM    119  C   UNL A   1      47.780  29.558  27.328  1.00  0.00     0.074 A 
ATOM    120  C   UNL A   1      49.005  30.328  27.254  1.00  0.00    -0.034 C 
ATOM    121  H   UNL A   1      49.590  32.229  28.022  1.00  0.00     0.065 H 
ATOM    122  H   UNL A   1      46.885  25.656  25.922  1.00  0.00     0.065 H 
ATOM    123  C   UNL A   1      47.632  28.310  26.823  1.00  0.00     0.037 A 
ATOM    124  H   UNL A   1      49.864  30.009  26.778  1.00  0.00     0.065 H 
BRANCH 105 125
ATOM    125  C   UNL A   1      42.050  25.845  27.765  1.00  0.00     0.064 A 
ATOM    126  C   UNL A   1      41.010  25.825  26.824  1.00  0.00     0.173 A 
ATOM    127  C   UNL A   1      42.257  24.692  28.537  1.00  0.00     0.173 A 
ATOM    128  F   UNL A   1      40.762  26.906  26.069  1.00  0.00    -0.203 F 
ATOM    129  C   UNL A   1      40.197  24.705  26.676  1.00  0.00     0.198 A 
ATOM    130  C   UNL A   1      41.460  23.562  28.368  1.00  0.00     0.198 A 
ATOM    131  F   UNL A   1      43.241  24.655  29.449  1.00  0.00    -0.203 F 
ATOM    132  F   UNL A   1      39.183  24.725  25.800  1.00  0.00    -0.200 F 
ATOM    133  C   UNL A   1      40.428  23.572  27.442  1.00  0.00     0.200 A 
ATOM    134  F   UNL A   1      41.693  22.464  29.099  1.00  0.00    -0.200 F 
ATOM    135  F   UNL A   1      39.651  22.491  27.292  1.00  0.00    -0.200 F 
ENDBRANCH 105 125
BRANCH 108 136
ATOM    136  C   UNL A   1      47.827  33.860  29.234  1.00  0.00     0.064 A 
ATOM    137  C   UNL A   1      48.550  33.978  30.429  1.00  0.00     0.173 A 
ATOM    138  C   UNL A   1      47.956  34.886  28.288  1.00  0.00     0.173 A 
ATOM    139  F   UNL A   1      48.442  33.031  31.372  1.00  0.00    -0.203 F 
ATOM    140  C   UNL A   1      49.349  35.091  30.680  1.00  0.00     0.198 A 
ATOM    141  C   UNL A   1      48.778  35.986  28.527  1.00  0.00     0.198 A 
ATOM    142  F   UNL A   1      47.290  34.818  27.126  1.00  0.00    -0.203 F 
ATOM    143  F   UNL A   1      49.990  35.203  31.851  1.00  0.00    -0.200 F 
ATOM    144  C   UNL A   1      49.467  36.092  29.727  1.00  0.00     0.200 A 
ATOM    145  F   UNL A   1      48.900  36.943  27.597  1.00  0.00    -0.200 F 
ATOM    146  F   UNL A   1      50.236  37.163  29.966  1.00  0.00    -0.200 F 
ENDBRANCH 108 136
BRANCH 123 147
ATOM    147  C   UNL A   1      48.810  27.710  26.113  1.00  0.00     0.064 A 
ATOM    148  C   UNL A   1      49.883  27.145  26.816  1.00  0.00     0.173 A 
ATOM    149  C   UNL A   1      48.845  27.666  24.711  1.00  0.00     0.173 A 
ATOM    150  F   UNL A   1      49.904  27.176  28.157  1.00  0.00    -0.203 F 
ATOM    151  C   UNL A   1      50.960  26.577  26.140  1.00  0.00     0.198 A 
ATOM    152  C   UNL A   1      49.910  27.073  24.039  1.00  0.00     0.198 A 
ATOM    153  F   UNL A   1      47.839  28.189  23.993  1.00  0.00    -0.203 F 
ATOM    154  F   UNL A   1      51.997  26.083  26.831  1.00  0.00    -0.200 F 
ATOM    155  C   UNL A   1      50.969  26.534  24.754  1.00  0.00     0.200 A 
ATOM    156  F   UNL A   1      49.910  27.021  22.700  1.00  0.00    -0.200 F 
ATOM    157  F   UNL A   1      52.003  25.981  24.106  1.00  0.00    -0.200 F 
ENDBRANCH 123 147
ENDBRANCH  88  91
ENDBRANCH  78  81
ENDBRANCH  74  77
ENDBRANCH  71  74
ENDBRANCH  68  71
ENDBRANCH  65  68
ENDBRANCH   1  65
TORSDOF 22
ENDMDL
MODEL 10
REMARK VINA RESULT:     -11.0      6.020     11.135
REMARK SMILES COc1ccc([C@H]2CC(c3ccc(S(C)(=O)=O)cc3)=NN2c2ccc(C(=O)NCCCCCCNC(=O)c3ccc(-c4c5nc(c(-c6c(F)c(F)c(F)c(F)c6F)c6ccc([nH]6)c(-c6c(F)c(F)c(F)c(F)c6F)c6nc(c(-c7c(F)c(F)c(F)c(F)c7F)c7ccc4[nH]7)C=C6)C=C5)cc3)cc2)cc1OC
REMARK SMILES IDX 30 1 29 4 28 7 26 8 27 9 25 11 22 12 23 13 102 14 24 15
REMARK SMILES IDX 101 17 21 21 7 22 8 23 9 25 20 28 6 29 3 30 4 31 104 32 5 33
REMARK SMILES IDX 103 35 2 38 1 39 105 43 106 44 10 48 11 49 19 50 12 51 18 53
REMARK SMILES IDX 13 55 14 58 16 59 17 60 15 61 31 65 32 68 33 71 34 74 35 77
REMARK SMILES IDX 36 78 37 80 38 81 39 82 100 83 40 84 99 86 41 88 42 91 43 92
REMARK SMILES IDX 93 93 44 94 98 95 92 96 94 97 45 98 97 99 91 101 90 103
REMARK SMILES IDX 46 105 78 108 58 109 77 110 59 111 62 112 76 113 95 114
REMARK SMILES IDX 60 115 61 117 75 119 96 120 63 123 47 125 48 126 56 127
REMARK SMILES IDX 49 128 50 129 54 130 57 131 51 132 52 133 55 134 53 135
REMARK SMILES IDX 79 136 80 137 88 138 81 139 82 140 86 141 89 142 83 143
REMARK SMILES IDX 84 144 87 145 85 146 64 147 65 148 73 149 66 150 67 151
REMARK SMILES IDX 71 152 74 153 68 154 69 155 72 156 70 157
REMARK H PARENT 30 2 30 3 29 5 29 6 28 10 23 16 102 18 24 19 101 20 7 24 8 26
REMARK H PARENT 8 27 4 34 5 36 103 37 1 40 1 41 1 42 106 45 106 46 106 47
REMARK H PARENT 11 52 19 54 12 56 18 57 15 62 15 63 15 64 31 66 31 67 32 69
REMARK H PARENT 32 70 33 72 33 73 34 75 34 76 35 79 39 85 100 87 40 89 99 90
REMARK H PARENT 98 100 92 102 94 104 97 106 91 107 59 116 62 118 95 121 60 122
REMARK H PARENT 96 124
REMARK Flexibility Score: inf
ROOT
ATOM      1  C   UNL A   1      43.262  25.080  28.742  1.00  0.00    -0.036 C 
ATOM      2  H   UNL A   1      43.833  24.741  29.581  1.00  0.00     0.028 H 
ATOM      3  H   UNL A   1      43.879  25.551  28.005  1.00  0.00     0.028 H 
ENDROOT
BRANCH   1   4
ATOM      4  C   UNL A   1      42.252  26.122  29.228  1.00  0.00     0.018 C 
ATOM      5  H   UNL A   1      41.997  25.922  30.247  1.00  0.00     0.049 H 
ATOM      6  H   UNL A   1      42.683  27.097  29.150  1.00  0.00     0.049 H 
BRANCH   4   7
ATOM      7  N   UNL A   1      41.057  26.060  28.412  1.00  0.00    -0.352 N 
ATOM      8  C   UNL A   1      39.894  26.786  28.419  1.00  0.00     0.251 C 
ATOM      9  O   UNL A   1      39.024  26.473  27.606  1.00  0.00    -0.269 OA
ATOM     10  H   UNL A   1      41.085  25.362  27.718  1.00  0.00     0.163 HD
BRANCH   8  11
ATOM     11  C   UNL A   1      39.673  27.961  29.305  1.00  0.00     0.039 A 
ATOM     12  C   UNL A   1      39.013  30.142  30.975  1.00  0.00     0.060 A 
ATOM     13  C   UNL A   1      38.296  28.945  31.046  1.00  0.00    -0.036 A 
ATOM     14  C   UNL A   1      40.106  30.211  30.110  1.00  0.00    -0.036 A 
ATOM     15  C   UNL A   1      38.607  27.872  30.209  1.00  0.00    -0.047 A 
ATOM     16  H   UNL A   1      37.525  28.853  31.726  1.00  0.00     0.065 H 
ATOM     17  C   UNL A   1      40.460  29.115  29.312  1.00  0.00    -0.047 A 
ATOM     18  H   UNL A   1      40.661  31.080  30.057  1.00  0.00     0.065 H 
ATOM     19  H   UNL A   1      38.048  27.007  30.256  1.00  0.00     0.063 H 
ATOM     20  H   UNL A   1      41.308  29.162  28.726  1.00  0.00     0.063 H 
BRANCH  12  21
ATOM     21  N   UNL A   1      38.653  31.211  31.775  1.00  0.00    -0.257 N 
ATOM     22  C   UNL A   1      38.417  32.571  31.293  1.00  0.00     0.083 C 
ATOM     23  C   UNL A   1      38.249  33.360  32.600  1.00  0.00     0.019 C 
ATOM     24  H   UNL A   1      39.204  32.946  30.674  1.00  0.00     0.061 H 
ATOM     25  C   UNL A   1      38.475  32.263  33.602  1.00  0.00     0.071 C 
ATOM     26  H   UNL A   1      37.269  33.781  32.686  1.00  0.00     0.036 H 
ATOM     27  H   UNL A   1      38.900  34.204  32.702  1.00  0.00     0.036 H 
ATOM     28  N   UNL A   1      38.717  31.085  33.121  1.00  0.00    -0.176 NA
BRANCH  22  29
ATOM     29  C   UNL A   1      37.186  32.654  30.406  1.00  0.00    -0.019 A 
ATOM     30  C   UNL A   1      34.883  32.810  28.784  1.00  0.00     0.160 A 
ATOM     31  C   UNL A   1      36.062  32.228  28.297  1.00  0.00    -0.016 A 
ATOM     32  C   UNL A   1      34.833  33.300  30.092  1.00  0.00     0.161 A 
ATOM     33  C   UNL A   1      37.207  32.157  29.097  1.00  0.00    -0.053 A 
ATOM     34  H   UNL A   1      36.085  31.848  27.337  1.00  0.00     0.066 H 
ATOM     35  C   UNL A   1      35.988  33.218  30.883  1.00  0.00    -0.011 A 
ATOM     36  H   UNL A   1      38.071  31.736  28.722  1.00  0.00     0.063 H 
ATOM     37  H   UNL A   1      35.959  33.583  31.847  1.00  0.00     0.067 H 
BRANCH  30  38
ATOM     38  O   UNL A   1      33.772  32.784  27.984  1.00  0.00    -0.493 OA
BRANCH  38  39
ATOM     39  C   UNL A   1      33.404  31.451  27.629  1.00  0.00     0.078 C 
ATOM     40  H   UNL A   1      32.337  31.372  27.591  1.00  0.00     0.067 H 
ATOM     41  H   UNL A   1      33.786  30.769  28.361  1.00  0.00     0.067 H 
ATOM     42  H   UNL A   1      33.814  31.211  26.670  1.00  0.00     0.067 H 
ENDBRANCH  38  39
ENDBRANCH  30  38
BRANCH  32  43
ATOM     43  O   UNL A   1      33.781  33.862  30.760  1.00  0.00    -0.493 OA
BRANCH  43  44
ATOM     44  C   UNL A   1      33.570  35.259  30.648  1.00  0.00     0.078 C 
ATOM     45  H   UNL A   1      34.063  35.760  31.454  1.00  0.00     0.067 H 
ATOM     46  H   UNL A   1      32.521  35.466  30.690  1.00  0.00     0.067 H 
ATOM     47  H   UNL A   1      33.965  35.605  29.716  1.00  0.00     0.067 H 
ENDBRANCH  43  44
ENDBRANCH  32  43
ENDBRANCH  22  29
BRANCH  25  48
ATOM     48  C   UNL A   1      38.469  32.534  35.042  1.00  0.00    -0.002 A 
ATOM     49  C   UNL A   1      39.469  31.960  35.832  1.00  0.00    -0.052 A 
ATOM     50  C   UNL A   1      37.457  33.312  35.607  1.00  0.00    -0.052 A 
ATOM     51  C   UNL A   1      39.472  32.184  37.208  1.00  0.00    -0.043 A 
ATOM     52  H   UNL A   1      40.201  31.376  35.400  1.00  0.00     0.063 H 
ATOM     53  C   UNL A   1      37.443  33.515  36.988  1.00  0.00    -0.043 A 
ATOM     54  H   UNL A   1      36.728  33.733  35.011  1.00  0.00     0.063 H 
ATOM     55  C   UNL A   1      38.449  32.949  37.780  1.00  0.00     0.067 A 
ATOM     56  H   UNL A   1      40.222  31.790  37.799  1.00  0.00     0.064 H 
ATOM     57  H   UNL A   1      36.697  34.080  37.423  1.00  0.00     0.064 H 
BRANCH  55  58
ATOM     58  S   UNL A   1      38.452  33.214  39.537  1.00  0.00     0.175 S 
ATOM     59  O   UNL A   1      39.449  32.318  40.091  1.00  0.00    -0.224 OA
ATOM     60  O   UNL A   1      38.524  34.646  39.766  1.00  0.00    -0.224 OA
BRANCH  58  61
ATOM     61  C   UNL A   1      36.848  32.667  40.063  1.00  0.00     0.043 C 
ATOM     62  H   UNL A   1      36.126  32.905  39.311  1.00  0.00     0.040 H 
ATOM     63  H   UNL A   1      36.586  33.158  40.978  1.00  0.00     0.040 H 
ATOM     64  H   UNL A   1      36.865  31.609  40.220  1.00  0.00     0.040 H 
ENDBRANCH  58  61
ENDBRANCH  55  58
ENDBRANCH  25  48
ENDBRANCH  12  21
ENDBRANCH   8  11
ENDBRANCH   4   7
ENDBRANCH   1   4
BRANCH   1  65
ATOM     65  C   UNL A   1      42.599  23.866  28.078  1.00  0.00    -0.052 C 
ATOM     66  H   UNL A   1      41.656  24.177  27.679  1.00  0.00     0.027 H 
ATOM     67  H   UNL A   1      42.507  23.119  28.839  1.00  0.00     0.027 H 
BRANCH  65  68
ATOM     68  C   UNL A   1      43.413  23.231  26.943  1.00  0.00    -0.052 C 
ATOM     69  H   UNL A   1      43.275  22.172  26.988  1.00  0.00     0.027 H 
ATOM     70  H   UNL A   1      44.428  23.534  27.098  1.00  0.00     0.027 H 
BRANCH  68  71
ATOM     71  C   UNL A   1      43.034  23.702  25.537  1.00  0.00    -0.036 C 
ATOM     72  H   UNL A   1      42.034  23.382  25.334  1.00  0.00     0.028 H 
ATOM     73  H   UNL A   1      43.752  23.277  24.867  1.00  0.00     0.028 H 
BRANCH  71  74
ATOM     74  C   UNL A   1      43.100  25.215  25.343  1.00  0.00     0.018 C 
ATOM     75  H   UNL A   1      42.993  25.691  26.296  1.00  0.00     0.049 H 
ATOM     76  H   UNL A   1      42.309  25.501  24.682  1.00  0.00     0.049 H 
BRANCH  74  77
ATOM     77  N   UNL A   1      44.361  25.627  24.749  1.00  0.00    -0.352 N 
ATOM     78  C   UNL A   1      45.121  26.738  25.013  1.00  0.00     0.251 C 
ATOM     79  H   UNL A   1      44.720  25.024  24.060  1.00  0.00     0.163 HD
ATOM     80  O   UNL A   1      46.042  27.051  24.266  1.00  0.00    -0.269 OA
BRANCH  78  81
ATOM     81  C   UNL A   1      44.821  27.569  26.197  1.00  0.00     0.039 A 
ATOM     82  C   UNL A   1      45.804  27.730  27.177  1.00  0.00    -0.049 A 
ATOM     83  C   UNL A   1      43.567  28.169  26.351  1.00  0.00    -0.049 A 
ATOM     84  C   UNL A   1      45.546  28.535  28.289  1.00  0.00    -0.053 A 
ATOM     85  H   UNL A   1      46.714  27.255  27.081  1.00  0.00     0.063 H 
ATOM     86  C   UNL A   1      43.334  29.022  27.426  1.00  0.00    -0.053 A 
ATOM     87  H   UNL A   1      42.816  27.979  25.669  1.00  0.00     0.063 H 
ATOM     88  C   UNL A   1      44.320  29.209  28.407  1.00  0.00    -0.014 A 
ATOM     89  H   UNL A   1      46.261  28.635  29.026  1.00  0.00     0.063 H 
ATOM     90  H   UNL A   1      42.434  29.519  27.500  1.00  0.00     0.063 H 
BRANCH  88  91
ATOM     91  C   UNL A   1      44.045  30.109  29.555  1.00  0.00     0.031 A 
ATOM     92  C   UNL A   1      43.979  31.596  29.348  1.00  0.00     0.074 A 
ATOM     93  C   UNL A   1      43.923  29.590  30.792  1.00  0.00     0.049 A 
ATOM     94  N   UNL A   1      43.828  32.549  30.233  1.00  0.00    -0.248 NA
ATOM     95  C   UNL A   1      44.127  32.078  27.966  1.00  0.00    -0.034 C 
ATOM     96  C   UNL A   1      44.015  28.168  31.125  1.00  0.00    -0.036 A 
ATOM     97  N   UNL A   1      43.708  30.201  32.002  1.00  0.00    -0.354 N 
ATOM     98  C   UNL A   1      43.880  33.739  29.520  1.00  0.00     0.074 A 
ATOM     99  C   UNL A   1      44.124  33.393  28.136  1.00  0.00    -0.034 C 
ATOM    100  H   UNL A   1      44.212  31.535  27.092  1.00  0.00     0.065 H 
ATOM    101  C   UNL A   1      43.842  28.014  32.447  1.00  0.00    -0.036 A 
ATOM    102  H   UNL A   1      44.185  27.405  30.451  1.00  0.00     0.065 H 
ATOM    103  C   UNL A   1      43.662  29.327  33.059  1.00  0.00     0.049 A 
ATOM    104  H   UNL A   1      43.598  31.174  32.101  1.00  0.00     0.167 HD
ATOM    105  C   UNL A   1      43.719  35.004  29.974  1.00  0.00     0.037 A 
ATOM    106  H   UNL A   1      44.274  34.079  27.379  1.00  0.00     0.065 H 
ATOM    107  H   UNL A   1      43.836  27.112  32.950  1.00  0.00     0.065 H 
ATOM    108  C   UNL A   1      43.503  29.559  34.376  1.00  0.00     0.037 A 
ATOM    109  C   UNL A   1      43.445  35.341  31.347  1.00  0.00     0.049 A 
ATOM    110  C   UNL A   1      43.319  30.975  34.854  1.00  0.00     0.074 A 
ATOM    111  C   UNL A   1      43.202  36.588  31.897  1.00  0.00    -0.036 A 
ATOM    112  N   UNL A   1      43.377  34.426  32.386  1.00  0.00    -0.354 N 
ATOM    113  N   UNL A   1      43.304  32.087  34.160  1.00  0.00    -0.248 NA
ATOM    114  C   UNL A   1      43.122  31.167  36.297  1.00  0.00    -0.034 C 
ATOM    115  C   UNL A   1      43.029  36.431  33.276  1.00  0.00    -0.036 A 
ATOM    116  H   UNL A   1      43.158  37.479  31.379  1.00  0.00     0.065 H 
ATOM    117  C   UNL A   1      43.116  35.082  33.577  1.00  0.00     0.049 A 
ATOM    118  H   UNL A   1      43.497  33.453  32.291  1.00  0.00     0.167 HD
ATOM    119  C   UNL A   1      43.067  33.105  35.073  1.00  0.00     0.074 A 
ATOM    120  C   UNL A   1      42.931  32.476  36.371  1.00  0.00    -0.034 C 
ATOM    121  H   UNL A   1      43.130  30.466  37.054  1.00  0.00     0.065 H 
ATOM    122  H   UNL A   1      42.865  37.192  33.954  1.00  0.00     0.065 H 
ATOM    123  C   UNL A   1      42.971  34.439  34.859  1.00  0.00     0.037 A 
ATOM    124  H   UNL A   1      42.713  32.983  37.243  1.00  0.00     0.065 H 
BRANCH 105 125
ATOM    125  C   UNL A   1      43.825  36.122  28.979  1.00  0.00     0.064 A 
ATOM    126  C   UNL A   1      42.706  36.585  28.272  1.00  0.00     0.173 A 
ATOM    127  C   UNL A   1      45.051  36.771  28.765  1.00  0.00     0.173 A 
ATOM    128  F   UNL A   1      41.514  35.992  28.431  1.00  0.00    -0.203 F 
ATOM    129  C   UNL A   1      42.814  37.641  27.370  1.00  0.00     0.198 A 
ATOM    130  C   UNL A   1      45.150  37.845  27.884  1.00  0.00     0.198 A 
ATOM    131  F   UNL A   1      46.151  36.372  29.420  1.00  0.00    -0.203 F 
ATOM    132  F   UNL A   1      41.740  38.038  26.674  1.00  0.00    -0.200 F 
ATOM    133  C   UNL A   1      44.033  38.275  27.183  1.00  0.00     0.200 A 
ATOM    134  F   UNL A   1      46.325  38.465  27.715  1.00  0.00    -0.200 F 
ATOM    135  F   UNL A   1      44.133  39.297  26.323  1.00  0.00    -0.200 F 
ENDBRANCH 105 125
BRANCH 108 136
ATOM    136  C   UNL A   1      43.488  28.426  35.336  1.00  0.00     0.064 A 
ATOM    137  C   UNL A   1      44.683  27.880  35.824  1.00  0.00     0.173 A 
ATOM    138  C   UNL A   1      42.283  27.860  35.779  1.00  0.00     0.173 A 
ATOM    139  F   UNL A   1      45.860  28.375  35.414  1.00  0.00    -0.203 F 
ATOM    140  C   UNL A   1      44.676  26.795  36.698  1.00  0.00     0.198 A 
ATOM    141  C   UNL A   1      42.276  26.793  36.675  1.00  0.00     0.198 A 
ATOM    142  F   UNL A   1      41.112  28.349  35.347  1.00  0.00    -0.203 F 
ATOM    143  F   UNL A   1      45.834  26.261  37.110  1.00  0.00    -0.200 F 
ATOM    144  C   UNL A   1      43.472  26.256  37.127  1.00  0.00     0.200 A 
ATOM    145  F   UNL A   1      41.111  26.284  37.098  1.00  0.00    -0.200 F 
ATOM    146  F   UNL A   1      43.464  25.212  37.968  1.00  0.00    -0.200 F 
ENDBRANCH 108 136
BRANCH 123 147
ATOM    147  C   UNL A   1      42.669  35.307  36.044  1.00  0.00     0.064 A 
ATOM    148  C   UNL A   1      43.690  35.869  36.824  1.00  0.00     0.173 A 
ATOM    149  C   UNL A   1      41.341  35.613  36.379  1.00  0.00     0.173 A 
ATOM    150  F   UNL A   1      44.975  35.594  36.554  1.00  0.00    -0.203 F 
ATOM    151  C   UNL A   1      43.391  36.686  37.911  1.00  0.00     0.198 A 
ATOM    152  C   UNL A   1      41.047  36.453  37.448  1.00  0.00     0.198 A 
ATOM    153  F   UNL A   1      40.329  35.105  35.660  1.00  0.00    -0.203 F 
ATOM    154  F   UNL A   1      44.381  37.176  38.670  1.00  0.00    -0.200 F 
ATOM    155  C   UNL A   1      42.072  36.984  38.217  1.00  0.00     0.200 A 
ATOM    156  F   UNL A   1      39.773  36.750  37.735  1.00  0.00    -0.200 F 
ATOM    157  F   UNL A   1      41.787  37.778  39.258  1.00  0.00    -0.200 F 
ENDBRANCH 123 147
ENDBRANCH  88  91
ENDBRANCH  78  81
ENDBRANCH  74  77
ENDBRANCH  71  74
ENDBRANCH  68  71
ENDBRANCH  65  68
ENDBRANCH   1  65
TORSDOF 22
ENDMDL
