MODEL 1
REMARK VINA RESULT:     -12.1      0.000      0.000
REMARK SMILES O=C(NCCCCCCNC(=O)c1ccc(-c2c3nc(c(-c4c(F)c(F)c(F)c(F)c4F)c4ccc([nH]4)c(-c4c(F)c(F)c(F)c(F)c4F)c4nc(c(-c5c(F)c(F)c(F)c(F)c5F)c5ccc2[nH]5)C=C4)C=C3)cc1)C1=Cc2c(ccc(Cl)c2-c2ccccc2)O[C@H]1C(F)(F)F
REMARK SMILES IDX 7 1 6 4 5 7 4 10 3 13 1 14 2 15 76 17 77 18 92 19 78 20
REMARK SMILES IDX 91 22 79 24 84 25 80 26 82 27 81 28 83 30 93 32 94 33 95 34
REMARK SMILES IDX 96 35 85 36 86 37 90 38 87 39 89 41 88 43 8 47 9 50 10 53
REMARK SMILES IDX 11 54 12 56 13 57 14 58 75 59 15 60 74 62 16 64 17 67 18 68
REMARK SMILES IDX 68 69 19 70 73 71 67 72 69 73 20 74 72 75 66 77 65 79 21 81
REMARK SMILES IDX 53 84 33 85 52 86 34 87 37 88 51 89 70 90 35 91 36 93 50 95
REMARK SMILES IDX 71 96 38 99 22 101 23 102 31 103 24 104 25 105 29 106 32 107
REMARK SMILES IDX 26 108 27 109 30 110 28 111 54 112 55 113 63 114 56 115
REMARK SMILES IDX 57 116 61 117 64 118 58 119 59 120 62 121 60 122 39 123
REMARK SMILES IDX 40 124 48 125 41 126 42 127 46 128 49 129 43 130 44 131
REMARK SMILES IDX 47 132 45 133
REMARK H PARENT 7 2 7 3 6 5 6 6 5 8 5 9 4 11 4 12 3 16 77 21 92 23 80 29 81 31
REMARK H PARENT 86 40 90 42 87 44 89 45 88 46 8 48 8 49 9 51 9 52 10 55 14 61
REMARK H PARENT 75 63 15 65 74 66 73 76 67 78 69 80 72 82 66 83 34 92 37 94
REMARK H PARENT 70 97 35 98 71 100
REMARK Flexibility Score: inf
ROOT
ATOM      1  C   UNL A   1      34.328  24.042  24.314  1.00  0.00    -0.052 C 
ATOM      2  H   UNL A   1      33.750  23.223  23.941  1.00  0.00     0.027 H 
ATOM      3  H   UNL A   1      34.111  24.327  25.323  1.00  0.00     0.027 H 
ENDROOT
BRANCH   1   4
ATOM      4  C   UNL A   1      33.978  25.274  23.471  1.00  0.00    -0.052 C 
ATOM      5  H   UNL A   1      33.470  25.967  24.108  1.00  0.00     0.027 H 
ATOM      6  H   UNL A   1      34.916  25.616  23.082  1.00  0.00     0.027 H 
BRANCH   4   7
ATOM      7  C   UNL A   1      33.098  25.056  22.236  1.00  0.00    -0.036 C 
ATOM      8  H   UNL A   1      33.680  24.527  21.510  1.00  0.00     0.028 H 
ATOM      9  H   UNL A   1      32.240  24.523  22.591  1.00  0.00     0.028 H 
BRANCH   7  10
ATOM     10  C   UNL A   1      32.545  26.309  21.563  1.00  0.00     0.018 C 
ATOM     11  H   UNL A   1      32.579  26.158  20.505  1.00  0.00     0.049 H 
ATOM     12  H   UNL A   1      31.556  26.438  21.950  1.00  0.00     0.049 H 
BRANCH  10  13
ATOM     13  N   UNL A   1      33.250  27.541  21.860  1.00  0.00    -0.352 N 
ATOM     14  O   UNL A   1      33.550  29.627  22.642  1.00  0.00    -0.270 OA
ATOM     15  C   UNL A   1      32.807  28.655  22.521  1.00  0.00     0.251 C 
ATOM     16  H   UNL A   1      34.181  27.582  21.541  1.00  0.00     0.163 HD
BRANCH  15  17
ATOM     17  C   UNL A   1      31.455  28.710  23.120  1.00  0.00     0.067 C 
ATOM     18  C   UNL A   1      31.361  28.619  24.452  1.00  0.00    -0.038 C 
ATOM     19  C   UNL A   1      30.220  28.424  22.327  1.00  0.00     0.224 C 
ATOM     20  C   UNL A   1      30.927  27.235  24.793  1.00  0.00     0.027 A 
ATOM     21  H   UNL A   1      31.553  29.376  25.125  1.00  0.00     0.064 H 
ATOM     22  O   UNL A   1      29.573  27.173  22.763  1.00  0.00    -0.475 OA
ATOM     23  H   UNL A   1      30.525  28.298  21.309  1.00  0.00     0.090 H 
ATOM     24  C   UNL A   1      30.059  26.578  23.908  1.00  0.00     0.128 A 
ATOM     25  C   UNL A   1      31.549  26.573  25.885  1.00  0.00     0.011 A 
ATOM     26  C   UNL A   1      29.794  25.228  24.098  1.00  0.00    -0.018 A 
ATOM     27  C   UNL A   1      31.297  25.206  26.032  1.00  0.00     0.049 A 
ATOM     28  C   UNL A   1      30.426  24.543  25.146  1.00  0.00    -0.039 A 
ATOM     29  H   UNL A   1      29.136  24.734  23.475  1.00  0.00     0.066 H 
ATOM     30  Cl  UNL A   1      32.098  24.262  27.234  1.00  0.00    -0.084 Cl
ATOM     31  H   UNL A   1      30.249  23.533  25.269  1.00  0.00     0.064 H 
BRANCH  19  32
ATOM     32  C   UNL A   1      29.223  29.609  22.373  1.00  0.00     0.429 C 
ATOM     33  F   UNL A   1      28.438  29.694  21.272  1.00  0.00    -0.167 F 
ATOM     34  F   UNL A   1      28.394  29.505  23.439  1.00  0.00    -0.167 F 
ATOM     35  F   UNL A   1      29.858  30.802  22.479  1.00  0.00    -0.167 F 
ENDBRANCH  19  32
BRANCH  25  36
ATOM     36  C   UNL A   1      32.513  27.382  26.666  1.00  0.00    -0.016 A 
ATOM     37  C   UNL A   1      33.863  27.396  26.276  1.00  0.00    -0.054 A 
ATOM     38  C   UNL A   1      32.022  28.456  27.432  1.00  0.00    -0.054 A 
ATOM     39  C   UNL A   1      34.646  28.532  26.489  1.00  0.00    -0.062 A 
ATOM     40  H   UNL A   1      34.278  26.563  25.831  1.00  0.00     0.063 H 
ATOM     41  C   UNL A   1      32.805  29.595  27.630  1.00  0.00    -0.062 A 
ATOM     42  H   UNL A   1      31.080  28.402  27.848  1.00  0.00     0.063 H 
ATOM     43  C   UNL A   1      34.103  29.645  27.125  1.00  0.00    -0.062 A 
ATOM     44  H   UNL A   1      35.630  28.547  26.174  1.00  0.00     0.062 H 
ATOM     45  H   UNL A   1      32.422  30.399  28.150  1.00  0.00     0.062 H 
ATOM     46  H   UNL A   1      34.661  30.508  27.223  1.00  0.00     0.062 H 
ENDBRANCH  25  36
ENDBRANCH  15  17
ENDBRANCH  10  13
ENDBRANCH   7  10
ENDBRANCH   4   7
ENDBRANCH   1   4
BRANCH   1  47
ATOM     47  C   UNL A   1      35.792  23.601  24.335  1.00  0.00    -0.036 C 
ATOM     48  H   UNL A   1      36.325  24.210  23.635  1.00  0.00     0.028 H 
ATOM     49  H   UNL A   1      35.778  22.558  24.095  1.00  0.00     0.028 H 
BRANCH  47  50
ATOM     50  C   UNL A   1      36.511  23.698  25.676  1.00  0.00     0.018 C 
ATOM     51  H   UNL A   1      35.793  23.561  26.457  1.00  0.00     0.049 H 
ATOM     52  H   UNL A   1      36.973  24.662  25.718  1.00  0.00     0.049 H 
BRANCH  50  53
ATOM     53  N   UNL A   1      37.563  22.708  25.838  1.00  0.00    -0.352 N 
ATOM     54  C   UNL A   1      38.839  22.836  26.325  1.00  0.00     0.251 C 
ATOM     55  H   UNL A   1      37.320  21.799  25.550  1.00  0.00     0.163 HD
ATOM     56  O   UNL A   1      39.611  21.875  26.255  1.00  0.00    -0.269 OA
BRANCH  54  57
ATOM     57  C   UNL A   1      39.322  24.107  26.913  1.00  0.00     0.039 A 
ATOM     58  C   UNL A   1      39.997  25.013  26.087  1.00  0.00    -0.049 A 
ATOM     59  C   UNL A   1      39.162  24.404  28.269  1.00  0.00    -0.049 A 
ATOM     60  C   UNL A   1      40.453  26.230  26.602  1.00  0.00    -0.053 A 
ATOM     61  H   UNL A   1      40.158  24.782  25.094  1.00  0.00     0.063 H 
ATOM     62  C   UNL A   1      39.542  25.653  28.763  1.00  0.00    -0.053 A 
ATOM     63  H   UNL A   1      38.761  23.699  28.906  1.00  0.00     0.063 H 
ATOM     64  C   UNL A   1      40.200  26.578  27.938  1.00  0.00    -0.014 A 
ATOM     65  H   UNL A   1      40.981  26.878  25.995  1.00  0.00     0.063 H 
ATOM     66  H   UNL A   1      39.339  25.898  29.745  1.00  0.00     0.063 H 
BRANCH  64  67
ATOM     67  C   UNL A   1      40.628  27.894  28.486  1.00  0.00     0.031 A 
ATOM     68  C   UNL A   1      42.069  28.134  28.851  1.00  0.00     0.074 A 
ATOM     69  C   UNL A   1      39.713  28.860  28.699  1.00  0.00     0.049 A 
ATOM     70  N   UNL A   1      42.623  29.190  29.396  1.00  0.00    -0.248 NA
ATOM     71  C   UNL A   1      43.010  27.033  28.593  1.00  0.00    -0.034 C 
ATOM     72  C   UNL A   1      38.279  28.742  28.427  1.00  0.00    -0.036 A 
ATOM     73  N   UNL A   1      39.848  30.131  29.203  1.00  0.00    -0.354 N 
ATOM     74  C   UNL A   1      43.966  28.876  29.552  1.00  0.00     0.074 A 
ATOM     75  C   UNL A   1      44.137  27.512  29.102  1.00  0.00    -0.034 C 
ATOM     76  H   UNL A   1      42.838  26.125  28.134  1.00  0.00     0.065 H 
ATOM     77  C   UNL A   1      37.673  29.896  28.743  1.00  0.00    -0.036 A 
ATOM     78  H   UNL A   1      37.810  27.903  28.051  1.00  0.00     0.065 H 
ATOM     79  C   UNL A   1      38.664  30.824  29.283  1.00  0.00     0.049 A 
ATOM     80  H   UNL A   1      40.714  30.511  29.482  1.00  0.00     0.167 HD
ATOM     81  C   UNL A   1      44.973  29.662  30.004  1.00  0.00     0.037 A 
ATOM     82  H   UNL A   1      45.018  26.980  29.169  1.00  0.00     0.065 H 
ATOM     83  H   UNL A   1      36.668  30.097  28.625  1.00  0.00     0.065 H 
ATOM     84  C   UNL A   1      38.403  32.061  29.747  1.00  0.00     0.037 A 
ATOM     85  C   UNL A   1      44.807  31.027  30.433  1.00  0.00     0.049 A 
ATOM     86  C   UNL A   1      39.539  32.906  30.265  1.00  0.00     0.074 A 
ATOM     87  C   UNL A   1      45.774  31.919  30.861  1.00  0.00    -0.036 A 
ATOM     88  N   UNL A   1      43.592  31.694  30.487  1.00  0.00    -0.354 N 
ATOM     89  N   UNL A   1      40.815  32.618  30.347  1.00  0.00    -0.248 NA
ATOM     90  C   UNL A   1      39.196  34.251  30.748  1.00  0.00    -0.034 C 
ATOM     91  C   UNL A   1      45.138  33.110  31.229  1.00  0.00    -0.036 A 
ATOM     92  H   UNL A   1      46.789  31.739  30.903  1.00  0.00     0.065 H 
ATOM     93  C   UNL A   1      43.783  32.981  30.968  1.00  0.00     0.049 A 
ATOM     94  H   UNL A   1      42.725  31.312  30.224  1.00  0.00     0.167 HD
ATOM     95  C   UNL A   1      41.430  33.753  30.859  1.00  0.00     0.074 A 
ATOM     96  C   UNL A   1      40.390  34.741  31.051  1.00  0.00    -0.034 C 
ATOM     97  H   UNL A   1      38.269  34.697  30.831  1.00  0.00     0.065 H 
ATOM     98  H   UNL A   1      45.599  33.943  31.626  1.00  0.00     0.065 H 
ATOM     99  C   UNL A   1      42.740  33.958  31.143  1.00  0.00     0.037 A 
ATOM    100  H   UNL A   1      40.556  35.704  31.381  1.00  0.00     0.065 H 
BRANCH  81 101
ATOM    101  C   UNL A   1      46.353  29.068  30.057  1.00  0.00     0.064 A 
ATOM    102  C   UNL A   1      46.829  28.411  31.204  1.00  0.00     0.173 A 
ATOM    103  C   UNL A   1      47.192  29.109  28.933  1.00  0.00     0.173 A 
ATOM    104  F   UNL A   1      46.071  28.350  32.310  1.00  0.00    -0.203 F 
ATOM    105  C   UNL A   1      48.100  27.844  31.231  1.00  0.00     0.198 A 
ATOM    106  C   UNL A   1      48.449  28.512  28.952  1.00  0.00     0.198 A 
ATOM    107  F   UNL A   1      46.786  29.718  27.809  1.00  0.00    -0.203 F 
ATOM    108  F   UNL A   1      48.550  27.266  32.353  1.00  0.00    -0.200 F 
ATOM    109  C   UNL A   1      48.906  27.887  30.104  1.00  0.00     0.200 A 
ATOM    110  F   UNL A   1      49.221  28.540  27.856  1.00  0.00    -0.200 F 
ATOM    111  F   UNL A   1      50.124  27.331  30.128  1.00  0.00    -0.200 F 
ENDBRANCH  81 101
BRANCH  84 112
ATOM    112  C   UNL A   1      37.011  32.586  29.738  1.00  0.00     0.064 A 
ATOM    113  C   UNL A   1      36.511  33.291  28.636  1.00  0.00     0.173 A 
ATOM    114  C   UNL A   1      36.160  32.414  30.841  1.00  0.00     0.173 A 
ATOM    115  F   UNL A   1      37.290  33.501  27.565  1.00  0.00    -0.203 F 
ATOM    116  C   UNL A   1      35.225  33.833  28.647  1.00  0.00     0.198 A 
ATOM    117  C   UNL A   1      34.864  32.926  30.838  1.00  0.00     0.198 A 
ATOM    118  F   UNL A   1      36.586  31.743  31.921  1.00  0.00    -0.203 F 
ATOM    119  F   UNL A   1      34.796  34.554  27.603  1.00  0.00    -0.200 F 
ATOM    120  C   UNL A   1      34.402  33.644  29.746  1.00  0.00     0.200 A 
ATOM    121  F   UNL A   1      34.066  32.728  31.897  1.00  0.00    -0.200 F 
ATOM    122  F   UNL A   1      33.167  34.165  29.758  1.00  0.00    -0.200 F 
ENDBRANCH  84 112
BRANCH  99 123
ATOM    123  C   UNL A   1      43.132  35.317  31.652  1.00  0.00     0.064 A 
ATOM    124  C   UNL A   1      43.132  35.622  33.021  1.00  0.00     0.173 A 
ATOM    125  C   UNL A   1      43.551  36.315  30.758  1.00  0.00     0.173 A 
ATOM    126  F   UNL A   1      42.727  34.710  33.918  1.00  0.00    -0.203 F 
ATOM    127  C   UNL A   1      43.509  36.885  33.473  1.00  0.00     0.198 A 
ATOM    128  C   UNL A   1      43.961  37.563  31.216  1.00  0.00     0.198 A 
ATOM    129  F   UNL A   1      43.578  36.073  29.439  1.00  0.00    -0.203 F 
ATOM    130  F   UNL A   1      43.449  37.171  34.781  1.00  0.00    -0.200 F 
ATOM    131  C   UNL A   1      43.931  37.850  32.572  1.00  0.00     0.200 A 
ATOM    132  F   UNL A   1      44.385  38.489  30.345  1.00  0.00    -0.200 F 
ATOM    133  F   UNL A   1      44.302  39.062  33.010  1.00  0.00    -0.200 F 
ENDBRANCH  99 123
ENDBRANCH  64  67
ENDBRANCH  54  57
ENDBRANCH  50  53
ENDBRANCH  47  50
ENDBRANCH   1  47
TORSDOF 15
ENDMDL
MODEL 2
REMARK VINA RESULT:     -11.9      0.800      2.139
REMARK SMILES O=C(NCCCCCCNC(=O)c1ccc(-c2c3nc(c(-c4c(F)c(F)c(F)c(F)c4F)c4ccc([nH]4)c(-c4c(F)c(F)c(F)c(F)c4F)c4nc(c(-c5c(F)c(F)c(F)c(F)c5F)c5ccc2[nH]5)C=C4)C=C3)cc1)C1=Cc2c(ccc(Cl)c2-c2ccccc2)O[C@H]1C(F)(F)F
REMARK SMILES IDX 7 1 6 4 5 7 4 10 3 13 1 14 2 15 76 17 77 18 92 19 78 20
REMARK SMILES IDX 91 22 79 24 84 25 80 26 82 27 81 28 83 30 93 32 94 33 95 34
REMARK SMILES IDX 96 35 85 36 86 37 90 38 87 39 89 41 88 43 8 47 9 50 10 53
REMARK SMILES IDX 11 54 12 56 13 57 14 58 75 59 15 60 74 62 16 64 17 67 18 68
REMARK SMILES IDX 68 69 19 70 73 71 67 72 69 73 20 74 72 75 66 77 65 79 21 81
REMARK SMILES IDX 53 84 33 85 52 86 34 87 37 88 51 89 70 90 35 91 36 93 50 95
REMARK SMILES IDX 71 96 38 99 22 101 23 102 31 103 24 104 25 105 29 106 32 107
REMARK SMILES IDX 26 108 27 109 30 110 28 111 54 112 55 113 63 114 56 115
REMARK SMILES IDX 57 116 61 117 64 118 58 119 59 120 62 121 60 122 39 123
REMARK SMILES IDX 40 124 48 125 41 126 42 127 46 128 49 129 43 130 44 131
REMARK SMILES IDX 47 132 45 133
REMARK H PARENT 7 2 7 3 6 5 6 6 5 8 5 9 4 11 4 12 3 16 77 21 92 23 80 29 81 31
REMARK H PARENT 86 40 90 42 87 44 89 45 88 46 8 48 8 49 9 51 9 52 10 55 14 61
REMARK H PARENT 75 63 15 65 74 66 73 76 67 78 69 80 72 82 66 83 34 92 37 94
REMARK H PARENT 70 97 35 98 71 100
REMARK Flexibility Score: inf
ROOT
ATOM      1  C   UNL A   1      34.378  24.065  24.475  1.00  0.00    -0.052 C 
ATOM      2  H   UNL A   1      33.566  23.378  24.363  1.00  0.00     0.027 H 
ATOM      3  H   UNL A   1      34.438  24.544  25.430  1.00  0.00     0.027 H 
ENDROOT
BRANCH   1   4
ATOM      4  C   UNL A   1      34.159  25.205  23.473  1.00  0.00    -0.052 C 
ATOM      5  H   UNL A   1      33.862  26.070  24.028  1.00  0.00     0.027 H 
ATOM      6  H   UNL A   1      35.090  25.296  22.952  1.00  0.00     0.027 H 
BRANCH   4   7
ATOM      7  C   UNL A   1      33.114  24.985  22.374  1.00  0.00    -0.036 C 
ATOM      8  H   UNL A   1      33.518  24.281  21.676  1.00  0.00     0.028 H 
ATOM      9  H   UNL A   1      32.234  24.649  22.883  1.00  0.00     0.028 H 
BRANCH   7  10
ATOM     10  C   UNL A   1      32.680  26.220  21.589  1.00  0.00     0.018 C 
ATOM     11  H   UNL A   1      32.809  26.013  20.548  1.00  0.00     0.049 H 
ATOM     12  H   UNL A   1      31.664  26.404  21.870  1.00  0.00     0.049 H 
BRANCH  10  13
ATOM     13  N   UNL A   1      33.403  27.440  21.893  1.00  0.00    -0.352 N 
ATOM     14  O   UNL A   1      33.726  29.525  22.666  1.00  0.00    -0.270 OA
ATOM     15  C   UNL A   1      32.967  28.567  22.536  1.00  0.00     0.251 C 
ATOM     16  H   UNL A   1      34.342  27.459  21.596  1.00  0.00     0.163 HD
BRANCH  15  17
ATOM     17  C   UNL A   1      31.603  28.654  23.102  1.00  0.00     0.067 C 
ATOM     18  C   UNL A   1      31.474  28.558  24.431  1.00  0.00    -0.038 C 
ATOM     19  C   UNL A   1      30.381  28.407  22.277  1.00  0.00     0.224 C 
ATOM     20  C   UNL A   1      30.996  27.183  24.752  1.00  0.00     0.027 A 
ATOM     21  H   UNL A   1      31.670  29.305  25.114  1.00  0.00     0.064 H 
ATOM     22  O   UNL A   1      29.691  27.170  22.689  1.00  0.00    -0.475 OA
ATOM     23  H   UNL A   1      30.707  28.279  21.267  1.00  0.00     0.090 H 
ATOM     24  C   UNL A   1      30.132  26.555  23.841  1.00  0.00     0.128 A 
ATOM     25  C   UNL A   1      31.574  26.498  25.854  1.00  0.00     0.011 A 
ATOM     26  C   UNL A   1      29.828  25.212  24.015  1.00  0.00    -0.018 A 
ATOM     27  C   UNL A   1      31.282  25.137  25.985  1.00  0.00     0.049 A 
ATOM     28  C   UNL A   1      30.416  24.503  25.073  1.00  0.00    -0.039 A 
ATOM     29  H   UNL A   1      29.172  24.739  23.374  1.00  0.00     0.066 H 
ATOM     30  Cl  UNL A   1      32.029  24.165  27.199  1.00  0.00    -0.084 Cl
ATOM     31  H   UNL A   1      30.209  23.498  25.185  1.00  0.00     0.064 H 
BRANCH  19  32
ATOM     32  C   UNL A   1      29.414  29.617  22.309  1.00  0.00     0.429 C 
ATOM     33  F   UNL A   1      28.295  29.430  21.568  1.00  0.00    -0.167 F 
ATOM     34  F   UNL A   1      29.008  29.883  23.573  1.00  0.00    -0.167 F 
ATOM     35  F   UNL A   1      29.998  30.744  21.834  1.00  0.00    -0.167 F 
ENDBRANCH  19  32
BRANCH  25  36
ATOM     36  C   UNL A   1      32.539  27.276  26.663  1.00  0.00    -0.016 A 
ATOM     37  C   UNL A   1      33.885  27.324  26.258  1.00  0.00    -0.054 A 
ATOM     38  C   UNL A   1      32.047  28.304  27.489  1.00  0.00    -0.054 A 
ATOM     39  C   UNL A   1      34.659  28.457  26.519  1.00  0.00    -0.062 A 
ATOM     40  H   UNL A   1      34.302  26.520  25.765  1.00  0.00     0.063 H 
ATOM     41  C   UNL A   1      32.821  29.440  27.736  1.00  0.00    -0.062 A 
ATOM     42  H   UNL A   1      31.112  28.218  27.914  1.00  0.00     0.063 H 
ATOM     43  C   UNL A   1      34.112  29.530  27.219  1.00  0.00    -0.062 A 
ATOM     44  H   UNL A   1      35.638  28.498  26.194  1.00  0.00     0.062 H 
ATOM     45  H   UNL A   1      32.437  30.212  28.301  1.00  0.00     0.062 H 
ATOM     46  H   UNL A   1      34.662  30.392  27.354  1.00  0.00     0.062 H 
ENDBRANCH  25  36
ENDBRANCH  15  17
ENDBRANCH  10  13
ENDBRANCH   7  10
ENDBRANCH   4   7
ENDBRANCH   1   4
BRANCH   1  47
ATOM     47  C   UNL A   1      35.677  23.266  24.352  1.00  0.00    -0.036 C 
ATOM     48  H   UNL A   1      35.896  23.160  23.310  1.00  0.00     0.028 H 
ATOM     49  H   UNL A   1      35.492  22.344  24.863  1.00  0.00     0.028 H 
BRANCH  47  50
ATOM     50  C   UNL A   1      36.907  23.864  25.026  1.00  0.00     0.018 C 
ATOM     51  H   UNL A   1      36.594  24.376  25.912  1.00  0.00     0.049 H 
ATOM     52  H   UNL A   1      37.366  24.524  24.320  1.00  0.00     0.049 H 
BRANCH  50  53
ATOM     53  N   UNL A   1      37.901  22.871  25.395  1.00  0.00    -0.352 N 
ATOM     54  C   UNL A   1      39.057  22.994  26.123  1.00  0.00     0.251 C 
ATOM     55  H   UNL A   1      37.716  21.961  25.067  1.00  0.00     0.163 HD
ATOM     56  O   UNL A   1      39.823  22.030  26.209  1.00  0.00    -0.269 OA
BRANCH  54  57
ATOM     57  C   UNL A   1      39.422  24.265  26.792  1.00  0.00     0.039 A 
ATOM     58  C   UNL A   1      39.012  24.467  28.115  1.00  0.00    -0.049 A 
ATOM     59  C   UNL A   1      40.120  25.277  26.129  1.00  0.00    -0.049 A 
ATOM     60  C   UNL A   1      39.351  25.647  28.784  1.00  0.00    -0.053 A 
ATOM     61  H   UNL A   1      38.458  23.743  28.598  1.00  0.00     0.063 H 
ATOM     62  C   UNL A   1      40.531  26.416  26.822  1.00  0.00    -0.053 A 
ATOM     63  H   UNL A   1      40.334  25.181  25.124  1.00  0.00     0.063 H 
ATOM     64  C   UNL A   1      40.145  26.620  28.156  1.00  0.00    -0.014 A 
ATOM     65  H   UNL A   1      39.016  25.804  29.748  1.00  0.00     0.063 H 
ATOM     66  H   UNL A   1      41.123  27.117  26.350  1.00  0.00     0.063 H 
BRANCH  64  67
ATOM     67  C   UNL A   1      40.563  27.855  28.874  1.00  0.00     0.031 A 
ATOM     68  C   UNL A   1      41.961  27.979  29.422  1.00  0.00     0.074 A 
ATOM     69  C   UNL A   1      39.674  28.847  29.074  1.00  0.00     0.049 A 
ATOM     70  N   UNL A   1      42.493  28.948  30.125  1.00  0.00    -0.248 NA
ATOM     71  C   UNL A   1      42.875  26.855  29.167  1.00  0.00    -0.034 C 
ATOM     72  C   UNL A   1      38.279  28.834  28.631  1.00  0.00    -0.036 A 
ATOM     73  N   UNL A   1      39.806  30.057  29.711  1.00  0.00    -0.354 N 
ATOM     74  C   UNL A   1      43.793  28.547  30.402  1.00  0.00     0.074 A 
ATOM     75  C   UNL A   1      43.954  27.222  29.844  1.00  0.00    -0.034 C 
ATOM     76  H   UNL A   1      42.718  26.004  28.606  1.00  0.00     0.065 H 
ATOM     77  C   UNL A   1      37.693  29.987  28.987  1.00  0.00    -0.036 A 
ATOM     78  H   UNL A   1      37.820  28.061  28.125  1.00  0.00     0.065 H 
ATOM     79  C   UNL A   1      38.654  30.805  29.723  1.00  0.00     0.049 A 
ATOM     80  H   UNL A   1      40.649  30.360  30.122  1.00  0.00     0.167 HD
ATOM     81  C   UNL A   1      44.774  29.230  31.039  1.00  0.00     0.037 A 
ATOM     82  H   UNL A   1      44.796  26.638  29.959  1.00  0.00     0.065 H 
ATOM     83  H   UNL A   1      36.718  30.254  28.775  1.00  0.00     0.065 H 
ATOM     84  C   UNL A   1      38.395  32.007  30.272  1.00  0.00     0.037 A 
ATOM     85  C   UNL A   1      44.620  30.558  31.576  1.00  0.00     0.049 A 
ATOM     86  C   UNL A   1      39.498  32.736  30.995  1.00  0.00     0.074 A 
ATOM     87  C   UNL A   1      45.568  31.353  32.196  1.00  0.00    -0.036 A 
ATOM     88  N   UNL A   1      43.439  31.285  31.557  1.00  0.00    -0.354 N 
ATOM     89  N   UNL A   1      40.742  32.371  31.193  1.00  0.00    -0.248 NA
ATOM     90  C   UNL A   1      39.162  34.049  31.564  1.00  0.00    -0.034 C 
ATOM     91  C   UNL A   1      44.948  32.538  32.602  1.00  0.00    -0.036 A 
ATOM     92  H   UNL A   1      46.562  31.112  32.335  1.00  0.00     0.065 H 
ATOM     93  C   UNL A   1      43.629  32.510  32.179  1.00  0.00     0.049 A 
ATOM     94  H   UNL A   1      42.592  30.978  31.161  1.00  0.00     0.167 HD
ATOM     95  C   UNL A   1      41.343  33.419  31.878  1.00  0.00     0.074 A 
ATOM     96  C   UNL A   1      40.333  34.442  32.046  1.00  0.00    -0.034 C 
ATOM     97  H   UNL A   1      38.253  34.537  31.583  1.00  0.00     0.065 H 
ATOM     98  H   UNL A   1      45.396  33.305  33.129  1.00  0.00     0.065 H 
ATOM     99  C   UNL A   1      42.617  33.524  32.328  1.00  0.00     0.037 A 
ATOM    100  H   UNL A   1      40.502  35.361  32.485  1.00  0.00     0.065 H 
BRANCH  81 101
ATOM    101  C   UNL A   1      46.110  28.558  31.191  1.00  0.00     0.064 A 
ATOM    102  C   UNL A   1      47.121  28.704  30.228  1.00  0.00     0.173 A 
ATOM    103  C   UNL A   1      46.402  27.802  32.337  1.00  0.00     0.173 A 
ATOM    104  F   UNL A   1      46.892  29.409  29.110  1.00  0.00    -0.203 F 
ATOM    105  C   UNL A   1      48.363  28.095  30.393  1.00  0.00     0.198 A 
ATOM    106  C   UNL A   1      47.656  27.223  32.514  1.00  0.00     0.198 A 
ATOM    107  F   UNL A   1      45.475  27.635  33.292  1.00  0.00    -0.203 F 
ATOM    108  F   UNL A   1      49.295  28.208  29.437  1.00  0.00    -0.200 F 
ATOM    109  C   UNL A   1      48.633  27.363  31.539  1.00  0.00     0.200 A 
ATOM    110  F   UNL A   1      47.920  26.529  33.630  1.00  0.00    -0.200 F 
ATOM    111  F   UNL A   1      49.832  26.788  31.702  1.00  0.00    -0.200 F 
ENDBRANCH  81 101
BRANCH  84 112
ATOM    112  C   UNL A   1      37.039  32.608  30.156  1.00  0.00     0.064 A 
ATOM    113  C   UNL A   1      36.075  32.417  31.154  1.00  0.00     0.173 A 
ATOM    114  C   UNL A   1      36.671  33.365  29.033  1.00  0.00     0.173 A 
ATOM    115  F   UNL A   1      36.369  31.684  32.238  1.00  0.00    -0.203 F 
ATOM    116  C   UNL A   1      34.785  32.932  31.021  1.00  0.00     0.198 A 
ATOM    117  C   UNL A   1      35.394  33.908  28.917  1.00  0.00     0.198 A 
ATOM    118  F   UNL A   1      37.556  33.583  28.049  1.00  0.00    -0.203 F 
ATOM    119  F   UNL A   1      33.867  32.683  31.964  1.00  0.00    -0.200 F 
ATOM    120  C   UNL A   1      34.449  33.683  29.905  1.00  0.00     0.200 A 
ATOM    121  F   UNL A   1      35.077  34.646  27.843  1.00  0.00    -0.200 F 
ATOM    122  F   UNL A   1      33.210  34.177  29.777  1.00  0.00    -0.200 F 
ENDBRANCH  84 112
BRANCH  99 123
ATOM    123  C   UNL A   1      43.008  34.807  33.008  1.00  0.00     0.064 A 
ATOM    124  C   UNL A   1      43.434  35.928  32.282  1.00  0.00     0.173 A 
ATOM    125  C   UNL A   1      42.916  34.924  34.404  1.00  0.00     0.173 A 
ATOM    126  F   UNL A   1      43.554  35.865  30.947  1.00  0.00    -0.203 F 
ATOM    127  C   UNL A   1      43.782  37.111  32.931  1.00  0.00     0.198 A 
ATOM    128  C   UNL A   1      43.230  36.119  35.045  1.00  0.00     0.198 A 
ATOM    129  F   UNL A   1      42.505  33.885  35.145  1.00  0.00    -0.203 F 
ATOM    130  F   UNL A   1      44.239  38.152  32.221  1.00  0.00    -0.200 F 
ATOM    131  C   UNL A   1      43.672  37.207  34.310  1.00  0.00     0.200 A 
ATOM    132  F   UNL A   1      43.106  36.215  36.376  1.00  0.00    -0.200 F 
ATOM    133  F   UNL A   1      43.998  38.349  34.931  1.00  0.00    -0.200 F 
ENDBRANCH  99 123
ENDBRANCH  64  67
ENDBRANCH  54  57
ENDBRANCH  50  53
ENDBRANCH  47  50
ENDBRANCH   1  47
TORSDOF 15
ENDMDL
MODEL 3
REMARK VINA RESULT:     -11.9      3.919      8.981
REMARK SMILES O=C(NCCCCCCNC(=O)c1ccc(-c2c3nc(c(-c4c(F)c(F)c(F)c(F)c4F)c4ccc([nH]4)c(-c4c(F)c(F)c(F)c(F)c4F)c4nc(c(-c5c(F)c(F)c(F)c(F)c5F)c5ccc2[nH]5)C=C4)C=C3)cc1)C1=Cc2c(ccc(Cl)c2-c2ccccc2)O[C@H]1C(F)(F)F
REMARK SMILES IDX 7 1 6 4 5 7 4 10 3 13 1 14 2 15 76 17 77 18 92 19 78 20
REMARK SMILES IDX 91 22 79 24 84 25 80 26 82 27 81 28 83 30 93 32 94 33 95 34
REMARK SMILES IDX 96 35 85 36 86 37 90 38 87 39 89 41 88 43 8 47 9 50 10 53
REMARK SMILES IDX 11 54 12 56 13 57 14 58 75 59 15 60 74 62 16 64 17 67 18 68
REMARK SMILES IDX 68 69 19 70 73 71 67 72 69 73 20 74 72 75 66 77 65 79 21 81
REMARK SMILES IDX 53 84 33 85 52 86 34 87 37 88 51 89 70 90 35 91 36 93 50 95
REMARK SMILES IDX 71 96 38 99 22 101 23 102 31 103 24 104 25 105 29 106 32 107
REMARK SMILES IDX 26 108 27 109 30 110 28 111 54 112 55 113 63 114 56 115
REMARK SMILES IDX 57 116 61 117 64 118 58 119 59 120 62 121 60 122 39 123
REMARK SMILES IDX 40 124 48 125 41 126 42 127 46 128 49 129 43 130 44 131
REMARK SMILES IDX 47 132 45 133
REMARK H PARENT 7 2 7 3 6 5 6 6 5 8 5 9 4 11 4 12 3 16 77 21 92 23 80 29 81 31
REMARK H PARENT 86 40 90 42 87 44 89 45 88 46 8 48 8 49 9 51 9 52 10 55 14 61
REMARK H PARENT 75 63 15 65 74 66 73 76 67 78 69 80 72 82 66 83 34 92 37 94
REMARK H PARENT 70 97 35 98 71 100
REMARK Flexibility Score: inf
ROOT
ATOM      1  C   UNL A   1      31.758  27.794  26.889  1.00  0.00    -0.052 C 
ATOM      2  H   UNL A   1      31.445  27.342  27.807  1.00  0.00     0.027 H 
ATOM      3  H   UNL A   1      31.467  28.817  26.764  1.00  0.00     0.027 H 
ENDROOT
BRANCH   1   4
ATOM      4  C   UNL A   1      31.065  27.043  25.746  1.00  0.00    -0.052 C 
ATOM      5  H   UNL A   1      30.606  27.774  25.112  1.00  0.00     0.027 H 
ATOM      6  H   UNL A   1      31.840  26.464  25.287  1.00  0.00     0.027 H 
BRANCH   4   7
ATOM      7  C   UNL A   1      29.986  26.024  26.125  1.00  0.00    -0.036 C 
ATOM      8  H   UNL A   1      29.728  26.189  27.150  1.00  0.00     0.028 H 
ATOM      9  H   UNL A   1      29.185  26.189  25.434  1.00  0.00     0.028 H 
BRANCH   7  10
ATOM     10  C   UNL A   1      30.356  24.551  25.970  1.00  0.00     0.018 C 
ATOM     11  H   UNL A   1      29.482  23.968  26.171  1.00  0.00     0.049 H 
ATOM     12  H   UNL A   1      30.725  24.445  24.972  1.00  0.00     0.049 H 
BRANCH  10  13
ATOM     13  N   UNL A   1      31.416  24.078  26.838  1.00  0.00    -0.352 N 
ATOM     14  O   UNL A   1      33.442  23.282  27.400  1.00  0.00    -0.270 OA
ATOM     15  C   UNL A   1      32.691  23.695  26.519  1.00  0.00     0.251 C 
ATOM     16  H   UNL A   1      31.187  24.025  27.795  1.00  0.00     0.163 HD
BRANCH  15  17
ATOM     17  C   UNL A   1      33.201  23.791  25.133  1.00  0.00     0.067 C 
ATOM     18  C   UNL A   1      33.222  22.671  24.400  1.00  0.00    -0.038 C 
ATOM     19  C   UNL A   1      34.069  24.921  24.680  1.00  0.00     0.224 C 
ATOM     20  C   UNL A   1      34.623  22.165  24.365  1.00  0.00     0.027 A 
ATOM     21  H   UNL A   1      32.410  22.235  23.938  1.00  0.00     0.064 H 
ATOM     22  O   UNL A   1      35.440  24.466  24.383  1.00  0.00    -0.475 OA
ATOM     23  H   UNL A   1      34.122  25.617  25.490  1.00  0.00     0.090 H 
ATOM     24  C   UNL A   1      35.665  23.106  24.375  1.00  0.00     0.128 A 
ATOM     25  C   UNL A   1      34.851  20.771  24.515  1.00  0.00     0.011 A 
ATOM     26  C   UNL A   1      36.971  22.665  24.538  1.00  0.00    -0.018 A 
ATOM     27  C   UNL A   1      36.171  20.357  24.716  1.00  0.00     0.049 A 
ATOM     28  C   UNL A   1      37.219  21.297  24.726  1.00  0.00    -0.039 A 
ATOM     29  H   UNL A   1      37.754  23.337  24.519  1.00  0.00     0.066 H 
ATOM     30  Cl  UNL A   1      36.561  18.709  25.046  1.00  0.00    -0.084 Cl
ATOM     31  H   UNL A   1      38.188  20.975  24.874  1.00  0.00     0.064 H 
BRANCH  19  32
ATOM     32  C   UNL A   1      33.455  25.661  23.464  1.00  0.00     0.429 C 
ATOM     33  F   UNL A   1      33.583  27.009  23.537  1.00  0.00    -0.167 F 
ATOM     34  F   UNL A   1      34.046  25.273  22.310  1.00  0.00    -0.167 F 
ATOM     35  F   UNL A   1      32.129  25.412  23.336  1.00  0.00    -0.167 F 
ENDBRANCH  19  32
BRANCH  25  36
ATOM     36  C   UNL A   1      33.639  19.923  24.581  1.00  0.00    -0.016 A 
ATOM     37  C   UNL A   1      33.195  19.278  23.413  1.00  0.00    -0.054 A 
ATOM     38  C   UNL A   1      33.256  19.396  25.828  1.00  0.00    -0.054 A 
ATOM     39  C   UNL A   1      32.544  18.046  23.493  1.00  0.00    -0.062 A 
ATOM     40  H   UNL A   1      33.351  19.717  22.493  1.00  0.00     0.063 H 
ATOM     41  C   UNL A   1      32.617  18.157  25.902  1.00  0.00    -0.062 A 
ATOM     42  H   UNL A   1      33.447  19.927  26.691  1.00  0.00     0.063 H 
ATOM     43  C   UNL A   1      32.296  17.467  24.735  1.00  0.00    -0.062 A 
ATOM     44  H   UNL A   1      32.246  17.563  22.630  1.00  0.00     0.062 H 
ATOM     45  H   UNL A   1      32.383  17.752  26.822  1.00  0.00     0.062 H 
ATOM     46  H   UNL A   1      31.875  16.526  24.792  1.00  0.00     0.062 H 
ENDBRANCH  25  36
ENDBRANCH  15  17
ENDBRANCH  10  13
ENDBRANCH   7  10
ENDBRANCH   4   7
ENDBRANCH   1   4
BRANCH   1  47
ATOM     47  C   UNL A   1      33.288  27.816  26.885  1.00  0.00    -0.036 C 
ATOM     48  H   UNL A   1      33.626  26.870  26.514  1.00  0.00     0.028 H 
ATOM     49  H   UNL A   1      33.571  28.022  27.896  1.00  0.00     0.028 H 
BRANCH  47  50
ATOM     50  C   UNL A   1      33.948  28.906  26.048  1.00  0.00     0.018 C 
ATOM     51  H   UNL A   1      33.517  28.891  25.069  1.00  0.00     0.049 H 
ATOM     52  H   UNL A   1      34.998  28.699  26.029  1.00  0.00     0.049 H 
BRANCH  50  53
ATOM     53  N   UNL A   1      33.783  30.238  26.604  1.00  0.00    -0.352 N 
ATOM     54  C   UNL A   1      34.516  30.906  27.551  1.00  0.00     0.251 C 
ATOM     55  H   UNL A   1      33.018  30.743  26.242  1.00  0.00     0.163 HD
ATOM     56  O   UNL A   1      34.115  31.997  27.966  1.00  0.00    -0.269 OA
BRANCH  54  57
ATOM     57  C   UNL A   1      35.768  30.340  28.106  1.00  0.00     0.039 A 
ATOM     58  C   UNL A   1      36.935  30.414  27.338  1.00  0.00    -0.049 A 
ATOM     59  C   UNL A   1      35.804  29.700  29.348  1.00  0.00    -0.049 A 
ATOM     60  C   UNL A   1      38.139  29.906  27.835  1.00  0.00    -0.053 A 
ATOM     61  H   UNL A   1      36.907  30.846  26.401  1.00  0.00     0.063 H 
ATOM     62  C   UNL A   1      37.020  29.270  29.879  1.00  0.00    -0.053 A 
ATOM     63  H   UNL A   1      34.930  29.548  29.874  1.00  0.00     0.063 H 
ATOM     64  C   UNL A   1      38.201  29.359  29.126  1.00  0.00    -0.014 A 
ATOM     65  H   UNL A   1      38.988  29.933  27.248  1.00  0.00     0.063 H 
ATOM     66  H   UNL A   1      37.052  28.880  30.835  1.00  0.00     0.063 H 
BRANCH  64  67
ATOM     67  C   UNL A   1      39.487  28.866  29.693  1.00  0.00     0.031 A 
ATOM     68  C   UNL A   1      40.153  29.606  30.824  1.00  0.00     0.074 A 
ATOM     69  C   UNL A   1      40.079  27.779  29.162  1.00  0.00     0.049 A 
ATOM     70  N   UNL A   1      41.300  29.367  31.410  1.00  0.00    -0.248 NA
ATOM     71  C   UNL A   1      39.448  30.785  31.350  1.00  0.00    -0.034 C 
ATOM     72  C   UNL A   1      39.560  26.996  28.040  1.00  0.00    -0.036 A 
ATOM     73  N   UNL A   1      41.255  27.147  29.488  1.00  0.00    -0.354 N 
ATOM     74  C   UNL A   1      41.456  30.367  32.360  1.00  0.00     0.074 A 
ATOM     75  C   UNL A   1      40.318  31.250  32.235  1.00  0.00    -0.034 C 
ATOM     76  H   UNL A   1      38.518  31.153  31.097  1.00  0.00     0.065 H 
ATOM     77  C   UNL A   1      40.397  25.978  27.787  1.00  0.00    -0.036 A 
ATOM     78  H   UNL A   1      38.688  27.195  27.526  1.00  0.00     0.065 H 
ATOM     79  C   UNL A   1      41.536  26.059  28.698  1.00  0.00     0.049 A 
ATOM     80  H   UNL A   1      41.842  27.446  30.221  1.00  0.00     0.167 HD
ATOM     81  C   UNL A   1      42.445  30.521  33.274  1.00  0.00     0.037 A 
ATOM     82  H   UNL A   1      40.198  32.127  32.765  1.00  0.00     0.065 H 
ATOM     83  H   UNL A   1      40.259  25.254  27.064  1.00  0.00     0.065 H 
ATOM     84  C   UNL A   1      42.595  25.227  28.697  1.00  0.00     0.037 A 
ATOM     85  C   UNL A   1      43.568  29.629  33.412  1.00  0.00     0.049 A 
ATOM     86  C   UNL A   1      43.692  25.434  29.710  1.00  0.00     0.074 A 
ATOM     87  C   UNL A   1      44.595  29.673  34.338  1.00  0.00    -0.036 A 
ATOM     88  N   UNL A   1      43.809  28.532  32.598  1.00  0.00    -0.354 N 
ATOM     89  N   UNL A   1      43.794  26.347  30.645  1.00  0.00    -0.248 NA
ATOM     90  C   UNL A   1      44.817  24.489  29.670  1.00  0.00    -0.034 C 
ATOM     91  C   UNL A   1      45.489  28.637  34.050  1.00  0.00    -0.036 A 
ATOM     92  H   UNL A   1      44.687  30.353  35.109  1.00  0.00     0.065 H 
ATOM     93  C   UNL A   1      44.985  27.907  32.985  1.00  0.00     0.049 A 
ATOM     94  H   UNL A   1      43.233  28.241  31.856  1.00  0.00     0.167 HD
ATOM     95  C   UNL A   1      44.973  26.067  31.324  1.00  0.00     0.074 A 
ATOM     96  C   UNL A   1      45.543  24.890  30.705  1.00  0.00    -0.034 C 
ATOM     97  H   UNL A   1      44.996  23.717  29.010  1.00  0.00     0.065 H 
ATOM     98  H   UNL A   1      46.373  28.447  34.547  1.00  0.00     0.065 H 
ATOM     99  C   UNL A   1      45.534  26.728  32.367  1.00  0.00     0.037 A 
ATOM    100  H   UNL A   1      46.404  24.421  31.027  1.00  0.00     0.065 H 
BRANCH  81 101
ATOM    101  C   UNL A   1      42.359  31.698  34.205  1.00  0.00     0.064 A 
ATOM    102  C   UNL A   1      42.938  32.935  33.883  1.00  0.00     0.173 A 
ATOM    103  C   UNL A   1      41.646  31.603  35.410  1.00  0.00     0.173 A 
ATOM    104  F   UNL A   1      43.639  33.078  32.748  1.00  0.00    -0.203 F 
ATOM    105  C   UNL A   1      42.831  34.024  34.744  1.00  0.00     0.198 A 
ATOM    106  C   UNL A   1      41.511  32.704  36.253  1.00  0.00     0.198 A 
ATOM    107  F   UNL A   1      41.067  30.447  35.765  1.00  0.00    -0.203 F 
ATOM    108  F   UNL A   1      43.434  35.181  34.437  1.00  0.00    -0.200 F 
ATOM    109  C   UNL A   1      42.110  33.911  35.923  1.00  0.00     0.200 A 
ATOM    110  F   UNL A   1      40.801  32.597  37.385  1.00  0.00    -0.200 F 
ATOM    111  F   UNL A   1      41.997  34.963  36.745  1.00  0.00    -0.200 F 
ENDBRANCH  81 101
BRANCH  84 112
ATOM    112  C   UNL A   1      42.673  24.114  27.713  1.00  0.00     0.064 A 
ATOM    113  C   UNL A   1      42.286  22.813  28.061  1.00  0.00     0.173 A 
ATOM    114  C   UNL A   1      43.158  24.322  26.413  1.00  0.00     0.173 A 
ATOM    115  F   UNL A   1      41.835  22.556  29.298  1.00  0.00    -0.203 F 
ATOM    116  C   UNL A   1      42.411  21.756  27.159  1.00  0.00     0.198 A 
ATOM    117  C   UNL A   1      43.250  23.273  25.501  1.00  0.00     0.198 A 
ATOM    118  F   UNL A   1      43.538  25.549  26.026  1.00  0.00    -0.203 F 
ATOM    119  F   UNL A   1      42.090  20.513  27.539  1.00  0.00    -0.200 F 
ATOM    120  C   UNL A   1      42.886  21.990  25.878  1.00  0.00     0.200 A 
ATOM    121  F   UNL A   1      43.696  23.506  24.259  1.00  0.00    -0.200 F 
ATOM    122  F   UNL A   1      43.007  20.975  25.011  1.00  0.00    -0.200 F 
ENDBRANCH  84 112
BRANCH  99 123
ATOM    123  C   UNL A   1      46.808  26.169  32.935  1.00  0.00     0.064 A 
ATOM    124  C   UNL A   1      46.803  25.172  33.921  1.00  0.00     0.173 A 
ATOM    125  C   UNL A   1      48.051  26.612  32.457  1.00  0.00     0.173 A 
ATOM    126  F   UNL A   1      45.643  24.723  34.424  1.00  0.00    -0.203 F 
ATOM    127  C   UNL A   1      47.996  24.660  34.428  1.00  0.00     0.198 A 
ATOM    128  C   UNL A   1      49.240  26.073  32.939  1.00  0.00     0.198 A 
ATOM    129  F   UNL A   1      48.113  27.557  31.507  1.00  0.00    -0.203 F 
ATOM    130  F   UNL A   1      47.967  23.747  35.409  1.00  0.00    -0.200 F 
ATOM    131  C   UNL A   1      49.212  25.104  33.931  1.00  0.00     0.200 A 
ATOM    132  F   UNL A   1      50.414  26.491  32.445  1.00  0.00    -0.200 F 
ATOM    133  F   UNL A   1      50.358  24.604  34.413  1.00  0.00    -0.200 F 
ENDBRANCH  99 123
ENDBRANCH  64  67
ENDBRANCH  54  57
ENDBRANCH  50  53
ENDBRANCH  47  50
ENDBRANCH   1  47
TORSDOF 15
ENDMDL
MODEL 4
REMARK VINA RESULT:     -11.9      3.898      8.687
REMARK SMILES O=C(NCCCCCCNC(=O)c1ccc(-c2c3nc(c(-c4c(F)c(F)c(F)c(F)c4F)c4ccc([nH]4)c(-c4c(F)c(F)c(F)c(F)c4F)c4nc(c(-c5c(F)c(F)c(F)c(F)c5F)c5ccc2[nH]5)C=C4)C=C3)cc1)C1=Cc2c(ccc(Cl)c2-c2ccccc2)O[C@H]1C(F)(F)F
REMARK SMILES IDX 7 1 6 4 5 7 4 10 3 13 1 14 2 15 76 17 77 18 92 19 78 20
REMARK SMILES IDX 91 22 79 24 84 25 80 26 82 27 81 28 83 30 93 32 94 33 95 34
REMARK SMILES IDX 96 35 85 36 86 37 90 38 87 39 89 41 88 43 8 47 9 50 10 53
REMARK SMILES IDX 11 54 12 56 13 57 14 58 75 59 15 60 74 62 16 64 17 67 18 68
REMARK SMILES IDX 68 69 19 70 73 71 67 72 69 73 20 74 72 75 66 77 65 79 21 81
REMARK SMILES IDX 53 84 33 85 52 86 34 87 37 88 51 89 70 90 35 91 36 93 50 95
REMARK SMILES IDX 71 96 38 99 22 101 23 102 31 103 24 104 25 105 29 106 32 107
REMARK SMILES IDX 26 108 27 109 30 110 28 111 54 112 55 113 63 114 56 115
REMARK SMILES IDX 57 116 61 117 64 118 58 119 59 120 62 121 60 122 39 123
REMARK SMILES IDX 40 124 48 125 41 126 42 127 46 128 49 129 43 130 44 131
REMARK SMILES IDX 47 132 45 133
REMARK H PARENT 7 2 7 3 6 5 6 6 5 8 5 9 4 11 4 12 3 16 77 21 92 23 80 29 81 31
REMARK H PARENT 86 40 90 42 87 44 89 45 88 46 8 48 8 49 9 51 9 52 10 55 14 61
REMARK H PARENT 75 63 15 65 74 66 73 76 67 78 69 80 72 82 66 83 34 92 37 94
REMARK H PARENT 70 97 35 98 71 100
REMARK Flexibility Score: inf
ROOT
ATOM      1  C   UNL A   1      30.993  30.950  25.272  1.00  0.00    -0.052 C 
ATOM      2  H   UNL A   1      31.937  30.942  24.770  1.00  0.00     0.027 H 
ATOM      3  H   UNL A   1      30.811  30.110  25.911  1.00  0.00     0.027 H 
ENDROOT
BRANCH   1   4
ATOM      4  C   UNL A   1      29.900  30.874  24.199  1.00  0.00    -0.052 C 
ATOM      5  H   UNL A   1      28.956  30.844  24.703  1.00  0.00     0.027 H 
ATOM      6  H   UNL A   1      30.059  31.735  23.583  1.00  0.00     0.027 H 
BRANCH   4   7
ATOM      7  C   UNL A   1      29.943  29.686  23.233  1.00  0.00    -0.036 C 
ATOM      8  H   UNL A   1      28.950  29.530  22.864  1.00  0.00     0.028 H 
ATOM      9  H   UNL A   1      30.656  29.958  22.483  1.00  0.00     0.028 H 
BRANCH   7  10
ATOM     10  C   UNL A   1      30.441  28.361  23.803  1.00  0.00     0.018 C 
ATOM     11  H   UNL A   1      30.558  28.480  24.860  1.00  0.00     0.049 H 
ATOM     12  H   UNL A   1      29.709  27.630  23.530  1.00  0.00     0.049 H 
BRANCH  10  13
ATOM     13  N   UNL A   1      31.699  27.883  23.266  1.00  0.00    -0.352 N 
ATOM     14  O   UNL A   1      33.761  26.987  23.285  1.00  0.00    -0.270 OA
ATOM     15  C   UNL A   1      32.750  27.293  23.915  1.00  0.00     0.251 C 
ATOM     16  H   UNL A   1      31.814  27.998  22.294  1.00  0.00     0.163 HD
BRANCH  15  17
ATOM     17  C   UNL A   1      32.691  26.989  25.362  1.00  0.00     0.067 C 
ATOM     18  C   UNL A   1      33.521  26.052  25.835  1.00  0.00    -0.038 C 
ATOM     19  C   UNL A   1      31.502  27.335  26.200  1.00  0.00     0.224 C 
ATOM     20  C   UNL A   1      32.740  24.798  26.033  1.00  0.00     0.027 A 
ATOM     21  H   UNL A   1      34.526  26.176  26.029  1.00  0.00     0.064 H 
ATOM     22  O   UNL A   1      30.789  26.127  26.655  1.00  0.00    -0.475 OA
ATOM     23  H   UNL A   1      30.835  27.896  25.579  1.00  0.00     0.090 H 
ATOM     24  C   UNL A   1      31.396  24.911  26.422  1.00  0.00     0.128 A 
ATOM     25  C   UNL A   1      33.321  23.562  25.643  1.00  0.00     0.011 A 
ATOM     26  C   UNL A   1      30.596  23.777  26.426  1.00  0.00    -0.018 A 
ATOM     27  C   UNL A   1      32.484  22.442  25.619  1.00  0.00     0.049 A 
ATOM     28  C   UNL A   1      31.135  22.551  26.008  1.00  0.00    -0.039 A 
ATOM     29  H   UNL A   1      29.613  23.834  26.736  1.00  0.00     0.066 H 
ATOM     30  Cl  UNL A   1      33.034  20.915  25.033  1.00  0.00    -0.084 Cl
ATOM     31  H   UNL A   1      30.531  21.715  25.986  1.00  0.00     0.064 H 
BRANCH  19  32
ATOM     32  C   UNL A   1      31.891  28.234  27.401  1.00  0.00     0.429 C 
ATOM     33  F   UNL A   1      30.889  29.052  27.806  1.00  0.00    -0.167 F 
ATOM     34  F   UNL A   1      32.246  27.486  28.473  1.00  0.00    -0.167 F 
ATOM     35  F   UNL A   1      32.943  29.038  27.112  1.00  0.00    -0.167 F 
ENDBRANCH  19  32
BRANCH  25  36
ATOM     36  C   UNL A   1      34.721  23.628  25.169  1.00  0.00    -0.016 A 
ATOM     37  C   UNL A   1      35.756  23.257  26.046  1.00  0.00    -0.054 A 
ATOM     38  C   UNL A   1      34.964  23.580  23.783  1.00  0.00    -0.054 A 
ATOM     39  C   UNL A   1      36.928  22.683  25.550  1.00  0.00    -0.062 A 
ATOM     40  H   UNL A   1      35.648  23.409  27.060  1.00  0.00     0.063 H 
ATOM     41  C   UNL A   1      36.132  22.993  23.293  1.00  0.00    -0.062 A 
ATOM     42  H   UNL A   1      34.276  23.980  23.127  1.00  0.00     0.063 H 
ATOM     43  C   UNL A   1      37.095  22.512  24.178  1.00  0.00    -0.062 A 
ATOM     44  H   UNL A   1      37.672  22.386  26.201  1.00  0.00     0.062 H 
ATOM     45  H   UNL A   1      36.282  22.916  22.275  1.00  0.00     0.062 H 
ATOM     46  H   UNL A   1      37.932  22.028  23.815  1.00  0.00     0.062 H 
ENDBRANCH  25  36
ENDBRANCH  15  17
ENDBRANCH  10  13
ENDBRANCH   7  10
ENDBRANCH   4   7
ENDBRANCH   1   4
BRANCH   1  47
ATOM     47  C   UNL A   1      30.977  32.164  26.203  1.00  0.00    -0.036 C 
ATOM     48  H   UNL A   1      30.221  31.997  26.942  1.00  0.00     0.028 H 
ATOM     49  H   UNL A   1      30.798  33.006  25.567  1.00  0.00     0.028 H 
BRANCH  47  50
ATOM     50  C   UNL A   1      32.279  32.476  26.932  1.00  0.00     0.018 C 
ATOM     51  H   UNL A   1      33.094  32.307  26.260  1.00  0.00     0.049 H 
ATOM     52  H   UNL A   1      32.323  31.837  27.789  1.00  0.00     0.049 H 
BRANCH  50  53
ATOM     53  N   UNL A   1      32.355  33.846  27.413  1.00  0.00    -0.352 N 
ATOM     54  C   UNL A   1      33.209  34.427  28.315  1.00  0.00     0.251 C 
ATOM     55  H   UNL A   1      31.684  34.455  27.029  1.00  0.00     0.163 HD
ATOM     56  O   UNL A   1      33.010  35.592  28.671  1.00  0.00    -0.269 OA
BRANCH  54  57
ATOM     57  C   UNL A   1      34.353  33.683  28.893  1.00  0.00     0.039 A 
ATOM     58  C   UNL A   1      35.627  34.258  28.826  1.00  0.00    -0.049 A 
ATOM     59  C   UNL A   1      34.202  32.415  29.459  1.00  0.00    -0.049 A 
ATOM     60  C   UNL A   1      36.729  33.594  29.374  1.00  0.00    -0.053 A 
ATOM     61  H   UNL A   1      35.755  35.175  28.370  1.00  0.00     0.063 H 
ATOM     62  C   UNL A   1      35.284  31.791  30.080  1.00  0.00    -0.053 A 
ATOM     63  H   UNL A   1      33.287  31.939  29.419  1.00  0.00     0.063 H 
ATOM     64  C   UNL A   1      36.563  32.369  30.039  1.00  0.00    -0.014 A 
ATOM     65  H   UNL A   1      37.671  34.008  29.290  1.00  0.00     0.063 H 
ATOM     66  H   UNL A   1      35.144  30.896  30.575  1.00  0.00     0.063 H 
BRANCH  64  67
ATOM     67  C   UNL A   1      37.715  31.677  30.679  1.00  0.00     0.031 A 
ATOM     68  C   UNL A   1      38.137  32.038  32.079  1.00  0.00     0.074 A 
ATOM     69  C   UNL A   1      38.412  30.755  29.986  1.00  0.00     0.049 A 
ATOM     70  N   UNL A   1      39.148  31.591  32.783  1.00  0.00    -0.248 NA
ATOM     71  C   UNL A   1      37.330  33.054  32.773  1.00  0.00    -0.034 C 
ATOM     72  C   UNL A   1      38.134  30.344  28.609  1.00  0.00    -0.036 A 
ATOM     73  N   UNL A   1      39.506  30.003  30.339  1.00  0.00    -0.354 N 
ATOM     74  C   UNL A   1      39.102  32.275  33.990  1.00  0.00     0.074 A 
ATOM     75  C   UNL A   1      38.002  33.211  33.904  1.00  0.00    -0.034 C 
ATOM     76  H   UNL A   1      36.465  33.522  32.460  1.00  0.00     0.065 H 
ATOM     77  C   UNL A   1      39.014  29.400  28.244  1.00  0.00    -0.036 A 
ATOM     78  H   UNL A   1      37.379  30.721  28.014  1.00  0.00     0.065 H 
ATOM     79  C   UNL A   1      39.949  29.169  29.342  1.00  0.00     0.049 A 
ATOM     80  H   UNL A   1      39.934  30.057  31.225  1.00  0.00     0.167 HD
ATOM     81  C   UNL A   1      39.888  32.120  35.083  1.00  0.00     0.037 A 
ATOM     82  H   UNL A   1      37.771  33.909  34.628  1.00  0.00     0.065 H 
ATOM     83  H   UNL A   1      39.029  28.915  27.332  1.00  0.00     0.065 H 
ATOM     84  C   UNL A   1      40.996  28.322  29.309  1.00  0.00     0.037 A 
ATOM     85  C   UNL A   1      40.970  31.174  35.175  1.00  0.00     0.049 A 
ATOM     86  C   UNL A   1      41.868  28.185  30.530  1.00  0.00     0.074 A 
ATOM     87  C   UNL A   1      41.793  30.908  36.256  1.00  0.00    -0.036 A 
ATOM     88  N   UNL A   1      41.380  30.339  34.146  1.00  0.00    -0.354 N 
ATOM     89  N   UNL A   1      41.774  28.792  31.688  1.00  0.00    -0.248 NA
ATOM     90  C   UNL A   1      42.988  27.237  30.442  1.00  0.00    -0.034 C 
ATOM     91  C   UNL A   1      42.736  29.953  35.863  1.00  0.00    -0.036 A 
ATOM     92  H   UNL A   1      41.723  31.340  37.190  1.00  0.00     0.065 H 
ATOM     93  C   UNL A   1      42.461  29.576  34.559  1.00  0.00     0.049 A 
ATOM     94  H   UNL A   1      40.964  30.295  33.255  1.00  0.00     0.167 HD
ATOM     95  C   UNL A   1      42.797  28.278  32.473  1.00  0.00     0.074 A 
ATOM     96  C   UNL A   1      43.490  27.297  31.667  1.00  0.00    -0.034 C 
ATOM     97  H   UNL A   1      43.302  26.673  29.636  1.00  0.00     0.065 H 
ATOM     98  H   UNL A   1      43.507  29.590  36.446  1.00  0.00     0.065 H 
ATOM     99  C   UNL A   1      43.134  28.593  33.749  1.00  0.00     0.037 A 
ATOM    100  H   UNL A   1      44.274  26.716  32.002  1.00  0.00     0.065 H 
BRANCH  81 101
ATOM    101  C   UNL A   1      39.608  32.991  36.275  1.00  0.00     0.064 A 
ATOM    102  C   UNL A   1      40.273  34.213  36.467  1.00  0.00     0.173 A 
ATOM    103  C   UNL A   1      38.626  32.627  37.210  1.00  0.00     0.173 A 
ATOM    104  F   UNL A   1      41.226  34.605  35.609  1.00  0.00    -0.203 F 
ATOM    105  C   UNL A   1      39.986  35.021  37.564  1.00  0.00     0.198 A 
ATOM    106  C   UNL A   1      38.318  33.454  38.287  1.00  0.00     0.198 A 
ATOM    107  F   UNL A   1      37.956  31.474  37.072  1.00  0.00    -0.203 F 
ATOM    108  F   UNL A   1      40.669  36.160  37.752  1.00  0.00    -0.200 F 
ATOM    109  C   UNL A   1      39.004  34.647  38.468  1.00  0.00     0.200 A 
ATOM    110  F   UNL A   1      37.357  33.098  39.150  1.00  0.00    -0.200 F 
ATOM    111  F   UNL A   1      38.720  35.432  39.515  1.00  0.00    -0.200 F 
ENDBRANCH  81 101
BRANCH  84 112
ATOM    112  C   UNL A   1      41.278  27.526  28.083  1.00  0.00     0.064 A 
ATOM    113  C   UNL A   1      40.754  26.237  27.921  1.00  0.00     0.173 A 
ATOM    114  C   UNL A   1      42.097  28.029  27.061  1.00  0.00     0.173 A 
ATOM    115  F   UNL A   1      39.981  25.702  28.878  1.00  0.00    -0.203 F 
ATOM    116  C   UNL A   1      41.062  25.468  26.799  1.00  0.00     0.198 A 
ATOM    117  C   UNL A   1      42.377  27.273  25.925  1.00  0.00     0.198 A 
ATOM    118  F   UNL A   1      42.622  29.259  27.163  1.00  0.00    -0.203 F 
ATOM    119  F   UNL A   1      40.595  24.216  26.699  1.00  0.00    -0.200 F 
ATOM    120  C   UNL A   1      41.869  25.990  25.799  1.00  0.00     0.200 A 
ATOM    121  F   UNL A   1      43.145  27.787  24.954  1.00  0.00    -0.200 F 
ATOM    122  F   UNL A   1      42.166  25.251  24.722  1.00  0.00    -0.200 F 
ENDBRANCH  84 112
BRANCH  99 123
ATOM    123  C   UNL A   1      44.275  27.838  34.369  1.00  0.00     0.064 A 
ATOM    124  C   UNL A   1      45.586  28.336  34.356  1.00  0.00     0.173 A 
ATOM    125  C   UNL A   1      44.045  26.615  35.020  1.00  0.00     0.173 A 
ATOM    126  F   UNL A   1      45.864  29.492  33.734  1.00  0.00    -0.203 F 
ATOM    127  C   UNL A   1      46.628  27.624  34.946  1.00  0.00     0.198 A 
ATOM    128  C   UNL A   1      45.082  25.925  35.640  1.00  0.00     0.198 A 
ATOM    129  F   UNL A   1      42.808  26.098  35.070  1.00  0.00    -0.203 F 
ATOM    130  F   UNL A   1      47.881  28.094  34.873  1.00  0.00    -0.200 F 
ATOM    131  C   UNL A   1      46.374  26.425  35.594  1.00  0.00     0.200 A 
ATOM    132  F   UNL A   1      44.832  24.775  36.280  1.00  0.00    -0.200 F 
ATOM    133  F   UNL A   1      47.377  25.747  36.168  1.00  0.00    -0.200 F 
ENDBRANCH  99 123
ENDBRANCH  64  67
ENDBRANCH  54  57
ENDBRANCH  50  53
ENDBRANCH  47  50
ENDBRANCH   1  47
TORSDOF 15
ENDMDL
MODEL 5
REMARK VINA RESULT:     -11.9      3.697      8.621
REMARK SMILES O=C(NCCCCCCNC(=O)c1ccc(-c2c3nc(c(-c4c(F)c(F)c(F)c(F)c4F)c4ccc([nH]4)c(-c4c(F)c(F)c(F)c(F)c4F)c4nc(c(-c5c(F)c(F)c(F)c(F)c5F)c5ccc2[nH]5)C=C4)C=C3)cc1)C1=Cc2c(ccc(Cl)c2-c2ccccc2)O[C@H]1C(F)(F)F
REMARK SMILES IDX 7 1 6 4 5 7 4 10 3 13 1 14 2 15 76 17 77 18 92 19 78 20
REMARK SMILES IDX 91 22 79 24 84 25 80 26 82 27 81 28 83 30 93 32 94 33 95 34
REMARK SMILES IDX 96 35 85 36 86 37 90 38 87 39 89 41 88 43 8 47 9 50 10 53
REMARK SMILES IDX 11 54 12 56 13 57 14 58 75 59 15 60 74 62 16 64 17 67 18 68
REMARK SMILES IDX 68 69 19 70 73 71 67 72 69 73 20 74 72 75 66 77 65 79 21 81
REMARK SMILES IDX 53 84 33 85 52 86 34 87 37 88 51 89 70 90 35 91 36 93 50 95
REMARK SMILES IDX 71 96 38 99 22 101 23 102 31 103 24 104 25 105 29 106 32 107
REMARK SMILES IDX 26 108 27 109 30 110 28 111 54 112 55 113 63 114 56 115
REMARK SMILES IDX 57 116 61 117 64 118 58 119 59 120 62 121 60 122 39 123
REMARK SMILES IDX 40 124 48 125 41 126 42 127 46 128 49 129 43 130 44 131
REMARK SMILES IDX 47 132 45 133
REMARK H PARENT 7 2 7 3 6 5 6 6 5 8 5 9 4 11 4 12 3 16 77 21 92 23 80 29 81 31
REMARK H PARENT 86 40 90 42 87 44 89 45 88 46 8 48 8 49 9 51 9 52 10 55 14 61
REMARK H PARENT 75 63 15 65 74 66 73 76 67 78 69 80 72 82 66 83 34 92 37 94
REMARK H PARENT 70 97 35 98 71 100
REMARK Flexibility Score: inf
ROOT
ATOM      1  C   UNL A   1      36.398  19.885  25.130  1.00  0.00    -0.052 C 
ATOM      2  H   UNL A   1      36.389  19.978  26.196  1.00  0.00     0.027 H 
ATOM      3  H   UNL A   1      36.140  20.775  24.595  1.00  0.00     0.027 H 
ENDROOT
BRANCH   1   4
ATOM      4  C   UNL A   1      35.318  18.866  24.747  1.00  0.00    -0.052 C 
ATOM      5  H   UNL A   1      35.520  18.542  23.748  1.00  0.00     0.027 H 
ATOM      6  H   UNL A   1      35.383  18.102  25.495  1.00  0.00     0.027 H 
BRANCH   4   7
ATOM      7  C   UNL A   1      33.860  19.335  24.791  1.00  0.00    -0.036 C 
ATOM      8  H   UNL A   1      33.306  18.742  24.094  1.00  0.00     0.028 H 
ATOM      9  H   UNL A   1      33.557  19.220  25.812  1.00  0.00     0.028 H 
BRANCH   7  10
ATOM     10  C   UNL A   1      33.606  20.802  24.458  1.00  0.00     0.018 C 
ATOM     11  H   UNL A   1      34.474  21.183  23.962  1.00  0.00     0.049 H 
ATOM     12  H   UNL A   1      32.722  20.818  23.856  1.00  0.00     0.049 H 
BRANCH  10  13
ATOM     13  N   UNL A   1      33.329  21.662  25.592  1.00  0.00    -0.352 N 
ATOM     14  O   UNL A   1      33.458  23.489  26.896  1.00  0.00    -0.270 OA
ATOM     15  C   UNL A   1      33.776  22.930  25.848  1.00  0.00     0.251 C 
ATOM     16  H   UNL A   1      32.732  21.279  26.276  1.00  0.00     0.163 HD
BRANCH  15  17
ATOM     17  C   UNL A   1      34.620  23.661  24.877  1.00  0.00     0.067 C 
ATOM     18  C   UNL A   1      34.633  24.997  24.947  1.00  0.00    -0.038 C 
ATOM     19  C   UNL A   1      35.086  23.039  23.600  1.00  0.00     0.224 C 
ATOM     20  C   UNL A   1      33.766  25.527  23.856  1.00  0.00     0.027 A 
ATOM     21  H   UNL A   1      35.153  25.563  25.635  1.00  0.00     0.064 H 
ATOM     22  O   UNL A   1      34.453  23.671  22.427  1.00  0.00    -0.475 OA
ATOM     23  H   UNL A   1      34.782  22.014  23.623  1.00  0.00     0.090 H 
ATOM     24  C   UNL A   1      33.715  24.814  22.649  1.00  0.00     0.128 A 
ATOM     25  C   UNL A   1      32.893  26.610  24.142  1.00  0.00     0.011 A 
ATOM     26  C   UNL A   1      32.775  25.173  21.692  1.00  0.00    -0.018 A 
ATOM     27  C   UNL A   1      31.931  26.927  23.179  1.00  0.00     0.049 A 
ATOM     28  C   UNL A   1      31.875  26.214  21.966  1.00  0.00    -0.039 A 
ATOM     29  H   UNL A   1      32.739  24.680  20.786  1.00  0.00     0.066 H 
ATOM     30  Cl  UNL A   1      30.726  28.129  23.465  1.00  0.00    -0.084 Cl
ATOM     31  H   UNL A   1      31.160  26.461  21.264  1.00  0.00     0.064 H 
BRANCH  19  32
ATOM     32  C   UNL A   1      36.630  23.067  23.479  1.00  0.00     0.429 C 
ATOM     33  F   UNL A   1      37.263  23.025  24.677  1.00  0.00    -0.167 F 
ATOM     34  F   UNL A   1      37.081  22.012  22.759  1.00  0.00    -0.167 F 
ATOM     35  F   UNL A   1      37.069  24.189  22.857  1.00  0.00    -0.167 F 
ENDBRANCH  19  32
BRANCH  25  36
ATOM     36  C   UNL A   1      33.011  27.194  25.498  1.00  0.00    -0.016 A 
ATOM     37  C   UNL A   1      33.852  28.304  25.690  1.00  0.00    -0.054 A 
ATOM     38  C   UNL A   1      31.969  26.971  26.418  1.00  0.00    -0.054 A 
ATOM     39  C   UNL A   1      33.548  29.258  26.663  1.00  0.00    -0.062 A 
ATOM     40  H   UNL A   1      34.698  28.414  25.111  1.00  0.00     0.063 H 
ATOM     41  C   UNL A   1      31.661  27.935  27.380  1.00  0.00    -0.062 A 
ATOM     42  H   UNL A   1      31.431  26.092  26.381  1.00  0.00     0.063 H 
ATOM     43  C   UNL A   1      32.428  29.094  27.475  1.00  0.00    -0.062 A 
ATOM     44  H   UNL A   1      34.154  30.086  26.780  1.00  0.00     0.062 H 
ATOM     45  H   UNL A   1      30.865  27.789  28.019  1.00  0.00     0.062 H 
ATOM     46  H   UNL A   1      32.167  29.832  28.148  1.00  0.00     0.062 H 
ENDBRANCH  25  36
ENDBRANCH  15  17
ENDBRANCH  10  13
ENDBRANCH   7  10
ENDBRANCH   4   7
ENDBRANCH   1   4
BRANCH   1  47
ATOM     47  C   UNL A   1      37.835  19.573  24.707  1.00  0.00    -0.036 C 
ATOM     48  H   UNL A   1      38.000  20.031  23.754  1.00  0.00     0.028 H 
ATOM     49  H   UNL A   1      37.905  18.505  24.704  1.00  0.00     0.028 H 
BRANCH  47  50
ATOM     50  C   UNL A   1      38.937  20.048  25.648  1.00  0.00     0.018 C 
ATOM     51  H   UNL A   1      38.506  20.236  26.609  1.00  0.00     0.049 H 
ATOM     52  H   UNL A   1      39.362  20.931  25.218  1.00  0.00     0.049 H 
BRANCH  50  53
ATOM     53  N   UNL A   1      40.014  19.085  25.806  1.00  0.00    -0.352 N 
ATOM     54  C   UNL A   1      41.342  19.272  26.095  1.00  0.00     0.251 C 
ATOM     55  H   UNL A   1      39.747  18.146  25.685  1.00  0.00     0.163 HD
ATOM     56  O   UNL A   1      42.110  18.307  26.059  1.00  0.00    -0.269 OA
BRANCH  54  57
ATOM     57  C   UNL A   1      41.883  20.612  26.427  1.00  0.00     0.039 A 
ATOM     58  C   UNL A   1      42.247  21.465  25.379  1.00  0.00    -0.049 A 
ATOM     59  C   UNL A   1      42.079  21.025  27.747  1.00  0.00    -0.049 A 
ATOM     60  C   UNL A   1      42.746  22.742  25.652  1.00  0.00    -0.053 A 
ATOM     61  H   UNL A   1      42.147  21.151  24.401  1.00  0.00     0.063 H 
ATOM     62  C   UNL A   1      42.496  22.328  28.019  1.00  0.00    -0.053 A 
ATOM     63  H   UNL A   1      41.913  20.365  28.523  1.00  0.00     0.063 H 
ATOM     64  C   UNL A   1      42.843  23.200  26.976  1.00  0.00    -0.014 A 
ATOM     65  H   UNL A   1      43.045  23.353  24.875  1.00  0.00     0.063 H 
ATOM     66  H   UNL A   1      42.552  22.654  28.997  1.00  0.00     0.063 H 
BRANCH  64  67
ATOM     67  C   UNL A   1      43.318  24.578  27.281  1.00  0.00     0.031 A 
ATOM     68  C   UNL A   1      42.364  25.606  27.832  1.00  0.00     0.074 A 
ATOM     69  C   UNL A   1      44.595  24.919  27.022  1.00  0.00     0.049 A 
ATOM     70  N   UNL A   1      42.574  26.871  28.104  1.00  0.00    -0.248 NA
ATOM     71  C   UNL A   1      40.985  25.162  28.087  1.00  0.00    -0.034 C 
ATOM     72  C   UNL A   1      45.609  24.031  26.451  1.00  0.00    -0.036 A 
ATOM     73  N   UNL A   1      45.260  26.109  27.194  1.00  0.00    -0.354 N 
ATOM     74  C   UNL A   1      41.358  27.369  28.551  1.00  0.00     0.074 A 
ATOM     75  C   UNL A   1      40.399  26.291  28.457  1.00  0.00    -0.034 C 
ATOM     76  H   UNL A   1      40.581  24.217  28.001  1.00  0.00     0.065 H 
ATOM     77  C   UNL A   1      46.769  24.696  26.344  1.00  0.00    -0.036 A 
ATOM     78  H   UNL A   1      45.455  23.048  26.176  1.00  0.00     0.065 H 
ATOM     79  C   UNL A   1      46.574  26.072  26.794  1.00  0.00     0.049 A 
ATOM     80  H   UNL A   1      44.834  26.915  27.569  1.00  0.00     0.167 HD
ATOM     81  C   UNL A   1      41.071  28.607  29.022  1.00  0.00     0.037 A 
ATOM     82  H   UNL A   1      39.390  26.387  28.652  1.00  0.00     0.065 H 
ATOM     83  H   UNL A   1      47.657  24.300  25.997  1.00  0.00     0.065 H 
ATOM     84  C   UNL A   1      47.513  27.037  26.781  1.00  0.00     0.037 A 
ATOM     85  C   UNL A   1      42.031  29.675  29.134  1.00  0.00     0.049 A 
ATOM     86  C   UNL A   1      47.161  28.411  27.291  1.00  0.00     0.074 A 
ATOM     87  C   UNL A   1      41.849  30.948  29.645  1.00  0.00    -0.036 A 
ATOM     88  N   UNL A   1      43.355  29.592  28.728  1.00  0.00    -0.354 N 
ATOM     89  N   UNL A   1      46.023  28.850  27.770  1.00  0.00    -0.248 NA
ATOM     90  C   UNL A   1      48.229  29.421  27.263  1.00  0.00    -0.034 C 
ATOM     91  C   UNL A   1      43.046  31.655  29.496  1.00  0.00    -0.036 A 
ATOM     92  H   UNL A   1      40.979  31.314  30.063  1.00  0.00     0.065 H 
ATOM     93  C   UNL A   1      43.994  30.802  28.953  1.00  0.00     0.049 A 
ATOM     94  H   UNL A   1      43.778  28.794  28.339  1.00  0.00     0.167 HD
ATOM     95  C   UNL A   1      46.246  30.173  28.130  1.00  0.00     0.074 A 
ATOM     96  C   UNL A   1      47.632  30.459  27.831  1.00  0.00    -0.034 C 
ATOM     97  H   UNL A   1      49.191  29.342  26.898  1.00  0.00     0.065 H 
ATOM     98  H   UNL A   1      43.199  32.644  29.748  1.00  0.00     0.065 H 
ATOM     99  C   UNL A   1      45.379  31.069  28.661  1.00  0.00     0.037 A 
ATOM    100  H   UNL A   1      48.098  31.357  28.034  1.00  0.00     0.065 H 
BRANCH  81 101
ATOM    101  C   UNL A   1      39.658  28.879  29.459  1.00  0.00     0.064 A 
ATOM    102  C   UNL A   1      38.691  29.363  28.564  1.00  0.00     0.173 A 
ATOM    103  C   UNL A   1      39.253  28.603  30.774  1.00  0.00     0.173 A 
ATOM    104  F   UNL A   1      39.028  29.652  27.297  1.00  0.00    -0.203 F 
ATOM    105  C   UNL A   1      37.380  29.587  28.975  1.00  0.00     0.198 A 
ATOM    106  C   UNL A   1      37.932  28.796  31.173  1.00  0.00     0.198 A 
ATOM    107  F   UNL A   1      40.133  28.133  31.669  1.00  0.00    -0.203 F 
ATOM    108  F   UNL A   1      36.487  30.096  28.115  1.00  0.00    -0.200 F 
ATOM    109  C   UNL A   1      36.999  29.296  30.276  1.00  0.00     0.200 A 
ATOM    110  F   UNL A   1      37.562  28.499  32.426  1.00  0.00    -0.200 F 
ATOM    111  F   UNL A   1      35.735  29.501  30.668  1.00  0.00    -0.200 F 
ENDBRANCH  81 101
BRANCH  84 112
ATOM    112  C   UNL A   1      48.882  26.743  26.278  1.00  0.00     0.064 A 
ATOM    113  C   UNL A   1      49.238  27.010  24.949  1.00  0.00     0.173 A 
ATOM    114  C   UNL A   1      49.855  26.167  27.108  1.00  0.00     0.173 A 
ATOM    115  F   UNL A   1      48.338  27.541  24.109  1.00  0.00    -0.203 F 
ATOM    116  C   UNL A   1      50.503  26.684  24.461  1.00  0.00     0.198 A 
ATOM    117  C   UNL A   1      51.130  25.873  26.628  1.00  0.00     0.198 A 
ATOM    118  F   UNL A   1      49.570  25.894  28.390  1.00  0.00    -0.203 F 
ATOM    119  F   UNL A   1      50.795  26.896  23.170  1.00  0.00    -0.200 F 
ATOM    120  C   UNL A   1      51.449  26.121  25.303  1.00  0.00     0.200 A 
ATOM    121  F   UNL A   1      52.047  25.342  27.450  1.00  0.00    -0.200 F 
ATOM    122  F   UNL A   1      52.664  25.807  24.833  1.00  0.00    -0.200 F 
ENDBRANCH  84 112
BRANCH  99 123
ATOM    123  C   UNL A   1      45.913  32.434  28.995  1.00  0.00     0.064 A 
ATOM    124  C   UNL A   1      45.856  33.495  28.080  1.00  0.00     0.173 A 
ATOM    125  C   UNL A   1      46.454  32.691  30.265  1.00  0.00     0.173 A 
ATOM    126  F   UNL A   1      45.361  33.300  26.848  1.00  0.00    -0.203 F 
ATOM    127  C   UNL A   1      46.347  34.755  28.413  1.00  0.00     0.198 A 
ATOM    128  C   UNL A   1      46.912  33.961  30.606  1.00  0.00     0.198 A 
ATOM    129  F   UNL A   1      46.525  31.714  31.181  1.00  0.00    -0.203 F 
ATOM    130  F   UNL A   1      46.332  35.739  27.503  1.00  0.00    -0.200 F 
ATOM    131  C   UNL A   1      46.867  34.989  29.677  1.00  0.00     0.200 A 
ATOM    132  F   UNL A   1      47.398  34.189  31.834  1.00  0.00    -0.200 F 
ATOM    133  F   UNL A   1      47.331  36.204  29.998  1.00  0.00    -0.200 F 
ENDBRANCH  99 123
ENDBRANCH  64  67
ENDBRANCH  54  57
ENDBRANCH  50  53
ENDBRANCH  47  50
ENDBRANCH   1  47
TORSDOF 15
ENDMDL
MODEL 6
REMARK VINA RESULT:     -11.9      3.993      7.757
REMARK SMILES O=C(NCCCCCCNC(=O)c1ccc(-c2c3nc(c(-c4c(F)c(F)c(F)c(F)c4F)c4ccc([nH]4)c(-c4c(F)c(F)c(F)c(F)c4F)c4nc(c(-c5c(F)c(F)c(F)c(F)c5F)c5ccc2[nH]5)C=C4)C=C3)cc1)C1=Cc2c(ccc(Cl)c2-c2ccccc2)O[C@H]1C(F)(F)F
REMARK SMILES IDX 7 1 6 4 5 7 4 10 3 13 1 14 2 15 76 17 77 18 92 19 78 20
REMARK SMILES IDX 91 22 79 24 84 25 80 26 82 27 81 28 83 30 93 32 94 33 95 34
REMARK SMILES IDX 96 35 85 36 86 37 90 38 87 39 89 41 88 43 8 47 9 50 10 53
REMARK SMILES IDX 11 54 12 56 13 57 14 58 75 59 15 60 74 62 16 64 17 67 18 68
REMARK SMILES IDX 68 69 19 70 73 71 67 72 69 73 20 74 72 75 66 77 65 79 21 81
REMARK SMILES IDX 53 84 33 85 52 86 34 87 37 88 51 89 70 90 35 91 36 93 50 95
REMARK SMILES IDX 71 96 38 99 22 101 23 102 31 103 24 104 25 105 29 106 32 107
REMARK SMILES IDX 26 108 27 109 30 110 28 111 54 112 55 113 63 114 56 115
REMARK SMILES IDX 57 116 61 117 64 118 58 119 59 120 62 121 60 122 39 123
REMARK SMILES IDX 40 124 48 125 41 126 42 127 46 128 49 129 43 130 44 131
REMARK SMILES IDX 47 132 45 133
REMARK H PARENT 7 2 7 3 6 5 6 6 5 8 5 9 4 11 4 12 3 16 77 21 92 23 80 29 81 31
REMARK H PARENT 86 40 90 42 87 44 89 45 88 46 8 48 8 49 9 51 9 52 10 55 14 61
REMARK H PARENT 75 63 15 65 74 66 73 76 67 78 69 80 72 82 66 83 34 92 37 94
REMARK H PARENT 70 97 35 98 71 100
REMARK Flexibility Score: inf
ROOT
ATOM      1  C   UNL A   1      31.138  30.914  25.388  1.00  0.00    -0.052 C 
ATOM      2  H   UNL A   1      32.066  31.069  24.879  1.00  0.00     0.027 H 
ATOM      3  H   UNL A   1      31.044  29.969  25.881  1.00  0.00     0.027 H 
ENDROOT
BRANCH   1   4
ATOM      4  C   UNL A   1      30.027  30.922  24.331  1.00  0.00    -0.052 C 
ATOM      5  H   UNL A   1      29.091  30.974  24.849  1.00  0.00     0.027 H 
ATOM      6  H   UNL A   1      30.248  31.761  23.705  1.00  0.00     0.027 H 
BRANCH   4   7
ATOM      7  C   UNL A   1      29.956  29.726  23.375  1.00  0.00    -0.036 C 
ATOM      8  H   UNL A   1      28.932  29.595  23.093  1.00  0.00     0.028 H 
ATOM      9  H   UNL A   1      30.611  29.973  22.565  1.00  0.00     0.028 H 
BRANCH   7  10
ATOM     10  C   UNL A   1      30.464  28.392  23.914  1.00  0.00     0.018 C 
ATOM     11  H   UNL A   1      30.576  28.485  24.974  1.00  0.00     0.049 H 
ATOM     12  H   UNL A   1      29.740  27.661  23.619  1.00  0.00     0.049 H 
BRANCH  10  13
ATOM     13  N   UNL A   1      31.729  27.940  23.370  1.00  0.00    -0.352 N 
ATOM     14  O   UNL A   1      33.797  27.058  23.375  1.00  0.00    -0.270 OA
ATOM     15  C   UNL A   1      32.781  27.337  24.007  1.00  0.00     0.251 C 
ATOM     16  H   UNL A   1      31.850  28.086  22.403  1.00  0.00     0.163 HD
BRANCH  15  17
ATOM     17  C   UNL A   1      32.714  26.988  25.443  1.00  0.00     0.067 C 
ATOM     18  C   UNL A   1      33.556  26.051  25.895  1.00  0.00    -0.038 C 
ATOM     19  C   UNL A   1      31.513  27.288  26.281  1.00  0.00     0.224 C 
ATOM     20  C   UNL A   1      32.795  24.778  26.048  1.00  0.00     0.027 A 
ATOM     21  H   UNL A   1      34.557  26.186  26.102  1.00  0.00     0.064 H 
ATOM     22  O   UNL A   1      30.817  26.055  26.692  1.00  0.00    -0.475 OA
ATOM     23  H   UNL A   1      30.842  27.856  25.673  1.00  0.00     0.090 H 
ATOM     24  C   UNL A   1      31.447  24.857  26.428  1.00  0.00     0.128 A 
ATOM     25  C   UNL A   1      33.400  23.565  25.625  1.00  0.00     0.011 A 
ATOM     26  C   UNL A   1      30.666  23.710  26.390  1.00  0.00    -0.018 A 
ATOM     27  C   UNL A   1      32.583  22.432  25.559  1.00  0.00     0.049 A 
ATOM     28  C   UNL A   1      31.229  22.507  25.939  1.00  0.00    -0.039 A 
ATOM     29  H   UNL A   1      29.680  23.741  26.693  1.00  0.00     0.066 H 
ATOM     30  Cl  UNL A   1      33.164  20.933  24.931  1.00  0.00    -0.084 Cl
ATOM     31  H   UNL A   1      30.640  21.661  25.886  1.00  0.00     0.064 H 
BRANCH  19  32
ATOM     32  C   UNL A   1      31.877  28.156  27.513  1.00  0.00     0.429 C 
ATOM     33  F   UNL A   1      30.898  29.024  27.866  1.00  0.00    -0.167 F 
ATOM     34  F   UNL A   1      32.125  27.382  28.596  1.00  0.00    -0.167 F 
ATOM     35  F   UNL A   1      32.986  28.903  27.296  1.00  0.00    -0.167 F 
ENDBRANCH  19  32
BRANCH  25  36
ATOM     36  C   UNL A   1      34.804  23.669  25.165  1.00  0.00    -0.016 A 
ATOM     37  C   UNL A   1      35.839  23.332  26.055  1.00  0.00    -0.054 A 
ATOM     38  C   UNL A   1      35.062  23.622  23.782  1.00  0.00    -0.054 A 
ATOM     39  C   UNL A   1      37.032  22.790  25.574  1.00  0.00    -0.062 A 
ATOM     40  H   UNL A   1      35.716  23.485  27.067  1.00  0.00     0.063 H 
ATOM     41  C   UNL A   1      36.252  23.067  23.307  1.00  0.00    -0.062 A 
ATOM     42  H   UNL A   1      34.370  24.000  23.117  1.00  0.00     0.063 H 
ATOM     43  C   UNL A   1      37.219  22.617  24.204  1.00  0.00    -0.062 A 
ATOM     44  H   UNL A   1      37.777  22.516  26.234  1.00  0.00     0.062 H 
ATOM     45  H   UNL A   1      36.415  22.990  22.292  1.00  0.00     0.062 H 
ATOM     46  H   UNL A   1      38.073  22.156  23.853  1.00  0.00     0.062 H 
ENDBRANCH  25  36
ENDBRANCH  15  17
ENDBRANCH  10  13
ENDBRANCH   7  10
ENDBRANCH   4   7
ENDBRANCH   1   4
BRANCH   1  47
ATOM     47  C   UNL A   1      31.047  31.954  26.506  1.00  0.00    -0.036 C 
ATOM     48  H   UNL A   1      30.616  31.475  27.361  1.00  0.00     0.028 H 
ATOM     49  H   UNL A   1      30.462  32.754  26.103  1.00  0.00     0.028 H 
BRANCH  47  50
ATOM     50  C   UNL A   1      32.360  32.593  26.946  1.00  0.00     0.018 C 
ATOM     51  H   UNL A   1      33.044  32.565  26.123  1.00  0.00     0.049 H 
ATOM     52  H   UNL A   1      32.717  32.037  27.787  1.00  0.00     0.049 H 
BRANCH  50  53
ATOM     53  N   UNL A   1      32.213  33.974  27.374  1.00  0.00    -0.352 N 
ATOM     54  C   UNL A   1      32.902  34.693  28.317  1.00  0.00     0.251 C 
ATOM     55  H   UNL A   1      31.501  34.474  26.913  1.00  0.00     0.163 HD
ATOM     56  O   UNL A   1      32.520  35.830  28.608  1.00  0.00    -0.269 OA
BRANCH  54  57
ATOM     57  C   UNL A   1      34.081  34.129  29.015  1.00  0.00     0.039 A 
ATOM     58  C   UNL A   1      33.872  33.209  30.048  1.00  0.00    -0.049 A 
ATOM     59  C   UNL A   1      35.385  34.521  28.700  1.00  0.00    -0.049 A 
ATOM     60  C   UNL A   1      34.960  32.643  30.718  1.00  0.00    -0.053 A 
ATOM     61  H   UNL A   1      32.910  32.947  30.316  1.00  0.00     0.063 H 
ATOM     62  C   UNL A   1      36.472  33.894  29.310  1.00  0.00    -0.053 A 
ATOM     63  H   UNL A   1      35.544  35.275  28.013  1.00  0.00     0.063 H 
ATOM     64  C   UNL A   1      36.274  32.954  30.332  1.00  0.00    -0.014 A 
ATOM     65  H   UNL A   1      34.797  31.992  31.502  1.00  0.00     0.063 H 
ATOM     66  H   UNL A   1      37.432  34.125  29.008  1.00  0.00     0.063 H 
BRANCH  64  67
ATOM     67  C   UNL A   1      37.443  32.316  30.997  1.00  0.00     0.031 A 
ATOM     68  C   UNL A   1      38.192  31.202  30.313  1.00  0.00     0.074 A 
ATOM     69  C   UNL A   1      37.806  32.706  32.234  1.00  0.00     0.049 A 
ATOM     70  N   UNL A   1      39.196  30.484  30.754  1.00  0.00    -0.248 NA
ATOM     71  C   UNL A   1      37.738  30.827  28.965  1.00  0.00    -0.034 C 
ATOM     72  C   UNL A   1      37.140  33.745  33.022  1.00  0.00    -0.036 A 
ATOM     73  N   UNL A   1      38.818  32.270  33.054  1.00  0.00    -0.354 N 
ATOM     74  C   UNL A   1      39.483  29.573  29.746  1.00  0.00     0.074 A 
ATOM     75  C   UNL A   1      38.512  29.786  28.695  1.00  0.00    -0.034 C 
ATOM     76  H   UNL A   1      37.007  31.263  28.381  1.00  0.00     0.065 H 
ATOM     77  C   UNL A   1      37.773  33.882  34.197  1.00  0.00    -0.036 A 
ATOM     78  H   UNL A   1      36.314  34.286  32.721  1.00  0.00     0.065 H 
ATOM     79  C   UNL A   1      38.863  32.912  34.268  1.00  0.00     0.049 A 
ATOM     80  H   UNL A   1      39.453  31.562  32.796  1.00  0.00     0.167 HD
ATOM     81  C   UNL A   1      40.482  28.660  29.688  1.00  0.00     0.037 A 
ATOM     82  H   UNL A   1      38.432  29.204  27.847  1.00  0.00     0.065 H 
ATOM     83  H   UNL A   1      37.530  34.563  34.933  1.00  0.00     0.065 H 
ATOM     84  C   UNL A   1      39.681  32.734  35.323  1.00  0.00     0.037 A 
ATOM     85  C   UNL A   1      41.461  28.462  30.726  1.00  0.00     0.049 A 
ATOM     86  C   UNL A   1      40.770  31.695  35.241  1.00  0.00     0.074 A 
ATOM     87  C   UNL A   1      42.540  27.596  30.739  1.00  0.00    -0.036 A 
ATOM     88  N   UNL A   1      41.478  29.141  31.935  1.00  0.00    -0.354 N 
ATOM     89  N   UNL A   1      41.070  30.885  34.255  1.00  0.00    -0.248 NA
ATOM     90  C   UNL A   1      41.640  31.553  36.417  1.00  0.00    -0.034 C 
ATOM     91  C   UNL A   1      43.178  27.709  31.979  1.00  0.00    -0.036 A 
ATOM     92  H   UNL A   1      42.826  26.973  29.968  1.00  0.00     0.065 H 
ATOM     93  C   UNL A   1      42.535  28.693  32.713  1.00  0.00     0.049 A 
ATOM     94  H   UNL A   1      40.836  29.837  32.201  1.00  0.00     0.167 HD
ATOM     95  C   UNL A   1      42.178  30.163  34.677  1.00  0.00     0.074 A 
ATOM     96  C   UNL A   1      42.509  30.642  36.001  1.00  0.00    -0.034 C 
ATOM     97  H   UNL A   1      41.587  32.035  37.328  1.00  0.00     0.065 H 
ATOM     98  H   UNL A   1      43.989  27.155  32.294  1.00  0.00     0.065 H 
ATOM     99  C   UNL A   1      42.860  29.189  34.026  1.00  0.00     0.037 A 
ATOM    100  H   UNL A   1      43.318  30.318  36.553  1.00  0.00     0.065 H 
BRANCH  81 101
ATOM    101  C   UNL A   1      40.574  27.801  28.458  1.00  0.00     0.064 A 
ATOM    102  C   UNL A   1      41.321  28.197  27.337  1.00  0.00     0.173 A 
ATOM    103  C   UNL A   1      39.950  26.544  28.417  1.00  0.00     0.173 A 
ATOM    104  F   UNL A   1      41.930  29.392  27.320  1.00  0.00    -0.203 F 
ATOM    105  C   UNL A   1      41.418  27.380  26.213  1.00  0.00     0.198 A 
ATOM    106  C   UNL A   1      40.077  25.716  27.305  1.00  0.00     0.198 A 
ATOM    107  F   UNL A   1      39.229  26.113  29.462  1.00  0.00    -0.203 F 
ATOM    108  F   UNL A   1      42.097  27.802  25.138  1.00  0.00    -0.200 F 
ATOM    109  C   UNL A   1      40.804  26.137  26.201  1.00  0.00     0.200 A 
ATOM    110  F   UNL A   1      39.495  24.508  27.301  1.00  0.00    -0.200 F 
ATOM    111  F   UNL A   1      40.907  25.348  25.124  1.00  0.00    -0.200 F 
ENDBRANCH  81 101
BRANCH  84 112
ATOM    112  C   UNL A   1      39.514  33.561  36.549  1.00  0.00     0.064 A 
ATOM    113  C   UNL A   1      40.161  34.796  36.682  1.00  0.00     0.173 A 
ATOM    114  C   UNL A   1      38.723  33.122  37.621  1.00  0.00     0.173 A 
ATOM    115  F   UNL A   1      40.945  35.252  35.694  1.00  0.00    -0.203 F 
ATOM    116  C   UNL A   1      40.050  35.547  37.852  1.00  0.00     0.198 A 
ATOM    117  C   UNL A   1      38.585  33.888  38.776  1.00  0.00     0.198 A 
ATOM    118  F   UNL A   1      38.077  31.948  37.545  1.00  0.00    -0.203 F 
ATOM    119  F   UNL A   1      40.729  36.695  37.975  1.00  0.00    -0.200 F 
ATOM    120  C   UNL A   1      39.257  35.094  38.896  1.00  0.00     0.200 A 
ATOM    121  F   UNL A   1      37.806  33.454  39.777  1.00  0.00    -0.200 F 
ATOM    122  F   UNL A   1      39.152  35.814  40.021  1.00  0.00    -0.200 F 
ENDBRANCH  84 112
BRANCH  99 123
ATOM    123  C   UNL A   1      44.060  28.604  34.716  1.00  0.00     0.064 A 
ATOM    124  C   UNL A   1      45.333  29.183  34.604  1.00  0.00     0.173 A 
ATOM    125  C   UNL A   1      43.925  27.471  35.533  1.00  0.00     0.173 A 
ATOM    126  F   UNL A   1      45.520  30.259  33.824  1.00  0.00    -0.203 F 
ATOM    127  C   UNL A   1      46.431  28.632  35.260  1.00  0.00     0.198 A 
ATOM    128  C   UNL A   1      45.017  26.944  36.216  1.00  0.00     0.198 A 
ATOM    129  F   UNL A   1      42.729  26.883  35.682  1.00  0.00    -0.203 F 
ATOM    130  F   UNL A   1      47.647  29.170  35.094  1.00  0.00    -0.200 F 
ATOM    131  C   UNL A   1      46.271  27.518  36.071  1.00  0.00     0.200 A 
ATOM    132  F   UNL A   1      44.857  25.878  37.013  1.00  0.00    -0.200 F 
ATOM    133  F   UNL A   1      47.327  26.995  36.709  1.00  0.00    -0.200 F 
ENDBRANCH  99 123
ENDBRANCH  64  67
ENDBRANCH  54  57
ENDBRANCH  50  53
ENDBRANCH  47  50
ENDBRANCH   1  47
TORSDOF 15
ENDMDL
MODEL 7
REMARK VINA RESULT:     -11.9      3.609      5.131
REMARK SMILES O=C(NCCCCCCNC(=O)c1ccc(-c2c3nc(c(-c4c(F)c(F)c(F)c(F)c4F)c4ccc([nH]4)c(-c4c(F)c(F)c(F)c(F)c4F)c4nc(c(-c5c(F)c(F)c(F)c(F)c5F)c5ccc2[nH]5)C=C4)C=C3)cc1)C1=Cc2c(ccc(Cl)c2-c2ccccc2)O[C@H]1C(F)(F)F
REMARK SMILES IDX 7 1 6 4 5 7 4 10 3 13 1 14 2 15 76 17 77 18 92 19 78 20
REMARK SMILES IDX 91 22 79 24 84 25 80 26 82 27 81 28 83 30 93 32 94 33 95 34
REMARK SMILES IDX 96 35 85 36 86 37 90 38 87 39 89 41 88 43 8 47 9 50 10 53
REMARK SMILES IDX 11 54 12 56 13 57 14 58 75 59 15 60 74 62 16 64 17 67 18 68
REMARK SMILES IDX 68 69 19 70 73 71 67 72 69 73 20 74 72 75 66 77 65 79 21 81
REMARK SMILES IDX 53 84 33 85 52 86 34 87 37 88 51 89 70 90 35 91 36 93 50 95
REMARK SMILES IDX 71 96 38 99 22 101 23 102 31 103 24 104 25 105 29 106 32 107
REMARK SMILES IDX 26 108 27 109 30 110 28 111 54 112 55 113 63 114 56 115
REMARK SMILES IDX 57 116 61 117 64 118 58 119 59 120 62 121 60 122 39 123
REMARK SMILES IDX 40 124 48 125 41 126 42 127 46 128 49 129 43 130 44 131
REMARK SMILES IDX 47 132 45 133
REMARK H PARENT 7 2 7 3 6 5 6 6 5 8 5 9 4 11 4 12 3 16 77 21 92 23 80 29 81 31
REMARK H PARENT 86 40 90 42 87 44 89 45 88 46 8 48 8 49 9 51 9 52 10 55 14 61
REMARK H PARENT 75 63 15 65 74 66 73 76 67 78 69 80 72 82 66 83 34 92 37 94
REMARK H PARENT 70 97 35 98 71 100
REMARK Flexibility Score: inf
ROOT
ATOM      1  C   UNL A   1      36.409  19.838  25.036  1.00  0.00    -0.052 C 
ATOM      2  H   UNL A   1      36.316  20.045  26.082  1.00  0.00     0.027 H 
ATOM      3  H   UNL A   1      36.344  20.695  24.398  1.00  0.00     0.027 H 
ENDROOT
BRANCH   1   4
ATOM      4  C   UNL A   1      35.223  18.954  24.635  1.00  0.00    -0.052 C 
ATOM      5  H   UNL A   1      35.267  18.817  23.574  1.00  0.00     0.027 H 
ATOM      6  H   UNL A   1      35.337  18.060  25.214  1.00  0.00     0.027 H 
BRANCH   4   7
ATOM      7  C   UNL A   1      33.818  19.463  24.973  1.00  0.00    -0.036 C 
ATOM      8  H   UNL A   1      33.113  18.825  24.483  1.00  0.00     0.028 H 
ATOM      9  H   UNL A   1      33.761  19.447  26.042  1.00  0.00     0.028 H 
BRANCH   7  10
ATOM     10  C   UNL A   1      33.500  20.901  24.573  1.00  0.00     0.018 C 
ATOM     11  H   UNL A   1      34.341  21.289  24.040  1.00  0.00     0.049 H 
ATOM     12  H   UNL A   1      32.604  20.852  23.990  1.00  0.00     0.049 H 
BRANCH  10  13
ATOM     13  N   UNL A   1      33.211  21.805  25.669  1.00  0.00    -0.352 N 
ATOM     14  O   UNL A   1      33.342  23.674  26.911  1.00  0.00    -0.270 OA
ATOM     15  C   UNL A   1      33.676  23.073  25.892  1.00  0.00     0.251 C 
ATOM     16  H   UNL A   1      32.590  21.458  26.351  1.00  0.00     0.163 HD
BRANCH  15  17
ATOM     17  C   UNL A   1      34.557  23.753  24.917  1.00  0.00     0.067 C 
ATOM     18  C   UNL A   1      34.610  25.090  24.954  1.00  0.00    -0.038 C 
ATOM     19  C   UNL A   1      35.024  23.085  23.664  1.00  0.00     0.224 C 
ATOM     20  C   UNL A   1      33.777  25.618  23.835  1.00  0.00     0.027 A 
ATOM     21  H   UNL A   1      35.136  25.657  25.636  1.00  0.00     0.064 H 
ATOM     22  O   UNL A   1      34.431  23.707  22.465  1.00  0.00    -0.475 OA
ATOM     23  H   UNL A   1      34.689  22.071  23.707  1.00  0.00     0.090 H 
ATOM     24  C   UNL A   1      33.724  24.876  22.645  1.00  0.00     0.128 A 
ATOM     25  C   UNL A   1      32.933  26.733  24.080  1.00  0.00     0.011 A 
ATOM     26  C   UNL A   1      32.811  25.239  21.664  1.00  0.00    -0.018 A 
ATOM     27  C   UNL A   1      31.996  27.054  23.092  1.00  0.00     0.049 A 
ATOM     28  C   UNL A   1      31.939  26.312  21.897  1.00  0.00    -0.039 A 
ATOM     29  H   UNL A   1      32.775  24.724  20.770  1.00  0.00     0.066 H 
ATOM     30  Cl  UNL A   1      30.824  28.299  23.328  1.00  0.00    -0.084 Cl
ATOM     31  H   UNL A   1      31.243  26.563  21.177  1.00  0.00     0.064 H 
BRANCH  19  32
ATOM     32  C   UNL A   1      36.571  23.064  23.568  1.00  0.00     0.429 C 
ATOM     33  F   UNL A   1      37.184  23.093  24.777  1.00  0.00    -0.167 F 
ATOM     34  F   UNL A   1      37.004  21.949  22.935  1.00  0.00    -0.167 F 
ATOM     35  F   UNL A   1      37.050  24.126  22.876  1.00  0.00    -0.167 F 
ENDBRANCH  19  32
BRANCH  25  36
ATOM     36  C   UNL A   1      33.046  27.348  25.422  1.00  0.00    -0.016 A 
ATOM     37  C   UNL A   1      33.799  28.526  25.570  1.00  0.00    -0.054 A 
ATOM     38  C   UNL A   1      32.057  27.055  26.380  1.00  0.00    -0.054 A 
ATOM     39  C   UNL A   1      33.448  29.468  26.539  1.00  0.00    -0.062 A 
ATOM     40  H   UNL A   1      34.613  28.695  24.961  1.00  0.00     0.063 H 
ATOM     41  C   UNL A   1      31.702  28.007  27.338  1.00  0.00    -0.062 A 
ATOM     42  H   UNL A   1      31.593  26.134  26.374  1.00  0.00     0.063 H 
ATOM     43  C   UNL A   1      32.374  29.227  27.391  1.00  0.00    -0.062 A 
ATOM     44  H   UNL A   1      33.987  30.345  26.624  1.00  0.00     0.062 H 
ATOM     45  H   UNL A   1      30.942  27.807  28.006  1.00  0.00     0.062 H 
ATOM     46  H   UNL A   1      32.074  29.951  28.062  1.00  0.00     0.062 H 
ENDBRANCH  25  36
ENDBRANCH  15  17
ENDBRANCH  10  13
ENDBRANCH   7  10
ENDBRANCH   4   7
ENDBRANCH   1   4
BRANCH   1  47
ATOM     47  C   UNL A   1      37.812  19.277  24.801  1.00  0.00    -0.036 C 
ATOM     48  H   UNL A   1      38.047  19.411  23.765  1.00  0.00     0.028 H 
ATOM     49  H   UNL A   1      37.765  18.255  25.116  1.00  0.00     0.028 H 
BRANCH  47  50
ATOM     50  C   UNL A   1      38.939  19.901  25.616  1.00  0.00     0.018 C 
ATOM     51  H   UNL A   1      38.552  20.175  26.576  1.00  0.00     0.049 H 
ATOM     52  H   UNL A   1      39.294  20.749  25.069  1.00  0.00     0.049 H 
BRANCH  50  53
ATOM     53  N   UNL A   1      40.070  19.011  25.812  1.00  0.00    -0.352 N 
ATOM     54  C   UNL A   1      41.377  19.285  26.127  1.00  0.00     0.251 C 
ATOM     55  H   UNL A   1      39.866  18.054  25.698  1.00  0.00     0.163 HD
ATOM     56  O   UNL A   1      42.205  18.370  26.121  1.00  0.00    -0.269 OA
BRANCH  54  57
ATOM     57  C   UNL A   1      41.825  20.660  26.452  1.00  0.00     0.039 A 
ATOM     58  C   UNL A   1      42.102  21.540  25.400  1.00  0.00    -0.049 A 
ATOM     59  C   UNL A   1      42.017  21.084  27.770  1.00  0.00    -0.049 A 
ATOM     60  C   UNL A   1      42.512  22.850  25.667  1.00  0.00    -0.053 A 
ATOM     61  H   UNL A   1      42.005  21.221  24.424  1.00  0.00     0.063 H 
ATOM     62  C   UNL A   1      42.343  22.414  28.037  1.00  0.00    -0.053 A 
ATOM     63  H   UNL A   1      41.916  20.413  28.546  1.00  0.00     0.063 H 
ATOM     64  C   UNL A   1      42.603  23.311  26.990  1.00  0.00    -0.014 A 
ATOM     65  H   UNL A   1      42.748  23.482  24.886  1.00  0.00     0.063 H 
ATOM     66  H   UNL A   1      42.395  22.742  29.015  1.00  0.00     0.063 H 
BRANCH  64  67
ATOM     67  C   UNL A   1      42.980  24.720  27.291  1.00  0.00     0.031 A 
ATOM     68  C   UNL A   1      44.385  25.201  27.041  1.00  0.00     0.074 A 
ATOM     69  C   UNL A   1      42.072  25.556  27.831  1.00  0.00     0.049 A 
ATOM     70  N   UNL A   1      44.920  26.371  27.293  1.00  0.00    -0.248 NA
ATOM     71  C   UNL A   1      45.322  24.232  26.452  1.00  0.00    -0.034 C 
ATOM     72  C   UNL A   1      40.690  25.204  28.160  1.00  0.00    -0.036 A 
ATOM     73  N   UNL A   1      42.176  26.872  28.210  1.00  0.00    -0.354 N 
ATOM     74  C   UNL A   1      46.249  26.273  26.904  1.00  0.00     0.074 A 
ATOM     75  C   UNL A   1      46.459  24.914  26.454  1.00  0.00    -0.034 C 
ATOM     76  H   UNL A   1      45.142  23.271  26.121  1.00  0.00     0.065 H 
ATOM     77  C   UNL A   1      40.069  26.281  28.667  1.00  0.00    -0.036 A 
ATOM     78  H   UNL A   1      40.261  24.276  28.023  1.00  0.00     0.065 H 
ATOM     79  C   UNL A   1      41.019  27.388  28.742  1.00  0.00     0.049 A 
ATOM     80  H   UNL A   1      43.003  27.398  28.109  1.00  0.00     0.167 HD
ATOM     81  C   UNL A   1      47.203  27.235  26.896  1.00  0.00     0.037 A 
ATOM     82  H   UNL A   1      47.372  24.526  26.174  1.00  0.00     0.065 H 
ATOM     83  H   UNL A   1      39.079  26.320  28.957  1.00  0.00     0.065 H 
ATOM     84  C   UNL A   1      40.754  28.609  29.244  1.00  0.00     0.037 A 
ATOM     85  C   UNL A   1      46.988  28.593  27.325  1.00  0.00     0.049 A 
ATOM     86  C   UNL A   1      41.839  29.654  29.244  1.00  0.00     0.074 A 
ATOM     87  C   UNL A   1      47.878  29.653  27.309  1.00  0.00    -0.036 A 
ATOM     88  N   UNL A   1      45.798  29.077  27.847  1.00  0.00    -0.354 N 
ATOM     89  N   UNL A   1      43.074  29.566  28.813  1.00  0.00    -0.248 NA
ATOM     90  C   UNL A   1      41.490  30.972  29.793  1.00  0.00    -0.034 C 
ATOM     91  C   UNL A   1      47.244  30.765  27.873  1.00  0.00    -0.036 A 
ATOM     92  H   UNL A   1      48.842  29.628  26.943  1.00  0.00     0.065 H 
ATOM     93  C   UNL A   1      45.939  30.416  28.181  1.00  0.00     0.049 A 
ATOM     94  H   UNL A   1      44.975  28.550  27.963  1.00  0.00     0.167 HD
ATOM     95  C   UNL A   1      43.637  30.820  29.008  1.00  0.00     0.074 A 
ATOM     96  C   UNL A   1      42.605  31.657  29.580  1.00  0.00    -0.034 C 
ATOM     97  H   UNL A   1      40.609  31.283  30.230  1.00  0.00     0.065 H 
ATOM     98  H   UNL A   1      47.675  31.689  28.034  1.00  0.00     0.065 H 
ATOM     99  C   UNL A   1      44.898  31.241  28.738  1.00  0.00     0.037 A 
ATOM    100  H   UNL A   1      42.720  32.660  29.794  1.00  0.00     0.065 H 
BRANCH  81 101
ATOM    101  C   UNL A   1      48.572  26.858  26.404  1.00  0.00     0.064 A 
ATOM    102  C   UNL A   1      49.528  26.282  27.256  1.00  0.00     0.173 A 
ATOM    103  C   UNL A   1      48.916  27.025  25.054  1.00  0.00     0.173 A 
ATOM    104  F   UNL A   1      49.254  26.108  28.558  1.00  0.00    -0.203 F 
ATOM    105  C   UNL A   1      50.785  25.915  26.782  1.00  0.00     0.198 A 
ATOM    106  C   UNL A   1      50.162  26.625  24.576  1.00  0.00     0.198 A 
ATOM    107  F   UNL A   1      48.040  27.564  24.194  1.00  0.00    -0.203 F 
ATOM    108  F   UNL A   1      51.697  25.413  27.626  1.00  0.00    -0.200 F 
ATOM    109  C   UNL A   1      51.098  26.078  25.442  1.00  0.00     0.200 A 
ATOM    110  F   UNL A   1      50.457  26.769  23.276  1.00  0.00    -0.200 F 
ATOM    111  F   UNL A   1      52.303  25.714  24.984  1.00  0.00    -0.200 F 
ENDBRANCH  81 101
BRANCH  84 112
ATOM    112  C   UNL A   1      39.402  28.921  29.783  1.00  0.00     0.064 A 
ATOM    113  C   UNL A   1      38.410  29.481  28.968  1.00  0.00     0.173 A 
ATOM    114  C   UNL A   1      39.083  28.687  31.129  1.00  0.00     0.173 A 
ATOM    115  F   UNL A   1      38.671  29.744  27.679  1.00  0.00    -0.203 F 
ATOM    116  C   UNL A   1      37.161  29.826  29.484  1.00  0.00     0.198 A 
ATOM    117  C   UNL A   1      37.823  29.000  31.636  1.00  0.00     0.198 A 
ATOM    118  F   UNL A   1      39.994  28.148  31.953  1.00  0.00    -0.203 F 
ATOM    119  F   UNL A   1      36.253  30.416  28.695  1.00  0.00    -0.200 F 
ATOM    120  C   UNL A   1      36.867  29.579  30.816  1.00  0.00     0.200 A 
ATOM    121  F   UNL A   1      37.539  28.746  32.921  1.00  0.00    -0.200 F 
ATOM    122  F   UNL A   1      35.668  29.911  31.313  1.00  0.00    -0.200 F 
ENDBRANCH  84 112
BRANCH  99 123
ATOM    123  C   UNL A   1      45.221  32.682  29.017  1.00  0.00     0.064 A 
ATOM    124  C   UNL A   1      44.964  33.692  28.078  1.00  0.00     0.173 A 
ATOM    125  C   UNL A   1      45.761  33.060  30.256  1.00  0.00     0.173 A 
ATOM    126  F   UNL A   1      44.463  33.384  26.873  1.00  0.00    -0.203 F 
ATOM    127  C   UNL A   1      45.262  35.023  28.360  1.00  0.00     0.198 A 
ATOM    128  C   UNL A   1      46.024  34.395  30.548  1.00  0.00     0.198 A 
ATOM    129  F   UNL A   1      46.017  32.135  31.193  1.00  0.00    -0.203 F 
ATOM    130  F   UNL A   1      45.059  35.964  27.428  1.00  0.00    -0.200 F 
ATOM    131  C   UNL A   1      45.783  35.374  29.596  1.00  0.00     0.200 A 
ATOM    132  F   UNL A   1      46.511  34.734  31.749  1.00  0.00    -0.200 F 
ATOM    133  F   UNL A   1      46.061  36.657  29.868  1.00  0.00    -0.200 F 
ENDBRANCH  99 123
ENDBRANCH  64  67
ENDBRANCH  54  57
ENDBRANCH  50  53
ENDBRANCH  47  50
ENDBRANCH   1  47
TORSDOF 15
ENDMDL
MODEL 8
REMARK VINA RESULT:     -11.9      4.152      8.990
REMARK SMILES O=C(NCCCCCCNC(=O)c1ccc(-c2c3nc(c(-c4c(F)c(F)c(F)c(F)c4F)c4ccc([nH]4)c(-c4c(F)c(F)c(F)c(F)c4F)c4nc(c(-c5c(F)c(F)c(F)c(F)c5F)c5ccc2[nH]5)C=C4)C=C3)cc1)C1=Cc2c(ccc(Cl)c2-c2ccccc2)O[C@H]1C(F)(F)F
REMARK SMILES IDX 7 1 6 4 5 7 4 10 3 13 1 14 2 15 76 17 77 18 92 19 78 20
REMARK SMILES IDX 91 22 79 24 84 25 80 26 82 27 81 28 83 30 93 32 94 33 95 34
REMARK SMILES IDX 96 35 85 36 86 37 90 38 87 39 89 41 88 43 8 47 9 50 10 53
REMARK SMILES IDX 11 54 12 56 13 57 14 58 75 59 15 60 74 62 16 64 17 67 18 68
REMARK SMILES IDX 68 69 19 70 73 71 67 72 69 73 20 74 72 75 66 77 65 79 21 81
REMARK SMILES IDX 53 84 33 85 52 86 34 87 37 88 51 89 70 90 35 91 36 93 50 95
REMARK SMILES IDX 71 96 38 99 22 101 23 102 31 103 24 104 25 105 29 106 32 107
REMARK SMILES IDX 26 108 27 109 30 110 28 111 54 112 55 113 63 114 56 115
REMARK SMILES IDX 57 116 61 117 64 118 58 119 59 120 62 121 60 122 39 123
REMARK SMILES IDX 40 124 48 125 41 126 42 127 46 128 49 129 43 130 44 131
REMARK SMILES IDX 47 132 45 133
REMARK H PARENT 7 2 7 3 6 5 6 6 5 8 5 9 4 11 4 12 3 16 77 21 92 23 80 29 81 31
REMARK H PARENT 86 40 90 42 87 44 89 45 88 46 8 48 8 49 9 51 9 52 10 55 14 61
REMARK H PARENT 75 63 15 65 74 66 73 76 67 78 69 80 72 82 66 83 34 92 37 94
REMARK H PARENT 70 97 35 98 71 100
REMARK Flexibility Score: inf
ROOT
ATOM      1  C   UNL A   1      31.463  28.225  26.954  1.00  0.00    -0.052 C 
ATOM      2  H   UNL A   1      32.165  28.539  27.697  1.00  0.00     0.027 H 
ATOM      3  H   UNL A   1      30.435  28.402  27.198  1.00  0.00     0.027 H 
ENDROOT
BRANCH   1   4
ATOM      4  C   UNL A   1      31.582  26.702  26.821  1.00  0.00    -0.052 C 
ATOM      5  H   UNL A   1      32.392  26.500  26.152  1.00  0.00     0.027 H 
ATOM      6  H   UNL A   1      31.720  26.349  27.822  1.00  0.00     0.027 H 
BRANCH   4   7
ATOM      7  C   UNL A   1      30.357  25.943  26.302  1.00  0.00    -0.036 C 
ATOM      8  H   UNL A   1      29.534  26.172  26.946  1.00  0.00     0.028 H 
ATOM      9  H   UNL A   1      30.232  26.267  25.289  1.00  0.00     0.028 H 
BRANCH   7  10
ATOM     10  C   UNL A   1      30.479  24.423  26.227  1.00  0.00     0.018 C 
ATOM     11  H   UNL A   1      29.535  24.002  26.501  1.00  0.00     0.049 H 
ATOM     12  H   UNL A   1      30.776  24.201  25.223  1.00  0.00     0.049 H 
BRANCH  10  13
ATOM     13  N   UNL A   1      31.494  23.835  27.079  1.00  0.00    -0.352 N 
ATOM     14  O   UNL A   1      33.467  22.904  27.623  1.00  0.00    -0.270 OA
ATOM     15  C   UNL A   1      32.759  23.421  26.760  1.00  0.00     0.251 C 
ATOM     16  H   UNL A   1      31.236  23.717  28.022  1.00  0.00     0.163 HD
BRANCH  15  17
ATOM     17  C   UNL A   1      33.311  23.602  25.399  1.00  0.00     0.067 C 
ATOM     18  C   UNL A   1      33.332  22.536  24.590  1.00  0.00    -0.038 C 
ATOM     19  C   UNL A   1      34.212  24.742  25.050  1.00  0.00     0.224 C 
ATOM     20  C   UNL A   1      34.724  22.005  24.558  1.00  0.00     0.027 A 
ATOM     21  H   UNL A   1      32.525  22.150  24.076  1.00  0.00     0.064 H 
ATOM     22  O   UNL A   1      35.582  24.281  24.760  1.00  0.00    -0.475 OA
ATOM     23  H   UNL A   1      34.255  25.380  25.908  1.00  0.00     0.090 H 
ATOM     24  C   UNL A   1      35.782  22.921  24.662  1.00  0.00     0.128 A 
ATOM     25  C   UNL A   1      34.921  20.599  24.615  1.00  0.00     0.011 A 
ATOM     26  C   UNL A   1      37.075  22.443  24.830  1.00  0.00    -0.018 A 
ATOM     27  C   UNL A   1      36.226  20.145  24.823  1.00  0.00     0.049 A 
ATOM     28  C   UNL A   1      37.291  21.060  24.928  1.00  0.00    -0.039 A 
ATOM     29  H   UNL A   1      37.870  23.098  24.880  1.00  0.00     0.066 H 
ATOM     30  Cl  UNL A   1      36.576  18.470  25.047  1.00  0.00    -0.084 Cl
ATOM     31  H   UNL A   1      38.250  20.708  25.080  1.00  0.00     0.064 H 
BRANCH  19  32
ATOM     32  C   UNL A   1      33.648  25.579  23.874  1.00  0.00     0.429 C 
ATOM     33  F   UNL A   1      33.873  26.909  24.005  1.00  0.00    -0.167 F 
ATOM     34  F   UNL A   1      34.203  25.200  22.698  1.00  0.00    -0.167 F 
ATOM     35  F   UNL A   1      32.307  25.432  23.746  1.00  0.00    -0.167 F 
ENDBRANCH  19  32
BRANCH  25  36
ATOM     36  C   UNL A   1      33.692  19.774  24.588  1.00  0.00    -0.016 A 
ATOM     37  C   UNL A   1      33.285  19.199  23.371  1.00  0.00    -0.054 A 
ATOM     38  C   UNL A   1      33.248  19.192  25.790  1.00  0.00    -0.054 A 
ATOM     39  C   UNL A   1      32.609  17.977  23.361  1.00  0.00    -0.062 A 
ATOM     40  H   UNL A   1      33.487  19.681  22.482  1.00  0.00     0.063 H 
ATOM     41  C   UNL A   1      32.584  17.964  25.774  1.00  0.00    -0.062 A 
ATOM     42  H   UNL A   1      33.413  19.674  26.686  1.00  0.00     0.063 H 
ATOM     43  C   UNL A   1      32.299  17.341  24.560  1.00  0.00    -0.062 A 
ATOM     44  H   UNL A   1      32.338  17.546  22.463  1.00  0.00     0.062 H 
ATOM     45  H   UNL A   1      32.304  17.518  26.661  1.00  0.00     0.062 H 
ATOM     46  H   UNL A   1      31.859  16.407  24.551  1.00  0.00     0.062 H 
ENDBRANCH  25  36
ENDBRANCH  15  17
ENDBRANCH  10  13
ENDBRANCH   7  10
ENDBRANCH   4   7
ENDBRANCH   1   4
BRANCH   1  47
ATOM     47  C   UNL A   1      31.718  29.060  25.697  1.00  0.00    -0.036 C 
ATOM     48  H   UNL A   1      30.870  29.696  25.551  1.00  0.00     0.028 H 
ATOM     49  H   UNL A   1      31.880  28.349  24.913  1.00  0.00     0.028 H 
BRANCH  47  50
ATOM     50  C   UNL A   1      32.963  29.940  25.709  1.00  0.00     0.018 C 
ATOM     51  H   UNL A   1      33.338  30.013  24.709  1.00  0.00     0.049 H 
ATOM     52  H   UNL A   1      33.668  29.483  26.371  1.00  0.00     0.049 H 
BRANCH  50  53
ATOM     53  N   UNL A   1      32.714  31.282  26.207  1.00  0.00    -0.352 N 
ATOM     54  C   UNL A   1      33.343  31.999  27.192  1.00  0.00     0.251 C 
ATOM     55  H   UNL A   1      31.970  31.753  25.765  1.00  0.00     0.163 HD
ATOM     56  O   UNL A   1      32.879  33.089  27.537  1.00  0.00    -0.269 OA
BRANCH  54  57
ATOM     57  C   UNL A   1      34.557  31.486  27.871  1.00  0.00     0.039 A 
ATOM     58  C   UNL A   1      35.650  32.346  28.028  1.00  0.00    -0.049 A 
ATOM     59  C   UNL A   1      34.655  30.165  28.316  1.00  0.00    -0.049 A 
ATOM     60  C   UNL A   1      36.806  31.904  28.677  1.00  0.00    -0.053 A 
ATOM     61  H   UNL A   1      35.603  33.310  27.663  1.00  0.00     0.063 H 
ATOM     62  C   UNL A   1      35.774  29.750  29.037  1.00  0.00    -0.053 A 
ATOM     63  H   UNL A   1      33.896  29.496  28.111  1.00  0.00     0.063 H 
ATOM     64  C   UNL A   1      36.867  30.610  29.220  1.00  0.00    -0.014 A 
ATOM     65  H   UNL A   1      37.621  32.532  28.758  1.00  0.00     0.063 H 
ATOM     66  H   UNL A   1      35.799  28.800  29.440  1.00  0.00     0.063 H 
BRANCH  64  67
ATOM     67  C   UNL A   1      38.068  30.143  29.966  1.00  0.00     0.031 A 
ATOM     68  C   UNL A   1      38.328  30.625  31.369  1.00  0.00     0.074 A 
ATOM     69  C   UNL A   1      38.951  29.321  29.365  1.00  0.00     0.049 A 
ATOM     70  N   UNL A   1      39.346  30.378  32.156  1.00  0.00    -0.248 NA
ATOM     71  C   UNL A   1      37.322  31.522  31.958  1.00  0.00    -0.034 C 
ATOM     72  C   UNL A   1      38.839  28.814  27.996  1.00  0.00    -0.036 A 
ATOM     73  N   UNL A   1      40.124  28.773  29.824  1.00  0.00    -0.354 N 
ATOM     74  C   UNL A   1      39.107  31.094  33.321  1.00  0.00     0.074 A 
ATOM     75  C   UNL A   1      37.880  31.833  33.119  1.00  0.00    -0.034 C 
ATOM     76  H   UNL A   1      36.417  31.829  31.569  1.00  0.00     0.065 H 
ATOM     77  C   UNL A   1      39.883  28.013  27.736  1.00  0.00    -0.036 A 
ATOM     78  H   UNL A   1      38.076  29.037  27.338  1.00  0.00     0.065 H 
ATOM     79  C   UNL A   1      40.764  27.983  28.900  1.00  0.00     0.049 A 
ATOM     80  H   UNL A   1      40.475  28.932  30.731  1.00  0.00     0.167 HD
ATOM     81  C   UNL A   1      39.830  31.114  34.467  1.00  0.00     0.037 A 
ATOM     82  H   UNL A   1      37.490  32.513  33.790  1.00  0.00     0.065 H 
ATOM     83  H   UNL A   1      40.039  27.500  26.853  1.00  0.00     0.065 H 
ATOM     84  C   UNL A   1      41.933  27.318  28.976  1.00  0.00     0.037 A 
ATOM     85  C   UNL A   1      41.041  30.363  34.675  1.00  0.00     0.049 A 
ATOM     86  C   UNL A   1      42.728  27.375  30.255  1.00  0.00     0.074 A 
ATOM     87  C   UNL A   1      41.819  30.279  35.817  1.00  0.00    -0.036 A 
ATOM     88  N   UNL A   1      41.650  29.565  33.717  1.00  0.00    -0.354 N 
ATOM     89  N   UNL A   1      42.457  28.005  31.371  1.00  0.00    -0.248 NA
ATOM     90  C   UNL A   1      43.989  26.620  30.284  1.00  0.00    -0.034 C 
ATOM     91  C   UNL A   1      42.928  29.476  35.533  1.00  0.00    -0.036 A 
ATOM     92  H   UNL A   1      41.616  30.731  36.722  1.00  0.00     0.065 H 
ATOM     93  C   UNL A   1      42.809  29.007  34.235  1.00  0.00     0.049 A 
ATOM     94  H   UNL A   1      41.310  29.418  32.806  1.00  0.00     0.167 HD
ATOM     95  C   UNL A   1      43.493  27.698  32.244  1.00  0.00     0.074 A 
ATOM     96  C   UNL A   1      44.389  26.812  31.534  1.00  0.00    -0.034 C 
ATOM     97  H   UNL A   1      44.445  26.083  29.530  1.00  0.00     0.065 H 
ATOM     98  H   UNL A   1      43.704  29.269  36.181  1.00  0.00     0.065 H 
ATOM     99  C   UNL A   1      43.685  28.115  33.520  1.00  0.00     0.037 A 
ATOM    100  H   UNL A   1      45.231  26.381  31.947  1.00  0.00     0.065 H 
BRANCH  81 101
ATOM    101  C   UNL A   1      39.331  31.976  35.594  1.00  0.00     0.064 A 
ATOM    102  C   UNL A   1      38.443  31.480  36.562  1.00  0.00     0.173 A 
ATOM    103  C   UNL A   1      39.786  33.295  35.738  1.00  0.00     0.173 A 
ATOM    104  F   UNL A   1      37.970  30.228  36.466  1.00  0.00    -0.203 F 
ATOM    105  C   UNL A   1      38.008  32.282  37.614  1.00  0.00     0.198 A 
ATOM    106  C   UNL A   1      39.375  34.083  36.810  1.00  0.00     0.198 A 
ATOM    107  F   UNL A   1      40.640  33.818  34.846  1.00  0.00    -0.203 F 
ATOM    108  F   UNL A   1      37.122  31.801  38.497  1.00  0.00    -0.200 F 
ATOM    109  C   UNL A   1      38.480  33.579  37.743  1.00  0.00     0.200 A 
ATOM    110  F   UNL A   1      39.845  35.331  36.942  1.00  0.00    -0.200 F 
ATOM    111  F   UNL A   1      38.070  34.344  38.762  1.00  0.00    -0.200 F 
ENDBRANCH  81 101
BRANCH  84 112
ATOM    112  C   UNL A   1      42.424  26.530  27.813  1.00  0.00     0.064 A 
ATOM    113  C   UNL A   1      43.346  27.073  26.908  1.00  0.00     0.173 A 
ATOM    114  C   UNL A   1      41.962  25.228  27.568  1.00  0.00     0.173 A 
ATOM    115  F   UNL A   1      43.803  28.321  27.085  1.00  0.00    -0.203 F 
ATOM    116  C   UNL A   1      43.765  26.357  25.787  1.00  0.00     0.198 A 
ATOM    117  C   UNL A   1      42.407  24.500  26.466  1.00  0.00     0.198 A 
ATOM    118  F   UNL A   1      41.082  24.658  28.404  1.00  0.00    -0.203 F 
ATOM    119  F   UNL A   1      44.601  26.924  24.907  1.00  0.00    -0.200 F 
ATOM    120  C   UNL A   1      43.299  25.069  25.571  1.00  0.00     0.200 A 
ATOM    121  F   UNL A   1      41.966  23.250  26.269  1.00  0.00    -0.200 F 
ATOM    122  F   UNL A   1      43.701  24.382  24.493  1.00  0.00    -0.200 F 
ENDBRANCH  84 112
BRANCH  99 123
ATOM    123  C   UNL A   1      44.887  27.583  34.248  1.00  0.00     0.064 A 
ATOM    124  C   UNL A   1      46.111  28.267  34.255  1.00  0.00     0.173 A 
ATOM    125  C   UNL A   1      44.799  26.389  34.982  1.00  0.00     0.173 A 
ATOM    126  F   UNL A   1      46.253  29.405  33.558  1.00  0.00    -0.203 F 
ATOM    127  C   UNL A   1      47.210  27.761  34.945  1.00  0.00     0.198 A 
ATOM    128  C   UNL A   1      45.889  25.905  35.699  1.00  0.00     0.198 A 
ATOM    129  F   UNL A   1      43.649  25.699  35.017  1.00  0.00    -0.203 F 
ATOM    130  F   UNL A   1      48.385  28.404  34.892  1.00  0.00    -0.200 F 
ATOM    131  C   UNL A   1      47.096  26.586  35.672  1.00  0.00     0.200 A 
ATOM    132  F   UNL A   1      45.772  24.779  36.416  1.00  0.00    -0.200 F 
ATOM    133  F   UNL A   1      48.153  26.106  36.343  1.00  0.00    -0.200 F 
ENDBRANCH  99 123
ENDBRANCH  64  67
ENDBRANCH  54  57
ENDBRANCH  50  53
ENDBRANCH  47  50
ENDBRANCH   1  47
TORSDOF 15
ENDMDL
MODEL 9
REMARK VINA RESULT:     -11.8      3.976      8.797
REMARK SMILES O=C(NCCCCCCNC(=O)c1ccc(-c2c3nc(c(-c4c(F)c(F)c(F)c(F)c4F)c4ccc([nH]4)c(-c4c(F)c(F)c(F)c(F)c4F)c4nc(c(-c5c(F)c(F)c(F)c(F)c5F)c5ccc2[nH]5)C=C4)C=C3)cc1)C1=Cc2c(ccc(Cl)c2-c2ccccc2)O[C@H]1C(F)(F)F
REMARK SMILES IDX 7 1 6 4 5 7 4 10 3 13 1 14 2 15 76 17 77 18 92 19 78 20
REMARK SMILES IDX 91 22 79 24 84 25 80 26 82 27 81 28 83 30 93 32 94 33 95 34
REMARK SMILES IDX 96 35 85 36 86 37 90 38 87 39 89 41 88 43 8 47 9 50 10 53
REMARK SMILES IDX 11 54 12 56 13 57 14 58 75 59 15 60 74 62 16 64 17 67 18 68
REMARK SMILES IDX 68 69 19 70 73 71 67 72 69 73 20 74 72 75 66 77 65 79 21 81
REMARK SMILES IDX 53 84 33 85 52 86 34 87 37 88 51 89 70 90 35 91 36 93 50 95
REMARK SMILES IDX 71 96 38 99 22 101 23 102 31 103 24 104 25 105 29 106 32 107
REMARK SMILES IDX 26 108 27 109 30 110 28 111 54 112 55 113 63 114 56 115
REMARK SMILES IDX 57 116 61 117 64 118 58 119 59 120 62 121 60 122 39 123
REMARK SMILES IDX 40 124 48 125 41 126 42 127 46 128 49 129 43 130 44 131
REMARK SMILES IDX 47 132 45 133
REMARK H PARENT 7 2 7 3 6 5 6 6 5 8 5 9 4 11 4 12 3 16 77 21 92 23 80 29 81 31
REMARK H PARENT 86 40 90 42 87 44 89 45 88 46 8 48 8 49 9 51 9 52 10 55 14 61
REMARK H PARENT 75 63 15 65 74 66 73 76 67 78 69 80 72 82 66 83 34 92 37 94
REMARK H PARENT 70 97 35 98 71 100
REMARK Flexibility Score: inf
ROOT
ATOM      1  C   UNL A   1      31.943  26.361  25.581  1.00  0.00    -0.052 C 
ATOM      2  H   UNL A   1      31.186  26.873  26.138  1.00  0.00     0.027 H 
ATOM      3  H   UNL A   1      31.703  26.174  24.555  1.00  0.00     0.027 H 
ENDROOT
BRANCH   1   4
ATOM      4  C   UNL A   1      32.115  24.972  26.207  1.00  0.00    -0.052 C 
ATOM      5  H   UNL A   1      32.824  24.436  25.611  1.00  0.00     0.027 H 
ATOM      6  H   UNL A   1      32.419  25.161  27.216  1.00  0.00     0.027 H 
BRANCH   4   7
ATOM      7  C   UNL A   1      30.864  24.096  26.331  1.00  0.00    -0.036 C 
ATOM      8  H   UNL A   1      30.235  24.531  27.079  1.00  0.00     0.028 H 
ATOM      9  H   UNL A   1      30.437  24.072  25.350  1.00  0.00     0.028 H 
BRANCH   7  10
ATOM     10  C   UNL A   1      31.091  22.634  26.708  1.00  0.00     0.018 C 
ATOM     11  H   UNL A   1      30.246  22.304  27.274  1.00  0.00     0.049 H 
ATOM     12  H   UNL A   1      31.224  22.110  25.784  1.00  0.00     0.049 H 
BRANCH  10  13
ATOM     13  N   UNL A   1      32.283  22.368  27.490  1.00  0.00    -0.352 N 
ATOM     14  O   UNL A   1      34.271  21.453  28.001  1.00  0.00    -0.270 OA
ATOM     15  C   UNL A   1      33.365  21.588  27.182  1.00  0.00     0.251 C 
ATOM     16  H   UNL A   1      32.319  22.812  28.369  1.00  0.00     0.163 HD
BRANCH  15  17
ATOM     17  C   UNL A   1      33.483  20.918  25.868  1.00  0.00     0.067 C 
ATOM     18  C   UNL A   1      34.399  21.386  25.011  1.00  0.00    -0.038 C 
ATOM     19  C   UNL A   1      32.386  20.075  25.302  1.00  0.00     0.224 C 
ATOM     20  C   UNL A   1      33.696  22.208  23.985  1.00  0.00     0.027 A 
ATOM     21  H   UNL A   1      35.413  21.209  25.053  1.00  0.00     0.064 H 
ATOM     22  O   UNL A   1      31.778  20.704  24.114  1.00  0.00    -0.475 OA
ATOM     23  H   UNL A   1      31.631  19.999  26.055  1.00  0.00     0.090 H 
ATOM     24  C   UNL A   1      32.402  21.822  23.603  1.00  0.00     0.128 A 
ATOM     25  C   UNL A   1      34.277  23.439  23.580  1.00  0.00     0.011 A 
ATOM     26  C   UNL A   1      31.654  22.671  22.799  1.00  0.00    -0.018 A 
ATOM     27  C   UNL A   1      33.489  24.293  22.803  1.00  0.00     0.049 A 
ATOM     28  C   UNL A   1      32.190  23.909  22.418  1.00  0.00    -0.039 A 
ATOM     29  H   UNL A   1      30.711  22.392  22.484  1.00  0.00     0.066 H 
ATOM     30  Cl  UNL A   1      34.028  25.872  22.363  1.00  0.00    -0.084 Cl
ATOM     31  H   UNL A   1      31.621  24.551  21.842  1.00  0.00     0.064 H 
BRANCH  19  32
ATOM     32  C   UNL A   1      32.874  18.640  24.980  1.00  0.00     0.429 C 
ATOM     33  F   UNL A   1      34.171  18.589  24.589  1.00  0.00    -0.167 F 
ATOM     34  F   UNL A   1      32.758  17.833  26.061  1.00  0.00    -0.167 F 
ATOM     35  F   UNL A   1      32.154  18.073  23.981  1.00  0.00    -0.167 F 
ENDBRANCH  19  32
BRANCH  25  36
ATOM     36  C   UNL A   1      35.611  23.741  24.147  1.00  0.00    -0.016 A 
ATOM     37  C   UNL A   1      35.690  24.420  25.376  1.00  0.00    -0.054 A 
ATOM     38  C   UNL A   1      36.707  22.960  23.738  1.00  0.00    -0.054 A 
ATOM     39  C   UNL A   1      36.753  24.178  26.248  1.00  0.00    -0.062 A 
ATOM     40  H   UNL A   1      34.959  25.101  25.635  1.00  0.00     0.063 H 
ATOM     41  C   UNL A   1      37.761  22.710  24.619  1.00  0.00    -0.062 A 
ATOM     42  H   UNL A   1      36.733  22.570  22.784  1.00  0.00     0.063 H 
ATOM     43  C   UNL A   1      37.763  23.290  25.887  1.00  0.00    -0.062 A 
ATOM     44  H   UNL A   1      36.790  24.658  27.161  1.00  0.00     0.062 H 
ATOM     45  H   UNL A   1      38.539  22.096  24.332  1.00  0.00     0.062 H 
ATOM     46  H   UNL A   1      38.513  23.060  26.557  1.00  0.00     0.062 H 
ENDBRANCH  25  36
ENDBRANCH  15  17
ENDBRANCH  10  13
ENDBRANCH   7  10
ENDBRANCH   4   7
ENDBRANCH   1   4
BRANCH   1  47
ATOM     47  C   UNL A   1      33.175  27.267  25.540  1.00  0.00    -0.036 C 
ATOM     48  H   UNL A   1      32.947  28.096  24.902  1.00  0.00     0.028 H 
ATOM     49  H   UNL A   1      33.973  26.645  25.191  1.00  0.00     0.028 H 
BRANCH  47  50
ATOM     50  C   UNL A   1      33.651  27.827  26.876  1.00  0.00     0.018 C 
ATOM     51  H   UNL A   1      34.696  27.622  26.977  1.00  0.00     0.049 H 
ATOM     52  H   UNL A   1      33.071  27.355  27.641  1.00  0.00     0.049 H 
BRANCH  50  53
ATOM     53  N   UNL A   1      33.447  29.260  27.005  1.00  0.00    -0.352 N 
ATOM     54  C   UNL A   1      34.254  30.230  27.543  1.00  0.00     0.251 C 
ATOM     55  H   UNL A   1      32.590  29.588  26.650  1.00  0.00     0.163 HD
ATOM     56  O   UNL A   1      33.822  31.380  27.660  1.00  0.00    -0.269 OA
BRANCH  54  57
ATOM     57  C   UNL A   1      35.628  29.927  28.009  1.00  0.00     0.039 A 
ATOM     58  C   UNL A   1      35.809  29.507  29.332  1.00  0.00    -0.049 A 
ATOM     59  C   UNL A   1      36.743  30.088  27.182  1.00  0.00    -0.049 A 
ATOM     60  C   UNL A   1      37.088  29.197  29.803  1.00  0.00    -0.053 A 
ATOM     61  H   UNL A   1      34.996  29.428  29.962  1.00  0.00     0.063 H 
ATOM     62  C   UNL A   1      38.007  29.698  27.626  1.00  0.00    -0.053 A 
ATOM     63  H   UNL A   1      36.631  30.496  26.241  1.00  0.00     0.063 H 
ATOM     64  C   UNL A   1      38.197  29.255  28.944  1.00  0.00    -0.014 A 
ATOM     65  H   UNL A   1      37.218  28.922  30.790  1.00  0.00     0.063 H 
ATOM     66  H   UNL A   1      38.811  29.736  26.980  1.00  0.00     0.063 H 
BRANCH  64  67
ATOM     67  C   UNL A   1      39.557  28.871  29.414  1.00  0.00     0.031 A 
ATOM     68  C   UNL A   1      40.319  29.769  30.353  1.00  0.00     0.074 A 
ATOM     69  C   UNL A   1      40.126  27.737  28.962  1.00  0.00     0.049 A 
ATOM     70  N   UNL A   1      41.534  29.637  30.824  1.00  0.00    -0.248 NA
ATOM     71  C   UNL A   1      39.635  30.992  30.802  1.00  0.00    -0.034 C 
ATOM     72  C   UNL A   1      39.511  26.800  28.019  1.00  0.00    -0.036 A 
ATOM     73  N   UNL A   1      41.354  27.181  29.225  1.00  0.00    -0.354 N 
ATOM     74  C   UNL A   1      41.760  30.757  31.613  1.00  0.00     0.074 A 
ATOM     75  C   UNL A   1      40.582  31.590  31.510  1.00  0.00    -0.034 C 
ATOM     76  H   UNL A   1      38.669  31.302  30.615  1.00  0.00     0.065 H 
ATOM     77  C   UNL A   1      40.352  25.777  27.803  1.00  0.00    -0.036 A 
ATOM     78  H   UNL A   1      38.579  26.910  27.591  1.00  0.00     0.065 H 
ATOM     79  C   UNL A   1      41.584  26.004  28.554  1.00  0.00     0.049 A 
ATOM     80  H   UNL A   1      42.009  27.588  29.838  1.00  0.00     0.167 HD
ATOM     81  C   UNL A   1      42.840  31.053  32.376  1.00  0.00     0.037 A 
ATOM     82  H   UNL A   1      40.490  32.527  31.932  1.00  0.00     0.065 H 
ATOM     83  H   UNL A   1      40.160  24.961  27.201  1.00  0.00     0.065 H 
ATOM     84  C   UNL A   1      42.667  25.204  28.535  1.00  0.00     0.037 A 
ATOM     85  C   UNL A   1      44.004  30.213  32.493  1.00  0.00     0.049 A 
ATOM     86  C   UNL A   1      43.864  25.568  29.376  1.00  0.00     0.074 A 
ATOM     87  C   UNL A   1      45.128  30.404  33.278  1.00  0.00    -0.036 A 
ATOM     88  N   UNL A   1      44.193  29.024  31.805  1.00  0.00    -0.354 N 
ATOM     89  N   UNL A   1      44.038  26.599  30.167  1.00  0.00    -0.248 NA
ATOM     90  C   UNL A   1      45.012  24.652  29.326  1.00  0.00    -0.034 C 
ATOM     91  C   UNL A   1      46.022  29.358  33.023  1.00  0.00    -0.036 A 
ATOM     92  H   UNL A   1      45.282  31.182  33.938  1.00  0.00     0.065 H 
ATOM     93  C   UNL A   1      45.428  28.483  32.128  1.00  0.00     0.049 A 
ATOM     94  H   UNL A   1      43.547  28.624  31.181  1.00  0.00     0.167 HD
ATOM     95  C   UNL A   1      45.296  26.439  30.732  1.00  0.00     0.074 A 
ATOM     96  C   UNL A   1      45.835  25.203  30.207  1.00  0.00    -0.034 C 
ATOM     97  H   UNL A   1      45.143  23.803  28.755  1.00  0.00     0.065 H 
ATOM     98  H   UNL A   1      46.964  29.256  33.431  1.00  0.00     0.065 H 
ATOM     99  C   UNL A   1      45.947  27.245  31.607  1.00  0.00     0.037 A 
ATOM    100  H   UNL A   1      46.745  24.800  30.483  1.00  0.00     0.065 H 
BRANCH  81 101
ATOM    101  C   UNL A   1      42.817  32.341  33.150  1.00  0.00     0.064 A 
ATOM    102  C   UNL A   1      43.264  33.547  32.588  1.00  0.00     0.173 A 
ATOM    103  C   UNL A   1      42.293  32.381  34.452  1.00  0.00     0.173 A 
ATOM    104  F   UNL A   1      43.782  33.564  31.350  1.00  0.00    -0.203 F 
ATOM    105  C   UNL A   1      43.214  34.738  33.309  1.00  0.00     0.198 A 
ATOM    106  C   UNL A   1      42.213  33.579  35.157  1.00  0.00     0.198 A 
ATOM    107  F   UNL A   1      41.846  31.260  35.036  1.00  0.00    -0.203 F 
ATOM    108  F   UNL A   1      43.692  35.867  32.767  1.00  0.00    -0.200 F 
ATOM    109  C   UNL A   1      42.681  34.755  34.588  1.00  0.00     0.200 A 
ATOM    110  F   UNL A   1      41.683  33.597  36.388  1.00  0.00    -0.200 F 
ATOM    111  F   UNL A   1      42.623  35.903  35.276  1.00  0.00    -0.200 F 
ENDBRANCH  81 101
BRANCH  84 112
ATOM    112  C   UNL A   1      42.674  23.971  27.702  1.00  0.00     0.064 A 
ATOM    113  C   UNL A   1      43.045  24.013  26.351  1.00  0.00     0.173 A 
ATOM    114  C   UNL A   1      42.286  22.732  28.231  1.00  0.00     0.173 A 
ATOM    115  F   UNL A   1      43.405  25.177  25.791  1.00  0.00    -0.203 F 
ATOM    116  C   UNL A   1      42.999  22.870  25.554  1.00  0.00     0.198 A 
ATOM    117  C   UNL A   1      42.272  21.583  27.443  1.00  0.00     0.198 A 
ATOM    118  F   UNL A   1      41.924  22.633  29.519  1.00  0.00    -0.203 F 
ATOM    119  F   UNL A   1      43.302  22.952  24.252  1.00  0.00    -0.200 F 
ATOM    120  C   UNL A   1      42.618  21.655  26.103  1.00  0.00     0.200 A 
ATOM    121  F   UNL A   1      41.918  20.408  27.981  1.00  0.00    -0.200 F 
ATOM    122  F   UNL A   1      42.572  20.556  25.336  1.00  0.00    -0.200 F 
ENDBRANCH  84 112
BRANCH  99 123
ATOM    123  C   UNL A   1      47.298  26.795  32.088  1.00  0.00     0.064 A 
ATOM    124  C   UNL A   1      47.443  25.915  33.170  1.00  0.00     0.173 A 
ATOM    125  C   UNL A   1      48.462  27.223  31.430  1.00  0.00     0.173 A 
ATOM    126  F   UNL A   1      46.364  25.487  33.843  1.00  0.00    -0.203 F 
ATOM    127  C   UNL A   1      48.704  25.502  33.594  1.00  0.00     0.198 A 
ATOM    128  C   UNL A   1      49.718  26.780  31.834  1.00  0.00     0.198 A 
ATOM    129  F   UNL A   1      48.380  28.057  30.384  1.00  0.00    -0.203 F 
ATOM    130  F   UNL A   1      48.820  24.705  34.664  1.00  0.00    -0.200 F 
ATOM    131  C   UNL A   1      49.839  25.928  32.921  1.00  0.00     0.200 A 
ATOM    132  F   UNL A   1      50.813  27.179  31.171  1.00  0.00    -0.200 F 
ATOM    133  F   UNL A   1      51.051  25.523  33.325  1.00  0.00    -0.200 F 
ENDBRANCH  99 123
ENDBRANCH  64  67
ENDBRANCH  54  57
ENDBRANCH  50  53
ENDBRANCH  47  50
ENDBRANCH   1  47
TORSDOF 15
ENDMDL
MODEL 10
REMARK VINA RESULT:     -11.8      2.220      3.275
REMARK SMILES O=C(NCCCCCCNC(=O)c1ccc(-c2c3nc(c(-c4c(F)c(F)c(F)c(F)c4F)c4ccc([nH]4)c(-c4c(F)c(F)c(F)c(F)c4F)c4nc(c(-c5c(F)c(F)c(F)c(F)c5F)c5ccc2[nH]5)C=C4)C=C3)cc1)C1=Cc2c(ccc(Cl)c2-c2ccccc2)O[C@H]1C(F)(F)F
REMARK SMILES IDX 7 1 6 4 5 7 4 10 3 13 1 14 2 15 76 17 77 18 92 19 78 20
REMARK SMILES IDX 91 22 79 24 84 25 80 26 82 27 81 28 83 30 93 32 94 33 95 34
REMARK SMILES IDX 96 35 85 36 86 37 90 38 87 39 89 41 88 43 8 47 9 50 10 53
REMARK SMILES IDX 11 54 12 56 13 57 14 58 75 59 15 60 74 62 16 64 17 67 18 68
REMARK SMILES IDX 68 69 19 70 73 71 67 72 69 73 20 74 72 75 66 77 65 79 21 81
REMARK SMILES IDX 53 84 33 85 52 86 34 87 37 88 51 89 70 90 35 91 36 93 50 95
REMARK SMILES IDX 71 96 38 99 22 101 23 102 31 103 24 104 25 105 29 106 32 107
REMARK SMILES IDX 26 108 27 109 30 110 28 111 54 112 55 113 63 114 56 115
REMARK SMILES IDX 57 116 61 117 64 118 58 119 59 120 62 121 60 122 39 123
REMARK SMILES IDX 40 124 48 125 41 126 42 127 46 128 49 129 43 130 44 131
REMARK SMILES IDX 47 132 45 133
REMARK H PARENT 7 2 7 3 6 5 6 6 5 8 5 9 4 11 4 12 3 16 77 21 92 23 80 29 81 31
REMARK H PARENT 86 40 90 42 87 44 89 45 88 46 8 48 8 49 9 51 9 52 10 55 14 61
REMARK H PARENT 75 63 15 65 74 66 73 76 67 78 69 80 72 82 66 83 34 92 37 94
REMARK H PARENT 70 97 35 98 71 100
REMARK Flexibility Score: inf
ROOT
ATOM      1  C   UNL A   1      35.457  21.936  26.179  1.00  0.00    -0.052 C 
ATOM      2  H   UNL A   1      35.473  21.529  25.190  1.00  0.00     0.027 H 
ATOM      3  H   UNL A   1      36.218  21.564  26.835  1.00  0.00     0.027 H 
ENDROOT
BRANCH   1   4
ATOM      4  C   UNL A   1      34.134  21.516  26.829  1.00  0.00    -0.052 C 
ATOM      5  H   UNL A   1      34.370  21.000  27.737  1.00  0.00     0.027 H 
ATOM      6  H   UNL A   1      33.587  22.428  26.953  1.00  0.00     0.027 H 
BRANCH   4   7
ATOM      7  C   UNL A   1      33.206  20.609  26.015  1.00  0.00    -0.036 C 
ATOM      8  H   UNL A   1      33.758  20.250  25.172  1.00  0.00     0.028 H 
ATOM      9  H   UNL A   1      32.888  19.846  26.695  1.00  0.00     0.028 H 
BRANCH   7  10
ATOM     10  C   UNL A   1      31.921  21.244  25.491  1.00  0.00     0.018 C 
ATOM     11  H   UNL A   1      32.083  21.525  24.472  1.00  0.00     0.049 H 
ATOM     12  H   UNL A   1      31.155  20.507  25.619  1.00  0.00     0.049 H 
BRANCH  10  13
ATOM     13  N   UNL A   1      31.465  22.418  26.210  1.00  0.00    -0.352 N 
ATOM     14  O   UNL A   1      31.172  24.603  26.647  1.00  0.00    -0.270 OA
ATOM     15  C   UNL A   1      31.596  23.740  25.881  1.00  0.00     0.251 C 
ATOM     16  H   UNL A   1      30.993  22.238  27.055  1.00  0.00     0.163 HD
BRANCH  15  17
ATOM     17  C   UNL A   1      32.218  24.160  24.606  1.00  0.00     0.067 C 
ATOM     18  C   UNL A   1      32.928  25.295  24.604  1.00  0.00    -0.038 C 
ATOM     19  C   UNL A   1      31.747  23.648  23.283  1.00  0.00     0.224 C 
ATOM     20  C   UNL A   1      32.092  26.364  23.989  1.00  0.00     0.027 A 
ATOM     21  H   UNL A   1      33.887  25.409  24.965  1.00  0.00     0.064 H 
ATOM     22  O   UNL A   1      31.109  24.711  22.486  1.00  0.00    -0.475 OA
ATOM     23  H   UNL A   1      31.008  22.900  23.483  1.00  0.00     0.090 H 
ATOM     24  C   UNL A   1      31.207  26.002  22.961  1.00  0.00     0.128 A 
ATOM     25  C   UNL A   1      32.083  27.654  24.585  1.00  0.00     0.011 A 
ATOM     26  C   UNL A   1      30.283  26.932  22.505  1.00  0.00    -0.018 A 
ATOM     27  C   UNL A   1      31.118  28.560  24.135  1.00  0.00     0.049 A 
ATOM     28  C   UNL A   1      30.228  28.200  23.104  1.00  0.00    -0.039 A 
ATOM     29  H   UNL A   1      29.643  26.695  21.731  1.00  0.00     0.066 H 
ATOM     30  Cl  UNL A   1      30.916  30.107  24.872  1.00  0.00    -0.084 Cl
ATOM     31  H   UNL A   1      29.523  28.881  22.782  1.00  0.00     0.064 H 
BRANCH  19  32
ATOM     32  C   UNL A   1      32.894  22.972  22.489  1.00  0.00     0.429 C 
ATOM     33  F   UNL A   1      32.524  21.812  21.894  1.00  0.00    -0.167 F 
ATOM     34  F   UNL A   1      33.352  23.787  21.510  1.00  0.00    -0.167 F 
ATOM     35  F   UNL A   1      33.949  22.671  23.283  1.00  0.00    -0.167 F 
ENDBRANCH  19  32
BRANCH  25  36
ATOM     36  C   UNL A   1      33.013  27.846  25.721  1.00  0.00    -0.016 A 
ATOM     37  C   UNL A   1      34.275  28.415  25.479  1.00  0.00    -0.054 A 
ATOM     38  C   UNL A   1      32.478  27.922  27.021  1.00  0.00    -0.054 A 
ATOM     39  C   UNL A   1      34.897  29.193  26.458  1.00  0.00    -0.062 A 
ATOM     40  H   UNL A   1      34.744  28.258  24.574  1.00  0.00     0.063 H 
ATOM     41  C   UNL A   1      33.097  28.711  27.992  1.00  0.00    -0.062 A 
ATOM     42  H   UNL A   1      31.625  27.392  27.257  1.00  0.00     0.063 H 
ATOM     43  C   UNL A   1      34.285  29.376  27.696  1.00  0.00    -0.062 A 
ATOM     44  H   UNL A   1      35.810  29.632  26.264  1.00  0.00     0.062 H 
ATOM     45  H   UNL A   1      32.673  28.803  28.928  1.00  0.00     0.062 H 
ATOM     46  H   UNL A   1      34.712  30.003  28.395  1.00  0.00     0.062 H 
ENDBRANCH  25  36
ENDBRANCH  15  17
ENDBRANCH  10  13
ENDBRANCH   7  10
ENDBRANCH   4   7
ENDBRANCH   1   4
BRANCH   1  47
ATOM     47  C   UNL A   1      35.736  23.436  26.064  1.00  0.00    -0.036 C 
ATOM     48  H   UNL A   1      35.785  23.834  27.056  1.00  0.00     0.028 H 
ATOM     49  H   UNL A   1      34.938  23.827  25.468  1.00  0.00     0.028 H 
BRANCH  47  50
ATOM     50  C   UNL A   1      37.016  23.834  25.339  1.00  0.00     0.018 C 
ATOM     51  H   UNL A   1      37.308  24.808  25.674  1.00  0.00     0.049 H 
ATOM     52  H   UNL A   1      36.806  23.815  24.290  1.00  0.00     0.049 H 
BRANCH  50  53
ATOM     53  N   UNL A   1      38.119  22.917  25.573  1.00  0.00    -0.352 N 
ATOM     54  C   UNL A   1      39.327  23.115  26.192  1.00  0.00     0.251 C 
ATOM     55  H   UNL A   1      37.976  22.006  25.230  1.00  0.00     0.163 HD
ATOM     56  O   UNL A   1      40.173  22.217  26.168  1.00  0.00    -0.269 OA
BRANCH  54  57
ATOM     57  C   UNL A   1      39.652  24.392  26.871  1.00  0.00     0.039 A 
ATOM     58  C   UNL A   1      39.241  24.568  28.197  1.00  0.00    -0.049 A 
ATOM     59  C   UNL A   1      40.314  25.433  26.215  1.00  0.00    -0.049 A 
ATOM     60  C   UNL A   1      39.543  25.752  28.877  1.00  0.00    -0.053 A 
ATOM     61  H   UNL A   1      38.712  23.822  28.676  1.00  0.00     0.063 H 
ATOM     62  C   UNL A   1      40.689  26.578  26.917  1.00  0.00    -0.053 A 
ATOM     63  H   UNL A   1      40.528  25.353  25.209  1.00  0.00     0.063 H 
ATOM     64  C   UNL A   1      40.301  26.756  28.254  1.00  0.00    -0.014 A 
ATOM     65  H   UNL A   1      39.206  25.889  29.843  1.00  0.00     0.063 H 
ATOM     66  H   UNL A   1      41.256  27.303  26.450  1.00  0.00     0.063 H 
BRANCH  64  67
ATOM     67  C   UNL A   1      40.681  27.998  28.982  1.00  0.00     0.031 A 
ATOM     68  C   UNL A   1      42.073  28.160  29.535  1.00  0.00     0.074 A 
ATOM     69  C   UNL A   1      39.762  28.962  29.187  1.00  0.00     0.049 A 
ATOM     70  N   UNL A   1      42.575  29.139  30.247  1.00  0.00    -0.248 NA
ATOM     71  C   UNL A   1      43.021  27.066  29.275  1.00  0.00    -0.034 C 
ATOM     72  C   UNL A   1      38.370  28.912  28.740  1.00  0.00    -0.036 A 
ATOM     73  N   UNL A   1      39.857  30.171  29.833  1.00  0.00    -0.354 N 
ATOM     74  C   UNL A   1      43.885  28.774  30.524  1.00  0.00     0.074 A 
ATOM     75  C   UNL A   1      44.086  27.458  29.957  1.00  0.00    -0.034 C 
ATOM     76  H   UNL A   1      42.890  26.214  28.707  1.00  0.00     0.065 H 
ATOM     77  C   UNL A   1      37.748  30.044  29.102  1.00  0.00    -0.036 A 
ATOM     78  H   UNL A   1      37.935  28.129  28.227  1.00  0.00     0.065 H 
ATOM     79  C   UNL A   1      38.683  30.885  29.846  1.00  0.00     0.049 A 
ATOM     80  H   UNL A   1      40.689  30.496  30.248  1.00  0.00     0.167 HD
ATOM     81  C   UNL A   1      44.844  29.482  31.169  1.00  0.00     0.037 A 
ATOM     82  H   UNL A   1      44.946  26.899  30.071  1.00  0.00     0.065 H 
ATOM     83  H   UNL A   1      36.767  30.284  28.889  1.00  0.00     0.065 H 
ATOM     84  C   UNL A   1      38.388  32.075  30.403  1.00  0.00     0.037 A 
ATOM     85  C   UNL A   1      44.649  30.801  31.715  1.00  0.00     0.049 A 
ATOM     86  C   UNL A   1      39.467  32.831  31.135  1.00  0.00     0.074 A 
ATOM     87  C   UNL A   1      45.572  31.618  32.344  1.00  0.00    -0.036 A 
ATOM     88  N   UNL A   1      43.447  31.493  31.698  1.00  0.00    -0.354 N 
ATOM     89  N   UNL A   1      40.720  32.501  31.334  1.00  0.00    -0.248 NA
ATOM     90  C   UNL A   1      39.091  34.129  31.712  1.00  0.00    -0.034 C 
ATOM     91  C   UNL A   1      44.916  32.782  32.757  1.00  0.00    -0.036 A 
ATOM     92  H   UNL A   1      46.572  31.407  32.484  1.00  0.00     0.065 H 
ATOM     93  C   UNL A   1      43.599  32.718  32.329  1.00  0.00     0.049 A 
ATOM     94  H   UNL A   1      42.611  31.163  31.298  1.00  0.00     0.167 HD
ATOM     95  C   UNL A   1      41.288  33.562  32.028  1.00  0.00     0.074 A 
ATOM     96  C   UNL A   1      40.248  34.553  32.200  1.00  0.00    -0.034 C 
ATOM     97  H   UNL A   1      38.167  34.590  31.732  1.00  0.00     0.065 H 
ATOM     98  H   UNL A   1      45.339  33.558  33.290  1.00  0.00     0.065 H 
ATOM     99  C   UNL A   1      42.558  33.701  32.482  1.00  0.00     0.037 A 
ATOM    100  H   UNL A   1      40.388  35.473  32.646  1.00  0.00     0.065 H 
BRANCH  81 101
ATOM    101  C   UNL A   1      46.199  28.848  31.320  1.00  0.00     0.064 A 
ATOM    102  C   UNL A   1      47.205  29.023  30.357  1.00  0.00     0.173 A 
ATOM    103  C   UNL A   1      46.513  28.100  32.466  1.00  0.00     0.173 A 
ATOM    104  F   UNL A   1      46.955  29.722  29.239  1.00  0.00    -0.203 F 
ATOM    105  C   UNL A   1      48.463  28.450  30.521  1.00  0.00     0.198 A 
ATOM    106  C   UNL A   1      47.783  27.558  32.642  1.00  0.00     0.198 A 
ATOM    107  F   UNL A   1      45.592  27.907  33.421  1.00  0.00    -0.203 F 
ATOM    108  F   UNL A   1      49.392  28.591  29.564  1.00  0.00    -0.200 F 
ATOM    109  C   UNL A   1      48.755  27.726  31.667  1.00  0.00     0.200 A 
ATOM    110  F   UNL A   1      48.068  26.871  33.758  1.00  0.00    -0.200 F 
ATOM    111  F   UNL A   1      49.970  27.186  31.829  1.00  0.00    -0.200 F 
ENDBRANCH  81 101
BRANCH  84 112
ATOM    112  C   UNL A   1      37.014  32.636  30.288  1.00  0.00     0.064 A 
ATOM    113  C   UNL A   1      36.635  33.397  29.174  1.00  0.00     0.173 A 
ATOM    114  C   UNL A   1      36.061  32.444  31.299  1.00  0.00     0.173 A 
ATOM    115  F   UNL A   1      37.516  33.628  28.189  1.00  0.00    -0.203 F 
ATOM    116  C   UNL A   1      35.367  33.971  29.089  1.00  0.00     0.198 A 
ATOM    117  C   UNL A   1      34.783  32.989  31.198  1.00  0.00     0.198 A 
ATOM    118  F   UNL A   1      36.369  31.720  32.385  1.00  0.00    -0.203 F 
ATOM    119  F   UNL A   1      35.053  34.744  28.041  1.00  0.00    -0.200 F 
ATOM    120  C   UNL A   1      34.441  33.761  30.099  1.00  0.00     0.200 A 
ATOM    121  F   UNL A   1      33.885  32.771  32.169  1.00  0.00    -0.200 F 
ATOM    122  F   UNL A   1      33.222  34.313  30.019  1.00  0.00    -0.200 F 
ENDBRANCH  84 112
BRANCH  99 123
ATOM    123  C   UNL A   1      42.908  34.990  33.172  1.00  0.00     0.064 A 
ATOM    124  C   UNL A   1      43.369  36.107  32.462  1.00  0.00     0.173 A 
ATOM    125  C   UNL A   1      42.743  35.117  34.561  1.00  0.00     0.173 A 
ATOM    126  F   UNL A   1      43.559  36.035  31.136  1.00  0.00    -0.203 F 
ATOM    127  C   UNL A   1      43.679  37.296  33.119  1.00  0.00     0.198 A 
ATOM    128  C   UNL A   1      43.019  36.317  35.209  1.00  0.00     0.198 A 
ATOM    129  F   UNL A   1      42.297  34.081  35.286  1.00  0.00    -0.203 F 
ATOM    130  F   UNL A   1      44.169  38.333  32.427  1.00  0.00    -0.200 F 
ATOM    131  C   UNL A   1      43.496  37.402  34.490  1.00  0.00     0.200 A 
ATOM    132  F   UNL A   1      42.826  36.423  36.531  1.00  0.00    -0.200 F 
ATOM    133  F   UNL A   1      43.786  38.549  35.119  1.00  0.00    -0.200 F 
ENDBRANCH  99 123
ENDBRANCH  64  67
ENDBRANCH  54  57
ENDBRANCH  50  53
ENDBRANCH  47  50
ENDBRANCH   1  47
TORSDOF 15
ENDMDL
