MODEL 1
REMARK VINA RESULT:     -12.5      0.000      0.000
REMARK SMILES O=C(CCCc1nc(-c2ccc(Cl)c(Cl)c2)c(-c2ccccc2)o1)NCCCCCCNC(=O)c1ccc(-c2c3nc(c(-c4c(F)c(F)c(F)c(F)c4F)c4ccc([nH]4)c(-c4c(F)c(F)c(F)c(F)c4F)c4nc(c(-c5c(F)c(F)c(F)c(F)c5F)c5ccc2[nH]5)C=C4)C=C3)cc1
REMARK SMILES IDX 27 1 26 4 25 7 1 8 2 9 3 11 4 14 5 17 6 20 7 21 24 22 8 23
REMARK SMILES IDX 17 24 9 25 10 26 16 27 11 28 14 30 12 32 15 34 13 35 18 36
REMARK SMILES IDX 19 37 23 38 20 39 22 41 21 43 28 47 29 50 30 53 31 56 32 59
REMARK SMILES IDX 33 60 34 62 35 63 36 64 97 65 37 66 96 68 38 70 39 73 40 74
REMARK SMILES IDX 90 75 41 76 95 77 89 78 91 79 42 80 94 81 88 83 87 85 43 87
REMARK SMILES IDX 75 90 55 91 74 92 56 93 59 94 73 95 92 96 57 97 58 99 72 101
REMARK SMILES IDX 93 102 60 105 44 107 45 108 53 109 46 110 47 111 51 112
REMARK SMILES IDX 54 113 48 114 49 115 52 116 50 117 76 118 77 119 85 120
REMARK SMILES IDX 78 121 79 122 83 123 86 124 80 125 81 126 84 127 82 128
REMARK SMILES IDX 61 129 62 130 70 131 63 132 64 133 68 134 71 135 65 136
REMARK SMILES IDX 66 137 69 138 67 139
REMARK H PARENT 27 2 27 3 26 5 26 6 25 10 3 12 3 13 4 15 4 16 5 18 5 19 10 29
REMARK H PARENT 16 31 11 33 19 40 23 42 20 44 22 45 21 46 28 48 28 49 29 51
REMARK H PARENT 29 52 30 54 30 55 31 57 31 58 32 61 36 67 97 69 37 71 96 72
REMARK H PARENT 95 82 89 84 91 86 94 88 88 89 56 98 59 100 92 103 57 104
REMARK H PARENT 93 106
REMARK Flexibility Score: inf
ROOT
ATOM      1  C   UNL A   1      36.627  23.208  25.941  1.00  0.00    -0.036 C 
ATOM      2  H   UNL A   1      36.123  22.570  26.636  1.00  0.00     0.028 H 
ATOM      3  H   UNL A   1      37.310  23.886  26.407  1.00  0.00     0.028 H 
ENDROOT
BRANCH   1   4
ATOM      4  C   UNL A   1      35.577  24.069  25.241  1.00  0.00     0.017 C 
ATOM      5  H   UNL A   1      35.243  24.827  25.920  1.00  0.00     0.049 H 
ATOM      6  H   UNL A   1      36.029  24.502  24.372  1.00  0.00     0.049 H 
BRANCH   4   7
ATOM      7  N   UNL A   1      34.437  23.290  24.812  1.00  0.00    -0.356 N 
ATOM      8  O   UNL A   1      34.979  23.282  22.582  1.00  0.00    -0.275 OA
ATOM      9  C   UNL A   1      34.236  22.945  23.498  1.00  0.00     0.220 C 
ATOM     10  H   UNL A   1      33.782  22.996  25.485  1.00  0.00     0.163 HD
BRANCH   9  11
ATOM     11  C   UNL A   1      33.007  22.092  23.264  1.00  0.00     0.027 C 
ATOM     12  H   UNL A   1      32.851  21.478  24.125  1.00  0.00     0.037 H 
ATOM     13  H   UNL A   1      33.185  21.512  22.383  1.00  0.00     0.037 H 
BRANCH  11  14
ATOM     14  C   UNL A   1      31.739  22.919  23.018  1.00  0.00    -0.036 C 
ATOM     15  H   UNL A   1      31.074  22.325  22.426  1.00  0.00     0.028 H 
ATOM     16  H   UNL A   1      32.074  23.817  22.542  1.00  0.00     0.028 H 
BRANCH  14  17
ATOM     17  C   UNL A   1      30.974  23.377  24.264  1.00  0.00     0.025 C 
ATOM     18  H   UNL A   1      31.399  22.899  25.122  1.00  0.00     0.037 H 
ATOM     19  H   UNL A   1      29.947  23.109  24.129  1.00  0.00     0.037 H 
BRANCH  17  20
ATOM     20  C   UNL A   1      31.031  24.848  24.462  1.00  0.00     0.195 A 
ATOM     21  N   UNL A   1      31.863  25.518  25.238  1.00  0.00    -0.213 NA
ATOM     22  O   UNL A   1      30.195  25.624  23.709  1.00  0.00    -0.440 OA
ATOM     23  C   UNL A   1      31.524  26.828  25.016  1.00  0.00     0.117 A 
ATOM     24  C   UNL A   1      30.540  26.905  24.051  1.00  0.00     0.162 A 
BRANCH  23  25
ATOM     25  C   UNL A   1      32.138  27.954  25.683  1.00  0.00     0.006 A 
ATOM     26  C   UNL A   1      33.402  27.824  26.264  1.00  0.00    -0.051 A 
ATOM     27  C   UNL A   1      31.482  29.193  25.724  1.00  0.00    -0.032 A 
ATOM     28  C   UNL A   1      34.023  28.932  26.848  1.00  0.00    -0.041 A 
ATOM     29  H   UNL A   1      33.879  26.908  26.261  1.00  0.00     0.063 H 
ATOM     30  C   UNL A   1      32.099  30.300  26.317  1.00  0.00     0.060 A 
ATOM     31  H   UNL A   1      30.540  29.289  25.316  1.00  0.00     0.065 H 
ATOM     32  C   UNL A   1      33.375  30.172  26.872  1.00  0.00     0.059 A 
ATOM     33  H   UNL A   1      34.963  28.835  27.263  1.00  0.00     0.064 H 
ATOM     34  Cl  UNL A   1      31.231  31.794  26.319  1.00  0.00    -0.083 Cl
ATOM     35  Cl  UNL A   1      34.210  31.502  27.593  1.00  0.00    -0.083 Cl
ENDBRANCH  23  25
BRANCH  24  36
ATOM     36  C   UNL A   1      29.889  27.985  23.338  1.00  0.00     0.020 A 
ATOM     37  C   UNL A   1      30.619  28.846  22.513  1.00  0.00    -0.051 A 
ATOM     38  C   UNL A   1      28.497  28.140  23.431  1.00  0.00    -0.051 A 
ATOM     39  C   UNL A   1      29.962  29.835  21.776  1.00  0.00    -0.062 A 
ATOM     40  H   UNL A   1      31.644  28.751  22.447  1.00  0.00     0.063 H 
ATOM     41  C   UNL A   1      27.845  29.135  22.703  1.00  0.00    -0.062 A 
ATOM     42  H   UNL A   1      27.953  27.513  24.044  1.00  0.00     0.063 H 
ATOM     43  C   UNL A   1      28.578  29.977  21.871  1.00  0.00    -0.062 A 
ATOM     44  H   UNL A   1      30.503  30.463  21.161  1.00  0.00     0.062 H 
ATOM     45  H   UNL A   1      26.822  29.244  22.780  1.00  0.00     0.062 H 
ATOM     46  H   UNL A   1      28.096  30.708  21.325  1.00  0.00     0.062 H 
ENDBRANCH  24  36
ENDBRANCH  17  20
ENDBRANCH  14  17
ENDBRANCH  11  14
ENDBRANCH   9  11
ENDBRANCH   4   7
ENDBRANCH   1   4
BRANCH   1  47
ATOM     47  C   UNL A   1      37.466  22.327  25.008  1.00  0.00    -0.052 C 
ATOM     48  H   UNL A   1      38.473  22.328  25.372  1.00  0.00     0.027 H 
ATOM     49  H   UNL A   1      37.361  22.749  24.031  1.00  0.00     0.027 H 
BRANCH  47  50
ATOM     50  C   UNL A   1      37.010  20.871  24.889  1.00  0.00    -0.052 C 
ATOM     51  H   UNL A   1      36.487  20.760  23.963  1.00  0.00     0.027 H 
ATOM     52  H   UNL A   1      36.397  20.674  25.744  1.00  0.00     0.027 H 
BRANCH  50  53
ATOM     53  C   UNL A   1      38.144  19.847  24.923  1.00  0.00    -0.036 C 
ATOM     54  H   UNL A   1      38.594  19.815  23.953  1.00  0.00     0.028 H 
ATOM     55  H   UNL A   1      37.704  18.916  25.210  1.00  0.00     0.028 H 
BRANCH  53  56
ATOM     56  C   UNL A   1      39.235  20.144  25.945  1.00  0.00     0.018 C 
ATOM     57  H   UNL A   1      38.793  20.179  26.918  1.00  0.00     0.049 H 
ATOM     58  H   UNL A   1      39.681  21.080  25.679  1.00  0.00     0.049 H 
BRANCH  56  59
ATOM     59  N   UNL A   1      40.289  19.141  25.947  1.00  0.00    -0.352 N 
ATOM     60  C   UNL A   1      41.644  19.318  26.060  1.00  0.00     0.251 C 
ATOM     61  H   UNL A   1      39.988  18.208  25.854  1.00  0.00     0.163 HD
ATOM     62  O   UNL A   1      42.412  18.373  25.882  1.00  0.00    -0.269 OA
BRANCH  60  63
ATOM     63  C   UNL A   1      42.185  20.657  26.372  1.00  0.00     0.039 A 
ATOM     64  C   UNL A   1      42.488  21.525  25.321  1.00  0.00    -0.049 A 
ATOM     65  C   UNL A   1      42.394  21.055  27.696  1.00  0.00    -0.049 A 
ATOM     66  C   UNL A   1      42.959  22.810  25.599  1.00  0.00    -0.053 A 
ATOM     67  H   UNL A   1      42.364  21.218  24.343  1.00  0.00     0.063 H 
ATOM     68  C   UNL A   1      42.786  22.362  27.973  1.00  0.00    -0.053 A 
ATOM     69  H   UNL A   1      42.259  20.382  28.466  1.00  0.00     0.063 H 
ATOM     70  C   UNL A   1      43.088  23.248  26.927  1.00  0.00    -0.014 A 
ATOM     71  H   UNL A   1      43.214  23.442  24.824  1.00  0.00     0.063 H 
ATOM     72  H   UNL A   1      42.855  22.680  28.952  1.00  0.00     0.063 H 
BRANCH  70  73
ATOM     73  C   UNL A   1      43.579  24.614  27.241  1.00  0.00     0.031 A 
ATOM     74  C   UNL A   1      42.635  25.636  27.814  1.00  0.00     0.074 A 
ATOM     75  C   UNL A   1      44.858  24.948  26.977  1.00  0.00     0.049 A 
ATOM     76  N   UNL A   1      42.847  26.898  28.094  1.00  0.00    -0.248 NA
ATOM     77  C   UNL A   1      41.258  25.188  28.082  1.00  0.00    -0.034 C 
ATOM     78  C   UNL A   1      45.859  24.060  26.384  1.00  0.00    -0.036 A 
ATOM     79  N   UNL A   1      45.532  26.128  27.166  1.00  0.00    -0.354 N 
ATOM     80  C   UNL A   1      41.637  27.388  28.569  1.00  0.00     0.074 A 
ATOM     81  C   UNL A   1      40.675  26.312  28.471  1.00  0.00    -0.034 C 
ATOM     82  H   UNL A   1      40.852  24.243  27.992  1.00  0.00     0.065 H 
ATOM     83  C   UNL A   1      47.023  24.723  26.273  1.00  0.00    -0.036 A 
ATOM     84  H   UNL A   1      45.697  23.083  26.096  1.00  0.00     0.065 H 
ATOM     85  C   UNL A   1      46.841  26.089  26.752  1.00  0.00     0.049 A 
ATOM     86  H   UNL A   1      45.115  26.929  27.561  1.00  0.00     0.167 HD
ATOM     87  C   UNL A   1      41.359  28.613  29.074  1.00  0.00     0.037 A 
ATOM     88  H   UNL A   1      39.669  26.408  28.676  1.00  0.00     0.065 H 
ATOM     89  H   UNL A   1      47.903  24.328  25.907  1.00  0.00     0.065 H 
ATOM     90  C   UNL A   1      47.783  27.051  26.754  1.00  0.00     0.037 A 
ATOM     91  C   UNL A   1      42.320  29.679  29.185  1.00  0.00     0.049 A 
ATOM     92  C   UNL A   1      47.443  28.410  27.308  1.00  0.00     0.074 A 
ATOM     93  C   UNL A   1      42.141  30.955  29.690  1.00  0.00    -0.036 A 
ATOM     94  N   UNL A   1      43.646  29.588  28.789  1.00  0.00    -0.354 N 
ATOM     95  N   UNL A   1      46.307  28.846  27.797  1.00  0.00    -0.248 NA
ATOM     96  C   UNL A   1      48.522  29.407  27.327  1.00  0.00    -0.034 C 
ATOM     97  C   UNL A   1      43.350  31.647  29.567  1.00  0.00    -0.036 A 
ATOM     98  H   UNL A   1      41.266  31.331  30.089  1.00  0.00     0.065 H 
ATOM     99  C   UNL A   1      44.297  30.785  29.039  1.00  0.00     0.049 A 
ATOM    100  H   UNL A   1      44.063  28.791  28.390  1.00  0.00     0.167 HD
ATOM    101  C   UNL A   1      46.547  30.147  28.220  1.00  0.00     0.074 A 
ATOM    102  C   UNL A   1      47.940  30.425  27.943  1.00  0.00    -0.034 C 
ATOM    103  H   UNL A   1      49.483  29.334  26.957  1.00  0.00     0.065 H 
ATOM    104  H   UNL A   1      43.509  32.634  29.828  1.00  0.00     0.065 H 
ATOM    105  C   UNL A   1      45.692  31.033  28.785  1.00  0.00     0.037 A 
ATOM    106  H   UNL A   1      48.419  31.304  28.193  1.00  0.00     0.065 H 
BRANCH  87 107
ATOM    107  C   UNL A   1      39.964  28.860  29.569  1.00  0.00     0.064 A 
ATOM    108  C   UNL A   1      38.964  29.356  28.717  1.00  0.00     0.173 A 
ATOM    109  C   UNL A   1      39.605  28.555  30.891  1.00  0.00     0.173 A 
ATOM    110  F   UNL A   1      39.258  29.676  27.448  1.00  0.00    -0.203 F 
ATOM    111  C   UNL A   1      37.666  29.558  29.174  1.00  0.00     0.198 A 
ATOM    112  C   UNL A   1      38.296  28.728  31.335  1.00  0.00     0.198 A 
ATOM    113  F   UNL A   1      40.519  28.074  31.747  1.00  0.00    -0.203 F 
ATOM    114  F   UNL A   1      36.741  30.075  28.354  1.00  0.00    -0.200 F 
ATOM    115  C   UNL A   1      37.330  29.236  30.480  1.00  0.00     0.200 A 
ATOM    116  F   UNL A   1      37.969  28.402  32.595  1.00  0.00    -0.200 F 
ATOM    117  F   UNL A   1      36.076  29.418  30.916  1.00  0.00    -0.200 F 
ENDBRANCH  87 107
BRANCH  90 118
ATOM    118  C   UNL A   1      49.147  26.770  26.226  1.00  0.00     0.064 A 
ATOM    119  C   UNL A   1      49.475  27.039  24.888  1.00  0.00     0.173 A 
ATOM    120  C   UNL A   1      50.133  26.186  27.033  1.00  0.00     0.173 A 
ATOM    121  F   UNL A   1      48.560  27.581  24.071  1.00  0.00    -0.203 F 
ATOM    122  C   UNL A   1      50.720  26.694  24.368  1.00  0.00     0.198 A 
ATOM    123  C   UNL A   1      51.391  25.873  26.519  1.00  0.00     0.198 A 
ATOM    124  F   UNL A   1      49.875  25.915  28.320  1.00  0.00    -0.203 F 
ATOM    125  F   UNL A   1      50.981  26.895  23.070  1.00  0.00    -0.200 F 
ATOM    126  C   UNL A   1      51.679  26.112  25.185  1.00  0.00     0.200 A 
ATOM    127  F   UNL A   1      52.320  25.327  27.317  1.00  0.00    -0.200 F 
ATOM    128  F   UNL A   1      52.873  25.772  24.683  1.00  0.00    -0.200 F 
ENDBRANCH  90 118
BRANCH 105 129
ATOM    129  C   UNL A   1      46.255  32.359  29.212  1.00  0.00     0.064 A 
ATOM    130  C   UNL A   1      46.797  32.561  30.490  1.00  0.00     0.173 A 
ATOM    131  C   UNL A   1      46.273  33.438  28.313  1.00  0.00     0.173 A 
ATOM    132  F   UNL A   1      46.793  31.566  31.389  1.00  0.00    -0.203 F 
ATOM    133  C   UNL A   1      47.302  33.803  30.864  1.00  0.00     0.198 A 
ATOM    134  C   UNL A   1      46.811  34.668  28.680  1.00  0.00     0.198 A 
ATOM    135  F   UNL A   1      45.776  33.296  27.075  1.00  0.00    -0.203 F 
ATOM    136  F   UNL A   1      47.760  33.989  32.110  1.00  0.00    -0.200 F 
ATOM    137  C   UNL A   1      47.314  34.853  29.958  1.00  0.00     0.200 A 
ATOM    138  F   UNL A   1      46.837  35.676  27.797  1.00  0.00    -0.200 F 
ATOM    139  F   UNL A   1      47.804  36.047  30.320  1.00  0.00    -0.200 F 
ENDBRANCH 105 129
ENDBRANCH  70  73
ENDBRANCH  60  63
ENDBRANCH  56  59
ENDBRANCH  53  56
ENDBRANCH  50  53
ENDBRANCH  47  50
ENDBRANCH   1  47
TORSDOF 18
ENDMDL
MODEL 2
REMARK VINA RESULT:     -12.3      1.289      7.447
REMARK SMILES O=C(CCCc1nc(-c2ccc(Cl)c(Cl)c2)c(-c2ccccc2)o1)NCCCCCCNC(=O)c1ccc(-c2c3nc(c(-c4c(F)c(F)c(F)c(F)c4F)c4ccc([nH]4)c(-c4c(F)c(F)c(F)c(F)c4F)c4nc(c(-c5c(F)c(F)c(F)c(F)c5F)c5ccc2[nH]5)C=C4)C=C3)cc1
REMARK SMILES IDX 27 1 26 4 25 7 1 8 2 9 3 11 4 14 5 17 6 20 7 21 24 22 8 23
REMARK SMILES IDX 17 24 9 25 10 26 16 27 11 28 14 30 12 32 15 34 13 35 18 36
REMARK SMILES IDX 19 37 23 38 20 39 22 41 21 43 28 47 29 50 30 53 31 56 32 59
REMARK SMILES IDX 33 60 34 62 35 63 36 64 97 65 37 66 96 68 38 70 39 73 40 74
REMARK SMILES IDX 90 75 41 76 95 77 89 78 91 79 42 80 94 81 88 83 87 85 43 87
REMARK SMILES IDX 75 90 55 91 74 92 56 93 59 94 73 95 92 96 57 97 58 99 72 101
REMARK SMILES IDX 93 102 60 105 44 107 45 108 53 109 46 110 47 111 51 112
REMARK SMILES IDX 54 113 48 114 49 115 52 116 50 117 76 118 77 119 85 120
REMARK SMILES IDX 78 121 79 122 83 123 86 124 80 125 81 126 84 127 82 128
REMARK SMILES IDX 61 129 62 130 70 131 63 132 64 133 68 134 71 135 65 136
REMARK SMILES IDX 66 137 69 138 67 139
REMARK H PARENT 27 2 27 3 26 5 26 6 25 10 3 12 3 13 4 15 4 16 5 18 5 19 10 29
REMARK H PARENT 16 31 11 33 19 40 23 42 20 44 22 45 21 46 28 48 28 49 29 51
REMARK H PARENT 29 52 30 54 30 55 31 57 31 58 32 61 36 67 97 69 37 71 96 72
REMARK H PARENT 95 82 89 84 91 86 94 88 88 89 56 98 59 100 92 103 57 104
REMARK H PARENT 93 106
REMARK Flexibility Score: inf
ROOT
ATOM      1  C   UNL A   1      36.897  23.290  26.103  1.00  0.00    -0.036 C 
ATOM      2  H   UNL A   1      36.519  22.674  26.891  1.00  0.00     0.028 H 
ATOM      3  H   UNL A   1      37.506  24.098  26.451  1.00  0.00     0.028 H 
ENDROOT
BRANCH   1   4
ATOM      4  C   UNL A   1      35.708  23.927  25.386  1.00  0.00     0.017 C 
ATOM      5  H   UNL A   1      35.250  24.639  26.042  1.00  0.00     0.049 H 
ATOM      6  H   UNL A   1      36.071  24.399  24.497  1.00  0.00     0.049 H 
BRANCH   4   7
ATOM      7  N   UNL A   1      34.720  22.944  24.999  1.00  0.00    -0.356 N 
ATOM      8  O   UNL A   1      35.149  23.048  22.747  1.00  0.00    -0.275 OA
ATOM      9  C   UNL A   1      34.528  22.571  23.692  1.00  0.00     0.220 C 
ATOM     10  H   UNL A   1      34.166  22.528  25.698  1.00  0.00     0.163 HD
BRANCH   9  11
ATOM     11  C   UNL A   1      33.476  21.499  23.504  1.00  0.00     0.027 C 
ATOM     12  H   UNL A   1      33.385  20.948  24.416  1.00  0.00     0.037 H 
ATOM     13  H   UNL A   1      33.794  20.880  22.691  1.00  0.00     0.037 H 
BRANCH  11  14
ATOM     14  C   UNL A   1      32.099  22.064  23.135  1.00  0.00    -0.036 C 
ATOM     15  H   UNL A   1      31.532  21.273  22.692  1.00  0.00     0.028 H 
ATOM     16  H   UNL A   1      32.296  22.888  22.481  1.00  0.00     0.028 H 
BRANCH  14  17
ATOM     17  C   UNL A   1      31.273  22.645  24.287  1.00  0.00     0.025 C 
ATOM     18  H   UNL A   1      31.704  22.325  25.213  1.00  0.00     0.037 H 
ATOM     19  H   UNL A   1      30.269  22.292  24.175  1.00  0.00     0.037 H 
BRANCH  17  20
ATOM     20  C   UNL A   1      31.231  24.129  24.270  1.00  0.00     0.195 A 
ATOM     21  N   UNL A   1      30.433  24.898  23.553  1.00  0.00    -0.213 NA
ATOM     22  O   UNL A   1      32.043  24.798  25.145  1.00  0.00    -0.440 OA
ATOM     23  C   UNL A   1      30.771  26.168  23.948  1.00  0.00     0.117 A 
ATOM     24  C   UNL A   1      31.718  26.115  24.951  1.00  0.00     0.162 A 
BRANCH  23  25
ATOM     25  C   UNL A   1      30.188  27.374  23.404  1.00  0.00     0.006 A 
ATOM     26  C   UNL A   1      30.989  28.301  22.730  1.00  0.00    -0.051 A 
ATOM     27  C   UNL A   1      28.811  27.607  23.520  1.00  0.00    -0.032 A 
ATOM     28  C   UNL A   1      30.412  29.432  22.146  1.00  0.00    -0.041 A 
ATOM     29  H   UNL A   1      32.009  28.149  22.665  1.00  0.00     0.063 H 
ATOM     30  C   UNL A   1      28.234  28.743  22.945  1.00  0.00     0.060 A 
ATOM     31  H   UNL A   1      28.219  26.936  24.035  1.00  0.00     0.065 H 
ATOM     32  C   UNL A   1      29.034  29.653  22.248  1.00  0.00     0.059 A 
ATOM     33  H   UNL A   1      31.005  30.107  21.638  1.00  0.00     0.064 H 
ATOM     34  Cl  UNL A   1      26.529  28.954  23.123  1.00  0.00    -0.083 Cl
ATOM     35  Cl  UNL A   1      28.387  31.062  21.485  1.00  0.00    -0.083 Cl
ENDBRANCH  23  25
BRANCH  24  36
ATOM     36  C   UNL A   1      32.347  27.092  25.816  1.00  0.00     0.020 A 
ATOM     37  C   UNL A   1      33.710  27.380  25.704  1.00  0.00    -0.051 A 
ATOM     38  C   UNL A   1      31.571  27.800  26.745  1.00  0.00    -0.051 A 
ATOM     39  C   UNL A   1      34.283  28.378  26.497  1.00  0.00    -0.062 A 
ATOM     40  H   UNL A   1      34.295  26.857  25.034  1.00  0.00     0.063 H 
ATOM     41  C   UNL A   1      32.146  28.788  27.544  1.00  0.00    -0.062 A 
ATOM     42  H   UNL A   1      30.565  27.587  26.839  1.00  0.00     0.063 H 
ATOM     43  C   UNL A   1      33.501  29.080  27.414  1.00  0.00    -0.062 A 
ATOM     44  H   UNL A   1      35.288  28.595  26.405  1.00  0.00     0.062 H 
ATOM     45  H   UNL A   1      31.569  29.302  28.227  1.00  0.00     0.062 H 
ATOM     46  H   UNL A   1      33.928  29.817  27.998  1.00  0.00     0.062 H 
ENDBRANCH  24  36
ENDBRANCH  17  20
ENDBRANCH  14  17
ENDBRANCH  11  14
ENDBRANCH   9  11
ENDBRANCH   4   7
ENDBRANCH   1   4
BRANCH   1  47
ATOM     47  C   UNL A   1      37.800  22.425  25.214  1.00  0.00    -0.052 C 
ATOM     48  H   UNL A   1      38.773  22.399  25.660  1.00  0.00     0.027 H 
ATOM     49  H   UNL A   1      37.781  22.880  24.246  1.00  0.00     0.027 H 
BRANCH  47  50
ATOM     50  C   UNL A   1      37.336  20.982  25.011  1.00  0.00    -0.052 C 
ATOM     51  H   UNL A   1      36.800  20.930  24.087  1.00  0.00     0.027 H 
ATOM     52  H   UNL A   1      36.733  20.733  25.860  1.00  0.00     0.027 H 
BRANCH  50  53
ATOM     53  C   UNL A   1      38.465  19.953  24.965  1.00  0.00    -0.036 C 
ATOM     54  H   UNL A   1      39.117  20.208  24.156  1.00  0.00     0.028 H 
ATOM     55  H   UNL A   1      38.001  18.997  24.843  1.00  0.00     0.028 H 
BRANCH  53  56
ATOM     56  C   UNL A   1      39.298  19.871  26.239  1.00  0.00     0.018 C 
ATOM     57  H   UNL A   1      38.678  19.506  27.031  1.00  0.00     0.049 H 
ATOM     58  H   UNL A   1      39.668  20.853  26.447  1.00  0.00     0.049 H 
BRANCH  56  59
ATOM     59  N   UNL A   1      40.446  18.988  26.102  1.00  0.00    -0.352 N 
ATOM     60  C   UNL A   1      41.779  19.310  26.067  1.00  0.00     0.251 C 
ATOM     61  H   UNL A   1      40.239  18.029  26.023  1.00  0.00     0.163 HD
ATOM     62  O   UNL A   1      42.618  18.457  25.784  1.00  0.00    -0.269 OA
BRANCH  60  63
ATOM     63  C   UNL A   1      42.205  20.697  26.346  1.00  0.00     0.039 A 
ATOM     64  C   UNL A   1      42.295  21.602  25.286  1.00  0.00    -0.049 A 
ATOM     65  C   UNL A   1      42.516  21.105  27.646  1.00  0.00    -0.049 A 
ATOM     66  C   UNL A   1      42.655  22.929  25.537  1.00  0.00    -0.053 A 
ATOM     67  H   UNL A   1      42.098  21.293  24.320  1.00  0.00     0.063 H 
ATOM     68  C   UNL A   1      42.794  22.444  27.906  1.00  0.00    -0.053 A 
ATOM     69  H   UNL A   1      42.539  20.414  28.412  1.00  0.00     0.063 H 
ATOM     70  C   UNL A   1      42.882  23.366  26.852  1.00  0.00    -0.014 A 
ATOM     71  H   UNL A   1      42.753  23.591  24.752  1.00  0.00     0.063 H 
ATOM     72  H   UNL A   1      42.936  22.759  28.877  1.00  0.00     0.063 H 
BRANCH  70  73
ATOM     73  C   UNL A   1      43.257  24.775  27.139  1.00  0.00     0.031 A 
ATOM     74  C   UNL A   1      44.662  25.245  26.874  1.00  0.00     0.074 A 
ATOM     75  C   UNL A   1      42.351  25.618  27.672  1.00  0.00     0.049 A 
ATOM     76  N   UNL A   1      45.207  26.411  27.117  1.00  0.00    -0.248 NA
ATOM     77  C   UNL A   1      45.587  24.264  26.282  1.00  0.00    -0.034 C 
ATOM     78  C   UNL A   1      40.970  25.272  28.013  1.00  0.00    -0.036 A 
ATOM     79  N   UNL A   1      42.459  26.939  28.028  1.00  0.00    -0.354 N 
ATOM     80  C   UNL A   1      46.530  26.301  26.709  1.00  0.00     0.074 A 
ATOM     81  C   UNL A   1      46.728  24.937  26.271  1.00  0.00    -0.034 C 
ATOM     82  H   UNL A   1      45.396  23.303  25.958  1.00  0.00     0.065 H 
ATOM     83  C   UNL A   1      40.356  26.356  28.514  1.00  0.00    -0.036 A 
ATOM     84  H   UNL A   1      40.538  24.342  27.890  1.00  0.00     0.065 H 
ATOM     85  C   UNL A   1      41.307  27.462  28.563  1.00  0.00     0.049 A 
ATOM     86  H   UNL A   1      43.286  27.462  27.912  1.00  0.00     0.167 HD
ATOM     87  C   UNL A   1      47.486  27.260  26.668  1.00  0.00     0.037 A 
ATOM     88  H   UNL A   1      47.638  24.540  25.988  1.00  0.00     0.065 H 
ATOM     89  H   UNL A   1      39.370  26.400  28.816  1.00  0.00     0.065 H 
ATOM     90  C   UNL A   1      41.052  28.694  29.044  1.00  0.00     0.037 A 
ATOM     91  C   UNL A   1      47.285  28.620  27.090  1.00  0.00     0.049 A 
ATOM     92  C   UNL A   1      42.139  29.737  29.001  1.00  0.00     0.074 A 
ATOM     93  C   UNL A   1      48.187  29.670  27.082  1.00  0.00    -0.036 A 
ATOM     94  N   UNL A   1      46.092  29.122  27.591  1.00  0.00    -0.354 N 
ATOM     95  N   UNL A   1      43.373  29.633  28.568  1.00  0.00    -0.248 NA
ATOM     96  C   UNL A   1      41.792  31.076  29.497  1.00  0.00    -0.034 C 
ATOM     97  C   UNL A   1      47.550  30.797  27.610  1.00  0.00    -0.036 A 
ATOM     98  H   UNL A   1      49.161  29.629  26.744  1.00  0.00     0.065 H 
ATOM     99  C   UNL A   1      46.235  30.465  27.895  1.00  0.00     0.049 A 
ATOM    100  H   UNL A   1      45.267  28.599  27.713  1.00  0.00     0.167 HD
ATOM    101  C   UNL A   1      43.931  30.898  28.699  1.00  0.00     0.074 A 
ATOM    102  C   UNL A   1      42.898  31.757  29.238  1.00  0.00    -0.034 C 
ATOM    103  H   UNL A   1      40.915  31.402  29.934  1.00  0.00     0.065 H 
ATOM    104  H   UNL A   1      47.986  31.721  27.762  1.00  0.00     0.065 H 
ATOM    105  C   UNL A   1      45.187  31.312  28.402  1.00  0.00     0.037 A 
ATOM    106  H   UNL A   1      43.009  32.769  29.400  1.00  0.00     0.065 H 
BRANCH  87 107
ATOM    107  C   UNL A   1      48.832  26.875  26.126  1.00  0.00     0.064 A 
ATOM    108  C   UNL A   1      49.142  27.033  24.765  1.00  0.00     0.173 A 
ATOM    109  C   UNL A   1      49.838  26.391  26.974  1.00  0.00     0.173 A 
ATOM    110  F   UNL A   1      48.212  27.481  23.909  1.00  0.00    -0.203 F 
ATOM    111  C   UNL A   1      50.400  26.700  24.272  1.00  0.00     0.198 A 
ATOM    112  C   UNL A   1      51.106  26.089  26.483  1.00  0.00     0.198 A 
ATOM    113  F   UNL A   1      49.597  26.225  28.284  1.00  0.00    -0.203 F 
ATOM    114  F   UNL A   1      50.658  26.817  22.962  1.00  0.00    -0.200 F 
ATOM    115  C   UNL A   1      51.384  26.237  25.133  1.00  0.00     0.200 A 
ATOM    116  F   UNL A   1      52.061  25.654  27.319  1.00  0.00    -0.200 F 
ATOM    117  F   UNL A   1      52.600  25.929  24.659  1.00  0.00    -0.200 F 
ENDBRANCH  87 107
BRANCH  90 118
ATOM    118  C   UNL A   1      39.711  29.023  29.600  1.00  0.00     0.064 A 
ATOM    119  C   UNL A   1      39.422  28.828  30.959  1.00  0.00     0.173 A 
ATOM    120  C   UNL A   1      38.678  29.494  28.777  1.00  0.00     0.173 A 
ATOM    121  F   UNL A   1      40.372  28.362  31.785  1.00  0.00    -0.203 F 
ATOM    122  C   UNL A   1      38.143  29.048  31.463  1.00  0.00     0.198 A 
ATOM    123  C   UNL A   1      37.407  29.747  29.291  1.00  0.00     0.198 A 
ATOM    124  F   UNL A   1      38.901  29.705  27.472  1.00  0.00    -0.203 F 
ATOM    125  F   UNL A   1      37.877  28.784  32.750  1.00  0.00    -0.200 F 
ATOM    126  C   UNL A   1      37.136  29.510  30.629  1.00  0.00     0.200 A 
ATOM    127  F   UNL A   1      36.442  30.210  28.484  1.00  0.00    -0.200 F 
ATOM    128  F   UNL A   1      35.903  29.714  31.112  1.00  0.00    -0.200 F 
ENDBRANCH  90 118
BRANCH 105 129
ATOM    129  C   UNL A   1      45.492  32.772  28.580  1.00  0.00     0.064 A 
ATOM    130  C   UNL A   1      45.254  33.711  27.565  1.00  0.00     0.173 A 
ATOM    131  C   UNL A   1      46.007  33.239  29.799  1.00  0.00     0.173 A 
ATOM    132  F   UNL A   1      44.774  33.314  26.377  1.00  0.00    -0.203 F 
ATOM    133  C   UNL A   1      45.557  35.057  27.752  1.00  0.00     0.198 A 
ATOM    134  C   UNL A   1      46.275  34.591  29.994  1.00  0.00     0.198 A 
ATOM    135  F   UNL A   1      46.243  32.385  30.807  1.00  0.00    -0.203 F 
ATOM    136  F   UNL A   1      45.379  35.926  26.748  1.00  0.00    -0.200 F 
ATOM    137  C   UNL A   1      46.061  35.497  28.967  1.00  0.00     0.200 A 
ATOM    138  F   UNL A   1      46.745  35.016  31.175  1.00  0.00    -0.200 F 
ATOM    139  F   UNL A   1      46.348  36.794  29.145  1.00  0.00    -0.200 F 
ENDBRANCH 105 129
ENDBRANCH  70  73
ENDBRANCH  60  63
ENDBRANCH  56  59
ENDBRANCH  53  56
ENDBRANCH  50  53
ENDBRANCH  47  50
ENDBRANCH   1  47
TORSDOF 18
ENDMDL
MODEL 3
REMARK VINA RESULT:     -12.3      5.116      9.072
REMARK SMILES O=C(CCCc1nc(-c2ccc(Cl)c(Cl)c2)c(-c2ccccc2)o1)NCCCCCCNC(=O)c1ccc(-c2c3nc(c(-c4c(F)c(F)c(F)c(F)c4F)c4ccc([nH]4)c(-c4c(F)c(F)c(F)c(F)c4F)c4nc(c(-c5c(F)c(F)c(F)c(F)c5F)c5ccc2[nH]5)C=C4)C=C3)cc1
REMARK SMILES IDX 27 1 26 4 25 7 1 8 2 9 3 11 4 14 5 17 6 20 7 21 24 22 8 23
REMARK SMILES IDX 17 24 9 25 10 26 16 27 11 28 14 30 12 32 15 34 13 35 18 36
REMARK SMILES IDX 19 37 23 38 20 39 22 41 21 43 28 47 29 50 30 53 31 56 32 59
REMARK SMILES IDX 33 60 34 62 35 63 36 64 97 65 37 66 96 68 38 70 39 73 40 74
REMARK SMILES IDX 90 75 41 76 95 77 89 78 91 79 42 80 94 81 88 83 87 85 43 87
REMARK SMILES IDX 75 90 55 91 74 92 56 93 59 94 73 95 92 96 57 97 58 99 72 101
REMARK SMILES IDX 93 102 60 105 44 107 45 108 53 109 46 110 47 111 51 112
REMARK SMILES IDX 54 113 48 114 49 115 52 116 50 117 76 118 77 119 85 120
REMARK SMILES IDX 78 121 79 122 83 123 86 124 80 125 81 126 84 127 82 128
REMARK SMILES IDX 61 129 62 130 70 131 63 132 64 133 68 134 71 135 65 136
REMARK SMILES IDX 66 137 69 138 67 139
REMARK H PARENT 27 2 27 3 26 5 26 6 25 10 3 12 3 13 4 15 4 16 5 18 5 19 10 29
REMARK H PARENT 16 31 11 33 19 40 23 42 20 44 22 45 21 46 28 48 28 49 29 51
REMARK H PARENT 29 52 30 54 30 55 31 57 31 58 32 61 36 67 97 69 37 71 96 72
REMARK H PARENT 95 82 89 84 91 86 94 88 88 89 56 98 59 100 92 103 57 104
REMARK H PARENT 93 106
REMARK Flexibility Score: inf
ROOT
ATOM      1  C   UNL A   1      34.036  28.096  23.890  1.00  0.00    -0.036 C 
ATOM      2  H   UNL A   1      34.930  28.546  23.513  1.00  0.00     0.028 H 
ATOM      3  H   UNL A   1      34.160  27.652  24.856  1.00  0.00     0.028 H 
ENDROOT
BRANCH   1   4
ATOM      4  C   UNL A   1      33.639  26.964  22.945  1.00  0.00     0.017 C 
ATOM      5  H   UNL A   1      33.340  27.385  22.007  1.00  0.00     0.049 H 
ATOM      6  H   UNL A   1      34.485  26.319  22.826  1.00  0.00     0.049 H 
BRANCH   4   7
ATOM      7  N   UNL A   1      32.547  26.177  23.474  1.00  0.00    -0.356 N 
ATOM      8  O   UNL A   1      30.931  27.059  22.104  1.00  0.00    -0.275 OA
ATOM      9  C   UNL A   1      31.265  26.283  22.993  1.00  0.00     0.220 C 
ATOM     10  H   UNL A   1      32.729  25.543  24.206  1.00  0.00     0.163 HD
BRANCH   9  11
ATOM     11  C   UNL A   1      30.279  25.343  23.654  1.00  0.00     0.027 C 
ATOM     12  H   UNL A   1      30.720  24.371  23.710  1.00  0.00     0.037 H 
ATOM     13  H   UNL A   1      29.389  25.347  23.059  1.00  0.00     0.037 H 
BRANCH  11  14
ATOM     14  C   UNL A   1      29.883  25.782  25.069  1.00  0.00    -0.036 C 
ATOM     15  H   UNL A   1      28.841  26.023  25.055  1.00  0.00     0.028 H 
ATOM     16  H   UNL A   1      30.526  26.607  25.300  1.00  0.00     0.028 H 
BRANCH  14  17
ATOM     17  C   UNL A   1      30.112  24.759  26.186  1.00  0.00     0.025 C 
ATOM     18  H   UNL A   1      29.188  24.257  26.385  1.00  0.00     0.037 H 
ATOM     19  H   UNL A   1      30.467  25.292  27.044  1.00  0.00     0.037 H 
BRANCH  17  20
ATOM     20  C   UNL A   1      31.138  23.745  25.833  1.00  0.00     0.195 A 
ATOM     21  N   UNL A   1      30.933  22.483  25.502  1.00  0.00    -0.213 NA
ATOM     22  O   UNL A   1      32.439  24.157  25.754  1.00  0.00    -0.440 OA
ATOM     23  C   UNL A   1      32.193  22.014  25.229  1.00  0.00     0.117 A 
ATOM     24  C   UNL A   1      33.112  23.039  25.335  1.00  0.00     0.162 A 
BRANCH  23  25
ATOM     25  C   UNL A   1      32.494  20.650  24.857  1.00  0.00     0.006 A 
ATOM     26  C   UNL A   1      32.963  19.747  25.814  1.00  0.00    -0.051 A 
ATOM     27  C   UNL A   1      32.287  20.217  23.540  1.00  0.00    -0.032 A 
ATOM     28  C   UNL A   1      33.188  18.412  25.467  1.00  0.00    -0.041 A 
ATOM     29  H   UNL A   1      33.144  20.066  26.779  1.00  0.00     0.063 H 
ATOM     30  C   UNL A   1      32.520  18.883  23.189  1.00  0.00     0.060 A 
ATOM     31  H   UNL A   1      31.961  20.886  22.825  1.00  0.00     0.065 H 
ATOM     32  C   UNL A   1      32.963  17.976  24.156  1.00  0.00     0.059 A 
ATOM     33  H   UNL A   1      33.522  17.744  26.180  1.00  0.00     0.064 H 
ATOM     34  Cl  UNL A   1      32.232  18.424  21.549  1.00  0.00    -0.083 Cl
ATOM     35  Cl  UNL A   1      33.243  16.308  23.803  1.00  0.00    -0.083 Cl
ENDBRANCH  23  25
BRANCH  24  36
ATOM     36  C   UNL A   1      34.526  23.177  25.056  1.00  0.00     0.020 A 
ATOM     37  C   UNL A   1      35.411  23.640  26.034  1.00  0.00    -0.051 A 
ATOM     38  C   UNL A   1      35.030  22.792  23.804  1.00  0.00    -0.051 A 
ATOM     39  C   UNL A   1      36.783  23.697  25.769  1.00  0.00    -0.062 A 
ATOM     40  H   UNL A   1      35.053  23.939  26.954  1.00  0.00     0.063 H 
ATOM     41  C   UNL A   1      36.397  22.860  23.537  1.00  0.00    -0.062 A 
ATOM     42  H   UNL A   1      34.381  22.457  23.074  1.00  0.00     0.063 H 
ATOM     43  C   UNL A   1      37.273  23.306  24.523  1.00  0.00    -0.062 A 
ATOM     44  H   UNL A   1      37.434  24.029  26.497  1.00  0.00     0.062 H 
ATOM     45  H   UNL A   1      36.757  22.578  22.613  1.00  0.00     0.062 H 
ATOM     46  H   UNL A   1      38.286  23.348  24.331  1.00  0.00     0.062 H 
ENDBRANCH  24  36
ENDBRANCH  17  20
ENDBRANCH  14  17
ENDBRANCH  11  14
ENDBRANCH   9  11
ENDBRANCH   4   7
ENDBRANCH   1   4
BRANCH   1  47
ATOM     47  C   UNL A   1      32.983  29.198  24.057  1.00  0.00    -0.052 C 
ATOM     48  H   UNL A   1      32.258  29.082  23.278  1.00  0.00     0.027 H 
ATOM     49  H   UNL A   1      33.517  30.124  24.014  1.00  0.00     0.027 H 
BRANCH  47  50
ATOM     50  C   UNL A   1      32.240  29.203  25.394  1.00  0.00    -0.052 C 
ATOM     51  H   UNL A   1      32.900  28.819  26.144  1.00  0.00     0.027 H 
ATOM     52  H   UNL A   1      31.365  28.602  25.258  1.00  0.00     0.027 H 
BRANCH  50  53
ATOM     53  C   UNL A   1      31.754  30.580  25.846  1.00  0.00    -0.036 C 
ATOM     54  H   UNL A   1      30.704  30.515  26.042  1.00  0.00     0.028 H 
ATOM     55  H   UNL A   1      31.991  31.260  25.055  1.00  0.00     0.028 H 
BRANCH  53  56
ATOM     56  C   UNL A   1      32.440  31.114  27.098  1.00  0.00     0.018 C 
ATOM     57  H   UNL A   1      33.398  30.646  27.189  1.00  0.00     0.049 H 
ATOM     58  H   UNL A   1      31.809  30.890  27.933  1.00  0.00     0.049 H 
BRANCH  56  59
ATOM     59  N   UNL A   1      32.626  32.556  27.062  1.00  0.00    -0.352 N 
ATOM     60  C   UNL A   1      33.614  33.310  27.643  1.00  0.00     0.251 C 
ATOM     61  H   UNL A   1      31.951  33.060  26.552  1.00  0.00     0.163 HD
ATOM     62  O   UNL A   1      33.536  34.537  27.651  1.00  0.00    -0.269 OA
BRANCH  60  63
ATOM     63  C   UNL A   1      34.764  32.641  28.285  1.00  0.00     0.039 A 
ATOM     64  C   UNL A   1      35.995  33.301  28.323  1.00  0.00    -0.049 A 
ATOM     65  C   UNL A   1      34.631  31.368  28.847  1.00  0.00    -0.049 A 
ATOM     66  C   UNL A   1      37.082  32.701  28.963  1.00  0.00    -0.053 A 
ATOM     67  H   UNL A   1      36.101  34.227  27.878  1.00  0.00     0.063 H 
ATOM     68  C   UNL A   1      35.691  30.809  29.555  1.00  0.00    -0.053 A 
ATOM     69  H   UNL A   1      33.749  30.844  28.737  1.00  0.00     0.063 H 
ATOM     70  C   UNL A   1      36.932  31.462  29.607  1.00  0.00    -0.014 A 
ATOM     71  H   UNL A   1      38.000  33.173  28.964  1.00  0.00     0.063 H 
ATOM     72  H   UNL A   1      35.564  29.909  30.043  1.00  0.00     0.063 H 
BRANCH  70  73
ATOM     73  C   UNL A   1      38.075  30.814  30.300  1.00  0.00     0.031 A 
ATOM     74  C   UNL A   1      38.373  31.158  31.735  1.00  0.00     0.074 A 
ATOM     75  C   UNL A   1      38.866  29.950  29.634  1.00  0.00     0.049 A 
ATOM     76  N   UNL A   1      39.358  30.756  32.498  1.00  0.00    -0.248 NA
ATOM     77  C   UNL A   1      37.455  32.103  32.393  1.00  0.00    -0.034 C 
ATOM     78  C   UNL A   1      38.707  29.567  28.230  1.00  0.00    -0.036 A 
ATOM     79  N   UNL A   1      39.968  29.244  30.048  1.00  0.00    -0.354 N 
ATOM     80  C   UNL A   1      39.177  31.396  33.718  1.00  0.00     0.074 A 
ATOM     81  C   UNL A   1      38.032  32.269  33.573  1.00  0.00    -0.034 C 
ATOM     82  H   UNL A   1      36.585  32.525  32.030  1.00  0.00     0.065 H 
ATOM     83  C   UNL A   1      39.666  28.685  27.905  1.00  0.00    -0.036 A 
ATOM     84  H   UNL A   1      37.977  29.920  27.592  1.00  0.00     0.065 H 
ATOM     85  C   UNL A   1      40.527  28.467  29.063  1.00  0.00     0.049 A 
ATOM     86  H   UNL A   1      40.325  29.291  30.965  1.00  0.00     0.167 HD
ATOM     87  C   UNL A   1      39.878  31.245  34.866  1.00  0.00     0.037 A 
ATOM     88  H   UNL A   1      37.709  32.932  34.294  1.00  0.00     0.065 H 
ATOM     89  H   UNL A   1      39.776  28.233  26.983  1.00  0.00     0.065 H 
ATOM     90  C   UNL A   1      41.615  27.674  29.093  1.00  0.00     0.037 A 
ATOM     91  C   UNL A   1      41.008  30.366  35.013  1.00  0.00     0.049 A 
ATOM     92  C   UNL A   1      42.386  27.536  30.380  1.00  0.00     0.074 A 
ATOM     93  C   UNL A   1      41.783  30.135  36.137  1.00  0.00    -0.036 A 
ATOM     94  N   UNL A   1      41.521  29.566  34.003  1.00  0.00    -0.354 N 
ATOM     95  N   UNL A   1      42.176  28.111  31.539  1.00  0.00    -0.248 NA
ATOM     96  C   UNL A   1      43.538  26.624  30.367  1.00  0.00    -0.034 C 
ATOM     97  C   UNL A   1      42.785  29.222  35.796  1.00  0.00    -0.036 A 
ATOM     98  H   UNL A   1      41.644  30.562  37.066  1.00  0.00     0.065 H 
ATOM     99  C   UNL A   1      42.602  28.841  34.477  1.00  0.00     0.049 A 
ATOM    100  H   UNL A   1      41.170  29.522  33.084  1.00  0.00     0.167 HD
ATOM    101  C   UNL A   1      43.137  27.598  32.400  1.00  0.00     0.074 A 
ATOM    102  C   UNL A   1      43.923  26.655  31.634  1.00  0.00    -0.034 C 
ATOM    103  H   UNL A   1      43.942  26.095  29.577  1.00  0.00     0.065 H 
ATOM    104  H   UNL A   1      43.535  28.887  36.422  1.00  0.00     0.065 H 
ATOM    105  C   UNL A   1      43.352  27.883  33.708  1.00  0.00     0.037 A 
ATOM    106  H   UNL A   1      44.685  26.080  32.024  1.00  0.00     0.065 H 
BRANCH  87 107
ATOM    107  C   UNL A   1      39.428  32.030  36.063  1.00  0.00     0.064 A 
ATOM    108  C   UNL A   1      39.992  33.280  36.370  1.00  0.00     0.173 A 
ATOM    109  C   UNL A   1      38.393  31.560  36.885  1.00  0.00     0.173 A 
ATOM    110  F   UNL A   1      40.993  33.769  35.624  1.00  0.00    -0.203 F 
ATOM    111  C   UNL A   1      39.553  34.015  37.467  1.00  0.00     0.198 A 
ATOM    112  C   UNL A   1      37.935  32.315  37.962  1.00  0.00     0.198 A 
ATOM    113  F   UNL A   1      37.816  30.375  36.635  1.00  0.00    -0.203 F 
ATOM    114  F   UNL A   1      40.138  35.184  37.765  1.00  0.00    -0.200 F 
ATOM    115  C   UNL A   1      38.519  33.537  38.256  1.00  0.00     0.200 A 
ATOM    116  F   UNL A   1      36.924  31.858  38.716  1.00  0.00    -0.200 F 
ATOM    117  F   UNL A   1      38.087  34.254  39.303  1.00  0.00    -0.200 F 
ENDBRANCH  87 107
BRANCH  90 118
ATOM    118  C   UNL A   1      42.042  26.936  27.873  1.00  0.00     0.064 A 
ATOM    119  C   UNL A   1      41.580  25.636  27.614  1.00  0.00     0.173 A 
ATOM    120  C   UNL A   1      42.956  27.494  26.967  1.00  0.00     0.173 A 
ATOM    121  F   UNL A   1      40.719  25.051  28.460  1.00  0.00    -0.203 F 
ATOM    122  C   UNL A   1      42.048  24.909  26.522  1.00  0.00     0.198 A 
ATOM    123  C   UNL A   1      43.396  26.777  25.855  1.00  0.00     0.198 A 
ATOM    124  F   UNL A   1      43.424  28.735  27.162  1.00  0.00    -0.203 F 
ATOM    125  F   UNL A   1      41.645  23.644  26.339  1.00  0.00    -0.200 F 
ATOM    126  C   UNL A   1      42.955  25.481  25.641  1.00  0.00     0.200 A 
ATOM    127  F   UNL A   1      44.259  27.340  24.998  1.00  0.00    -0.200 F 
ATOM    128  F   UNL A   1      43.412  24.778  24.596  1.00  0.00    -0.200 F 
ENDBRANCH  90 118
BRANCH 105 129
ATOM    129  C   UNL A   1      44.431  27.112  34.413  1.00  0.00     0.064 A 
ATOM    130  C   UNL A   1      44.186  25.866  35.010  1.00  0.00     0.173 A 
ATOM    131  C   UNL A   1      45.739  27.620  34.467  1.00  0.00     0.173 A 
ATOM    132  F   UNL A   1      42.952  25.342  34.997  1.00  0.00    -0.203 F 
ATOM    133  C   UNL A   1      45.202  25.177  35.669  1.00  0.00     0.198 A 
ATOM    134  C   UNL A   1      46.759  26.911  35.096  1.00  0.00     0.198 A 
ATOM    135  F   UNL A   1      46.030  28.802  33.904  1.00  0.00    -0.203 F 
ATOM    136  F   UNL A   1      44.931  24.018  36.284  1.00  0.00    -0.200 F 
ATOM    137  C   UNL A   1      46.487  25.696  35.706  1.00  0.00     0.200 A 
ATOM    138  F   UNL A   1      48.004  27.407  35.115  1.00  0.00    -0.200 F 
ATOM    139  F   UNL A   1      47.463  25.029  36.336  1.00  0.00    -0.200 F 
ENDBRANCH 105 129
ENDBRANCH  70  73
ENDBRANCH  60  63
ENDBRANCH  56  59
ENDBRANCH  53  56
ENDBRANCH  50  53
ENDBRANCH  47  50
ENDBRANCH   1  47
TORSDOF 18
ENDMDL
MODEL 4
REMARK VINA RESULT:     -12.2      0.844      7.178
REMARK SMILES O=C(CCCc1nc(-c2ccc(Cl)c(Cl)c2)c(-c2ccccc2)o1)NCCCCCCNC(=O)c1ccc(-c2c3nc(c(-c4c(F)c(F)c(F)c(F)c4F)c4ccc([nH]4)c(-c4c(F)c(F)c(F)c(F)c4F)c4nc(c(-c5c(F)c(F)c(F)c(F)c5F)c5ccc2[nH]5)C=C4)C=C3)cc1
REMARK SMILES IDX 27 1 26 4 25 7 1 8 2 9 3 11 4 14 5 17 6 20 7 21 24 22 8 23
REMARK SMILES IDX 17 24 9 25 10 26 16 27 11 28 14 30 12 32 15 34 13 35 18 36
REMARK SMILES IDX 19 37 23 38 20 39 22 41 21 43 28 47 29 50 30 53 31 56 32 59
REMARK SMILES IDX 33 60 34 62 35 63 36 64 97 65 37 66 96 68 38 70 39 73 40 74
REMARK SMILES IDX 90 75 41 76 95 77 89 78 91 79 42 80 94 81 88 83 87 85 43 87
REMARK SMILES IDX 75 90 55 91 74 92 56 93 59 94 73 95 92 96 57 97 58 99 72 101
REMARK SMILES IDX 93 102 60 105 44 107 45 108 53 109 46 110 47 111 51 112
REMARK SMILES IDX 54 113 48 114 49 115 52 116 50 117 76 118 77 119 85 120
REMARK SMILES IDX 78 121 79 122 83 123 86 124 80 125 81 126 84 127 82 128
REMARK SMILES IDX 61 129 62 130 70 131 63 132 64 133 68 134 71 135 65 136
REMARK SMILES IDX 66 137 69 138 67 139
REMARK H PARENT 27 2 27 3 26 5 26 6 25 10 3 12 3 13 4 15 4 16 5 18 5 19 10 29
REMARK H PARENT 16 31 11 33 19 40 23 42 20 44 22 45 21 46 28 48 28 49 29 51
REMARK H PARENT 29 52 30 54 30 55 31 57 31 58 32 61 36 67 97 69 37 71 96 72
REMARK H PARENT 95 82 89 84 91 86 94 88 88 89 56 98 59 100 92 103 57 104
REMARK H PARENT 93 106
REMARK Flexibility Score: inf
ROOT
ATOM      1  C   UNL A   1      36.562  23.495  26.076  1.00  0.00    -0.036 C 
ATOM      2  H   UNL A   1      36.021  22.810  26.693  1.00  0.00     0.028 H 
ATOM      3  H   UNL A   1      37.167  24.180  26.632  1.00  0.00     0.028 H 
ENDROOT
BRANCH   1   4
ATOM      4  C   UNL A   1      35.550  24.343  25.307  1.00  0.00     0.017 C 
ATOM      5  H   UNL A   1      35.192  25.121  25.950  1.00  0.00     0.049 H 
ATOM      6  H   UNL A   1      36.042  24.748  24.447  1.00  0.00     0.049 H 
BRANCH   4   7
ATOM      7  N   UNL A   1      34.424  23.558  24.850  1.00  0.00    -0.356 N 
ATOM      8  O   UNL A   1      35.146  23.346  22.682  1.00  0.00    -0.275 OA
ATOM      9  C   UNL A   1      34.320  23.107  23.558  1.00  0.00     0.220 C 
ATOM     10  H   UNL A   1      33.707  23.341  25.489  1.00  0.00     0.163 HD
BRANCH   9  11
ATOM     11  C   UNL A   1      33.087  22.270  23.293  1.00  0.00     0.027 C 
ATOM     12  H   UNL A   1      32.835  21.743  24.189  1.00  0.00     0.037 H 
ATOM     13  H   UNL A   1      33.321  21.604  22.488  1.00  0.00     0.037 H 
BRANCH  11  14
ATOM     14  C   UNL A   1      31.875  23.102  22.859  1.00  0.00    -0.036 C 
ATOM     15  H   UNL A   1      31.316  22.520  22.157  1.00  0.00     0.028 H 
ATOM     16  H   UNL A   1      32.282  24.008  22.458  1.00  0.00     0.028 H 
BRANCH  14  17
ATOM     17  C   UNL A   1      30.918  23.540  23.972  1.00  0.00     0.025 C 
ATOM     18  H   UNL A   1      31.209  23.061  24.883  1.00  0.00     0.037 H 
ATOM     19  H   UNL A   1      29.928  23.261  23.676  1.00  0.00     0.037 H 
BRANCH  17  20
ATOM     20  C   UNL A   1      30.924  25.010  24.186  1.00  0.00     0.195 A 
ATOM     21  N   UNL A   1      31.761  25.706  24.932  1.00  0.00    -0.213 NA
ATOM     22  O   UNL A   1      30.022  25.759  23.480  1.00  0.00    -0.440 OA
ATOM     23  C   UNL A   1      31.358  27.004  24.743  1.00  0.00     0.117 A 
ATOM     24  C   UNL A   1      30.329  27.050  23.823  1.00  0.00     0.162 A 
BRANCH  23  25
ATOM     25  C   UNL A   1      31.954  28.147  25.395  1.00  0.00     0.006 A 
ATOM     26  C   UNL A   1      31.235  29.338  25.525  1.00  0.00    -0.051 A 
ATOM     27  C   UNL A   1      33.247  28.058  25.931  1.00  0.00    -0.032 A 
ATOM     28  C   UNL A   1      31.788  30.420  26.216  1.00  0.00    -0.041 A 
ATOM     29  H   UNL A   1      30.293  29.419  25.109  1.00  0.00     0.063 H 
ATOM     30  C   UNL A   1      33.806  29.144  26.615  1.00  0.00     0.060 A 
ATOM     31  H   UNL A   1      33.790  27.188  25.819  1.00  0.00     0.065 H 
ATOM     32  C   UNL A   1      33.071  30.323  26.766  1.00  0.00     0.059 A 
ATOM     33  H   UNL A   1      31.249  31.293  26.321  1.00  0.00     0.064 H 
ATOM     34  Cl  UNL A   1      35.399  28.953  27.254  1.00  0.00    -0.083 Cl
ATOM     35  Cl  UNL A   1      33.685  31.693  27.623  1.00  0.00    -0.083 Cl
ENDBRANCH  23  25
BRANCH  24  36
ATOM     36  C   UNL A   1      29.603  28.108  23.153  1.00  0.00     0.020 A 
ATOM     37  C   UNL A   1      28.230  28.280  23.355  1.00  0.00    -0.051 A 
ATOM     38  C   UNL A   1      30.292  29.012  22.330  1.00  0.00    -0.051 A 
ATOM     39  C   UNL A   1      27.562  29.351  22.757  1.00  0.00    -0.062 A 
ATOM     40  H   UNL A   1      27.709  27.614  23.947  1.00  0.00     0.063 H 
ATOM     41  C   UNL A   1      29.622  30.075  21.726  1.00  0.00    -0.062 A 
ATOM     42  H   UNL A   1      31.305  28.888  22.171  1.00  0.00     0.063 H 
ATOM     43  C   UNL A   1      28.258  30.247  21.946  1.00  0.00    -0.062 A 
ATOM     44  H   UNL A   1      26.550  29.480  22.916  1.00  0.00     0.062 H 
ATOM     45  H   UNL A   1      30.136  30.732  21.119  1.00  0.00     0.062 H 
ATOM     46  H   UNL A   1      27.761  31.038  21.507  1.00  0.00     0.062 H 
ENDBRANCH  24  36
ENDBRANCH  17  20
ENDBRANCH  14  17
ENDBRANCH  11  14
ENDBRANCH   9  11
ENDBRANCH   4   7
ENDBRANCH   1   4
BRANCH   1  47
ATOM     47  C   UNL A   1      37.526  22.686  25.199  1.00  0.00    -0.052 C 
ATOM     48  H   UNL A   1      38.502  22.753  25.634  1.00  0.00     0.027 H 
ATOM     49  H   UNL A   1      37.461  23.112  24.220  1.00  0.00     0.027 H 
BRANCH  47  50
ATOM     50  C   UNL A   1      37.183  21.204  25.036  1.00  0.00    -0.052 C 
ATOM     51  H   UNL A   1      36.608  21.091  24.142  1.00  0.00     0.027 H 
ATOM     52  H   UNL A   1      36.647  20.917  25.918  1.00  0.00     0.027 H 
BRANCH  50  53
ATOM     53  C   UNL A   1      38.396  20.278  24.946  1.00  0.00    -0.036 C 
ATOM     54  H   UNL A   1      39.081  20.695  24.237  1.00  0.00     0.028 H 
ATOM     55  H   UNL A   1      38.025  19.319  24.655  1.00  0.00     0.028 H 
BRANCH  53  56
ATOM     56  C   UNL A   1      39.137  20.076  26.262  1.00  0.00     0.018 C 
ATOM     57  H   UNL A   1      38.463  19.644  26.972  1.00  0.00     0.049 H 
ATOM     58  H   UNL A   1      39.491  21.033  26.584  1.00  0.00     0.049 H 
BRANCH  56  59
ATOM     59  N   UNL A   1      40.292  19.203  26.126  1.00  0.00    -0.352 N 
ATOM     60  C   UNL A   1      41.623  19.534  26.114  1.00  0.00     0.251 C 
ATOM     61  H   UNL A   1      40.092  18.243  26.028  1.00  0.00     0.163 HD
ATOM     62  O   UNL A   1      42.472  18.690  25.828  1.00  0.00    -0.269 OA
BRANCH  60  63
ATOM     63  C   UNL A   1      42.036  20.918  26.422  1.00  0.00     0.039 A 
ATOM     64  C   UNL A   1      42.151  21.837  25.376  1.00  0.00    -0.049 A 
ATOM     65  C   UNL A   1      42.312  21.310  27.735  1.00  0.00    -0.049 A 
ATOM     66  C   UNL A   1      42.499  23.161  25.654  1.00  0.00    -0.053 A 
ATOM     67  H   UNL A   1      41.980  21.540  24.402  1.00  0.00     0.063 H 
ATOM     68  C   UNL A   1      42.579  22.646  28.019  1.00  0.00    -0.053 A 
ATOM     69  H   UNL A   1      42.318  20.609  28.492  1.00  0.00     0.063 H 
ATOM     70  C   UNL A   1      42.691  23.582  26.980  1.00  0.00    -0.014 A 
ATOM     71  H   UNL A   1      42.616  23.834  24.880  1.00  0.00     0.063 H 
ATOM     72  H   UNL A   1      42.695  22.949  28.998  1.00  0.00     0.063 H 
BRANCH  70  73
ATOM     73  C   UNL A   1      43.053  24.988  27.295  1.00  0.00     0.031 A 
ATOM     74  C   UNL A   1      44.442  25.488  27.001  1.00  0.00     0.074 A 
ATOM     75  C   UNL A   1      42.150  25.802  27.878  1.00  0.00     0.049 A 
ATOM     76  N   UNL A   1      44.976  26.655  27.260  1.00  0.00    -0.248 NA
ATOM     77  C   UNL A   1      45.363  24.539  26.354  1.00  0.00    -0.034 C 
ATOM     78  C   UNL A   1      40.787  25.424  28.252  1.00  0.00    -0.036 A 
ATOM     79  N   UNL A   1      42.250  27.114  28.268  1.00  0.00    -0.354 N 
ATOM     80  C   UNL A   1      46.288  26.579  26.809  1.00  0.00     0.074 A 
ATOM     81  C   UNL A   1      46.493  25.230  26.327  1.00  0.00    -0.034 C 
ATOM     82  H   UNL A   1      45.177  23.584  26.009  1.00  0.00     0.065 H 
ATOM     83  C   UNL A   1      40.172  26.485  28.801  1.00  0.00    -0.036 A 
ATOM     84  H   UNL A   1      40.365  24.492  28.116  1.00  0.00     0.065 H 
ATOM     85  C   UNL A   1      41.107  27.604  28.852  1.00  0.00     0.049 A 
ATOM     86  H   UNL A   1      43.064  27.654  28.142  1.00  0.00     0.167 HD
ATOM     87  C   UNL A   1      47.227  27.553  26.766  1.00  0.00     0.037 A 
ATOM     88  H   UNL A   1      47.399  24.856  26.006  1.00  0.00     0.065 H 
ATOM     89  H   UNL A   1      39.195  26.504  29.134  1.00  0.00     0.065 H 
ATOM     90  C   UNL A   1      40.848  28.818  29.375  1.00  0.00     0.037 A 
ATOM     91  C   UNL A   1      47.019  28.898  27.232  1.00  0.00     0.049 A 
ATOM     92  C   UNL A   1      41.917  29.879  29.328  1.00  0.00     0.074 A 
ATOM     93  C   UNL A   1      47.903  29.962  27.226  1.00  0.00    -0.036 A 
ATOM     94  N   UNL A   1      45.834  29.366  27.783  1.00  0.00    -0.354 N 
ATOM     95  N   UNL A   1      43.138  29.807  28.855  1.00  0.00    -0.248 NA
ATOM     96  C   UNL A   1      41.565  31.198  29.872  1.00  0.00    -0.034 C 
ATOM     97  C   UNL A   1      47.266  31.064  27.805  1.00  0.00    -0.036 A 
ATOM     98  H   UNL A   1      48.867  29.945  26.857  1.00  0.00     0.065 H 
ATOM     99  C   UNL A   1      45.966  30.703  28.120  1.00  0.00     0.049 A 
ATOM    100  H   UNL A   1      45.021  28.827  27.915  1.00  0.00     0.167 HD
ATOM    101  C   UNL A   1      43.681  31.076  29.005  1.00  0.00     0.074 A 
ATOM    102  C   UNL A   1      42.653  31.903  29.599  1.00  0.00    -0.034 C 
ATOM    103  H   UNL A   1      40.697  31.497  30.344  1.00  0.00     0.065 H 
ATOM    104  H   UNL A   1      47.693  31.990  27.969  1.00  0.00     0.065 H 
ATOM    105  C   UNL A   1      44.921  31.519  28.681  1.00  0.00     0.037 A 
ATOM    106  H   UNL A   1      42.753  32.912  29.785  1.00  0.00     0.065 H 
BRANCH  87 107
ATOM    107  C   UNL A   1      48.561  27.205  26.172  1.00  0.00     0.064 A 
ATOM    108  C   UNL A   1      49.604  26.700  26.966  1.00  0.00     0.173 A 
ATOM    109  C   UNL A   1      48.790  27.330  24.794  1.00  0.00     0.173 A 
ATOM    110  F   UNL A   1      49.441  26.573  28.292  1.00  0.00    -0.203 F 
ATOM    111  C   UNL A   1      50.830  26.355  26.406  1.00  0.00     0.198 A 
ATOM    112  C   UNL A   1      50.008  26.953  24.233  1.00  0.00     0.198 A 
ATOM    113  F   UNL A   1      47.827  27.803  23.988  1.00  0.00    -0.203 F 
ATOM    114  F   UNL A   1      51.824  25.917  27.192  1.00  0.00    -0.200 F 
ATOM    115  C   UNL A   1      51.028  26.473  25.039  1.00  0.00     0.200 A 
ATOM    116  F   UNL A   1      50.194  27.054  22.909  1.00  0.00    -0.200 F 
ATOM    117  F   UNL A   1      52.205  26.126  24.499  1.00  0.00    -0.200 F 
ENDBRANCH  87 107
BRANCH  90 118
ATOM    118  C   UNL A   1      39.520  29.110  29.980  1.00  0.00     0.064 A 
ATOM    119  C   UNL A   1      38.559  29.863  29.289  1.00  0.00     0.173 A 
ATOM    120  C   UNL A   1      39.202  28.683  31.278  1.00  0.00     0.173 A 
ATOM    121  F   UNL A   1      38.822  30.310  28.052  1.00  0.00    -0.203 F 
ATOM    122  C   UNL A   1      37.351  30.214  29.888  1.00  0.00     0.198 A 
ATOM    123  C   UNL A   1      37.978  29.006  31.862  1.00  0.00     0.198 A 
ATOM    124  F   UNL A   1      40.081  27.954  31.980  1.00  0.00    -0.203 F 
ATOM    125  F   UNL A   1      36.483  30.995  29.231  1.00  0.00    -0.200 F 
ATOM    126  C   UNL A   1      37.060  29.784  31.174  1.00  0.00     0.200 A 
ATOM    127  F   UNL A   1      37.695  28.574  33.098  1.00  0.00    -0.200 F 
ATOM    128  F   UNL A   1      35.903  30.129  31.752  1.00  0.00    -0.200 F 
ENDBRANCH  90 118
BRANCH 105 129
ATOM    129  C   UNL A   1      45.209  32.978  28.891  1.00  0.00     0.064 A 
ATOM    130  C   UNL A   1      44.922  33.941  27.912  1.00  0.00     0.173 A 
ATOM    131  C   UNL A   1      45.758  33.419  30.105  1.00  0.00     0.173 A 
ATOM    132  F   UNL A   1      44.408  33.570  26.730  1.00  0.00    -0.203 F 
ATOM    133  C   UNL A   1      45.211  35.286  28.127  1.00  0.00     0.198 A 
ATOM    134  C   UNL A   1      46.012  34.769  30.330  1.00  0.00     0.198 A 
ATOM    135  F   UNL A   1      46.042  32.541  31.079  1.00  0.00    -0.203 F 
ATOM    136  F   UNL A   1      44.985  36.180  27.155  1.00  0.00    -0.200 F 
ATOM    137  C   UNL A   1      45.749  35.700  29.337  1.00  0.00     0.200 A 
ATOM    138  F   UNL A   1      46.516  35.168  31.506  1.00  0.00    -0.200 F 
ATOM    139  F   UNL A   1      46.021  36.996  29.542  1.00  0.00    -0.200 F 
ENDBRANCH 105 129
ENDBRANCH  70  73
ENDBRANCH  60  63
ENDBRANCH  56  59
ENDBRANCH  53  56
ENDBRANCH  50  53
ENDBRANCH  47  50
ENDBRANCH   1  47
TORSDOF 18
ENDMDL
MODEL 5
REMARK VINA RESULT:     -12.2      4.047      8.238
REMARK SMILES O=C(CCCc1nc(-c2ccc(Cl)c(Cl)c2)c(-c2ccccc2)o1)NCCCCCCNC(=O)c1ccc(-c2c3nc(c(-c4c(F)c(F)c(F)c(F)c4F)c4ccc([nH]4)c(-c4c(F)c(F)c(F)c(F)c4F)c4nc(c(-c5c(F)c(F)c(F)c(F)c5F)c5ccc2[nH]5)C=C4)C=C3)cc1
REMARK SMILES IDX 27 1 26 4 25 7 1 8 2 9 3 11 4 14 5 17 6 20 7 21 24 22 8 23
REMARK SMILES IDX 17 24 9 25 10 26 16 27 11 28 14 30 12 32 15 34 13 35 18 36
REMARK SMILES IDX 19 37 23 38 20 39 22 41 21 43 28 47 29 50 30 53 31 56 32 59
REMARK SMILES IDX 33 60 34 62 35 63 36 64 97 65 37 66 96 68 38 70 39 73 40 74
REMARK SMILES IDX 90 75 41 76 95 77 89 78 91 79 42 80 94 81 88 83 87 85 43 87
REMARK SMILES IDX 75 90 55 91 74 92 56 93 59 94 73 95 92 96 57 97 58 99 72 101
REMARK SMILES IDX 93 102 60 105 44 107 45 108 53 109 46 110 47 111 51 112
REMARK SMILES IDX 54 113 48 114 49 115 52 116 50 117 76 118 77 119 85 120
REMARK SMILES IDX 78 121 79 122 83 123 86 124 80 125 81 126 84 127 82 128
REMARK SMILES IDX 61 129 62 130 70 131 63 132 64 133 68 134 71 135 65 136
REMARK SMILES IDX 66 137 69 138 67 139
REMARK H PARENT 27 2 27 3 26 5 26 6 25 10 3 12 3 13 4 15 4 16 5 18 5 19 10 29
REMARK H PARENT 16 31 11 33 19 40 23 42 20 44 22 45 21 46 28 48 28 49 29 51
REMARK H PARENT 29 52 30 54 30 55 31 57 31 58 32 61 36 67 97 69 37 71 96 72
REMARK H PARENT 95 82 89 84 91 86 94 88 88 89 56 98 59 100 92 103 57 104
REMARK H PARENT 93 106
REMARK Flexibility Score: inf
ROOT
ATOM      1  C   UNL A   1      33.660  28.643  23.371  1.00  0.00    -0.036 C 
ATOM      2  H   UNL A   1      34.000  29.320  22.616  1.00  0.00     0.028 H 
ATOM      3  H   UNL A   1      34.336  28.553  24.195  1.00  0.00     0.028 H 
ENDROOT
BRANCH   1   4
ATOM      4  C   UNL A   1      33.556  27.252  22.748  1.00  0.00     0.017 C 
ATOM      5  H   UNL A   1      33.371  27.355  21.699  1.00  0.00     0.049 H 
ATOM      6  H   UNL A   1      34.477  26.737  22.930  1.00  0.00     0.049 H 
BRANCH   4   7
ATOM      7  N   UNL A   1      32.486  26.476  23.337  1.00  0.00    -0.356 N 
ATOM      8  O   UNL A   1      31.054  26.653  21.553  1.00  0.00    -0.275 OA
ATOM      9  C   UNL A   1      31.309  26.227  22.674  1.00  0.00     0.220 C 
ATOM     10  H   UNL A   1      32.606  26.115  24.245  1.00  0.00     0.163 HD
BRANCH   9  11
ATOM     11  C   UNL A   1      30.337  25.362  23.448  1.00  0.00     0.027 C 
ATOM     12  H   UNL A   1      30.744  24.376  23.523  1.00  0.00     0.037 H 
ATOM     13  H   UNL A   1      29.409  25.373  22.915  1.00  0.00     0.037 H 
BRANCH  11  14
ATOM     14  C   UNL A   1      30.058  25.885  24.861  1.00  0.00    -0.036 C 
ATOM     15  H   UNL A   1      29.060  26.270  24.874  1.00  0.00     0.028 H 
ATOM     16  H   UNL A   1      30.817  26.616  25.049  1.00  0.00     0.028 H 
BRANCH  14  17
ATOM     17  C   UNL A   1      30.181  24.867  25.999  1.00  0.00     0.025 C 
ATOM     18  H   UNL A   1      29.228  24.403  26.149  1.00  0.00     0.037 H 
ATOM     19  H   UNL A   1      30.506  25.395  26.872  1.00  0.00     0.037 H 
BRANCH  17  20
ATOM     20  C   UNL A   1      31.184  23.809  25.715  1.00  0.00     0.195 A 
ATOM     21  N   UNL A   1      30.952  22.533  25.468  1.00  0.00    -0.213 NA
ATOM     22  O   UNL A   1      32.494  24.187  25.612  1.00  0.00    -0.440 OA
ATOM     23  C   UNL A   1      32.201  22.020  25.228  1.00  0.00     0.117 A 
ATOM     24  C   UNL A   1      33.142  23.029  25.268  1.00  0.00     0.162 A 
BRANCH  23  25
ATOM     25  C   UNL A   1      32.472  20.628  24.947  1.00  0.00     0.006 A 
ATOM     26  C   UNL A   1      32.872  19.768  25.973  1.00  0.00    -0.051 A 
ATOM     27  C   UNL A   1      32.304  20.126  23.649  1.00  0.00    -0.032 A 
ATOM     28  C   UNL A   1      33.067  18.409  25.712  1.00  0.00    -0.041 A 
ATOM     29  H   UNL A   1      33.024  20.137  26.925  1.00  0.00     0.063 H 
ATOM     30  C   UNL A   1      32.508  18.767  23.384  1.00  0.00     0.060 A 
ATOM     31  H   UNL A   1      32.029  20.761  22.884  1.00  0.00     0.065 H 
ATOM     32  C   UNL A   1      32.881  17.905  24.419  1.00  0.00     0.059 A 
ATOM     33  H   UNL A   1      33.350  17.774  26.475  1.00  0.00     0.064 H 
ATOM     34  Cl  UNL A   1      32.271  18.223  21.762  1.00  0.00    -0.083 Cl
ATOM     35  Cl  UNL A   1      33.121  16.212  24.173  1.00  0.00    -0.083 Cl
ENDBRANCH  23  25
BRANCH  24  36
ATOM     36  C   UNL A   1      34.559  23.118  24.983  1.00  0.00     0.020 A 
ATOM     37  C   UNL A   1      35.059  22.814  23.713  1.00  0.00    -0.051 A 
ATOM     38  C   UNL A   1      35.443  23.566  25.976  1.00  0.00    -0.051 A 
ATOM     39  C   UNL A   1      36.419  22.976  23.436  1.00  0.00    -0.062 A 
ATOM     40  H   UNL A   1      34.422  22.470  22.977  1.00  0.00     0.063 H 
ATOM     41  C   UNL A   1      36.801  23.718  25.702  1.00  0.00    -0.062 A 
ATOM     42  H   UNL A   1      35.082  23.786  26.919  1.00  0.00     0.063 H 
ATOM     43  C   UNL A   1      37.287  23.428  24.430  1.00  0.00    -0.062 A 
ATOM     44  H   UNL A   1      36.782  22.760  22.495  1.00  0.00     0.062 H 
ATOM     45  H   UNL A   1      37.444  24.045  26.440  1.00  0.00     0.062 H 
ATOM     46  H   UNL A   1      38.291  23.548  24.222  1.00  0.00     0.062 H 
ENDBRANCH  24  36
ENDBRANCH  17  20
ENDBRANCH  14  17
ENDBRANCH  11  14
ENDBRANCH   9  11
ENDBRANCH   4   7
ENDBRANCH   1   4
BRANCH   1  47
ATOM     47  C   UNL A   1      32.351  29.192  23.949  1.00  0.00    -0.052 C 
ATOM     48  H   UNL A   1      31.551  28.566  23.608  1.00  0.00     0.027 H 
ATOM     49  H   UNL A   1      32.280  30.204  23.609  1.00  0.00     0.027 H 
BRANCH  47  50
ATOM     50  C   UNL A   1      32.280  29.255  25.476  1.00  0.00    -0.052 C 
ATOM     51  H   UNL A   1      31.249  29.257  25.763  1.00  0.00     0.027 H 
ATOM     52  H   UNL A   1      32.798  30.145  25.768  1.00  0.00     0.027 H 
BRANCH  50  53
ATOM     53  C   UNL A   1      32.973  28.096  26.192  1.00  0.00    -0.036 C 
ATOM     54  H   UNL A   1      33.444  27.482  25.453  1.00  0.00     0.028 H 
ATOM     55  H   UNL A   1      32.214  27.581  26.741  1.00  0.00     0.028 H 
BRANCH  53  56
ATOM     56  C   UNL A   1      34.030  28.519  27.205  1.00  0.00     0.018 C 
ATOM     57  H   UNL A   1      34.995  28.434  26.749  1.00  0.00     0.049 H 
ATOM     58  H   UNL A   1      33.937  27.878  28.056  1.00  0.00     0.049 H 
BRANCH  56  59
ATOM     59  N   UNL A   1      33.851  29.888  27.663  1.00  0.00    -0.352 N 
ATOM     60  C   UNL A   1      34.722  30.682  28.364  1.00  0.00     0.251 C 
ATOM     61  H   UNL A   1      32.985  30.302  27.439  1.00  0.00     0.163 HD
ATOM     62  O   UNL A   1      34.353  31.765  28.814  1.00  0.00    -0.269 OA
BRANCH  60  63
ATOM     63  C   UNL A   1      36.105  30.219  28.601  1.00  0.00     0.039 A 
ATOM     64  C   UNL A   1      37.041  30.332  27.571  1.00  0.00    -0.049 A 
ATOM     65  C   UNL A   1      36.478  29.673  29.833  1.00  0.00    -0.049 A 
ATOM     66  C   UNL A   1      38.363  29.939  27.791  1.00  0.00    -0.053 A 
ATOM     67  H   UNL A   1      36.757  30.704  26.650  1.00  0.00     0.063 H 
ATOM     68  C   UNL A   1      37.812  29.358  30.077  1.00  0.00    -0.053 A 
ATOM     69  H   UNL A   1      35.765  29.504  30.560  1.00  0.00     0.063 H 
ATOM     70  C   UNL A   1      38.765  29.473  29.053  1.00  0.00    -0.014 A 
ATOM     71  H   UNL A   1      39.049  29.992  27.022  1.00  0.00     0.063 H 
ATOM     72  H   UNL A   1      38.101  29.039  31.014  1.00  0.00     0.063 H 
BRANCH  70  73
ATOM     73  C   UNL A   1      40.169  29.059  29.308  1.00  0.00     0.031 A 
ATOM     74  C   UNL A   1      41.107  29.993  30.024  1.00  0.00     0.074 A 
ATOM     75  C   UNL A   1      40.611  27.866  28.864  1.00  0.00     0.049 A 
ATOM     76  N   UNL A   1      42.382  29.850  30.285  1.00  0.00    -0.248 NA
ATOM     77  C   UNL A   1      40.542  31.272  30.486  1.00  0.00    -0.034 C 
ATOM     78  C   UNL A   1      39.812  26.891  28.120  1.00  0.00    -0.036 A 
ATOM     79  N   UNL A   1      41.845  27.275  28.966  1.00  0.00    -0.354 N 
ATOM     80  C   UNL A   1      42.767  31.014  30.937  1.00  0.00     0.074 A 
ATOM     81  C   UNL A   1      41.612  31.885  30.968  1.00  0.00    -0.034 C 
ATOM     82  H   UNL A   1      39.566  31.605  30.445  1.00  0.00     0.065 H 
ATOM     83  C   UNL A   1      40.572  25.817  27.848  1.00  0.00    -0.036 A 
ATOM     84  H   UNL A   1      38.824  27.009  27.848  1.00  0.00     0.065 H 
ATOM     85  C   UNL A   1      41.918  26.042  28.364  1.00  0.00     0.049 A 
ATOM     86  H   UNL A   1      42.608  27.696  29.426  1.00  0.00     0.167 HD
ATOM     87  C   UNL A   1      43.964  31.318  31.492  1.00  0.00     0.037 A 
ATOM     88  H   UNL A   1      41.622  32.855  31.320  1.00  0.00     0.065 H 
ATOM     89  H   UNL A   1      40.254  24.969  27.352  1.00  0.00     0.065 H 
ATOM     90  C   UNL A   1      42.958  25.195  28.239  1.00  0.00     0.037 A 
ATOM     91  C   UNL A   1      45.109  30.447  31.473  1.00  0.00     0.049 A 
ATOM     92  C   UNL A   1      44.283  25.565  28.853  1.00  0.00     0.074 A 
ATOM     93  C   UNL A   1      46.365  30.657  32.014  1.00  0.00    -0.036 A 
ATOM     94  N   UNL A   1      45.132  29.189  30.887  1.00  0.00    -0.354 N 
ATOM     95  N   UNL A   1      44.621  26.650  29.508  1.00  0.00    -0.248 NA
ATOM     96  C   UNL A   1      45.369  24.584  28.725  1.00  0.00    -0.034 C 
ATOM     97  C   UNL A   1      47.158  29.543  31.724  1.00  0.00    -0.036 A 
ATOM     98  H   UNL A   1      46.665  31.493  32.540  1.00  0.00     0.065 H 
ATOM     99  C   UNL A   1      46.380  28.614  31.052  1.00  0.00     0.049 A 
ATOM    100  H   UNL A   1      44.373  28.769  30.421  1.00  0.00     0.167 HD
ATOM    101  C   UNL A   1      45.938  26.461  29.906  1.00  0.00     0.074 A 
ATOM    102  C   UNL A   1      46.334  25.153  29.431  1.00  0.00    -0.034 C 
ATOM    103  H   UNL A   1      45.378  23.684  28.218  1.00  0.00     0.065 H 
ATOM    104  H   UNL A   1      48.155  29.432  31.969  1.00  0.00     0.065 H 
ATOM    105  C   UNL A   1      46.748  27.297  30.601  1.00  0.00     0.037 A 
ATOM    106  H   UNL A   1      47.251  24.719  29.619  1.00  0.00     0.065 H 
BRANCH  87 107
ATOM    107  C   UNL A   1      44.091  32.642  32.189  1.00  0.00     0.064 A 
ATOM    108  C   UNL A   1      44.501  33.794  31.498  1.00  0.00     0.173 A 
ATOM    109  C   UNL A   1      43.755  32.777  33.544  1.00  0.00     0.173 A 
ATOM    110  F   UNL A   1      44.846  33.717  30.204  1.00  0.00    -0.203 F 
ATOM    111  C   UNL A   1      44.592  35.024  32.143  1.00  0.00     0.198 A 
ATOM    112  C   UNL A   1      43.815  34.016  34.177  1.00  0.00     0.198 A 
ATOM    113  F   UNL A   1      43.352  31.710  34.251  1.00  0.00    -0.203 F 
ATOM    114  F   UNL A   1      45.029  36.099  31.473  1.00  0.00    -0.200 F 
ATOM    115  C   UNL A   1      44.240  35.136  33.479  1.00  0.00     0.200 A 
ATOM    116  F   UNL A   1      43.461  34.126  35.466  1.00  0.00    -0.200 F 
ATOM    117  F   UNL A   1      44.314  36.324  34.095  1.00  0.00    -0.200 F 
ENDBRANCH  87 107
BRANCH  90 118
ATOM    118  C   UNL A   1      42.795  23.905  27.514  1.00  0.00     0.064 A 
ATOM    119  C   UNL A   1      43.084  23.801  26.145  1.00  0.00     0.173 A 
ATOM    120  C   UNL A   1      42.303  22.763  28.163  1.00  0.00     0.173 A 
ATOM    121  F   UNL A   1      43.540  24.870  25.475  1.00  0.00    -0.203 F 
ATOM    122  C   UNL A   1      42.846  22.621  25.445  1.00  0.00     0.198 A 
ATOM    123  C   UNL A   1      42.099  21.572  27.468  1.00  0.00     0.198 A 
ATOM    124  F   UNL A   1      42.017  22.804  29.472  1.00  0.00    -0.203 F 
ATOM    125  F   UNL A   1      43.063  22.573  24.124  1.00  0.00    -0.200 F 
ATOM    126  C   UNL A   1      42.355  21.506  26.107  1.00  0.00     0.200 A 
ATOM    127  F   UNL A   1      41.640  20.492  28.115  1.00  0.00    -0.200 F 
ATOM    128  F   UNL A   1      42.118  20.373  25.432  1.00  0.00    -0.200 F 
ENDBRANCH  90 118
BRANCH 105 129
ATOM    129  C   UNL A   1      48.117  26.793  30.956  1.00  0.00     0.064 A 
ATOM    130  C   UNL A   1      49.241  27.068  30.162  1.00  0.00     0.173 A 
ATOM    131  C   UNL A   1      48.309  26.043  32.127  1.00  0.00     0.173 A 
ATOM    132  F   UNL A   1      49.109  27.770  29.026  1.00  0.00    -0.203 F 
ATOM    133  C   UNL A   1      50.497  26.579  30.507  1.00  0.00     0.198 A 
ATOM    134  C   UNL A   1      49.574  25.586  32.487  1.00  0.00     0.198 A 
ATOM    135  F   UNL A   1      47.271  25.760  32.928  1.00  0.00    -0.203 F 
ATOM    136  F   UNL A   1      51.545  26.803  29.702  1.00  0.00    -0.200 F 
ATOM    137  C   UNL A   1      50.664  25.844  31.672  1.00  0.00     0.200 A 
ATOM    138  F   UNL A   1      49.735  24.891  33.622  1.00  0.00    -0.200 F 
ATOM    139  F   UNL A   1      51.876  25.378  32.004  1.00  0.00    -0.200 F 
ENDBRANCH 105 129
ENDBRANCH  70  73
ENDBRANCH  60  63
ENDBRANCH  56  59
ENDBRANCH  53  56
ENDBRANCH  50  53
ENDBRANCH  47  50
ENDBRANCH   1  47
TORSDOF 18
ENDMDL
MODEL 6
REMARK VINA RESULT:     -12.1      1.590      3.000
REMARK SMILES O=C(CCCc1nc(-c2ccc(Cl)c(Cl)c2)c(-c2ccccc2)o1)NCCCCCCNC(=O)c1ccc(-c2c3nc(c(-c4c(F)c(F)c(F)c(F)c4F)c4ccc([nH]4)c(-c4c(F)c(F)c(F)c(F)c4F)c4nc(c(-c5c(F)c(F)c(F)c(F)c5F)c5ccc2[nH]5)C=C4)C=C3)cc1
REMARK SMILES IDX 27 1 26 4 25 7 1 8 2 9 3 11 4 14 5 17 6 20 7 21 24 22 8 23
REMARK SMILES IDX 17 24 9 25 10 26 16 27 11 28 14 30 12 32 15 34 13 35 18 36
REMARK SMILES IDX 19 37 23 38 20 39 22 41 21 43 28 47 29 50 30 53 31 56 32 59
REMARK SMILES IDX 33 60 34 62 35 63 36 64 97 65 37 66 96 68 38 70 39 73 40 74
REMARK SMILES IDX 90 75 41 76 95 77 89 78 91 79 42 80 94 81 88 83 87 85 43 87
REMARK SMILES IDX 75 90 55 91 74 92 56 93 59 94 73 95 92 96 57 97 58 99 72 101
REMARK SMILES IDX 93 102 60 105 44 107 45 108 53 109 46 110 47 111 51 112
REMARK SMILES IDX 54 113 48 114 49 115 52 116 50 117 76 118 77 119 85 120
REMARK SMILES IDX 78 121 79 122 83 123 86 124 80 125 81 126 84 127 82 128
REMARK SMILES IDX 61 129 62 130 70 131 63 132 64 133 68 134 71 135 65 136
REMARK SMILES IDX 66 137 69 138 67 139
REMARK H PARENT 27 2 27 3 26 5 26 6 25 10 3 12 3 13 4 15 4 16 5 18 5 19 10 29
REMARK H PARENT 16 31 11 33 19 40 23 42 20 44 22 45 21 46 28 48 28 49 29 51
REMARK H PARENT 29 52 30 54 30 55 31 57 31 58 32 61 36 67 97 69 37 71 96 72
REMARK H PARENT 95 82 89 84 91 86 94 88 88 89 56 98 59 100 92 103 57 104
REMARK H PARENT 93 106
REMARK Flexibility Score: inf
ROOT
ATOM      1  C   UNL A   1      36.794  23.749  26.204  1.00  0.00    -0.036 C 
ATOM      2  H   UNL A   1      36.418  23.095  26.961  1.00  0.00     0.028 H 
ATOM      3  H   UNL A   1      37.236  24.642  26.595  1.00  0.00     0.028 H 
ENDROOT
BRANCH   1   4
ATOM      4  C   UNL A   1      35.620  24.197  25.336  1.00  0.00     0.017 C 
ATOM      5  H   UNL A   1      35.054  24.931  25.871  1.00  0.00     0.049 H 
ATOM      6  H   UNL A   1      36.014  24.601  24.426  1.00  0.00     0.049 H 
BRANCH   4   7
ATOM      7  N   UNL A   1      34.749  23.093  24.994  1.00  0.00    -0.356 N 
ATOM      8  O   UNL A   1      35.129  23.181  22.733  1.00  0.00    -0.275 OA
ATOM      9  C   UNL A   1      34.583  22.662  23.701  1.00  0.00     0.220 C 
ATOM     10  H   UNL A   1      34.258  22.636  25.715  1.00  0.00     0.163 HD
BRANCH   9  11
ATOM     11  C   UNL A   1      33.662  21.469  23.562  1.00  0.00     0.027 C 
ATOM     12  H   UNL A   1      33.598  20.976  24.509  1.00  0.00     0.037 H 
ATOM     13  H   UNL A   1      34.076  20.834  22.807  1.00  0.00     0.037 H 
BRANCH  11  14
ATOM     14  C   UNL A   1      32.246  21.849  23.113  1.00  0.00    -0.036 C 
ATOM     15  H   UNL A   1      31.792  20.976  22.695  1.00  0.00     0.028 H 
ATOM     16  H   UNL A   1      32.375  22.656  22.421  1.00  0.00     0.028 H 
BRANCH  14  17
ATOM     17  C   UNL A   1      31.310  22.388  24.199  1.00  0.00     0.025 C 
ATOM     18  H   UNL A   1      31.667  22.059  25.153  1.00  0.00     0.037 H 
ATOM     19  H   UNL A   1      30.328  22.016  23.994  1.00  0.00     0.037 H 
BRANCH  17  20
ATOM     20  C   UNL A   1      31.236  23.872  24.206  1.00  0.00     0.195 A 
ATOM     21  N   UNL A   1      30.426  24.635  23.496  1.00  0.00    -0.213 NA
ATOM     22  O   UNL A   1      32.026  24.544  25.098  1.00  0.00    -0.440 OA
ATOM     23  C   UNL A   1      30.733  25.905  23.914  1.00  0.00     0.117 A 
ATOM     24  C   UNL A   1      31.673  25.856  24.923  1.00  0.00     0.162 A 
BRANCH  23  25
ATOM     25  C   UNL A   1      30.128  27.106  23.385  1.00  0.00     0.006 A 
ATOM     26  C   UNL A   1      30.896  28.021  22.659  1.00  0.00    -0.051 A 
ATOM     27  C   UNL A   1      28.759  27.347  23.570  1.00  0.00    -0.032 A 
ATOM     28  C   UNL A   1      30.295  29.147  22.091  1.00  0.00    -0.041 A 
ATOM     29  H   UNL A   1      31.910  27.863  22.542  1.00  0.00     0.063 H 
ATOM     30  C   UNL A   1      28.158  28.479  23.010  1.00  0.00     0.060 A 
ATOM     31  H   UNL A   1      28.192  26.686  24.123  1.00  0.00     0.065 H 
ATOM     32  C   UNL A   1      28.925  29.376  22.261  1.00  0.00     0.059 A 
ATOM     33  H   UNL A   1      30.863  29.813  21.544  1.00  0.00     0.064 H 
ATOM     34  Cl  UNL A   1      26.465  28.701  23.275  1.00  0.00    -0.083 Cl
ATOM     35  Cl  UNL A   1      28.245  30.778  21.515  1.00  0.00    -0.083 Cl
ENDBRANCH  23  25
BRANCH  24  36
ATOM     36  C   UNL A   1      32.274  26.832  25.809  1.00  0.00     0.020 A 
ATOM     37  C   UNL A   1      33.605  27.228  25.648  1.00  0.00    -0.051 A 
ATOM     38  C   UNL A   1      31.498  27.431  26.813  1.00  0.00    -0.051 A 
ATOM     39  C   UNL A   1      34.144  28.224  26.466  1.00  0.00    -0.062 A 
ATOM     40  H   UNL A   1      34.190  26.786  24.923  1.00  0.00     0.063 H 
ATOM     41  C   UNL A   1      32.040  28.417  27.636  1.00  0.00    -0.062 A 
ATOM     42  H   UNL A   1      30.516  27.138  26.943  1.00  0.00     0.063 H 
ATOM     43  C   UNL A   1      33.362  28.818  27.457  1.00  0.00    -0.062 A 
ATOM     44  H   UNL A   1      35.124  28.521  26.337  1.00  0.00     0.062 H 
ATOM     45  H   UNL A   1      31.464  28.850  28.374  1.00  0.00     0.062 H 
ATOM     46  H   UNL A   1      33.763  29.554  28.059  1.00  0.00     0.062 H 
ENDBRANCH  24  36
ENDBRANCH  17  20
ENDBRANCH  14  17
ENDBRANCH  11  14
ENDBRANCH   9  11
ENDBRANCH   4   7
ENDBRANCH   1   4
BRANCH   1  47
ATOM     47  C   UNL A   1      37.910  23.014  25.452  1.00  0.00    -0.052 C 
ATOM     48  H   UNL A   1      38.849  23.353  25.841  1.00  0.00     0.027 H 
ATOM     49  H   UNL A   1      37.766  23.241  24.417  1.00  0.00     0.027 H 
BRANCH  47  50
ATOM     50  C   UNL A   1      37.881  21.488  25.556  1.00  0.00    -0.052 C 
ATOM     51  H   UNL A   1      37.174  21.118  24.844  1.00  0.00     0.027 H 
ATOM     52  H   UNL A   1      37.616  21.258  26.568  1.00  0.00     0.027 H 
BRANCH  50  53
ATOM     53  C   UNL A   1      39.224  20.808  25.294  1.00  0.00    -0.036 C 
ATOM     54  H   UNL A   1      39.972  21.568  25.209  1.00  0.00     0.028 H 
ATOM     55  H   UNL A   1      39.106  20.236  24.399  1.00  0.00     0.028 H 
BRANCH  53  56
ATOM     56  C   UNL A   1      39.661  19.830  26.379  1.00  0.00     0.018 C 
ATOM     57  H   UNL A   1      38.860  19.145  26.565  1.00  0.00     0.049 H 
ATOM     58  H   UNL A   1      39.903  20.402  27.251  1.00  0.00     0.049 H 
BRANCH  56  59
ATOM     59  N   UNL A   1      40.845  19.072  26.007  1.00  0.00    -0.352 N 
ATOM     60  C   UNL A   1      42.143  19.502  25.903  1.00  0.00     0.251 C 
ATOM     61  H   UNL A   1      40.694  18.121  25.800  1.00  0.00     0.163 HD
ATOM     62  O   UNL A   1      43.004  18.769  25.419  1.00  0.00    -0.269 OA
BRANCH  60  63
ATOM     63  C   UNL A   1      42.503  20.862  26.352  1.00  0.00     0.039 A 
ATOM     64  C   UNL A   1      42.538  21.134  27.722  1.00  0.00    -0.049 A 
ATOM     65  C   UNL A   1      42.801  21.868  25.428  1.00  0.00    -0.049 A 
ATOM     66  C   UNL A   1      42.917  22.403  28.166  1.00  0.00    -0.053 A 
ATOM     67  H   UNL A   1      42.286  20.400  28.403  1.00  0.00     0.063 H 
ATOM     68  C   UNL A   1      43.256  23.106  25.873  1.00  0.00    -0.053 A 
ATOM     69  H   UNL A   1      42.683  21.693  24.418  1.00  0.00     0.063 H 
ATOM     70  C   UNL A   1      43.304  23.391  27.246  1.00  0.00    -0.014 A 
ATOM     71  H   UNL A   1      42.913  22.615  29.175  1.00  0.00     0.063 H 
ATOM     72  H   UNL A   1      43.560  23.817  25.190  1.00  0.00     0.063 H 
BRANCH  70  73
ATOM     73  C   UNL A   1      43.718  24.744  27.701  1.00  0.00     0.031 A 
ATOM     74  C   UNL A   1      42.673  25.778  28.024  1.00  0.00     0.074 A 
ATOM     75  C   UNL A   1      45.026  25.055  27.784  1.00  0.00     0.049 A 
ATOM     76  N   UNL A   1      42.825  27.032  28.371  1.00  0.00    -0.248 NA
ATOM     77  C   UNL A   1      41.267  25.354  27.916  1.00  0.00    -0.034 C 
ATOM     78  C   UNL A   1      46.133  24.155  27.458  1.00  0.00    -0.036 A 
ATOM     79  N   UNL A   1      45.646  26.220  28.162  1.00  0.00    -0.354 N 
ATOM     80  C   UNL A   1      41.542  27.540  28.522  1.00  0.00     0.074 A 
ATOM     81  C   UNL A   1      40.621  26.485  28.158  1.00  0.00    -0.034 C 
ATOM     82  H   UNL A   1      40.884  24.419  27.708  1.00  0.00     0.065 H 
ATOM     83  C   UNL A   1      47.296  24.796  27.665  1.00  0.00    -0.036 A 
ATOM     84  H   UNL A   1      46.036  23.184  27.122  1.00  0.00     0.065 H 
ATOM     85  C   UNL A   1      47.017  26.160  28.103  1.00  0.00     0.049 A 
ATOM     86  H   UNL A   1      45.154  27.024  28.448  1.00  0.00     0.167 HD
ATOM     87  C   UNL A   1      41.161  28.764  28.958  1.00  0.00     0.037 A 
ATOM     88  H   UNL A   1      39.598  26.598  28.096  1.00  0.00     0.065 H 
ATOM     89  H   UNL A   1      48.235  24.388  27.535  1.00  0.00     0.065 H 
ATOM     90  C   UNL A   1      47.942  27.102  28.366  1.00  0.00     0.037 A 
ATOM     91  C   UNL A   1      42.076  29.810  29.332  1.00  0.00     0.049 A 
ATOM     92  C   UNL A   1      47.491  28.462  28.835  1.00  0.00     0.074 A 
ATOM     93  C   UNL A   1      41.793  31.083  29.795  1.00  0.00    -0.036 A 
ATOM     94  N   UNL A   1      43.459  29.697  29.295  1.00  0.00    -0.354 N 
ATOM     95  N   UNL A   1      46.274  28.914  29.018  1.00  0.00    -0.248 NA
ATOM     96  C   UNL A   1      48.544  29.437  29.151  1.00  0.00    -0.034 C 
ATOM     97  C   UNL A   1      43.003  31.752  30.003  1.00  0.00    -0.036 A 
ATOM     98  H   UNL A   1      40.850  31.471  29.957  1.00  0.00     0.065 H 
ATOM     99  C   UNL A   1      44.041  30.878  29.725  1.00  0.00     0.049 A 
ATOM    100  H   UNL A   1      43.953  28.896  29.004  1.00  0.00     0.167 HD
ATOM    101  C   UNL A   1      46.417  30.205  29.510  1.00  0.00     0.074 A 
ATOM    102  C   UNL A   1      47.838  30.459  29.611  1.00  0.00    -0.034 C 
ATOM    103  H   UNL A   1      49.567  29.348  29.043  1.00  0.00     0.065 H 
ATOM    104  H   UNL A   1      43.105  32.732  30.312  1.00  0.00     0.065 H 
ATOM    105  C   UNL A   1      45.458  31.101  29.848  1.00  0.00     0.037 A 
ATOM    106  H   UNL A   1      48.249  31.324  29.992  1.00  0.00     0.065 H 
BRANCH  87 107
ATOM    107  C   UNL A   1      39.689  29.033  29.076  1.00  0.00     0.064 A 
ATOM    108  C   UNL A   1      38.920  29.387  27.955  1.00  0.00     0.173 A 
ATOM    109  C   UNL A   1      39.028  28.891  30.305  1.00  0.00     0.173 A 
ATOM    110  F   UNL A   1      39.505  29.549  26.759  1.00  0.00    -0.203 F 
ATOM    111  C   UNL A   1      37.551  29.609  28.066  1.00  0.00     0.198 A 
ATOM    112  C   UNL A   1      37.652  29.082  30.405  1.00  0.00     0.198 A 
ATOM    113  F   UNL A   1      39.713  28.550  31.407  1.00  0.00    -0.203 F 
ATOM    114  F   UNL A   1      36.846  29.990  26.991  1.00  0.00    -0.200 F 
ATOM    115  C   UNL A   1      36.916  29.448  29.288  1.00  0.00     0.200 A 
ATOM    116  F   UNL A   1      37.037  28.912  31.584  1.00  0.00    -0.200 F 
ATOM    117  F   UNL A   1      35.595  29.649  29.390  1.00  0.00    -0.200 F 
ENDBRANCH  87 107
BRANCH  90 118
ATOM    118  C   UNL A   1      49.391  26.801  28.207  1.00  0.00     0.064 A 
ATOM    119  C   UNL A   1      50.170  26.392  29.300  1.00  0.00     0.173 A 
ATOM    120  C   UNL A   1      50.037  26.960  26.973  1.00  0.00     0.173 A 
ATOM    121  F   UNL A   1      49.604  26.243  30.507  1.00  0.00    -0.203 F 
ATOM    122  C   UNL A   1      51.544  26.197  29.174  1.00  0.00     0.198 A 
ATOM    123  C   UNL A   1      51.405  26.730  26.841  1.00  0.00     0.198 A 
ATOM    124  F   UNL A   1      49.338  27.341  25.893  1.00  0.00    -0.203 F 
ATOM    125  F   UNL A   1      52.275  25.878  30.251  1.00  0.00    -0.200 F 
ATOM    126  C   UNL A   1      52.160  26.364  27.943  1.00  0.00     0.200 A 
ATOM    127  F   UNL A   1      51.994  26.877  25.646  1.00  0.00    -0.200 F 
ATOM    128  F   UNL A   1      53.483  26.186  27.824  1.00  0.00    -0.200 F 
ENDBRANCH  90 118
BRANCH 105 129
ATOM    129  C   UNL A   1      45.911  32.411  30.429  1.00  0.00     0.064 A 
ATOM    130  C   UNL A   1      46.152  33.536  29.627  1.00  0.00     0.173 A 
ATOM    131  C   UNL A   1      46.080  32.544  31.816  1.00  0.00     0.173 A 
ATOM    132  F   UNL A   1      46.016  33.458  28.295  1.00  0.00    -0.203 F 
ATOM    133  C   UNL A   1      46.583  34.735  30.189  1.00  0.00     0.198 A 
ATOM    134  C   UNL A   1      46.477  33.754  32.377  1.00  0.00     0.198 A 
ATOM    135  F   UNL A   1      45.853  31.502  32.629  1.00  0.00    -0.203 F 
ATOM    136  F   UNL A   1      46.865  35.779  29.398  1.00  0.00    -0.200 F 
ATOM    137  C   UNL A   1      46.739  34.845  31.563  1.00  0.00     0.200 A 
ATOM    138  F   UNL A   1      46.610  33.863  33.707  1.00  0.00    -0.200 F 
ATOM    139  F   UNL A   1      47.149  36.001  32.101  1.00  0.00    -0.200 F 
ENDBRANCH 105 129
ENDBRANCH  70  73
ENDBRANCH  60  63
ENDBRANCH  56  59
ENDBRANCH  53  56
ENDBRANCH  50  53
ENDBRANCH  47  50
ENDBRANCH   1  47
TORSDOF 18
ENDMDL
MODEL 7
REMARK VINA RESULT:     -12.0      4.533      8.352
REMARK SMILES O=C(CCCc1nc(-c2ccc(Cl)c(Cl)c2)c(-c2ccccc2)o1)NCCCCCCNC(=O)c1ccc(-c2c3nc(c(-c4c(F)c(F)c(F)c(F)c4F)c4ccc([nH]4)c(-c4c(F)c(F)c(F)c(F)c4F)c4nc(c(-c5c(F)c(F)c(F)c(F)c5F)c5ccc2[nH]5)C=C4)C=C3)cc1
REMARK SMILES IDX 27 1 26 4 25 7 1 8 2 9 3 11 4 14 5 17 6 20 7 21 24 22 8 23
REMARK SMILES IDX 17 24 9 25 10 26 16 27 11 28 14 30 12 32 15 34 13 35 18 36
REMARK SMILES IDX 19 37 23 38 20 39 22 41 21 43 28 47 29 50 30 53 31 56 32 59
REMARK SMILES IDX 33 60 34 62 35 63 36 64 97 65 37 66 96 68 38 70 39 73 40 74
REMARK SMILES IDX 90 75 41 76 95 77 89 78 91 79 42 80 94 81 88 83 87 85 43 87
REMARK SMILES IDX 75 90 55 91 74 92 56 93 59 94 73 95 92 96 57 97 58 99 72 101
REMARK SMILES IDX 93 102 60 105 44 107 45 108 53 109 46 110 47 111 51 112
REMARK SMILES IDX 54 113 48 114 49 115 52 116 50 117 76 118 77 119 85 120
REMARK SMILES IDX 78 121 79 122 83 123 86 124 80 125 81 126 84 127 82 128
REMARK SMILES IDX 61 129 62 130 70 131 63 132 64 133 68 134 71 135 65 136
REMARK SMILES IDX 66 137 69 138 67 139
REMARK H PARENT 27 2 27 3 26 5 26 6 25 10 3 12 3 13 4 15 4 16 5 18 5 19 10 29
REMARK H PARENT 16 31 11 33 19 40 23 42 20 44 22 45 21 46 28 48 28 49 29 51
REMARK H PARENT 29 52 30 54 30 55 31 57 31 58 32 61 36 67 97 69 37 71 96 72
REMARK H PARENT 95 82 89 84 91 86 94 88 88 89 56 98 59 100 92 103 57 104
REMARK H PARENT 93 106
REMARK Flexibility Score: inf
ROOT
ATOM      1  C   UNL A   1      33.106  28.966  23.324  1.00  0.00    -0.036 C 
ATOM      2  H   UNL A   1      33.069  29.857  22.734  1.00  0.00     0.028 H 
ATOM      3  H   UNL A   1      33.821  29.013  24.119  1.00  0.00     0.028 H 
ENDROOT
BRANCH   1   4
ATOM      4  C   UNL A   1      33.544  27.815  22.420  1.00  0.00     0.017 C 
ATOM      5  H   UNL A   1      33.417  28.109  21.399  1.00  0.00     0.049 H 
ATOM      6  H   UNL A   1      34.571  27.598  22.634  1.00  0.00     0.049 H 
BRANCH   4   7
ATOM      7  N   UNL A   1      32.774  26.615  22.662  1.00  0.00    -0.356 N 
ATOM      8  O   UNL A   1      33.124  25.686  20.592  1.00  0.00    -0.275 OA
ATOM      9  C   UNL A   1      32.635  25.629  21.716  1.00  0.00     0.220 C 
ATOM     10  H   UNL A   1      32.332  26.502  23.534  1.00  0.00     0.163 HD
BRANCH   9  11
ATOM     11  C   UNL A   1      31.824  24.438  22.181  1.00  0.00     0.027 C 
ATOM     12  H   UNL A   1      32.489  23.724  22.619  1.00  0.00     0.037 H 
ATOM     13  H   UNL A   1      31.319  24.043  21.323  1.00  0.00     0.037 H 
BRANCH  11  14
ATOM     14  C   UNL A   1      30.752  24.805  23.213  1.00  0.00    -0.036 C 
ATOM     15  H   UNL A   1      29.796  24.628  22.765  1.00  0.00     0.028 H 
ATOM     16  H   UNL A   1      30.939  25.828  23.466  1.00  0.00     0.028 H 
BRANCH  14  17
ATOM     17  C   UNL A   1      30.796  24.041  24.540  1.00  0.00     0.025 C 
ATOM     18  H   UNL A   1      29.883  23.492  24.650  1.00  0.00     0.037 H 
ATOM     19  H   UNL A   1      30.923  24.759  25.323  1.00  0.00     0.037 H 
BRANCH  17  20
ATOM     20  C   UNL A   1      31.934  23.089  24.615  1.00  0.00     0.195 A 
ATOM     21  N   UNL A   1      33.182  23.361  24.949  1.00  0.00    -0.213 NA
ATOM     22  O   UNL A   1      31.670  21.765  24.399  1.00  0.00    -0.440 OA
ATOM     23  C   UNL A   1      33.799  22.136  24.907  1.00  0.00     0.117 A 
ATOM     24  C   UNL A   1      32.875  21.151  24.618  1.00  0.00     0.162 A 
BRANCH  23  25
ATOM     25  C   UNL A   1      35.205  21.922  25.160  1.00  0.00     0.006 A 
ATOM     26  C   UNL A   1      35.787  20.679  24.894  1.00  0.00    -0.051 A 
ATOM     27  C   UNL A   1      36.002  22.969  25.645  1.00  0.00    -0.032 A 
ATOM     28  C   UNL A   1      37.161  20.495  25.076  1.00  0.00    -0.041 A 
ATOM     29  H   UNL A   1      35.201  19.896  24.563  1.00  0.00     0.063 H 
ATOM     30  C   UNL A   1      37.375  22.783  25.836  1.00  0.00     0.060 A 
ATOM     31  H   UNL A   1      35.573  23.881  25.863  1.00  0.00     0.065 H 
ATOM     32  C   UNL A   1      37.958  21.547  25.542  1.00  0.00     0.059 A 
ATOM     33  H   UNL A   1      37.590  19.580  24.865  1.00  0.00     0.064 H 
ATOM     34  Cl  UNL A   1      38.290  24.123  26.427  1.00  0.00    -0.083 Cl
ATOM     35  Cl  UNL A   1      39.651  21.254  25.725  1.00  0.00    -0.083 Cl
ENDBRANCH  23  25
BRANCH  24  36
ATOM     36  C   UNL A   1      32.907  19.704  24.563  1.00  0.00     0.020 A 
ATOM     37  C   UNL A   1      32.857  18.938  25.731  1.00  0.00    -0.051 A 
ATOM     38  C   UNL A   1      32.933  19.056  23.319  1.00  0.00    -0.051 A 
ATOM     39  C   UNL A   1      32.815  17.543  25.654  1.00  0.00    -0.062 A 
ATOM     40  H   UNL A   1      32.851  19.402  26.653  1.00  0.00     0.063 H 
ATOM     41  C   UNL A   1      32.901  17.664  23.244  1.00  0.00    -0.062 A 
ATOM     42  H   UNL A   1      32.978  19.615  22.452  1.00  0.00     0.063 H 
ATOM     43  C   UNL A   1      32.835  16.909  24.412  1.00  0.00    -0.062 A 
ATOM     44  H   UNL A   1      32.768  16.981  26.518  1.00  0.00     0.062 H 
ATOM     45  H   UNL A   1      32.925  17.195  22.325  1.00  0.00     0.062 H 
ATOM     46  H   UNL A   1      32.803  15.879  24.358  1.00  0.00     0.062 H 
ENDBRANCH  24  36
ENDBRANCH  17  20
ENDBRANCH  14  17
ENDBRANCH  11  14
ENDBRANCH   9  11
ENDBRANCH   4   7
ENDBRANCH   1   4
BRANCH   1  47
ATOM     47  C   UNL A   1      31.737  28.778  23.990  1.00  0.00    -0.052 C 
ATOM     48  H   UNL A   1      31.297  27.887  23.594  1.00  0.00     0.027 H 
ATOM     49  H   UNL A   1      31.181  29.666  23.775  1.00  0.00     0.027 H 
BRANCH  47  50
ATOM     50  C   UNL A   1      31.759  28.655  25.515  1.00  0.00    -0.052 C 
ATOM     51  H   UNL A   1      30.808  28.282  25.833  1.00  0.00     0.027 H 
ATOM     52  H   UNL A   1      31.976  29.631  25.896  1.00  0.00     0.027 H 
BRANCH  50  53
ATOM     53  C   UNL A   1      32.842  27.726  26.061  1.00  0.00    -0.036 C 
ATOM     54  H   UNL A   1      33.217  27.137  25.250  1.00  0.00     0.028 H 
ATOM     55  H   UNL A   1      32.382  27.138  26.827  1.00  0.00     0.028 H 
BRANCH  53  56
ATOM     56  C   UNL A   1      34.020  28.441  26.714  1.00  0.00     0.018 C 
ATOM     57  H   UNL A   1      34.874  28.345  26.078  1.00  0.00     0.049 H 
ATOM     58  H   UNL A   1      34.184  27.988  27.669  1.00  0.00     0.049 H 
BRANCH  56  59
ATOM     59  N   UNL A   1      33.761  29.855  26.936  1.00  0.00    -0.352 N 
ATOM     60  C   UNL A   1      34.474  30.751  27.692  1.00  0.00     0.251 C 
ATOM     61  H   UNL A   1      32.966  30.219  26.483  1.00  0.00     0.163 HD
ATOM     62  O   UNL A   1      34.029  31.877  27.905  1.00  0.00    -0.269 OA
BRANCH  60  63
ATOM     63  C   UNL A   1      35.771  30.350  28.274  1.00  0.00     0.039 A 
ATOM     64  C   UNL A   1      35.790  29.752  29.536  1.00  0.00    -0.049 A 
ATOM     65  C   UNL A   1      36.966  30.563  27.579  1.00  0.00    -0.049 A 
ATOM     66  C   UNL A   1      37.003  29.328  30.083  1.00  0.00    -0.053 A 
ATOM     67  H   UNL A   1      34.911  29.625  30.063  1.00  0.00     0.063 H 
ATOM     68  C   UNL A   1      38.162  30.067  28.089  1.00  0.00    -0.053 A 
ATOM     69  H   UNL A   1      36.960  31.088  26.691  1.00  0.00     0.063 H 
ATOM     70  C   UNL A   1      38.196  29.458  29.353  1.00  0.00    -0.014 A 
ATOM     71  H   UNL A   1      37.023  28.915  31.028  1.00  0.00     0.063 H 
ATOM     72  H   UNL A   1      39.028  30.147  27.534  1.00  0.00     0.063 H 
BRANCH  70  73
ATOM     73  C   UNL A   1      39.494  29.004  29.915  1.00  0.00     0.031 A 
ATOM     74  C   UNL A   1      40.099  29.732  31.085  1.00  0.00     0.074 A 
ATOM     75  C   UNL A   1      40.146  27.968  29.352  1.00  0.00     0.049 A 
ATOM     76  N   UNL A   1      41.250  29.538  31.678  1.00  0.00    -0.248 NA
ATOM     77  C   UNL A   1      39.318  30.847  31.647  1.00  0.00    -0.034 C 
ATOM     78  C   UNL A   1      39.685  27.208  28.189  1.00  0.00    -0.036 A 
ATOM     79  N   UNL A   1      41.343  27.381  29.678  1.00  0.00    -0.354 N 
ATOM     80  C   UNL A   1      41.328  30.500  32.677  1.00  0.00     0.074 A 
ATOM     81  C   UNL A   1      40.144  31.325  32.564  1.00  0.00    -0.034 C 
ATOM     82  H   UNL A   1      38.371  31.170  31.393  1.00  0.00     0.065 H 
ATOM     83  C   UNL A   1      40.580  26.246  27.910  1.00  0.00    -0.036 A 
ATOM     84  H   UNL A   1      38.813  27.385  27.666  1.00  0.00     0.065 H 
ATOM     85  C   UNL A   1      41.693  26.343  28.849  1.00  0.00     0.049 A 
ATOM     86  H   UNL A   1      41.899  27.676  30.436  1.00  0.00     0.167 HD
ATOM     87  C   UNL A   1      42.280  30.662  33.625  1.00  0.00     0.037 A 
ATOM     88  H   UNL A   1      39.968  32.173  33.125  1.00  0.00     0.065 H 
ATOM     89  H   UNL A   1      40.494  25.550  27.153  1.00  0.00     0.065 H 
ATOM     90  C   UNL A   1      42.792  25.564  28.846  1.00  0.00     0.037 A 
ATOM     91  C   UNL A   1      43.450  29.834  33.745  1.00  0.00     0.049 A 
ATOM     92  C   UNL A   1      43.844  25.777  29.903  1.00  0.00     0.074 A 
ATOM     93  C   UNL A   1      44.472  29.910  34.676  1.00  0.00    -0.036 A 
ATOM     94  N   UNL A   1      43.750  28.768  32.909  1.00  0.00    -0.354 N 
ATOM     95  N   UNL A   1      43.882  26.661  30.871  1.00  0.00    -0.248 NA
ATOM     96  C   UNL A   1      45.000  24.869  29.879  1.00  0.00    -0.034 C 
ATOM     97  C   UNL A   1      45.407  28.913  34.381  1.00  0.00    -0.036 A 
ATOM     98  H   UNL A   1      44.533  30.586  35.454  1.00  0.00     0.065 H 
ATOM     99  C   UNL A   1      44.941  28.180  33.302  1.00  0.00     0.049 A 
ATOM    100  H   UNL A   1      43.199  28.475  32.148  1.00  0.00     0.167 HD
ATOM    101  C   UNL A   1      45.037  26.388  31.592  1.00  0.00     0.074 A 
ATOM    102  C   UNL A   1      45.664  25.247  30.960  1.00  0.00    -0.034 C 
ATOM    103  H   UNL A   1      45.233  24.129  29.197  1.00  0.00     0.065 H 
ATOM    104  H   UNL A   1      46.295  28.751  34.884  1.00  0.00     0.065 H 
ATOM    105  C   UNL A   1      45.535  27.025  32.680  1.00  0.00     0.037 A 
ATOM    106  H   UNL A   1      46.520  24.788  31.307  1.00  0.00     0.065 H 
BRANCH  87 107
ATOM    107  C   UNL A   1      42.085  31.765  34.624  1.00  0.00     0.064 A 
ATOM    108  C   UNL A   1      41.313  31.573  35.782  1.00  0.00     0.173 A 
ATOM    109  C   UNL A   1      42.710  33.010  34.454  1.00  0.00     0.173 A 
ATOM    110  F   UNL A   1      40.684  30.406  35.987  1.00  0.00    -0.203 F 
ATOM    111  C   UNL A   1      41.157  32.591  36.718  1.00  0.00     0.198 A 
ATOM    112  C   UNL A   1      42.577  34.015  35.409  1.00  0.00     0.198 A 
ATOM    113  F   UNL A   1      43.462  33.246  33.369  1.00  0.00    -0.203 F 
ATOM    114  F   UNL A   1      40.379  32.397  37.792  1.00  0.00    -0.200 F 
ATOM    115  C   UNL A   1      41.796  33.807  36.536  1.00  0.00     0.200 A 
ATOM    116  F   UNL A   1      43.208  35.186  35.239  1.00  0.00    -0.200 F 
ATOM    117  F   UNL A   1      41.656  34.782  37.445  1.00  0.00    -0.200 F 
ENDBRANCH  87 107
BRANCH  90 118
ATOM    118  C   UNL A   1      42.958  24.501  27.817  1.00  0.00     0.064 A 
ATOM    119  C   UNL A   1      42.599  23.171  28.086  1.00  0.00     0.173 A 
ATOM    120  C   UNL A   1      43.520  24.782  26.564  1.00  0.00     0.173 A 
ATOM    121  F   UNL A   1      42.074  22.847  29.277  1.00  0.00    -0.203 F 
ATOM    122  C   UNL A   1      42.837  22.159  27.159  1.00  0.00     0.198 A 
ATOM    123  C   UNL A   1      43.725  23.773  25.624  1.00  0.00     0.198 A 
ATOM    124  F   UNL A   1      43.874  26.037  26.252  1.00  0.00    -0.203 F 
ATOM    125  F   UNL A   1      42.552  20.888  27.471  1.00  0.00    -0.200 F 
ATOM    126  C   UNL A   1      43.399  22.461  25.927  1.00  0.00     0.200 A 
ATOM    127  F   UNL A   1      44.252  24.073  24.429  1.00  0.00    -0.200 F 
ATOM    128  F   UNL A   1      43.636  21.486  25.040  1.00  0.00    -0.200 F 
ENDBRANCH  90 118
BRANCH 105 129
ATOM    129  C   UNL A   1      46.779  26.458  33.302  1.00  0.00     0.064 A 
ATOM    130  C   UNL A   1      48.060  26.892  32.930  1.00  0.00     0.173 A 
ATOM    131  C   UNL A   1      46.681  25.483  34.307  1.00  0.00     0.173 A 
ATOM    132  F   UNL A   1      48.208  27.813  31.967  1.00  0.00    -0.203 F 
ATOM    133  C   UNL A   1      49.198  26.341  33.514  1.00  0.00     0.198 A 
ATOM    134  C   UNL A   1      47.821  24.961  34.913  1.00  0.00     0.198 A 
ATOM    135  F   UNL A   1      45.480  25.041  34.708  1.00  0.00    -0.203 F 
ATOM    136  F   UNL A   1      50.413  26.726  33.100  1.00  0.00    -0.200 F 
ATOM    137  C   UNL A   1      49.078  25.382  34.508  1.00  0.00     0.200 A 
ATOM    138  F   UNL A   1      47.701  24.047  35.886  1.00  0.00    -0.200 F 
ATOM    139  F   UNL A   1      50.175  24.857  35.071  1.00  0.00    -0.200 F 
ENDBRANCH 105 129
ENDBRANCH  70  73
ENDBRANCH  60  63
ENDBRANCH  56  59
ENDBRANCH  53  56
ENDBRANCH  50  53
ENDBRANCH  47  50
ENDBRANCH   1  47
TORSDOF 18
ENDMDL
MODEL 8
REMARK VINA RESULT:     -11.9      5.648     10.226
REMARK SMILES O=C(CCCc1nc(-c2ccc(Cl)c(Cl)c2)c(-c2ccccc2)o1)NCCCCCCNC(=O)c1ccc(-c2c3nc(c(-c4c(F)c(F)c(F)c(F)c4F)c4ccc([nH]4)c(-c4c(F)c(F)c(F)c(F)c4F)c4nc(c(-c5c(F)c(F)c(F)c(F)c5F)c5ccc2[nH]5)C=C4)C=C3)cc1
REMARK SMILES IDX 27 1 26 4 25 7 1 8 2 9 3 11 4 14 5 17 6 20 7 21 24 22 8 23
REMARK SMILES IDX 17 24 9 25 10 26 16 27 11 28 14 30 12 32 15 34 13 35 18 36
REMARK SMILES IDX 19 37 23 38 20 39 22 41 21 43 28 47 29 50 30 53 31 56 32 59
REMARK SMILES IDX 33 60 34 62 35 63 36 64 97 65 37 66 96 68 38 70 39 73 40 74
REMARK SMILES IDX 90 75 41 76 95 77 89 78 91 79 42 80 94 81 88 83 87 85 43 87
REMARK SMILES IDX 75 90 55 91 74 92 56 93 59 94 73 95 92 96 57 97 58 99 72 101
REMARK SMILES IDX 93 102 60 105 44 107 45 108 53 109 46 110 47 111 51 112
REMARK SMILES IDX 54 113 48 114 49 115 52 116 50 117 76 118 77 119 85 120
REMARK SMILES IDX 78 121 79 122 83 123 86 124 80 125 81 126 84 127 82 128
REMARK SMILES IDX 61 129 62 130 70 131 63 132 64 133 68 134 71 135 65 136
REMARK SMILES IDX 66 137 69 138 67 139
REMARK H PARENT 27 2 27 3 26 5 26 6 25 10 3 12 3 13 4 15 4 16 5 18 5 19 10 29
REMARK H PARENT 16 31 11 33 19 40 23 42 20 44 22 45 21 46 28 48 28 49 29 51
REMARK H PARENT 29 52 30 54 30 55 31 57 31 58 32 61 36 67 97 69 37 71 96 72
REMARK H PARENT 95 82 89 84 91 86 94 88 88 89 56 98 59 100 92 103 57 104
REMARK H PARENT 93 106
REMARK Flexibility Score: inf
ROOT
ATOM      1  C   UNL A   1      33.659  30.114  26.380  1.00  0.00    -0.036 C 
ATOM      2  H   UNL A   1      33.960  30.838  25.652  1.00  0.00     0.028 H 
ATOM      3  H   UNL A   1      34.007  29.126  26.163  1.00  0.00     0.028 H 
ENDROOT
BRANCH   1   4
ATOM      4  C   UNL A   1      32.133  30.042  26.376  1.00  0.00     0.017 C 
ATOM      5  H   UNL A   1      31.777  30.206  27.371  1.00  0.00     0.049 H 
ATOM      6  H   UNL A   1      31.767  30.793  25.706  1.00  0.00     0.049 H 
BRANCH   4   7
ATOM      7  N   UNL A   1      31.655  28.758  25.912  1.00  0.00    -0.356 N 
ATOM      8  O   UNL A   1      31.283  27.876  27.998  1.00  0.00    -0.275 OA
ATOM      9  C   UNL A   1      31.251  27.770  26.776  1.00  0.00     0.220 C 
ATOM     10  H   UNL A   1      31.618  28.587  24.944  1.00  0.00     0.163 HD
BRANCH   9  11
ATOM     11  C   UNL A   1      30.747  26.518  26.090  1.00  0.00     0.027 C 
ATOM     12  H   UNL A   1      29.796  26.261  26.508  1.00  0.00     0.037 H 
ATOM     13  H   UNL A   1      31.477  25.752  26.249  1.00  0.00     0.037 H 
BRANCH  11  14
ATOM     14  C   UNL A   1      30.584  26.686  24.575  1.00  0.00    -0.036 C 
ATOM     15  H   UNL A   1      31.508  27.061  24.188  1.00  0.00     0.028 H 
ATOM     16  H   UNL A   1      29.751  27.347  24.450  1.00  0.00     0.028 H 
BRANCH  14  17
ATOM     17  C   UNL A   1      30.225  25.423  23.786  1.00  0.00     0.025 C 
ATOM     18  H   UNL A   1      30.233  25.657  22.742  1.00  0.00     0.037 H 
ATOM     19  H   UNL A   1      29.258  25.101  24.113  1.00  0.00     0.037 H 
BRANCH  17  20
ATOM     20  C   UNL A   1      31.174  24.307  24.029  1.00  0.00     0.195 A 
ATOM     21  N   UNL A   1      30.920  23.013  23.964  1.00  0.00    -0.213 NA
ATOM     22  O   UNL A   1      32.482  24.626  24.270  1.00  0.00    -0.440 OA
ATOM     23  C   UNL A   1      32.137  22.434  24.224  1.00  0.00     0.117 A 
ATOM     24  C   UNL A   1      33.104  23.408  24.365  1.00  0.00     0.162 A 
BRANCH  23  25
ATOM     25  C   UNL A   1      32.361  21.008  24.305  1.00  0.00     0.006 A 
ATOM     26  C   UNL A   1      32.644  20.409  25.535  1.00  0.00    -0.051 A 
ATOM     27  C   UNL A   1      32.265  20.213  23.154  1.00  0.00    -0.032 A 
ATOM     28  C   UNL A   1      32.793  19.022  25.621  1.00  0.00    -0.041 A 
ATOM     29  H   UNL A   1      32.744  20.992  26.382  1.00  0.00     0.063 H 
ATOM     30  C   UNL A   1      32.423  18.825  23.238  1.00  0.00     0.060 A 
ATOM     31  H   UNL A   1      32.076  20.653  22.240  1.00  0.00     0.065 H 
ATOM     32  C   UNL A   1      32.679  18.227  24.475  1.00  0.00     0.059 A 
ATOM     33  H   UNL A   1      32.989  18.581  26.534  1.00  0.00     0.064 H 
ATOM     34  Cl  UNL A   1      32.280  17.914  21.777  1.00  0.00    -0.083 Cl
ATOM     35  Cl  UNL A   1      32.855  16.518  24.659  1.00  0.00    -0.083 Cl
ENDBRANCH  23  25
BRANCH  24  36
ATOM     36  C   UNL A   1      34.543  23.405  24.523  1.00  0.00     0.020 A 
ATOM     37  C   UNL A   1      35.384  23.074  23.456  1.00  0.00    -0.051 A 
ATOM     38  C   UNL A   1      35.111  23.791  25.747  1.00  0.00    -0.051 A 
ATOM     39  C   UNL A   1      36.771  23.148  23.607  1.00  0.00    -0.062 A 
ATOM     40  H   UNL A   1      34.980  22.776  22.555  1.00  0.00     0.063 H 
ATOM     41  C   UNL A   1      36.495  23.854  25.899  1.00  0.00    -0.062 A 
ATOM     42  H   UNL A   1      34.496  24.029  26.542  1.00  0.00     0.063 H 
ATOM     43  C   UNL A   1      37.324  23.538  24.826  1.00  0.00    -0.062 A 
ATOM     44  H   UNL A   1      37.388  22.912  22.814  1.00  0.00     0.062 H 
ATOM     45  H   UNL A   1      36.903  24.135  26.804  1.00  0.00     0.062 H 
ATOM     46  H   UNL A   1      38.349  23.593  24.934  1.00  0.00     0.062 H 
ENDBRANCH  24  36
ENDBRANCH  17  20
ENDBRANCH  14  17
ENDBRANCH  11  14
ENDBRANCH   9  11
ENDBRANCH   4   7
ENDBRANCH   1   4
BRANCH   1  47
ATOM     47  C   UNL A   1      34.284  30.503  27.725  1.00  0.00    -0.052 C 
ATOM     48  H   UNL A   1      35.225  29.999  27.810  1.00  0.00     0.027 H 
ATOM     49  H   UNL A   1      33.574  30.219  28.472  1.00  0.00     0.027 H 
BRANCH  47  50
ATOM     50  C   UNL A   1      34.532  31.999  27.928  1.00  0.00    -0.052 C 
ATOM     51  H   UNL A   1      35.120  32.355  27.109  1.00  0.00     0.027 H 
ATOM     52  H   UNL A   1      35.025  32.100  28.873  1.00  0.00     0.027 H 
BRANCH  50  53
ATOM     53  C   UNL A   1      33.263  32.848  28.009  1.00  0.00    -0.036 C 
ATOM     54  H   UNL A   1      32.823  32.699  28.972  1.00  0.00     0.028 H 
ATOM     55  H   UNL A   1      32.632  32.528  27.207  1.00  0.00     0.028 H 
BRANCH  53  56
ATOM     56  C   UNL A   1      33.488  34.343  27.814  1.00  0.00     0.018 C 
ATOM     57  H   UNL A   1      33.063  34.634  26.876  1.00  0.00     0.049 H 
ATOM     58  H   UNL A   1      34.544  34.517  27.841  1.00  0.00     0.049 H 
BRANCH  56  59
ATOM     59  N   UNL A   1      32.884  35.142  28.869  1.00  0.00    -0.352 N 
ATOM     60  C   UNL A   1      33.189  35.174  30.205  1.00  0.00     0.251 C 
ATOM     61  H   UNL A   1      32.156  35.742  28.584  1.00  0.00     0.163 HD
ATOM     62  O   UNL A   1      32.472  35.790  30.992  1.00  0.00    -0.269 OA
BRANCH  60  63
ATOM     63  C   UNL A   1      34.371  34.442  30.704  1.00  0.00     0.039 A 
ATOM     64  C   UNL A   1      34.180  33.332  31.530  1.00  0.00    -0.049 A 
ATOM     65  C   UNL A   1      35.664  34.850  30.362  1.00  0.00    -0.049 A 
ATOM     66  C   UNL A   1      35.285  32.603  31.976  1.00  0.00    -0.053 A 
ATOM     67  H   UNL A   1      33.226  33.051  31.809  1.00  0.00     0.063 H 
ATOM     68  C   UNL A   1      36.758  34.076  30.740  1.00  0.00    -0.053 A 
ATOM     69  H   UNL A   1      35.807  35.723  29.831  1.00  0.00     0.063 H 
ATOM     70  C   UNL A   1      36.581  32.954  31.564  1.00  0.00    -0.014 A 
ATOM     71  H   UNL A   1      35.148  31.802  32.611  1.00  0.00     0.063 H 
ATOM     72  H   UNL A   1      37.703  34.329  30.413  1.00  0.00     0.063 H 
BRANCH  70  73
ATOM     73  C   UNL A   1      37.767  32.185  32.021  1.00  0.00     0.031 A 
ATOM     74  C   UNL A   1      38.407  32.511  33.344  1.00  0.00     0.074 A 
ATOM     75  C   UNL A   1      38.291  31.225  31.235  1.00  0.00     0.049 A 
ATOM     76  N   UNL A   1      39.483  32.006  33.893  1.00  0.00    -0.248 NA
ATOM     77  C   UNL A   1      37.766  33.566  34.146  1.00  0.00    -0.034 C 
ATOM     78  C   UNL A   1      37.790  30.844  29.914  1.00  0.00    -0.036 A 
ATOM     79  N   UNL A   1      39.371  30.399  31.430  1.00  0.00    -0.354 N 
ATOM     80  C   UNL A   1      39.645  32.680  35.097  1.00  0.00     0.074 A 
ATOM     81  C   UNL A   1      38.601  33.679  35.167  1.00  0.00    -0.034 C 
ATOM     82  H   UNL A   1      36.891  34.083  33.962  1.00  0.00     0.065 H 
ATOM     83  C   UNL A   1      38.549  29.849  29.425  1.00  0.00    -0.036 A 
ATOM     84  H   UNL A   1      36.982  31.272  29.434  1.00  0.00     0.065 H 
ATOM     85  C   UNL A   1      39.611  29.548  30.379  1.00  0.00     0.049 A 
ATOM     86  H   UNL A   1      39.922  30.417  32.246  1.00  0.00     0.167 HD
ATOM     87  C   UNL A   1      40.558  32.462  36.073  1.00  0.00     0.037 A 
ATOM     88  H   UNL A   1      38.520  34.386  35.915  1.00  0.00     0.065 H 
ATOM     89  H   UNL A   1      38.404  29.376  28.519  1.00  0.00     0.065 H 
ATOM     90  C   UNL A   1      40.584  28.632  30.205  1.00  0.00     0.037 A 
ATOM     91  C   UNL A   1      41.587  31.459  36.008  1.00  0.00     0.049 A 
ATOM     92  C   UNL A   1      41.597  28.422  31.301  1.00  0.00     0.074 A 
ATOM     93  C   UNL A   1      42.556  31.153  36.948  1.00  0.00    -0.036 A 
ATOM     94  N   UNL A   1      41.774  30.590  34.943  1.00  0.00    -0.354 N 
ATOM     95  N   UNL A   1      41.710  29.034  32.456  1.00  0.00    -0.248 NA
ATOM     96  C   UNL A   1      42.608  27.380  31.077  1.00  0.00    -0.034 C 
ATOM     97  C   UNL A   1      43.352  30.123  36.435  1.00  0.00    -0.036 A 
ATOM     98  H   UNL A   1      42.672  31.607  37.867  1.00  0.00     0.065 H 
ATOM     99  C   UNL A   1      42.844  29.749  35.202  1.00  0.00     0.049 A 
ATOM    100  H   UNL A   1      41.228  30.575  34.124  1.00  0.00     0.167 HD
ATOM    101  C   UNL A   1      42.771  28.423  33.109  1.00  0.00     0.074 A 
ATOM    102  C   UNL A   1      43.261  27.383  32.230  1.00  0.00    -0.034 C 
ATOM    103  H   UNL A   1      42.768  26.797  30.240  1.00  0.00     0.065 H 
ATOM    104  H   UNL A   1      44.178  29.712  36.899  1.00  0.00     0.065 H 
ATOM    105  C   UNL A   1      43.297  28.698  34.328  1.00  0.00     0.037 A 
ATOM    106  H   UNL A   1      44.020  26.728  32.469  1.00  0.00     0.065 H 
BRANCH  87 107
ATOM    107  C   UNL A   1      40.470  33.312  37.307  1.00  0.00     0.064 A 
ATOM    108  C   UNL A   1      39.531  33.041  38.315  1.00  0.00     0.173 A 
ATOM    109  C   UNL A   1      41.361  34.377  37.512  1.00  0.00     0.173 A 
ATOM    110  F   UNL A   1      38.648  32.043  38.162  1.00  0.00    -0.203 F 
ATOM    111  C   UNL A   1      39.471  33.817  39.468  1.00  0.00     0.198 A 
ATOM    112  C   UNL A   1      41.319  35.130  38.683  1.00  0.00     0.198 A 
ATOM    113  F   UNL A   1      42.282  34.677  36.584  1.00  0.00    -0.203 F 
ATOM    114  F   UNL A   1      38.536  33.566  40.395  1.00  0.00    -0.200 F 
ATOM    115  C   UNL A   1      40.371  34.854  39.656  1.00  0.00     0.200 A 
ATOM    116  F   UNL A   1      42.200  36.124  38.870  1.00  0.00    -0.200 F 
ATOM    117  F   UNL A   1      40.322  35.591  40.775  1.00  0.00    -0.200 F 
ENDBRANCH  87 107
BRANCH  90 118
ATOM    118  C   UNL A   1      40.650  27.832  28.952  1.00  0.00     0.064 A 
ATOM    119  C   UNL A   1      41.424  28.256  27.861  1.00  0.00     0.173 A 
ATOM    120  C   UNL A   1      39.905  26.653  28.801  1.00  0.00     0.173 A 
ATOM    121  F   UNL A   1      42.141  29.387  27.949  1.00  0.00    -0.203 F 
ATOM    122  C   UNL A   1      41.415  27.557  26.656  1.00  0.00     0.198 A 
ATOM    123  C   UNL A   1      39.925  25.937  27.606  1.00  0.00     0.198 A 
ATOM    124  F   UNL A   1      39.153  26.199  29.815  1.00  0.00    -0.203 F 
ATOM    125  F   UNL A   1      42.107  28.025  25.608  1.00  0.00    -0.200 F 
ATOM    126  C   UNL A   1      40.667  26.396  26.530  1.00  0.00     0.200 A 
ATOM    127  F   UNL A   1      39.214  24.806  27.494  1.00  0.00    -0.200 F 
ATOM    128  F   UNL A   1      40.653  25.729  25.368  1.00  0.00    -0.200 F 
ENDBRANCH  90 118
BRANCH 105 129
ATOM    129  C   UNL A   1      44.410  27.815  34.815  1.00  0.00     0.064 A 
ATOM    130  C   UNL A   1      45.759  28.132  34.601  1.00  0.00     0.173 A 
ATOM    131  C   UNL A   1      44.116  26.644  35.532  1.00  0.00     0.173 A 
ATOM    132  F   UNL A   1      46.093  29.233  33.911  1.00  0.00    -0.203 F 
ATOM    133  C   UNL A   1      46.772  27.290  35.053  1.00  0.00     0.198 A 
ATOM    134  C   UNL A   1      45.132  25.823  36.013  1.00  0.00     0.198 A 
ATOM    135  F   UNL A   1      42.843  26.299  35.774  1.00  0.00    -0.203 F 
ATOM    136  F   UNL A   1      48.052  27.582  34.784  1.00  0.00    -0.200 F 
ATOM    137  C   UNL A   1      46.458  26.141  35.763  1.00  0.00     0.200 A 
ATOM    138  F   UNL A   1      44.827  24.722  36.714  1.00  0.00    -0.200 F 
ATOM    139  F   UNL A   1      47.435  25.335  36.200  1.00  0.00    -0.200 F 
ENDBRANCH 105 129
ENDBRANCH  70  73
ENDBRANCH  60  63
ENDBRANCH  56  59
ENDBRANCH  53  56
ENDBRANCH  50  53
ENDBRANCH  47  50
ENDBRANCH   1  47
TORSDOF 18
ENDMDL
MODEL 9
REMARK VINA RESULT:     -11.9      1.708      7.381
REMARK SMILES O=C(CCCc1nc(-c2ccc(Cl)c(Cl)c2)c(-c2ccccc2)o1)NCCCCCCNC(=O)c1ccc(-c2c3nc(c(-c4c(F)c(F)c(F)c(F)c4F)c4ccc([nH]4)c(-c4c(F)c(F)c(F)c(F)c4F)c4nc(c(-c5c(F)c(F)c(F)c(F)c5F)c5ccc2[nH]5)C=C4)C=C3)cc1
REMARK SMILES IDX 27 1 26 4 25 7 1 8 2 9 3 11 4 14 5 17 6 20 7 21 24 22 8 23
REMARK SMILES IDX 17 24 9 25 10 26 16 27 11 28 14 30 12 32 15 34 13 35 18 36
REMARK SMILES IDX 19 37 23 38 20 39 22 41 21 43 28 47 29 50 30 53 31 56 32 59
REMARK SMILES IDX 33 60 34 62 35 63 36 64 97 65 37 66 96 68 38 70 39 73 40 74
REMARK SMILES IDX 90 75 41 76 95 77 89 78 91 79 42 80 94 81 88 83 87 85 43 87
REMARK SMILES IDX 75 90 55 91 74 92 56 93 59 94 73 95 92 96 57 97 58 99 72 101
REMARK SMILES IDX 93 102 60 105 44 107 45 108 53 109 46 110 47 111 51 112
REMARK SMILES IDX 54 113 48 114 49 115 52 116 50 117 76 118 77 119 85 120
REMARK SMILES IDX 78 121 79 122 83 123 86 124 80 125 81 126 84 127 82 128
REMARK SMILES IDX 61 129 62 130 70 131 63 132 64 133 68 134 71 135 65 136
REMARK SMILES IDX 66 137 69 138 67 139
REMARK H PARENT 27 2 27 3 26 5 26 6 25 10 3 12 3 13 4 15 4 16 5 18 5 19 10 29
REMARK H PARENT 16 31 11 33 19 40 23 42 20 44 22 45 21 46 28 48 28 49 29 51
REMARK H PARENT 29 52 30 54 30 55 31 57 31 58 32 61 36 67 97 69 37 71 96 72
REMARK H PARENT 95 82 89 84 91 86 94 88 88 89 56 98 59 100 92 103 57 104
REMARK H PARENT 93 106
REMARK Flexibility Score: inf
ROOT
ATOM      1  C   UNL A   1      36.928  23.963  26.208  1.00  0.00    -0.036 C 
ATOM      2  H   UNL A   1      36.563  23.305  26.967  1.00  0.00     0.028 H 
ATOM      3  H   UNL A   1      37.287  24.895  26.591  1.00  0.00     0.028 H 
ENDROOT
BRANCH   1   4
ATOM      4  C   UNL A   1      35.767  24.301  25.275  1.00  0.00     0.017 C 
ATOM      5  H   UNL A   1      35.211  25.114  25.695  1.00  0.00     0.049 H 
ATOM      6  H   UNL A   1      36.174  24.566  24.320  1.00  0.00     0.049 H 
BRANCH   4   7
ATOM      7  N   UNL A   1      34.879  23.175  25.086  1.00  0.00    -0.356 N 
ATOM      8  O   UNL A   1      35.252  22.952  22.833  1.00  0.00    -0.275 OA
ATOM      9  C   UNL A   1      34.702  22.576  23.863  1.00  0.00     0.220 C 
ATOM     10  H   UNL A   1      34.384  22.825  25.862  1.00  0.00     0.163 HD
BRANCH   9  11
ATOM     11  C   UNL A   1      33.763  21.389  23.887  1.00  0.00     0.027 C 
ATOM     12  H   UNL A   1      33.719  21.010  24.886  1.00  0.00     0.037 H 
ATOM     13  H   UNL A   1      34.150  20.664  23.200  1.00  0.00     0.037 H 
BRANCH  11  14
ATOM     14  C   UNL A   1      32.341  21.735  23.433  1.00  0.00    -0.036 C 
ATOM     15  H   UNL A   1      31.897  20.843  23.045  1.00  0.00     0.028 H 
ATOM     16  H   UNL A   1      32.456  22.521  22.714  1.00  0.00     0.028 H 
BRANCH  14  17
ATOM     17  C   UNL A   1      31.403  22.296  24.506  1.00  0.00     0.025 C 
ATOM     18  H   UNL A   1      31.773  22.012  25.468  1.00  0.00     0.037 H 
ATOM     19  H   UNL A   1      30.427  21.897  24.323  1.00  0.00     0.037 H 
BRANCH  17  20
ATOM     20  C   UNL A   1      31.297  23.777  24.457  1.00  0.00     0.195 A 
ATOM     21  N   UNL A   1      30.450  24.495  23.743  1.00  0.00    -0.213 NA
ATOM     22  O   UNL A   1      32.100  24.499  25.296  1.00  0.00    -0.440 OA
ATOM     23  C   UNL A   1      30.743  25.787  24.101  1.00  0.00     0.117 A 
ATOM     24  C   UNL A   1      31.715  25.797  25.081  1.00  0.00     0.162 A 
BRANCH  23  25
ATOM     25  C   UNL A   1      30.097  26.954  23.545  1.00  0.00     0.006 A 
ATOM     26  C   UNL A   1      30.825  27.856  22.763  1.00  0.00    -0.051 A 
ATOM     27  C   UNL A   1      28.729  27.174  23.761  1.00  0.00    -0.032 A 
ATOM     28  C   UNL A   1      30.183  28.946  22.170  1.00  0.00    -0.041 A 
ATOM     29  H   UNL A   1      31.838  27.715  22.622  1.00  0.00     0.063 H 
ATOM     30  C   UNL A   1      28.088  28.270  23.176  1.00  0.00     0.060 A 
ATOM     31  H   UNL A   1      28.193  26.523  24.355  1.00  0.00     0.065 H 
ATOM     32  C   UNL A   1      28.814  29.154  22.371  1.00  0.00     0.059 A 
ATOM     33  H   UNL A   1      30.720  29.602  21.582  1.00  0.00     0.064 H 
ATOM     34  Cl  UNL A   1      26.399  28.466  23.481  1.00  0.00    -0.083 Cl
ATOM     35  Cl  UNL A   1      28.082  30.512  21.593  1.00  0.00    -0.083 Cl
ENDBRANCH  23  25
BRANCH  24  36
ATOM     36  C   UNL A   1      32.323  26.819  25.908  1.00  0.00     0.020 A 
ATOM     37  C   UNL A   1      33.660  27.188  25.732  1.00  0.00    -0.051 A 
ATOM     38  C   UNL A   1      31.548  27.489  26.867  1.00  0.00    -0.051 A 
ATOM     39  C   UNL A   1      34.207  28.226  26.490  1.00  0.00    -0.062 A 
ATOM     40  H   UNL A   1      34.244  26.693  25.041  1.00  0.00     0.063 H 
ATOM     41  C   UNL A   1      32.098  28.519  27.630  1.00  0.00    -0.062 A 
ATOM     42  H   UNL A   1      30.562  27.217  27.008  1.00  0.00     0.063 H 
ATOM     43  C   UNL A   1      33.426  28.890  27.436  1.00  0.00    -0.062 A 
ATOM     44  H   UNL A   1      35.191  28.502  26.351  1.00  0.00     0.062 H 
ATOM     45  H   UNL A   1      31.522  29.004  28.335  1.00  0.00     0.062 H 
ATOM     46  H   UNL A   1      33.833  29.657  27.994  1.00  0.00     0.062 H 
ENDBRANCH  24  36
ENDBRANCH  17  20
ENDBRANCH  14  17
ENDBRANCH  11  14
ENDBRANCH   9  11
ENDBRANCH   4   7
ENDBRANCH   1   4
BRANCH   1  47
ATOM     47  C   UNL A   1      38.126  23.288  25.529  1.00  0.00    -0.052 C 
ATOM     48  H   UNL A   1      39.018  23.755  25.895  1.00  0.00     0.027 H 
ATOM     49  H   UNL A   1      37.977  23.412  24.477  1.00  0.00     0.027 H 
BRANCH  47  50
ATOM     50  C   UNL A   1      38.254  21.782  25.762  1.00  0.00    -0.052 C 
ATOM     51  H   UNL A   1      37.886  21.277  24.894  1.00  0.00     0.027 H 
ATOM     52  H   UNL A   1      37.690  21.562  26.646  1.00  0.00     0.027 H 
BRANCH  50  53
ATOM     53  C   UNL A   1      39.680  21.299  26.028  1.00  0.00    -0.036 C 
ATOM     54  H   UNL A   1      40.110  21.929  26.778  1.00  0.00     0.028 H 
ATOM     55  H   UNL A   1      40.196  21.349  25.093  1.00  0.00     0.028 H 
BRANCH  53  56
ATOM     56  C   UNL A   1      39.780  19.854  26.503  1.00  0.00     0.018 C 
ATOM     57  H   UNL A   1      38.907  19.326  26.182  1.00  0.00     0.049 H 
ATOM     58  H   UNL A   1      39.863  19.870  27.570  1.00  0.00     0.049 H 
BRANCH  56  59
ATOM     59  N   UNL A   1      40.955  19.174  25.981  1.00  0.00    -0.352 N 
ATOM     60  C   UNL A   1      42.215  19.672  25.771  1.00  0.00     0.251 C 
ATOM     61  H   UNL A   1      40.828  18.225  25.746  1.00  0.00     0.163 HD
ATOM     62  O   UNL A   1      43.056  19.005  25.171  1.00  0.00    -0.269 OA
BRANCH  60  63
ATOM     63  C   UNL A   1      42.555  21.028  26.247  1.00  0.00     0.039 A 
ATOM     64  C   UNL A   1      42.775  22.038  25.309  1.00  0.00    -0.049 A 
ATOM     65  C   UNL A   1      42.658  21.304  27.614  1.00  0.00    -0.049 A 
ATOM     66  C   UNL A   1      43.055  23.337  25.741  1.00  0.00    -0.053 A 
ATOM     67  H   UNL A   1      42.732  21.827  24.299  1.00  0.00     0.063 H 
ATOM     68  C   UNL A   1      42.857  22.613  28.044  1.00  0.00    -0.053 A 
ATOM     69  H   UNL A   1      42.588  20.539  28.302  1.00  0.00     0.063 H 
ATOM     70  C   UNL A   1      43.073  23.640  27.112  1.00  0.00    -0.014 A 
ATOM     71  H   UNL A   1      43.250  24.077  25.050  1.00  0.00     0.063 H 
ATOM     72  H   UNL A   1      42.845  22.829  29.053  1.00  0.00     0.063 H 
BRANCH  70  73
ATOM     73  C   UNL A   1      43.361  25.016  27.591  1.00  0.00     0.031 A 
ATOM     74  C   UNL A   1      44.786  25.464  27.773  1.00  0.00     0.074 A 
ATOM     75  C   UNL A   1      42.346  25.848  27.899  1.00  0.00     0.049 A 
ATOM     76  N   UNL A   1      45.248  26.597  28.242  1.00  0.00    -0.248 NA
ATOM     77  C   UNL A   1      45.835  24.498  27.404  1.00  0.00    -0.034 C 
ATOM     78  C   UNL A   1      40.923  25.519  27.807  1.00  0.00    -0.036 A 
ATOM     79  N   UNL A   1      42.358  27.140  28.362  1.00  0.00    -0.354 N 
ATOM     80  C   UNL A   1      46.632  26.477  28.223  1.00  0.00     0.074 A 
ATOM     81  C   UNL A   1      46.936  25.138  27.767  1.00  0.00    -0.034 C 
ATOM     82  H   UNL A   1      45.737  23.565  26.974  1.00  0.00     0.065 H 
ATOM     83  C   UNL A   1      40.200  26.586  28.185  1.00  0.00    -0.036 A 
ATOM     84  H   UNL A   1      40.537  24.612  27.501  1.00  0.00     0.065 H 
ATOM     85  C   UNL A   1      41.105  27.660  28.579  1.00  0.00     0.049 A 
ATOM     86  H   UNL A   1      43.187  27.647  28.524  1.00  0.00     0.167 HD
ATOM     87  C   UNL A   1      47.566  27.410  28.523  1.00  0.00     0.037 A 
ATOM     88  H   UNL A   1      47.885  24.736  27.729  1.00  0.00     0.065 H 
ATOM     89  H   UNL A   1      39.169  26.637  28.194  1.00  0.00     0.065 H 
ATOM     90  C   UNL A   1      40.733  28.865  29.051  1.00  0.00     0.037 A 
ATOM     91  C   UNL A   1      47.263  28.746  28.963  1.00  0.00     0.049 A 
ATOM     92  C   UNL A   1      41.794  29.879  29.393  1.00  0.00     0.074 A 
ATOM     93  C   UNL A   1      48.138  29.769  29.285  1.00  0.00    -0.036 A 
ATOM     94  N   UNL A   1      45.981  29.246  29.135  1.00  0.00    -0.354 N 
ATOM     95  N   UNL A   1      43.099  29.769  29.325  1.00  0.00    -0.248 NA
ATOM     96  C   UNL A   1      41.330  31.192  29.860  1.00  0.00    -0.034 C 
ATOM     97  C   UNL A   1      47.385  30.877  29.686  1.00  0.00    -0.036 A 
ATOM     98  H   UNL A   1      49.167  29.722  29.238  1.00  0.00     0.065 H 
ATOM     99  C   UNL A   1      46.041  30.563  29.559  1.00  0.00     0.049 A 
ATOM    100  H   UNL A   1      45.151  28.740  28.979  1.00  0.00     0.167 HD
ATOM    101  C   UNL A   1      43.606  31.007  29.698  1.00  0.00     0.074 A 
ATOM    102  C   UNL A   1      42.469  31.858  29.976  1.00  0.00    -0.034 C 
ATOM    103  H   UNL A   1      40.367  31.513  30.049  1.00  0.00     0.065 H 
ATOM    104  H   UNL A   1      47.766  31.777  30.020  1.00  0.00     0.065 H 
ATOM    105  C   UNL A   1      44.898  31.405  29.801  1.00  0.00     0.037 A 
ATOM    106  H   UNL A   1      42.537  32.854  30.232  1.00  0.00     0.065 H 
BRANCH  87 107
ATOM    107  C   UNL A   1      49.008  27.024  28.363  1.00  0.00     0.064 A 
ATOM    108  C   UNL A   1      49.739  26.474  29.429  1.00  0.00     0.173 A 
ATOM    109  C   UNL A   1      49.656  27.157  27.126  1.00  0.00     0.173 A 
ATOM    110  F   UNL A   1      49.170  26.337  30.636  1.00  0.00    -0.203 F 
ATOM    111  C   UNL A   1      51.068  26.094  29.268  1.00  0.00     0.198 A 
ATOM    112  C   UNL A   1      50.976  26.746  26.961  1.00  0.00     0.198 A 
ATOM    113  F   UNL A   1      49.004  27.672  26.073  1.00  0.00    -0.203 F 
ATOM    114  F   UNL A   1      51.757  25.614  30.313  1.00  0.00    -0.200 F 
ATOM    115  C   UNL A   1      51.683  26.222  28.032  1.00  0.00     0.200 A 
ATOM    116  F   UNL A   1      51.565  26.856  25.761  1.00  0.00    -0.200 F 
ATOM    117  F   UNL A   1      52.959  25.842  27.875  1.00  0.00    -0.200 F 
ENDBRANCH  87 107
BRANCH  90 118
ATOM    118  C   UNL A   1      39.291  29.195  29.221  1.00  0.00     0.064 A 
ATOM    119  C   UNL A   1      38.511  29.615  28.134  1.00  0.00     0.173 A 
ATOM    120  C   UNL A   1      38.676  29.141  30.480  1.00  0.00     0.173 A 
ATOM    121  F   UNL A   1      39.058  29.701  26.911  1.00  0.00    -0.203 F 
ATOM    122  C   UNL A   1      37.186  30.011  28.306  1.00  0.00     0.198 A 
ATOM    123  C   UNL A   1      37.340  29.504  30.645  1.00  0.00     0.198 A 
ATOM    124  F   UNL A   1      39.373  28.739  31.553  1.00  0.00    -0.203 F 
ATOM    125  F   UNL A   1      36.487  30.477  27.263  1.00  0.00    -0.200 F 
ATOM    126  C   UNL A   1      36.601  29.953  29.562  1.00  0.00     0.200 A 
ATOM    127  F   UNL A   1      36.774  29.430  31.857  1.00  0.00    -0.200 F 
ATOM    128  F   UNL A   1      35.330  30.342  29.729  1.00  0.00    -0.200 F 
ENDBRANCH  90 118
BRANCH 105 129
ATOM    129  C   UNL A   1      45.151  32.841  30.160  1.00  0.00     0.064 A 
ATOM    130  C   UNL A   1      45.329  33.257  31.488  1.00  0.00     0.173 A 
ATOM    131  C   UNL A   1      45.242  33.812  29.150  1.00  0.00     0.173 A 
ATOM    132  F   UNL A   1      45.239  32.370  32.490  1.00  0.00    -0.203 F 
ATOM    133  C   UNL A   1      45.550  34.597  31.794  1.00  0.00     0.198 A 
ATOM    134  C   UNL A   1      45.499  35.146  29.458  1.00  0.00     0.198 A 
ATOM    135  F   UNL A   1      45.091  33.468  27.863  1.00  0.00    -0.203 F 
ATOM    136  F   UNL A   1      45.656  34.980  33.073  1.00  0.00    -0.200 F 
ATOM    137  C   UNL A   1      45.641  35.539  30.780  1.00  0.00     0.200 A 
ATOM    138  F   UNL A   1      45.604  36.050  28.474  1.00  0.00    -0.200 F 
ATOM    139  F   UNL A   1      45.859  36.827  31.077  1.00  0.00    -0.200 F 
ENDBRANCH 105 129
ENDBRANCH  70  73
ENDBRANCH  60  63
ENDBRANCH  56  59
ENDBRANCH  53  56
ENDBRANCH  50  53
ENDBRANCH  47  50
ENDBRANCH   1  47
TORSDOF 18
ENDMDL
MODEL 10
REMARK VINA RESULT:     -11.7      5.721     11.177
REMARK SMILES O=C(CCCc1nc(-c2ccc(Cl)c(Cl)c2)c(-c2ccccc2)o1)NCCCCCCNC(=O)c1ccc(-c2c3nc(c(-c4c(F)c(F)c(F)c(F)c4F)c4ccc([nH]4)c(-c4c(F)c(F)c(F)c(F)c4F)c4nc(c(-c5c(F)c(F)c(F)c(F)c5F)c5ccc2[nH]5)C=C4)C=C3)cc1
REMARK SMILES IDX 27 1 26 4 25 7 1 8 2 9 3 11 4 14 5 17 6 20 7 21 24 22 8 23
REMARK SMILES IDX 17 24 9 25 10 26 16 27 11 28 14 30 12 32 15 34 13 35 18 36
REMARK SMILES IDX 19 37 23 38 20 39 22 41 21 43 28 47 29 50 30 53 31 56 32 59
REMARK SMILES IDX 33 60 34 62 35 63 36 64 97 65 37 66 96 68 38 70 39 73 40 74
REMARK SMILES IDX 90 75 41 76 95 77 89 78 91 79 42 80 94 81 88 83 87 85 43 87
REMARK SMILES IDX 75 90 55 91 74 92 56 93 59 94 73 95 92 96 57 97 58 99 72 101
REMARK SMILES IDX 93 102 60 105 44 107 45 108 53 109 46 110 47 111 51 112
REMARK SMILES IDX 54 113 48 114 49 115 52 116 50 117 76 118 77 119 85 120
REMARK SMILES IDX 78 121 79 122 83 123 86 124 80 125 81 126 84 127 82 128
REMARK SMILES IDX 61 129 62 130 70 131 63 132 64 133 68 134 71 135 65 136
REMARK SMILES IDX 66 137 69 138 67 139
REMARK H PARENT 27 2 27 3 26 5 26 6 25 10 3 12 3 13 4 15 4 16 5 18 5 19 10 29
REMARK H PARENT 16 31 11 33 19 40 23 42 20 44 22 45 21 46 28 48 28 49 29 51
REMARK H PARENT 29 52 30 54 30 55 31 57 31 58 32 61 36 67 97 69 37 71 96 72
REMARK H PARENT 95 82 89 84 91 86 94 88 88 89 56 98 59 100 92 103 57 104
REMARK H PARENT 93 106
REMARK Flexibility Score: inf
ROOT
ATOM      1  C   UNL A   1      33.633  30.135  26.350  1.00  0.00    -0.036 C 
ATOM      2  H   UNL A   1      33.890  30.882  25.629  1.00  0.00     0.028 H 
ATOM      3  H   UNL A   1      33.999  29.161  26.101  1.00  0.00     0.028 H 
ENDROOT
BRANCH   1   4
ATOM      4  C   UNL A   1      32.110  30.023  26.395  1.00  0.00     0.017 C 
ATOM      5  H   UNL A   1      31.782  30.164  27.404  1.00  0.00     0.049 H 
ATOM      6  H   UNL A   1      31.703  30.772  25.748  1.00  0.00     0.049 H 
BRANCH   4   7
ATOM      7  N   UNL A   1      31.650  28.732  25.930  1.00  0.00    -0.356 N 
ATOM      8  O   UNL A   1      31.319  27.832  28.015  1.00  0.00    -0.275 OA
ATOM      9  C   UNL A   1      31.275  27.732  26.793  1.00  0.00     0.220 C 
ATOM     10  H   UNL A   1      31.605  28.565  24.961  1.00  0.00     0.163 HD
BRANCH   9  11
ATOM     11  C   UNL A   1      30.786  26.475  26.106  1.00  0.00     0.027 C 
ATOM     12  H   UNL A   1      29.852  26.190  26.541  1.00  0.00     0.037 H 
ATOM     13  H   UNL A   1      31.538  25.725  26.242  1.00  0.00     0.037 H 
BRANCH  11  14
ATOM     14  C   UNL A   1      30.587  26.652  24.596  1.00  0.00    -0.036 C 
ATOM     15  H   UNL A   1      31.497  27.045  24.192  1.00  0.00     0.028 H 
ATOM     16  H   UNL A   1      29.741  27.301  24.495  1.00  0.00     0.028 H 
BRANCH  14  17
ATOM     17  C   UNL A   1      30.231  25.390  23.804  1.00  0.00     0.025 C 
ATOM     18  H   UNL A   1      30.236  25.627  22.761  1.00  0.00     0.037 H 
ATOM     19  H   UNL A   1      29.265  25.065  24.132  1.00  0.00     0.037 H 
BRANCH  17  20
ATOM     20  C   UNL A   1      31.184  24.276  24.043  1.00  0.00     0.195 A 
ATOM     21  N   UNL A   1      30.928  22.982  23.996  1.00  0.00    -0.213 NA
ATOM     22  O   UNL A   1      32.496  24.597  24.259  1.00  0.00    -0.440 OA
ATOM     23  C   UNL A   1      32.149  22.405  24.241  1.00  0.00     0.117 A 
ATOM     24  C   UNL A   1      33.119  23.380  24.357  1.00  0.00     0.162 A 
BRANCH  23  25
ATOM     25  C   UNL A   1      32.374  20.980  24.333  1.00  0.00     0.006 A 
ATOM     26  C   UNL A   1      32.652  20.389  25.568  1.00  0.00    -0.051 A 
ATOM     27  C   UNL A   1      32.284  20.177  23.187  1.00  0.00    -0.032 A 
ATOM     28  C   UNL A   1      32.802  19.003  25.665  1.00  0.00    -0.041 A 
ATOM     29  H   UNL A   1      32.747  20.978  26.411  1.00  0.00     0.063 H 
ATOM     30  C   UNL A   1      32.444  18.790  23.281  1.00  0.00     0.060 A 
ATOM     31  H   UNL A   1      32.100  20.611  22.269  1.00  0.00     0.065 H 
ATOM     32  C   UNL A   1      32.694  18.201  24.523  1.00  0.00     0.059 A 
ATOM     33  H   UNL A   1      32.994  18.569  26.581  1.00  0.00     0.064 H 
ATOM     34  Cl  UNL A   1      32.308  17.869  21.826  1.00  0.00    -0.083 Cl
ATOM     35  Cl  UNL A   1      32.871  16.493  24.719  1.00  0.00    -0.083 Cl
ENDBRANCH  23  25
BRANCH  24  36
ATOM     36  C   UNL A   1      34.560  23.378  24.491  1.00  0.00     0.020 A 
ATOM     37  C   UNL A   1      35.382  22.996  23.426  1.00  0.00    -0.051 A 
ATOM     38  C   UNL A   1      35.149  23.817  25.687  1.00  0.00    -0.051 A 
ATOM     39  C   UNL A   1      36.772  23.071  23.551  1.00  0.00    -0.062 A 
ATOM     40  H   UNL A   1      34.962  22.658  22.546  1.00  0.00     0.063 H 
ATOM     41  C   UNL A   1      36.536  23.881  25.813  1.00  0.00    -0.062 A 
ATOM     42  H   UNL A   1      34.549  24.094  26.480  1.00  0.00     0.063 H 
ATOM     43  C   UNL A   1      37.346  23.514  24.742  1.00  0.00    -0.062 A 
ATOM     44  H   UNL A   1      37.375  22.797  22.759  1.00  0.00     0.062 H 
ATOM     45  H   UNL A   1      36.960  24.201  26.697  1.00  0.00     0.062 H 
ATOM     46  H   UNL A   1      38.373  23.568  24.830  1.00  0.00     0.062 H 
ENDBRANCH  24  36
ENDBRANCH  17  20
ENDBRANCH  14  17
ENDBRANCH  11  14
ENDBRANCH   9  11
ENDBRANCH   4   7
ENDBRANCH   1   4
BRANCH   1  47
ATOM     47  C   UNL A   1      34.292  30.513  27.682  1.00  0.00    -0.052 C 
ATOM     48  H   UNL A   1      35.238  30.014  27.735  1.00  0.00     0.027 H 
ATOM     49  H   UNL A   1      33.605  30.215  28.446  1.00  0.00     0.027 H 
BRANCH  47  50
ATOM     50  C   UNL A   1      34.536  32.008  27.896  1.00  0.00    -0.052 C 
ATOM     51  H   UNL A   1      35.126  32.370  27.080  1.00  0.00     0.027 H 
ATOM     52  H   UNL A   1      35.027  32.103  28.843  1.00  0.00     0.027 H 
BRANCH  50  53
ATOM     53  C   UNL A   1      33.265  32.853  27.980  1.00  0.00    -0.036 C 
ATOM     54  H   UNL A   1      32.863  32.754  28.966  1.00  0.00     0.028 H 
ATOM     55  H   UNL A   1      32.607  32.487  27.221  1.00  0.00     0.028 H 
BRANCH  53  56
ATOM     56  C   UNL A   1      33.472  34.336  27.696  1.00  0.00     0.018 C 
ATOM     57  H   UNL A   1      33.008  34.574  26.762  1.00  0.00     0.049 H 
ATOM     58  H   UNL A   1      34.527  34.516  27.671  1.00  0.00     0.049 H 
BRANCH  56  59
ATOM     59  N   UNL A   1      32.905  35.188  28.729  1.00  0.00    -0.352 N 
ATOM     60  C   UNL A   1      33.223  35.252  30.062  1.00  0.00     0.251 C 
ATOM     61  H   UNL A   1      32.195  35.803  28.432  1.00  0.00     0.163 HD
ATOM     62  O   UNL A   1      32.535  35.916  30.835  1.00  0.00    -0.269 OA
BRANCH  60  63
ATOM     63  C   UNL A   1      34.384  34.497  30.574  1.00  0.00     0.039 A 
ATOM     64  C   UNL A   1      35.655  34.793  30.077  1.00  0.00    -0.049 A 
ATOM     65  C   UNL A   1      34.222  33.498  31.539  1.00  0.00    -0.049 A 
ATOM     66  C   UNL A   1      36.770  34.119  30.581  1.00  0.00    -0.053 A 
ATOM     67  H   UNL A   1      35.771  35.507  29.341  1.00  0.00     0.063 H 
ATOM     68  C   UNL A   1      35.340  32.885  32.098  1.00  0.00    -0.053 A 
ATOM     69  H   UNL A   1      33.275  33.216  31.836  1.00  0.00     0.063 H 
ATOM     70  C   UNL A   1      36.624  33.177  31.613  1.00  0.00    -0.014 A 
ATOM     71  H   UNL A   1      37.706  34.313  30.193  1.00  0.00     0.063 H 
ATOM     72  H   UNL A   1      35.224  32.213  32.871  1.00  0.00     0.063 H 
BRANCH  70  73
ATOM     73  C   UNL A   1      37.799  32.457  32.167  1.00  0.00     0.031 A 
ATOM     74  C   UNL A   1      38.410  31.317  31.397  1.00  0.00     0.074 A 
ATOM     75  C   UNL A   1      38.291  32.797  33.375  1.00  0.00     0.049 A 
ATOM     76  N   UNL A   1      39.393  30.520  31.734  1.00  0.00    -0.248 NA
ATOM     77  C   UNL A   1      37.821  31.016  30.082  1.00  0.00    -0.034 C 
ATOM     78  C   UNL A   1      37.760  33.854  34.237  1.00  0.00    -0.036 A 
ATOM     79  N   UNL A   1      39.343  32.283  34.090  1.00  0.00    -0.354 N 
ATOM     80  C   UNL A   1      39.536  29.629  30.678  1.00  0.00     0.074 A 
ATOM     81  C   UNL A   1      38.495  29.934  29.721  1.00  0.00    -0.034 C 
ATOM     82  H   UNL A   1      37.076  31.518  29.573  1.00  0.00     0.065 H 
ATOM     83  C   UNL A   1      38.500  33.920  35.357  1.00  0.00    -0.036 A 
ATOM     84  H   UNL A   1      36.947  34.452  34.021  1.00  0.00     0.065 H 
ATOM     85  C   UNL A   1      39.531  32.889  35.308  1.00  0.00     0.049 A 
ATOM     86  H   UNL A   1      39.910  31.547  33.761  1.00  0.00     0.167 HD
ATOM     87  C   UNL A   1      40.472  28.666  30.503  1.00  0.00     0.037 A 
ATOM     88  H   UNL A   1      38.303  29.382  28.871  1.00  0.00     0.065 H 
ATOM     89  H   UNL A   1      38.360  34.592  36.128  1.00  0.00     0.065 H 
ATOM     90  C   UNL A   1      40.431  32.634  36.278  1.00  0.00     0.037 A 
ATOM     91  C   UNL A   1      41.516  28.372  31.448  1.00  0.00     0.049 A 
ATOM     92  C   UNL A   1      41.452  31.546  36.063  1.00  0.00     0.074 A 
ATOM     93  C   UNL A   1      42.518  27.421  31.361  1.00  0.00    -0.036 A 
ATOM     94  N   UNL A   1      41.696  29.034  32.654  1.00  0.00    -0.354 N 
ATOM     95  N   UNL A   1      41.605  30.742  35.038  1.00  0.00    -0.248 NA
ATOM     96  C   UNL A   1      42.437  31.342  37.133  1.00  0.00    -0.034 C 
ATOM     97  C   UNL A   1      43.283  27.485  32.530  1.00  0.00    -0.036 A 
ATOM     98  H   UNL A   1      42.674  26.777  30.570  1.00  0.00     0.065 H 
ATOM     99  C   UNL A   1      42.793  28.512  33.319  1.00  0.00     0.049 A 
ATOM    100  H   UNL A   1      41.128  29.765  32.987  1.00  0.00     0.167 HD
ATOM    101  C   UNL A   1      42.724  29.972  35.321  1.00  0.00     0.074 A 
ATOM    102  C   UNL A   1      43.221  30.413  36.607  1.00  0.00    -0.034 C 
ATOM    103  H   UNL A   1      42.502  31.802  38.055  1.00  0.00     0.065 H 
ATOM    104  H   UNL A   1      44.079  26.869  32.764  1.00  0.00     0.065 H 
ATOM    105  C   UNL A   1      43.291  28.985  34.584  1.00  0.00     0.037 A 
ATOM    106  H   UNL A   1      44.076  30.051  37.056  1.00  0.00     0.065 H 
BRANCH  87 107
ATOM    107  C   UNL A   1      40.423  27.875  29.228  1.00  0.00     0.064 A 
ATOM    108  C   UNL A   1      41.199  28.236  28.115  1.00  0.00     0.173 A 
ATOM    109  C   UNL A   1      39.634  26.719  29.129  1.00  0.00     0.173 A 
ATOM    110  F   UNL A   1      41.961  29.339  28.153  1.00  0.00    -0.203 F 
ATOM    111  C   UNL A   1      41.170  27.483  26.944  1.00  0.00     0.198 A 
ATOM    112  C   UNL A   1      39.633  25.950  27.967  1.00  0.00     0.198 A 
ATOM    113  F   UNL A   1      38.877  26.325  30.164  1.00  0.00    -0.203 F 
ATOM    114  F   UNL A   1      41.885  27.874  25.880  1.00  0.00    -0.200 F 
ATOM    115  C   UNL A   1      40.394  26.336  26.875  1.00  0.00     0.200 A 
ATOM    116  F   UNL A   1      38.893  24.833  27.906  1.00  0.00    -0.200 F 
ATOM    117  F   UNL A   1      40.378  25.604  25.752  1.00  0.00    -0.200 F 
ENDBRANCH  87 107
BRANCH  90 118
ATOM    118  C   UNL A   1      40.424  33.425  37.538  1.00  0.00     0.064 A 
ATOM    119  C   UNL A   1      39.496  33.158  38.556  1.00  0.00     0.173 A 
ATOM    120  C   UNL A   1      41.312  34.493  37.733  1.00  0.00     0.173 A 
ATOM    121  F   UNL A   1      38.613  32.159  38.411  1.00  0.00    -0.203 F 
ATOM    122  C   UNL A   1      39.428  33.954  39.697  1.00  0.00     0.198 A 
ATOM    123  C   UNL A   1      41.266  35.266  38.891  1.00  0.00     0.198 A 
ATOM    124  F   UNL A   1      42.225  34.787  36.795  1.00  0.00    -0.203 F 
ATOM    125  F   UNL A   1      38.484  33.721  40.619  1.00  0.00    -0.200 F 
ATOM    126  C   UNL A   1      40.314  35.007  39.865  1.00  0.00     0.200 A 
ATOM    127  F   UNL A   1      42.135  36.273  39.056  1.00  0.00    -0.200 F 
ATOM    128  F   UNL A   1      40.243  35.778  40.958  1.00  0.00    -0.200 F 
ENDBRANCH  90 118
BRANCH 105 129
ATOM    129  C   UNL A   1      44.555  28.368  35.113  1.00  0.00     0.064 A 
ATOM    130  C   UNL A   1      45.821  28.885  34.802  1.00  0.00     0.173 A 
ATOM    131  C   UNL A   1      44.491  27.257  35.968  1.00  0.00     0.173 A 
ATOM    132  F   UNL A   1      45.938  29.938  33.980  1.00  0.00    -0.203 F 
ATOM    133  C   UNL A   1      46.978  28.287  35.296  1.00  0.00     0.198 A 
ATOM    134  C   UNL A   1      45.648  26.683  36.488  1.00  0.00     0.198 A 
ATOM    135  F   UNL A   1      43.304  26.730  36.306  1.00  0.00    -0.203 F 
ATOM    136  F   UNL A   1      48.179  28.759  34.936  1.00  0.00    -0.200 F 
ATOM    137  C   UNL A   1      46.890  27.192  36.142  1.00  0.00     0.200 A 
ATOM    138  F   UNL A   1      45.559  25.636  37.320  1.00  0.00    -0.200 F 
ATOM    139  F   UNL A   1      48.005  26.621  36.619  1.00  0.00    -0.200 F 
ENDBRANCH 105 129
ENDBRANCH  70  73
ENDBRANCH  60  63
ENDBRANCH  56  59
ENDBRANCH  53  56
ENDBRANCH  50  53
ENDBRANCH  47  50
ENDBRANCH   1  47
TORSDOF 18
ENDMDL
