MODEL 1
REMARK VINA RESULT:     -12.2      0.000      0.000
REMARK SMILES C[C@@H](C(=O)NCCCCCCNC(=O)c1ccc(-c2c3nc(c(-c4c(F)c(F)c(F)c(F)c4F)c4ccc([nH]4)c(-c4c(F)c(F)c(F)c(F)c4F)c4nc(c(-c5c(F)c(F)c(F)c(F)c5F)c5ccc2[nH]5)C=C4)C=C3)cc1)c1ccc(C[C@H]2CCCC2=O)cc1[N+](=O)[O-]
REMARK SMILES IDX 8 1 7 4 6 7 5 10 3 11 4 12 2 14 1 16 78 20 79 21 90 22 80 23
REMARK SMILES IDX 89 25 81 26 91 29 92 30 93 31 82 32 83 35 84 36 87 37 85 39
REMARK SMILES IDX 86 42 88 43 9 48 10 51 11 54 12 57 13 58 14 60 15 61 16 62
REMARK SMILES IDX 77 63 17 64 76 66 18 68 19 71 20 72 70 73 21 74 75 75 69 76
REMARK SMILES IDX 71 77 22 78 74 79 68 81 67 83 23 85 55 88 35 89 54 90 36 91
REMARK SMILES IDX 39 92 53 93 72 94 37 95 38 97 52 99 73 100 40 103 24 105
REMARK SMILES IDX 25 106 33 107 26 108 27 109 31 110 34 111 28 112 29 113
REMARK SMILES IDX 32 114 30 115 56 116 57 117 65 118 58 119 59 120 63 121
REMARK SMILES IDX 66 122 60 123 61 124 64 125 62 126 41 127 42 128 50 129
REMARK SMILES IDX 43 130 44 131 48 132 51 133 45 134 46 135 49 136 47 137
REMARK H PARENT 8 2 8 3 7 5 7 6 6 8 6 9 5 13 2 15 1 17 1 18 1 19 79 24 80 27
REMARK H PARENT 89 28 82 33 82 34 83 38 84 40 84 41 85 44 85 45 86 46 86 47
REMARK H PARENT 9 49 9 50 10 52 10 53 11 55 11 56 12 59 16 65 77 67 17 69
REMARK H PARENT 76 70 75 80 69 82 71 84 74 86 68 87 36 96 39 98 72 101 37 102
REMARK H PARENT 73 104
REMARK Flexibility Score: inf
ROOT
ATOM      1  C   UNL A   1      32.274  29.748  26.663  1.00  0.00    -0.052 C 
ATOM      2  H   UNL A   1      32.961  29.305  25.972  1.00  0.00     0.027 H 
ATOM      3  H   UNL A   1      32.757  30.306  27.438  1.00  0.00     0.027 H 
ENDROOT
BRANCH   1   4
ATOM      4  C   UNL A   1      31.502  28.620  27.359  1.00  0.00    -0.036 C 
ATOM      5  H   UNL A   1      31.550  28.780  28.416  1.00  0.00     0.028 H 
ATOM      6  H   UNL A   1      30.500  28.652  26.985  1.00  0.00     0.028 H 
BRANCH   4   7
ATOM      7  C   UNL A   1      32.048  27.219  27.058  1.00  0.00     0.017 C 
ATOM      8  H   UNL A   1      33.033  27.302  26.646  1.00  0.00     0.049 H 
ATOM      9  H   UNL A   1      32.086  26.650  27.962  1.00  0.00     0.049 H 
BRANCH   7  10
ATOM     10  N   UNL A   1      31.182  26.556  26.106  1.00  0.00    -0.356 N 
ATOM     11  C   UNL A   1      31.513  25.814  25.008  1.00  0.00     0.227 C 
ATOM     12  O   UNL A   1      30.642  25.694  24.144  1.00  0.00    -0.274 OA
ATOM     13  H   UNL A   1      30.217  26.654  26.274  1.00  0.00     0.163 HD
BRANCH  11  14
ATOM     14  C   UNL A   1      32.893  25.116  24.923  1.00  0.00     0.067 C 
ATOM     15  H   UNL A   1      33.422  25.194  25.850  1.00  0.00     0.045 H 
BRANCH  14  16
ATOM     16  C   UNL A   1      33.783  25.847  23.918  1.00  0.00    -0.049 C 
ATOM     17  H   UNL A   1      34.393  26.559  24.435  1.00  0.00     0.024 H 
ATOM     18  H   UNL A   1      33.172  26.355  23.202  1.00  0.00     0.024 H 
ATOM     19  H   UNL A   1      34.409  25.140  23.415  1.00  0.00     0.024 H 
ENDBRANCH  14  16
BRANCH  14  20
ATOM     20  C   UNL A   1      32.742  23.592  24.753  1.00  0.00     0.042 A 
ATOM     21  C   UNL A   1      33.123  23.058  23.501  1.00  0.00    -0.051 A 
ATOM     22  C   UNL A   1      32.235  22.666  25.685  1.00  0.00     0.273 A 
ATOM     23  C   UNL A   1      33.037  21.692  23.209  1.00  0.00    -0.058 A 
ATOM     24  H   UNL A   1      33.477  23.699  22.774  1.00  0.00     0.063 H 
ATOM     25  C   UNL A   1      32.096  21.300  25.376  1.00  0.00     0.019 A 
ATOM     26  C   UNL A   1      32.490  20.802  24.133  1.00  0.00    -0.040 A 
ATOM     27  H   UNL A   1      33.381  21.340  22.303  1.00  0.00     0.063 H 
ATOM     28  H   UNL A   1      31.696  20.658  26.077  1.00  0.00     0.070 H 
BRANCH  22  29
ATOM     29  N   UNL A   1      31.836  23.023  27.014  1.00  0.00     0.063 N 
ATOM     30  O   UNL A   1      30.754  23.536  27.211  1.00  0.00    -0.258 OA
ATOM     31  O   UNL A   1      32.610  22.675  28.093  1.00  0.00    -0.258 OA
ENDBRANCH  22  29
BRANCH  26  32
ATOM     32  C   UNL A   1      32.331  19.337  23.809  1.00  0.00    -0.018 C 
ATOM     33  H   UNL A   1      32.371  19.232  22.745  1.00  0.00     0.032 H 
ATOM     34  H   UNL A   1      31.399  19.048  24.248  1.00  0.00     0.032 H 
BRANCH  32  35
ATOM     35  C   UNL A   1      33.374  18.387  24.410  1.00  0.00     0.022 C 
ATOM     36  C   UNL A   1      33.087  17.855  25.818  1.00  0.00    -0.043 C 
ATOM     37  C   UNL A   1      33.521  17.111  23.615  1.00  0.00     0.136 C 
ATOM     38  H   UNL A   1      34.233  19.024  24.410  1.00  0.00     0.039 H 
ATOM     39  C   UNL A   1      32.475  16.472  25.636  1.00  0.00    -0.046 C 
ATOM     40  H   UNL A   1      32.400  18.501  26.325  1.00  0.00     0.027 H 
ATOM     41  H   UNL A   1      33.978  17.812  26.408  1.00  0.00     0.027 H 
ATOM     42  C   UNL A   1      33.157  15.885  24.408  1.00  0.00     0.006 C 
ATOM     43  O   UNL A   1      33.910  17.073  22.453  1.00  0.00    -0.299 OA
ATOM     44  H   UNL A   1      31.419  16.546  25.478  1.00  0.00     0.027 H 
ATOM     45  H   UNL A   1      32.617  15.857  26.500  1.00  0.00     0.027 H 
ATOM     46  H   UNL A   1      32.487  15.255  23.859  1.00  0.00     0.035 H 
ATOM     47  H   UNL A   1      33.998  15.267  24.644  1.00  0.00     0.035 H 
ENDBRANCH  32  35
ENDBRANCH  26  32
ENDBRANCH  14  20
ENDBRANCH  11  14
ENDBRANCH   7  10
ENDBRANCH   4   7
ENDBRANCH   1   4
BRANCH   1  48
ATOM     48  C   UNL A   1      31.400  30.742  25.895  1.00  0.00    -0.052 C 
ATOM     49  H   UNL A   1      30.416  30.328  25.814  1.00  0.00     0.027 H 
ATOM     50  H   UNL A   1      31.874  30.890  24.947  1.00  0.00     0.027 H 
BRANCH  48  51
ATOM     51  C   UNL A   1      31.284  32.126  26.539  1.00  0.00    -0.036 C 
ATOM     52  H   UNL A   1      30.566  32.067  27.329  1.00  0.00     0.028 H 
ATOM     53  H   UNL A   1      30.996  32.800  25.758  1.00  0.00     0.028 H 
BRANCH  51  54
ATOM     54  C   UNL A   1      32.587  32.669  27.119  1.00  0.00     0.018 C 
ATOM     55  H   UNL A   1      33.338  32.656  26.357  1.00  0.00     0.049 H 
ATOM     56  H   UNL A   1      32.867  32.048  27.945  1.00  0.00     0.049 H 
BRANCH  54  57
ATOM     57  N   UNL A   1      32.437  34.029  27.608  1.00  0.00    -0.352 N 
ATOM     58  C   UNL A   1      33.093  34.672  28.626  1.00  0.00     0.251 C 
ATOM     59  H   UNL A   1      31.761  34.570  27.139  1.00  0.00     0.163 HD
ATOM     60  O   UNL A   1      32.678  35.751  29.035  1.00  0.00    -0.269 OA
BRANCH  58  61
ATOM     61  C   UNL A   1      34.296  34.069  29.242  1.00  0.00     0.039 A 
ATOM     62  C   UNL A   1      34.120  33.127  30.260  1.00  0.00    -0.049 A 
ATOM     63  C   UNL A   1      35.583  34.457  28.861  1.00  0.00    -0.049 A 
ATOM     64  C   UNL A   1      35.234  32.545  30.865  1.00  0.00    -0.053 A 
ATOM     65  H   UNL A   1      33.170  32.864  30.562  1.00  0.00     0.063 H 
ATOM     66  C   UNL A   1      36.696  33.828  29.421  1.00  0.00    -0.053 A 
ATOM     67  H   UNL A   1      35.712  35.207  28.165  1.00  0.00     0.063 H 
ATOM     68  C   UNL A   1      36.531  32.873  30.435  1.00  0.00    -0.014 A 
ATOM     69  H   UNL A   1      35.105  31.869  31.634  1.00  0.00     0.063 H 
ATOM     70  H   UNL A   1      37.643  34.068  29.090  1.00  0.00     0.063 H 
BRANCH  68  71
ATOM     71  C   UNL A   1      37.714  32.213  31.044  1.00  0.00     0.031 A 
ATOM     72  C   UNL A   1      38.194  32.615  32.411  1.00  0.00     0.074 A 
ATOM     73  C   UNL A   1      38.370  31.264  30.350  1.00  0.00     0.049 A 
ATOM     74  N   UNL A   1      39.202  32.146  33.105  1.00  0.00    -0.248 NA
ATOM     75  C   UNL A   1      37.460  33.700  33.080  1.00  0.00    -0.034 C 
ATOM     76  C   UNL A   1      38.036  30.830  28.992  1.00  0.00    -0.036 A 
ATOM     77  N   UNL A   1      39.454  30.494  30.688  1.00  0.00    -0.354 N 
ATOM     78  C   UNL A   1      39.219  32.873  34.288  1.00  0.00     0.074 A 
ATOM     79  C   UNL A   1      38.161  33.856  34.195  1.00  0.00    -0.034 C 
ATOM     80  H   UNL A   1      36.618  34.208  32.765  1.00  0.00     0.065 H 
ATOM     81  C   UNL A   1      38.884  29.858  28.621  1.00  0.00    -0.036 A 
ATOM     82  H   UNL A   1      37.273  31.212  28.412  1.00  0.00     0.065 H 
ATOM     83  C   UNL A   1      39.833  29.616  29.703  1.00  0.00     0.049 A 
ATOM     84  H   UNL A   1      39.917  30.566  31.555  1.00  0.00     0.167 HD
ATOM     85  C   UNL A   1      40.025  32.715  35.364  1.00  0.00     0.037 A 
ATOM     86  H   UNL A   1      37.975  34.582  34.904  1.00  0.00     0.065 H 
ATOM     87  H   UNL A   1      38.867  29.361  27.717  1.00  0.00     0.065 H 
ATOM     88  C   UNL A   1      40.832  28.713  29.678  1.00  0.00     0.037 A 
ATOM     89  C   UNL A   1      41.071  31.730  35.460  1.00  0.00     0.049 A 
ATOM     90  C   UNL A   1      41.702  28.549  30.895  1.00  0.00     0.074 A 
ATOM     91  C   UNL A   1      41.921  31.472  36.520  1.00  0.00    -0.036 A 
ATOM     92  N   UNL A   1      41.405  30.836  34.453  1.00  0.00    -0.354 N 
ATOM     93  N   UNL A   1      41.666  29.201  32.031  1.00  0.00    -0.248 NA
ATOM     94  C   UNL A   1      42.741  27.513  30.828  1.00  0.00    -0.034 C 
ATOM     95  C   UNL A   1      42.794  30.444  36.143  1.00  0.00    -0.036 A 
ATOM     96  H   UNL A   1      41.915  31.954  37.433  1.00  0.00     0.065 H 
ATOM     97  C   UNL A   1      42.457  30.033  34.864  1.00  0.00     0.049 A 
ATOM     98  H   UNL A   1      40.961  30.781  33.576  1.00  0.00     0.167 HD
ATOM     99  C   UNL A   1      42.662  28.642  32.822  1.00  0.00     0.074 A 
ATOM    100  C   UNL A   1      43.266  27.580  32.044  1.00  0.00    -0.034 C 
ATOM    101  H   UNL A   1      42.996  26.894  30.043  1.00  0.00     0.065 H 
ATOM    102  H   UNL A   1      43.558  30.059  36.720  1.00  0.00     0.065 H 
ATOM    103  C   UNL A   1      43.047  28.981  34.076  1.00  0.00     0.037 A 
ATOM    104  H   UNL A   1      44.010  26.956  32.392  1.00  0.00     0.065 H 
BRANCH  85 105
ATOM    105  C   UNL A   1      39.795  33.620  36.541  1.00  0.00     0.064 A 
ATOM    106  C   UNL A   1      40.415  34.877  36.625  1.00  0.00     0.173 A 
ATOM    107  C   UNL A   1      38.913  33.254  37.568  1.00  0.00     0.173 A 
ATOM    108  F   UNL A   1      41.276  35.269  35.674  1.00  0.00    -0.203 F 
ATOM    109  C   UNL A   1      40.177  35.723  37.704  1.00  0.00     0.198 A 
ATOM    110  C   UNL A   1      38.656  34.114  38.632  1.00  0.00     0.198 A 
ATOM    111  F   UNL A   1      38.290  32.066  37.534  1.00  0.00    -0.203 F 
ATOM    112  F   UNL A   1      40.811  36.900  37.783  1.00  0.00    -0.200 F 
ATOM    113  C   UNL A   1      39.292  35.345  38.703  1.00  0.00     0.200 A 
ATOM    114  F   UNL A   1      37.792  33.753  39.591  1.00  0.00    -0.200 F 
ATOM    115  F   UNL A   1      39.056  36.165  39.736  1.00  0.00    -0.200 F 
ENDBRANCH  85 105
BRANCH  88 116
ATOM    116  C   UNL A   1      41.047  27.878  28.469  1.00  0.00     0.064 A 
ATOM    117  C   UNL A   1      41.906  28.297  27.444  1.00  0.00     0.173 A 
ATOM    118  C   UNL A   1      40.388  26.650  28.308  1.00  0.00     0.173 A 
ATOM    119  F   UNL A   1      42.544  29.472  27.544  1.00  0.00    -0.203 F 
ATOM    120  C   UNL A   1      42.078  27.532  26.292  1.00  0.00     0.198 A 
ATOM    121  C   UNL A   1      40.584  25.873  27.169  1.00  0.00     0.198 A 
ATOM    122  F   UNL A   1      39.561  26.201  29.263  1.00  0.00    -0.203 F 
ATOM    123  F   UNL A   1      42.867  27.980  25.306  1.00  0.00    -0.200 F 
ATOM    124  C   UNL A   1      41.421  26.318  26.158  1.00  0.00     0.200 A 
ATOM    125  F   UNL A   1      39.958  24.694  27.050  1.00  0.00    -0.200 F 
ATOM    126  F   UNL A   1      41.587  25.583  25.050  1.00  0.00    -0.200 F 
ENDBRANCH  88 116
BRANCH 103 127
ATOM    127  C   UNL A   1      44.160  28.182  34.687  1.00  0.00     0.064 A 
ATOM    128  C   UNL A   1      43.907  27.005  35.407  1.00  0.00     0.173 A 
ATOM    129  C   UNL A   1      45.494  28.589  34.538  1.00  0.00     0.173 A 
ATOM    130  F   UNL A   1      42.647  26.582  35.590  1.00  0.00    -0.203 F 
ATOM    131  C   UNL A   1      44.949  26.283  35.984  1.00  0.00     0.198 A 
ATOM    132  C   UNL A   1      46.535  27.849  35.091  1.00  0.00     0.198 A 
ATOM    133  F   UNL A   1      45.789  29.704  33.852  1.00  0.00    -0.203 F 
ATOM    134  F   UNL A   1      44.681  25.192  36.715  1.00  0.00    -0.200 F 
ATOM    135  C   UNL A   1      46.261  26.703  35.822  1.00  0.00     0.200 A 
ATOM    136  F   UNL A   1      47.802  28.249  34.923  1.00  0.00    -0.200 F 
ATOM    137  F   UNL A   1      47.261  26.006  36.379  1.00  0.00    -0.200 F 
ENDBRANCH 103 127
ENDBRANCH  68  71
ENDBRANCH  58  61
ENDBRANCH  54  57
ENDBRANCH  51  54
ENDBRANCH  48  51
ENDBRANCH   1  48
TORSDOF 18
ENDMDL
MODEL 2
REMARK VINA RESULT:     -12.1      1.216      7.420
REMARK SMILES C[C@@H](C(=O)NCCCCCCNC(=O)c1ccc(-c2c3nc(c(-c4c(F)c(F)c(F)c(F)c4F)c4ccc([nH]4)c(-c4c(F)c(F)c(F)c(F)c4F)c4nc(c(-c5c(F)c(F)c(F)c(F)c5F)c5ccc2[nH]5)C=C4)C=C3)cc1)c1ccc(C[C@H]2CCCC2=O)cc1[N+](=O)[O-]
REMARK SMILES IDX 8 1 7 4 6 7 5 10 3 11 4 12 2 14 1 16 78 20 79 21 90 22 80 23
REMARK SMILES IDX 89 25 81 26 91 29 92 30 93 31 82 32 83 35 84 36 87 37 85 39
REMARK SMILES IDX 86 42 88 43 9 48 10 51 11 54 12 57 13 58 14 60 15 61 16 62
REMARK SMILES IDX 77 63 17 64 76 66 18 68 19 71 20 72 70 73 21 74 75 75 69 76
REMARK SMILES IDX 71 77 22 78 74 79 68 81 67 83 23 85 55 88 35 89 54 90 36 91
REMARK SMILES IDX 39 92 53 93 72 94 37 95 38 97 52 99 73 100 40 103 24 105
REMARK SMILES IDX 25 106 33 107 26 108 27 109 31 110 34 111 28 112 29 113
REMARK SMILES IDX 32 114 30 115 56 116 57 117 65 118 58 119 59 120 63 121
REMARK SMILES IDX 66 122 60 123 61 124 64 125 62 126 41 127 42 128 50 129
REMARK SMILES IDX 43 130 44 131 48 132 51 133 45 134 46 135 49 136 47 137
REMARK H PARENT 8 2 8 3 7 5 7 6 6 8 6 9 5 13 2 15 1 17 1 18 1 19 79 24 80 27
REMARK H PARENT 89 28 82 33 82 34 83 38 84 40 84 41 85 44 85 45 86 46 86 47
REMARK H PARENT 9 49 9 50 10 52 10 53 11 55 11 56 12 59 16 65 77 67 17 69
REMARK H PARENT 76 70 75 80 69 82 71 84 74 86 68 87 36 96 39 98 72 101 37 102
REMARK H PARENT 73 104
REMARK Flexibility Score: inf
ROOT
ATOM      1  C   UNL A   1      32.466  30.011  26.837  1.00  0.00    -0.052 C 
ATOM      2  H   UNL A   1      33.253  29.768  26.153  1.00  0.00     0.027 H 
ATOM      3  H   UNL A   1      32.795  30.606  27.663  1.00  0.00     0.027 H 
ENDROOT
BRANCH   1   4
ATOM      4  C   UNL A   1      31.929  28.703  27.431  1.00  0.00    -0.036 C 
ATOM      5  H   UNL A   1      32.384  28.555  28.388  1.00  0.00     0.028 H 
ATOM      6  H   UNL A   1      30.866  28.804  27.495  1.00  0.00     0.028 H 
BRANCH   4   7
ATOM      7  C   UNL A   1      32.211  27.469  26.566  1.00  0.00     0.017 C 
ATOM      8  H   UNL A   1      32.111  27.728  25.532  1.00  0.00     0.049 H 
ATOM      9  H   UNL A   1      33.207  27.124  26.752  1.00  0.00     0.049 H 
BRANCH   7  10
ATOM     10  N   UNL A   1      31.268  26.420  26.895  1.00  0.00    -0.356 N 
ATOM     11  C   UNL A   1      30.485  25.672  26.064  1.00  0.00     0.227 C 
ATOM     12  O   UNL A   1      29.495  25.142  26.572  1.00  0.00    -0.274 OA
ATOM     13  H   UNL A   1      31.179  26.219  27.854  1.00  0.00     0.163 HD
BRANCH  11  14
ATOM     14  C   UNL A   1      30.892  25.463  24.584  1.00  0.00     0.067 C 
ATOM     15  H   UNL A   1      31.646  26.163  24.289  1.00  0.00     0.045 H 
BRANCH  14  16
ATOM     16  C   UNL A   1      29.707  25.778  23.671  1.00  0.00    -0.049 C 
ATOM     17  H   UNL A   1      29.416  26.799  23.805  1.00  0.00     0.024 H 
ATOM     18  H   UNL A   1      28.886  25.138  23.917  1.00  0.00     0.024 H 
ATOM     19  H   UNL A   1      29.990  25.619  22.651  1.00  0.00     0.024 H 
ENDBRANCH  14  16
BRANCH  14  20
ATOM     20  C   UNL A   1      31.597  24.108  24.380  1.00  0.00     0.042 A 
ATOM     21  C   UNL A   1      31.163  23.043  25.202  1.00  0.00    -0.051 A 
ATOM     22  C   UNL A   1      32.652  23.810  23.497  1.00  0.00     0.273 A 
ATOM     23  C   UNL A   1      31.717  21.760  25.124  1.00  0.00    -0.058 A 
ATOM     24  H   UNL A   1      30.409  23.218  25.885  1.00  0.00     0.063 H 
ATOM     25  C   UNL A   1      33.249  22.535  23.455  1.00  0.00     0.019 A 
ATOM     26  C   UNL A   1      32.790  21.502  24.273  1.00  0.00    -0.040 A 
ATOM     27  H   UNL A   1      31.328  21.000  25.702  1.00  0.00     0.063 H 
ATOM     28  H   UNL A   1      34.037  22.364  22.812  1.00  0.00     0.070 H 
BRANCH  22  29
ATOM     29  N   UNL A   1      33.194  24.755  22.567  1.00  0.00     0.063 N 
ATOM     30  O   UNL A   1      33.798  25.728  22.966  1.00  0.00    -0.258 OA
ATOM     31  O   UNL A   1      33.150  24.510  21.216  1.00  0.00    -0.258 OA
ENDBRANCH  22  29
BRANCH  26  32
ATOM     32  C   UNL A   1      33.441  20.141  24.225  1.00  0.00    -0.018 C 
ATOM     33  H   UNL A   1      33.942  19.986  25.158  1.00  0.00     0.032 H 
ATOM     34  H   UNL A   1      34.088  20.165  23.373  1.00  0.00     0.032 H 
BRANCH  32  35
ATOM     35  C   UNL A   1      32.509  18.945  23.993  1.00  0.00     0.022 C 
ATOM     36  C   UNL A   1      32.706  18.165  22.689  1.00  0.00    -0.043 C 
ATOM     37  C   UNL A   1      32.682  17.866  25.036  1.00  0.00     0.136 C 
ATOM     38  H   UNL A   1      31.561  19.440  24.003  1.00  0.00     0.039 H 
ATOM     39  C   UNL A   1      33.564  16.955  23.040  1.00  0.00    -0.046 C 
ATOM     40  H   UNL A   1      33.205  18.775  21.965  1.00  0.00     0.027 H 
ATOM     41  H   UNL A   1      31.769  17.868  22.267  1.00  0.00     0.027 H 
ATOM     42  C   UNL A   1      33.149  16.560  24.451  1.00  0.00     0.006 C 
ATOM     43  O   UNL A   1      32.452  18.028  26.229  1.00  0.00    -0.299 OA
ATOM     44  H   UNL A   1      34.602  17.211  23.013  1.00  0.00     0.027 H 
ATOM     45  H   UNL A   1      33.422  16.153  22.347  1.00  0.00     0.027 H 
ATOM     46  H   UNL A   1      33.979  16.167  25.000  1.00  0.00     0.035 H 
ATOM     47  H   UNL A   1      32.404  15.794  24.476  1.00  0.00     0.035 H 
ENDBRANCH  32  35
ENDBRANCH  26  32
ENDBRANCH  14  20
ENDBRANCH  11  14
ENDBRANCH   7  10
ENDBRANCH   4   7
ENDBRANCH   1   4
BRANCH   1  48
ATOM     48  C   UNL A   1      31.426  30.848  26.088  1.00  0.00    -0.052 C 
ATOM     49  H   UNL A   1      30.464  30.411  26.255  1.00  0.00     0.027 H 
ATOM     50  H   UNL A   1      31.719  30.843  25.059  1.00  0.00     0.027 H 
BRANCH  48  51
ATOM     51  C   UNL A   1      31.361  32.318  26.511  1.00  0.00    -0.036 C 
ATOM     52  H   UNL A   1      30.513  32.446  27.150  1.00  0.00     0.028 H 
ATOM     53  H   UNL A   1      31.297  32.890  25.608  1.00  0.00     0.028 H 
BRANCH  51  54
ATOM     54  C   UNL A   1      32.597  32.822  27.253  1.00  0.00     0.018 C 
ATOM     55  H   UNL A   1      33.446  32.738  26.608  1.00  0.00     0.049 H 
ATOM     56  H   UNL A   1      32.721  32.225  28.133  1.00  0.00     0.049 H 
BRANCH  54  57
ATOM     57  N   UNL A   1      32.454  34.208  27.665  1.00  0.00    -0.352 N 
ATOM     58  C   UNL A   1      33.069  34.887  28.685  1.00  0.00     0.251 C 
ATOM     59  H   UNL A   1      31.819  34.739  27.132  1.00  0.00     0.163 HD
ATOM     60  O   UNL A   1      32.659  35.994  29.017  1.00  0.00    -0.269 OA
BRANCH  58  61
ATOM     61  C   UNL A   1      34.220  34.290  29.397  1.00  0.00     0.039 A 
ATOM     62  C   UNL A   1      33.979  33.590  30.583  1.00  0.00    -0.049 A 
ATOM     63  C   UNL A   1      35.529  34.454  28.935  1.00  0.00    -0.049 A 
ATOM     64  C   UNL A   1      35.044  33.021  31.280  1.00  0.00    -0.053 A 
ATOM     65  H   UNL A   1      33.016  33.495  30.940  1.00  0.00     0.063 H 
ATOM     66  C   UNL A   1      36.586  33.830  29.597  1.00  0.00    -0.053 A 
ATOM     67  H   UNL A   1      35.713  35.035  28.102  1.00  0.00     0.063 H 
ATOM     68  C   UNL A   1      36.354  33.116  30.781  1.00  0.00    -0.014 A 
ATOM     69  H   UNL A   1      34.870  32.526  32.169  1.00  0.00     0.063 H 
ATOM     70  H   UNL A   1      37.543  33.897  29.215  1.00  0.00     0.063 H 
BRANCH  68  71
ATOM     71  C   UNL A   1      37.480  32.464  31.497  1.00  0.00     0.031 A 
ATOM     72  C   UNL A   1      38.227  31.320  30.869  1.00  0.00     0.074 A 
ATOM     73  C   UNL A   1      37.814  32.892  32.730  1.00  0.00     0.049 A 
ATOM     74  N   UNL A   1      39.239  30.635  31.341  1.00  0.00    -0.248 NA
ATOM     75  C   UNL A   1      37.765  30.872  29.547  1.00  0.00    -0.034 C 
ATOM     76  C   UNL A   1      37.126  33.953  33.468  1.00  0.00    -0.036 A 
ATOM     77  N   UNL A   1      38.811  32.488  33.581  1.00  0.00    -0.354 N 
ATOM     78  C   UNL A   1      39.535  29.682  30.375  1.00  0.00     0.074 A 
ATOM     79  C   UNL A   1      38.559  29.836  29.318  1.00  0.00    -0.034 C 
ATOM     80  H   UNL A   1      37.017  31.263  28.952  1.00  0.00     0.065 H 
ATOM     81  C   UNL A   1      37.736  34.131  34.651  1.00  0.00    -0.036 A 
ATOM     82  H   UNL A   1      36.304  34.480  33.134  1.00  0.00     0.065 H 
ATOM     83  C   UNL A   1      38.840  33.183  34.764  1.00  0.00     0.049 A 
ATOM     84  H   UNL A   1      39.447  31.768  33.362  1.00  0.00     0.167 HD
ATOM     85  C   UNL A   1      40.546  28.782  30.358  1.00  0.00     0.037 A 
ATOM     86  H   UNL A   1      38.491  29.220  28.492  1.00  0.00     0.065 H 
ATOM     87  H   UNL A   1      37.467  34.825  35.365  1.00  0.00     0.065 H 
ATOM     88  C   UNL A   1      39.667  33.070  35.821  1.00  0.00     0.037 A 
ATOM     89  C   UNL A   1      41.524  28.637  31.407  1.00  0.00     0.049 A 
ATOM     90  C   UNL A   1      40.790  32.072  35.768  1.00  0.00     0.074 A 
ATOM     91  C   UNL A   1      42.603  27.774  31.469  1.00  0.00    -0.036 A 
ATOM     92  N   UNL A   1      41.538  29.380  32.578  1.00  0.00    -0.354 N 
ATOM     93  N   UNL A   1      41.097  31.220  34.820  1.00  0.00    -0.248 NA
ATOM     94  C   UNL A   1      41.692  32.030  36.928  1.00  0.00    -0.034 C 
ATOM     95  C   UNL A   1      43.252  27.971  32.693  1.00  0.00    -0.036 A 
ATOM     96  H   UNL A   1      42.882  27.100  30.739  1.00  0.00     0.065 H 
ATOM     97  C   UNL A   1      42.602  28.987  33.374  1.00  0.00     0.049 A 
ATOM     98  H   UNL A   1      40.888  30.081  32.810  1.00  0.00     0.167 HD
ATOM     99  C   UNL A   1      42.235  30.556  35.258  1.00  0.00     0.074 A 
ATOM    100  C   UNL A   1      42.580  31.123  36.546  1.00  0.00    -0.034 C 
ATOM    101  H   UNL A   1      41.647  32.566  37.809  1.00  0.00     0.065 H 
ATOM    102  H   UNL A   1      44.075  27.447  33.031  1.00  0.00     0.065 H 
ATOM    103  C   UNL A   1      42.930  29.562  34.653  1.00  0.00     0.037 A 
ATOM    104  H   UNL A   1      43.411  30.855  37.095  1.00  0.00     0.065 H 
BRANCH  85 105
ATOM    105  C   UNL A   1      40.661  27.890  29.155  1.00  0.00     0.064 A 
ATOM    106  C   UNL A   1      39.851  26.752  29.013  1.00  0.00     0.173 A 
ATOM    107  C   UNL A   1      41.549  28.198  28.115  1.00  0.00     0.173 A 
ATOM    108  F   UNL A   1      38.994  26.408  29.985  1.00  0.00    -0.203 F 
ATOM    109  C   UNL A   1      39.943  25.945  27.883  1.00  0.00     0.198 A 
ATOM    110  C   UNL A   1      41.618  27.403  26.974  1.00  0.00     0.198 A 
ATOM    111  F   UNL A   1      42.342  29.276  28.199  1.00  0.00    -0.203 F 
ATOM    112  F   UNL A   1      39.188  24.842  27.787  1.00  0.00    -0.200 F 
ATOM    113  C   UNL A   1      40.820  26.275  26.860  1.00  0.00     0.200 A 
ATOM    114  F   UNL A   1      42.458  27.729  25.981  1.00  0.00    -0.200 F 
ATOM    115  F   UNL A   1      40.899  25.502  25.768  1.00  0.00    -0.200 F 
ENDBRANCH  85 105
BRANCH  88 116
ATOM    116  C   UNL A   1      39.478  33.943  37.007  1.00  0.00     0.064 A 
ATOM    117  C   UNL A   1      40.014  35.238  37.046  1.00  0.00     0.173 A 
ATOM    118  C   UNL A   1      38.768  33.497  38.132  1.00  0.00     0.173 A 
ATOM    119  F   UNL A   1      40.716  35.702  36.002  1.00  0.00    -0.203 F 
ATOM    120  C   UNL A   1      39.870  36.043  38.173  1.00  0.00     0.198 A 
ATOM    121  C   UNL A   1      38.599  34.315  39.247  1.00  0.00     0.198 A 
ATOM    122  F   UNL A   1      38.229  32.269  38.142  1.00  0.00    -0.203 F 
ATOM    123  F   UNL A   1      40.436  37.257  38.202  1.00  0.00    -0.200 F 
ATOM    124  C   UNL A   1      39.159  35.583  39.271  1.00  0.00     0.200 A 
ATOM    125  F   UNL A   1      37.899  33.871  40.300  1.00  0.00    -0.200 F 
ATOM    126  F   UNL A   1      39.020  36.358  40.355  1.00  0.00    -0.200 F 
ENDBRANCH  88 116
BRANCH 103 127
ATOM    127  C   UNL A   1      44.140  29.041  35.371  1.00  0.00     0.064 A 
ATOM    128  C   UNL A   1      45.402  29.628  35.200  1.00  0.00     0.173 A 
ATOM    129  C   UNL A   1      44.033  27.954  36.251  1.00  0.00     0.173 A 
ATOM    130  F   UNL A   1      45.559  30.660  34.357  1.00  0.00    -0.203 F 
ATOM    131  C   UNL A   1      46.520  29.123  35.858  1.00  0.00     0.198 A 
ATOM    132  C   UNL A   1      45.148  27.470  36.930  1.00  0.00     0.198 A 
ATOM    133  F   UNL A   1      42.846  27.362  36.455  1.00  0.00    -0.203 F 
ATOM    134  F   UNL A   1      47.727  29.663  35.637  1.00  0.00    -0.200 F 
ATOM    135  C   UNL A   1      46.391  28.048  36.726  1.00  0.00     0.200 A 
ATOM    136  F   UNL A   1      45.019  26.440  37.777  1.00  0.00    -0.200 F 
ATOM    137  F   UNL A   1      47.469  27.563  37.358  1.00  0.00    -0.200 F 
ENDBRANCH 103 127
ENDBRANCH  68  71
ENDBRANCH  58  61
ENDBRANCH  54  57
ENDBRANCH  51  54
ENDBRANCH  48  51
ENDBRANCH   1  48
TORSDOF 18
ENDMDL
MODEL 3
REMARK VINA RESULT:     -12.0      1.288      2.173
REMARK SMILES C[C@@H](C(=O)NCCCCCCNC(=O)c1ccc(-c2c3nc(c(-c4c(F)c(F)c(F)c(F)c4F)c4ccc([nH]4)c(-c4c(F)c(F)c(F)c(F)c4F)c4nc(c(-c5c(F)c(F)c(F)c(F)c5F)c5ccc2[nH]5)C=C4)C=C3)cc1)c1ccc(C[C@H]2CCCC2=O)cc1[N+](=O)[O-]
REMARK SMILES IDX 8 1 7 4 6 7 5 10 3 11 4 12 2 14 1 16 78 20 79 21 90 22 80 23
REMARK SMILES IDX 89 25 81 26 91 29 92 30 93 31 82 32 83 35 84 36 87 37 85 39
REMARK SMILES IDX 86 42 88 43 9 48 10 51 11 54 12 57 13 58 14 60 15 61 16 62
REMARK SMILES IDX 77 63 17 64 76 66 18 68 19 71 20 72 70 73 21 74 75 75 69 76
REMARK SMILES IDX 71 77 22 78 74 79 68 81 67 83 23 85 55 88 35 89 54 90 36 91
REMARK SMILES IDX 39 92 53 93 72 94 37 95 38 97 52 99 73 100 40 103 24 105
REMARK SMILES IDX 25 106 33 107 26 108 27 109 31 110 34 111 28 112 29 113
REMARK SMILES IDX 32 114 30 115 56 116 57 117 65 118 58 119 59 120 63 121
REMARK SMILES IDX 66 122 60 123 61 124 64 125 62 126 41 127 42 128 50 129
REMARK SMILES IDX 43 130 44 131 48 132 51 133 45 134 46 135 49 136 47 137
REMARK H PARENT 8 2 8 3 7 5 7 6 6 8 6 9 5 13 2 15 1 17 1 18 1 19 79 24 80 27
REMARK H PARENT 89 28 82 33 82 34 83 38 84 40 84 41 85 44 85 45 86 46 86 47
REMARK H PARENT 9 49 9 50 10 52 10 53 11 55 11 56 12 59 16 65 77 67 17 69
REMARK H PARENT 76 70 75 80 69 82 71 84 74 86 68 87 36 96 39 98 72 101 37 102
REMARK H PARENT 73 104
REMARK Flexibility Score: inf
ROOT
ATOM      1  C   UNL A   1      32.311  29.822  26.960  1.00  0.00    -0.052 C 
ATOM      2  H   UNL A   1      33.079  29.424  26.329  1.00  0.00     0.027 H 
ATOM      3  H   UNL A   1      32.695  30.373  27.793  1.00  0.00     0.027 H 
ENDROOT
BRANCH   1   4
ATOM      4  C   UNL A   1      31.518  28.648  27.546  1.00  0.00    -0.036 C 
ATOM      5  H   UNL A   1      31.773  28.550  28.580  1.00  0.00     0.028 H 
ATOM      6  H   UNL A   1      30.481  28.869  27.399  1.00  0.00     0.028 H 
BRANCH   4   7
ATOM      7  C   UNL A   1      31.793  27.308  26.852  1.00  0.00     0.017 C 
ATOM      8  H   UNL A   1      32.849  27.139  26.809  1.00  0.00     0.049 H 
ATOM      9  H   UNL A   1      31.327  26.519  27.403  1.00  0.00     0.049 H 
BRANCH   7  10
ATOM     10  N   UNL A   1      31.255  27.339  25.508  1.00  0.00    -0.356 N 
ATOM     11  C   UNL A   1      31.883  27.640  24.333  1.00  0.00     0.227 C 
ATOM     12  O   UNL A   1      31.160  27.990  23.398  1.00  0.00    -0.274 OA
ATOM     13  H   UNL A   1      30.300  27.112  25.430  1.00  0.00     0.163 HD
BRANCH  11  14
ATOM     14  C   UNL A   1      33.416  27.466  24.199  1.00  0.00     0.067 C 
ATOM     15  H   UNL A   1      33.921  27.817  25.075  1.00  0.00     0.045 H 
BRANCH  14  16
ATOM     16  C   UNL A   1      33.943  28.360  23.076  1.00  0.00    -0.049 C 
ATOM     17  H   UNL A   1      33.647  29.372  23.258  1.00  0.00     0.024 H 
ATOM     18  H   UNL A   1      33.541  28.033  22.141  1.00  0.00     0.024 H 
ATOM     19  H   UNL A   1      35.011  28.300  23.045  1.00  0.00     0.024 H 
ENDBRANCH  14  16
BRANCH  14  20
ATOM     20  C   UNL A   1      33.813  25.978  24.161  1.00  0.00     0.042 A 
ATOM     21  C   UNL A   1      34.560  25.497  25.260  1.00  0.00    -0.051 A 
ATOM     22  C   UNL A   1      33.552  25.042  23.142  1.00  0.00     0.273 A 
ATOM     23  C   UNL A   1      34.987  24.168  25.355  1.00  0.00    -0.058 A 
ATOM     24  H   UNL A   1      34.799  26.151  26.022  1.00  0.00     0.063 H 
ATOM     25  C   UNL A   1      34.028  23.719  23.207  1.00  0.00     0.019 A 
ATOM     26  C   UNL A   1      34.754  23.272  24.312  1.00  0.00    -0.040 A 
ATOM     27  H   UNL A   1      35.479  23.848  26.203  1.00  0.00     0.063 H 
ATOM     28  H   UNL A   1      33.837  23.071  22.428  1.00  0.00     0.070 H 
BRANCH  22  29
ATOM     29  N   UNL A   1      32.780  25.343  21.973  1.00  0.00     0.063 N 
ATOM     30  O   UNL A   1      31.576  25.196  21.981  1.00  0.00    -0.258 OA
ATOM     31  O   UNL A   1      33.369  25.922  20.876  1.00  0.00    -0.258 OA
ENDBRANCH  22  29
BRANCH  26  32
ATOM     32  C   UNL A   1      35.265  21.854  24.370  1.00  0.00    -0.018 C 
ATOM     33  H   UNL A   1      36.269  21.883  24.741  1.00  0.00     0.032 H 
ATOM     34  H   UNL A   1      35.172  21.477  23.373  1.00  0.00     0.032 H 
BRANCH  32  35
ATOM     35  C   UNL A   1      34.473  20.877  25.248  1.00  0.00     0.022 C 
ATOM     36  C   UNL A   1      32.962  21.117  25.348  1.00  0.00    -0.043 C 
ATOM     37  C   UNL A   1      34.534  19.458  24.736  1.00  0.00     0.136 C 
ATOM     38  H   UNL A   1      34.949  21.042  26.191  1.00  0.00     0.039 H 
ATOM     39  C   UNL A   1      32.312  20.167  24.350  1.00  0.00    -0.046 C 
ATOM     40  H   UNL A   1      32.731  22.132  25.099  1.00  0.00     0.027 H 
ATOM     41  H   UNL A   1      32.605  20.942  26.341  1.00  0.00     0.027 H 
ATOM     42  C   UNL A   1      33.182  18.918  24.352  1.00  0.00     0.006 C 
ATOM     43  O   UNL A   1      35.570  18.806  24.655  1.00  0.00    -0.299 OA
ATOM     44  H   UNL A   1      32.290  20.605  23.374  1.00  0.00     0.027 H 
ATOM     45  H   UNL A   1      31.299  19.945  24.614  1.00  0.00     0.027 H 
ATOM     46  H   UNL A   1      33.209  18.465  23.383  1.00  0.00     0.035 H 
ATOM     47  H   UNL A   1      32.828  18.154  25.012  1.00  0.00     0.035 H 
ENDBRANCH  32  35
ENDBRANCH  26  32
ENDBRANCH  14  20
ENDBRANCH  11  14
ENDBRANCH   7  10
ENDBRANCH   4   7
ENDBRANCH   1   4
BRANCH   1  48
ATOM     48  C   UNL A   1      31.481  30.809  26.136  1.00  0.00    -0.052 C 
ATOM     49  H   UNL A   1      30.488  30.418  26.050  1.00  0.00     0.027 H 
ATOM     50  H   UNL A   1      31.978  30.908  25.194  1.00  0.00     0.027 H 
BRANCH  48  51
ATOM     51  C   UNL A   1      31.388  32.218  26.726  1.00  0.00    -0.036 C 
ATOM     52  H   UNL A   1      30.829  32.164  27.636  1.00  0.00     0.028 H 
ATOM     53  H   UNL A   1      30.919  32.828  25.980  1.00  0.00     0.028 H 
BRANCH  51  54
ATOM     54  C   UNL A   1      32.734  32.870  27.032  1.00  0.00     0.018 C 
ATOM     55  H   UNL A   1      33.270  33.005  26.115  1.00  0.00     0.049 H 
ATOM     56  H   UNL A   1      33.269  32.228  27.699  1.00  0.00     0.049 H 
BRANCH  54  57
ATOM     57  N   UNL A   1      32.576  34.161  27.679  1.00  0.00    -0.352 N 
ATOM     58  C   UNL A   1      33.188  34.661  28.799  1.00  0.00     0.251 C 
ATOM     59  H   UNL A   1      31.931  34.768  27.248  1.00  0.00     0.163 HD
ATOM     60  O   UNL A   1      32.766  35.688  29.319  1.00  0.00    -0.269 OA
BRANCH  58  61
ATOM     61  C   UNL A   1      34.350  33.964  29.392  1.00  0.00     0.039 A 
ATOM     62  C   UNL A   1      35.633  34.365  29.009  1.00  0.00    -0.049 A 
ATOM     63  C   UNL A   1      34.186  32.896  30.278  1.00  0.00    -0.049 A 
ATOM     64  C   UNL A   1      36.750  33.723  29.546  1.00  0.00    -0.053 A 
ATOM     65  H   UNL A   1      35.754  35.134  28.332  1.00  0.00     0.063 H 
ATOM     66  C   UNL A   1      35.302  32.297  30.863  1.00  0.00    -0.053 A 
ATOM     67  H   UNL A   1      33.240  32.550  30.500  1.00  0.00     0.063 H 
ATOM     68  C   UNL A   1      36.594  32.700  30.496  1.00  0.00    -0.014 A 
ATOM     69  H   UNL A   1      37.696  34.002  29.244  1.00  0.00     0.063 H 
ATOM     70  H   UNL A   1      35.176  31.554  31.568  1.00  0.00     0.063 H 
BRANCH  68  71
ATOM     71  C   UNL A   1      37.784  32.053  31.105  1.00  0.00     0.031 A 
ATOM     72  C   UNL A   1      38.247  32.445  32.481  1.00  0.00     0.074 A 
ATOM     73  C   UNL A   1      38.462  31.126  30.404  1.00  0.00     0.049 A 
ATOM     74  N   UNL A   1      39.258  31.985  33.176  1.00  0.00    -0.248 NA
ATOM     75  C   UNL A   1      37.488  33.507  33.159  1.00  0.00    -0.034 C 
ATOM     76  C   UNL A   1      38.147  30.704  29.037  1.00  0.00    -0.036 A 
ATOM     77  N   UNL A   1      39.558  30.371  30.739  1.00  0.00    -0.354 N 
ATOM     78  C   UNL A   1      39.253  32.696  34.369  1.00  0.00     0.074 A 
ATOM     79  C   UNL A   1      38.178  33.661  34.281  1.00  0.00    -0.034 C 
ATOM     80  H   UNL A   1      36.640  34.004  32.844  1.00  0.00     0.065 H 
ATOM     81  C   UNL A   1      39.014  29.752  28.660  1.00  0.00    -0.036 A 
ATOM     82  H   UNL A   1      37.380  31.080  28.457  1.00  0.00     0.065 H 
ATOM     83  C   UNL A   1      39.960  29.513  29.745  1.00  0.00     0.049 A 
ATOM     84  H   UNL A   1      40.013  30.439  31.610  1.00  0.00     0.167 HD
ATOM     85  C   UNL A   1      40.054  32.539  35.449  1.00  0.00     0.037 A 
ATOM     86  H   UNL A   1      37.974  34.374  34.998  1.00  0.00     0.065 H 
ATOM     87  H   UNL A   1      39.013  29.268  27.749  1.00  0.00     0.065 H 
ATOM     88  C   UNL A   1      40.975  28.629  29.716  1.00  0.00     0.037 A 
ATOM     89  C   UNL A   1      41.117  31.571  35.539  1.00  0.00     0.049 A 
ATOM     90  C   UNL A   1      41.839  28.465  30.936  1.00  0.00     0.074 A 
ATOM     91  C   UNL A   1      41.965  31.315  36.602  1.00  0.00    -0.036 A 
ATOM     92  N   UNL A   1      41.475  30.698  34.523  1.00  0.00    -0.354 N 
ATOM     93  N   UNL A   1      41.783  29.100  32.081  1.00  0.00    -0.248 NA
ATOM     94  C   UNL A   1      42.897  27.448  30.864  1.00  0.00    -0.034 C 
ATOM     95  C   UNL A   1      42.858  30.308  36.218  1.00  0.00    -0.036 A 
ATOM     96  H   UNL A   1      41.943  31.784  37.521  1.00  0.00     0.065 H 
ATOM     97  C   UNL A   1      42.538  29.908  34.931  1.00  0.00     0.049 A 
ATOM     98  H   UNL A   1      41.039  30.647  33.642  1.00  0.00     0.167 HD
ATOM     99  C   UNL A   1      42.784  28.549  32.872  1.00  0.00     0.074 A 
ATOM    100  C   UNL A   1      43.413  27.509  32.084  1.00  0.00    -0.034 C 
ATOM    101  H   UNL A   1      43.170  26.845  30.072  1.00  0.00     0.065 H 
ATOM    102  H   UNL A   1      43.625  29.929  36.795  1.00  0.00     0.065 H 
ATOM    103  C   UNL A   1      43.153  28.878  34.133  1.00  0.00     0.037 A 
ATOM    104  H   UNL A   1      44.166  26.894  32.429  1.00  0.00     0.065 H 
BRANCH  85 105
ATOM    105  C   UNL A   1      39.799  33.423  36.636  1.00  0.00     0.064 A 
ATOM    106  C   UNL A   1      38.908  33.040  37.651  1.00  0.00     0.173 A 
ATOM    107  C   UNL A   1      40.484  34.637  36.787  1.00  0.00     0.173 A 
ATOM    108  F   UNL A   1      38.219  31.894  37.548  1.00  0.00    -0.203 F 
ATOM    109  C   UNL A   1      38.697  33.851  38.762  1.00  0.00     0.198 A 
ATOM    110  C   UNL A   1      40.291  35.432  37.914  1.00  0.00     0.198 A 
ATOM    111  F   UNL A   1      41.351  35.047  35.849  1.00  0.00    -0.203 F 
ATOM    112  F   UNL A   1      37.811  33.485  39.698  1.00  0.00    -0.200 F 
ATOM    113  C   UNL A   1      39.394  35.043  38.897  1.00  0.00     0.200 A 
ATOM    114  F   UNL A   1      40.974  36.578  38.049  1.00  0.00    -0.200 F 
ATOM    115  F   UNL A   1      39.197  35.818  39.973  1.00  0.00    -0.200 F 
ENDBRANCH  85 105
BRANCH  88 116
ATOM    116  C   UNL A   1      41.214  27.814  28.497  1.00  0.00     0.064 A 
ATOM    117  C   UNL A   1      42.099  28.247  27.500  1.00  0.00     0.173 A 
ATOM    118  C   UNL A   1      40.553  26.593  28.299  1.00  0.00     0.173 A 
ATOM    119  F   UNL A   1      42.740  29.416  27.636  1.00  0.00    -0.203 F 
ATOM    120  C   UNL A   1      42.295  27.501  26.339  1.00  0.00     0.198 A 
ATOM    121  C   UNL A   1      40.772  25.835  27.151  1.00  0.00     0.198 A 
ATOM    122  F   UNL A   1      39.701  26.132  29.226  1.00  0.00    -0.203 F 
ATOM    123  F   UNL A   1      43.108  27.963  25.379  1.00  0.00    -0.200 F 
ATOM    124  C   UNL A   1      41.634  26.294  26.168  1.00  0.00     0.200 A 
ATOM    125  F   UNL A   1      40.142  24.662  26.996  1.00  0.00    -0.200 F 
ATOM    126  F   UNL A   1      41.823  25.578  25.051  1.00  0.00    -0.200 F 
ENDBRANCH  88 116
BRANCH 103 127
ATOM    127  C   UNL A   1      44.276  28.091  34.742  1.00  0.00     0.064 A 
ATOM    128  C   UNL A   1      44.040  26.901  35.445  1.00  0.00     0.173 A 
ATOM    129  C   UNL A   1      45.603  28.523  34.606  1.00  0.00     0.173 A 
ATOM    130  F   UNL A   1      42.786  26.454  35.615  1.00  0.00    -0.203 F 
ATOM    131  C   UNL A   1      45.090  26.190  36.020  1.00  0.00     0.198 A 
ATOM    132  C   UNL A   1      46.654  27.795  35.157  1.00  0.00     0.198 A 
ATOM    133  F   UNL A   1      45.883  29.652  33.936  1.00  0.00    -0.203 F 
ATOM    134  F   UNL A   1      44.837  25.086  36.736  1.00  0.00    -0.200 F 
ATOM    135  C   UNL A   1      46.396  26.635  35.872  1.00  0.00     0.200 A 
ATOM    136  F   UNL A   1      47.915  28.219  35.003  1.00  0.00    -0.200 F 
ATOM    137  F   UNL A   1      47.405  25.949  36.427  1.00  0.00    -0.200 F 
ENDBRANCH 103 127
ENDBRANCH  68  71
ENDBRANCH  58  61
ENDBRANCH  54  57
ENDBRANCH  51  54
ENDBRANCH  48  51
ENDBRANCH   1  48
TORSDOF 18
ENDMDL
MODEL 4
REMARK VINA RESULT:     -11.9      1.087      7.313
REMARK SMILES C[C@@H](C(=O)NCCCCCCNC(=O)c1ccc(-c2c3nc(c(-c4c(F)c(F)c(F)c(F)c4F)c4ccc([nH]4)c(-c4c(F)c(F)c(F)c(F)c4F)c4nc(c(-c5c(F)c(F)c(F)c(F)c5F)c5ccc2[nH]5)C=C4)C=C3)cc1)c1ccc(C[C@H]2CCCC2=O)cc1[N+](=O)[O-]
REMARK SMILES IDX 8 1 7 4 6 7 5 10 3 11 4 12 2 14 1 16 78 20 79 21 90 22 80 23
REMARK SMILES IDX 89 25 81 26 91 29 92 30 93 31 82 32 83 35 84 36 87 37 85 39
REMARK SMILES IDX 86 42 88 43 9 48 10 51 11 54 12 57 13 58 14 60 15 61 16 62
REMARK SMILES IDX 77 63 17 64 76 66 18 68 19 71 20 72 70 73 21 74 75 75 69 76
REMARK SMILES IDX 71 77 22 78 74 79 68 81 67 83 23 85 55 88 35 89 54 90 36 91
REMARK SMILES IDX 39 92 53 93 72 94 37 95 38 97 52 99 73 100 40 103 24 105
REMARK SMILES IDX 25 106 33 107 26 108 27 109 31 110 34 111 28 112 29 113
REMARK SMILES IDX 32 114 30 115 56 116 57 117 65 118 58 119 59 120 63 121
REMARK SMILES IDX 66 122 60 123 61 124 64 125 62 126 41 127 42 128 50 129
REMARK SMILES IDX 43 130 44 131 48 132 51 133 45 134 46 135 49 136 47 137
REMARK H PARENT 8 2 8 3 7 5 7 6 6 8 6 9 5 13 2 15 1 17 1 18 1 19 79 24 80 27
REMARK H PARENT 89 28 82 33 82 34 83 38 84 40 84 41 85 44 85 45 86 46 86 47
REMARK H PARENT 9 49 9 50 10 52 10 53 11 55 11 56 12 59 16 65 77 67 17 69
REMARK H PARENT 76 70 75 80 69 82 71 84 74 86 68 87 36 96 39 98 72 101 37 102
REMARK H PARENT 73 104
REMARK Flexibility Score: inf
ROOT
ATOM      1  C   UNL A   1      32.471  29.873  26.533  1.00  0.00    -0.052 C 
ATOM      2  H   UNL A   1      33.136  29.602  25.739  1.00  0.00     0.027 H 
ATOM      3  H   UNL A   1      32.936  30.482  27.281  1.00  0.00     0.027 H 
ENDROOT
BRANCH   1   4
ATOM      4  C   UNL A   1      32.020  28.589  27.239  1.00  0.00    -0.036 C 
ATOM      5  H   UNL A   1      32.455  28.570  28.216  1.00  0.00     0.028 H 
ATOM      6  H   UNL A   1      30.951  28.609  27.267  1.00  0.00     0.028 H 
BRANCH   4   7
ATOM      7  C   UNL A   1      32.425  27.305  26.504  1.00  0.00     0.017 C 
ATOM      8  H   UNL A   1      32.388  27.472  25.448  1.00  0.00     0.049 H 
ATOM      9  H   UNL A   1      33.419  27.031  26.788  1.00  0.00     0.049 H 
BRANCH   7  10
ATOM     10  N   UNL A   1      31.512  26.237  26.856  1.00  0.00    -0.356 N 
ATOM     11  C   UNL A   1      30.807  25.400  26.040  1.00  0.00     0.227 C 
ATOM     12  O   UNL A   1      29.816  24.858  26.533  1.00  0.00    -0.274 OA
ATOM     13  H   UNL A   1      31.381  26.096  27.822  1.00  0.00     0.163 HD
BRANCH  11  14
ATOM     14  C   UNL A   1      31.301  25.113  24.599  1.00  0.00     0.067 C 
ATOM     15  H   UNL A   1      32.009  25.850  24.282  1.00  0.00     0.045 H 
BRANCH  14  16
ATOM     16  C   UNL A   1      30.140  25.257  23.615  1.00  0.00    -0.049 C 
ATOM     17  H   UNL A   1      29.578  26.136  23.853  1.00  0.00     0.024 H 
ATOM     18  H   UNL A   1      29.506  24.399  23.684  1.00  0.00     0.024 H 
ATOM     19  H   UNL A   1      30.525  25.337  22.620  1.00  0.00     0.024 H 
ENDBRANCH  14  16
BRANCH  14  20
ATOM     20  C   UNL A   1      32.123  23.812  24.535  1.00  0.00     0.042 A 
ATOM     21  C   UNL A   1      31.868  22.856  25.545  1.00  0.00    -0.051 A 
ATOM     22  C   UNL A   1      33.129  23.472  23.610  1.00  0.00     0.273 A 
ATOM     23  C   UNL A   1      32.542  21.631  25.607  1.00  0.00    -0.058 A 
ATOM     24  H   UNL A   1      31.157  23.069  26.262  1.00  0.00     0.063 H 
ATOM     25  C   UNL A   1      33.848  22.266  23.703  1.00  0.00     0.019 A 
ATOM     26  C   UNL A   1      33.565  21.337  24.706  1.00  0.00    -0.040 A 
ATOM     27  H   UNL A   1      32.282  20.940  26.328  1.00  0.00     0.063 H 
ATOM     28  H   UNL A   1      34.595  22.065  23.021  1.00  0.00     0.070 H 
BRANCH  22  29
ATOM     29  N   UNL A   1      33.494  24.303  22.501  1.00  0.00     0.063 N 
ATOM     30  O   UNL A   1      34.134  25.318  22.682  1.00  0.00    -0.258 OA
ATOM     31  O   UNL A   1      33.241  23.901  21.213  1.00  0.00    -0.258 OA
ENDBRANCH  22  29
BRANCH  26  32
ATOM     32  C   UNL A   1      34.346  20.050  24.801  1.00  0.00    -0.018 C 
ATOM     33  H   UNL A   1      34.908  20.075  25.711  1.00  0.00     0.032 H 
ATOM     34  H   UNL A   1      34.942  20.012  23.913  1.00  0.00     0.032 H 
BRANCH  32  35
ATOM     35  C   UNL A   1      33.528  18.753  24.795  1.00  0.00     0.022 C 
ATOM     36  C   UNL A   1      32.316  18.711  23.859  1.00  0.00    -0.043 C 
ATOM     37  C   UNL A   1      34.332  17.563  24.325  1.00  0.00     0.136 C 
ATOM     38  H   UNL A   1      33.221  18.718  25.819  1.00  0.00     0.039 H 
ATOM     39  C   UNL A   1      32.776  17.990  22.597  1.00  0.00    -0.046 C 
ATOM     40  H   UNL A   1      31.996  19.704  23.622  1.00  0.00     0.027 H 
ATOM     41  H   UNL A   1      31.488  18.208  24.314  1.00  0.00     0.027 H 
ATOM     42  C   UNL A   1      33.778  16.946  23.069  1.00  0.00     0.006 C 
ATOM     43  O   UNL A   1      35.321  17.135  24.909  1.00  0.00    -0.299 OA
ATOM     44  H   UNL A   1      33.241  18.676  21.921  1.00  0.00     0.027 H 
ATOM     45  H   UNL A   1      31.956  17.544  22.073  1.00  0.00     0.027 H 
ATOM     46  H   UNL A   1      34.548  16.795  22.341  1.00  0.00     0.035 H 
ATOM     47  H   UNL A   1      33.343  15.981  23.226  1.00  0.00     0.035 H 
ENDBRANCH  32  35
ENDBRANCH  26  32
ENDBRANCH  14  20
ENDBRANCH  11  14
ENDBRANCH   7  10
ENDBRANCH   4   7
ENDBRANCH   1   4
BRANCH   1  48
ATOM     48  C   UNL A   1      31.336  30.710  25.939  1.00  0.00    -0.052 C 
ATOM     49  H   UNL A   1      30.413  30.202  26.128  1.00  0.00     0.027 H 
ATOM     50  H   UNL A   1      31.553  30.816  24.897  1.00  0.00     0.027 H 
BRANCH  48  51
ATOM     51  C   UNL A   1      31.222  32.129  26.502  1.00  0.00    -0.036 C 
ATOM     52  H   UNL A   1      30.496  32.120  27.287  1.00  0.00     0.028 H 
ATOM     53  H   UNL A   1      30.946  32.759  25.682  1.00  0.00     0.028 H 
BRANCH  51  54
ATOM     54  C   UNL A   1      32.523  32.697  27.064  1.00  0.00     0.018 C 
ATOM     55  H   UNL A   1      33.275  32.657  26.304  1.00  0.00     0.049 H 
ATOM     56  H   UNL A   1      32.802  32.109  27.913  1.00  0.00     0.049 H 
BRANCH  54  57
ATOM     57  N   UNL A   1      32.369  34.074  27.500  1.00  0.00    -0.352 N 
ATOM     58  C   UNL A   1      33.003  34.750  28.511  1.00  0.00     0.251 C 
ATOM     59  H   UNL A   1      31.708  34.601  26.995  1.00  0.00     0.163 HD
ATOM     60  O   UNL A   1      32.584  35.845  28.871  1.00  0.00    -0.269 OA
BRANCH  58  61
ATOM     61  C   UNL A   1      34.186  34.163  29.178  1.00  0.00     0.039 A 
ATOM     62  C   UNL A   1      33.982  33.334  30.285  1.00  0.00    -0.049 A 
ATOM     63  C   UNL A   1      35.485  34.459  28.755  1.00  0.00    -0.049 A 
ATOM     64  C   UNL A   1      35.078  32.770  30.940  1.00  0.00    -0.053 A 
ATOM     65  H   UNL A   1      33.025  33.140  30.616  1.00  0.00     0.063 H 
ATOM     66  C   UNL A   1      36.576  33.845  29.370  1.00  0.00    -0.053 A 
ATOM     67  H   UNL A   1      35.637  35.132  27.987  1.00  0.00     0.063 H 
ATOM     68  C   UNL A   1      36.383  33.002  30.473  1.00  0.00    -0.014 A 
ATOM     69  H   UNL A   1      34.929  32.179  31.772  1.00  0.00     0.063 H 
ATOM     70  H   UNL A   1      37.529  34.013  29.011  1.00  0.00     0.063 H 
BRANCH  68  71
ATOM     71  C   UNL A   1      37.543  32.359  31.139  1.00  0.00     0.031 A 
ATOM     72  C   UNL A   1      38.300  31.252  30.458  1.00  0.00     0.074 A 
ATOM     73  C   UNL A   1      37.901  32.760  32.374  1.00  0.00     0.049 A 
ATOM     74  N   UNL A   1      39.341  30.580  30.882  1.00  0.00    -0.248 NA
ATOM     75  C   UNL A   1      37.812  30.830  29.136  1.00  0.00    -0.034 C 
ATOM     76  C   UNL A   1      37.209  33.782  33.161  1.00  0.00    -0.036 A 
ATOM     77  N   UNL A   1      38.932  32.358  33.185  1.00  0.00    -0.354 N 
ATOM     78  C   UNL A   1      39.633  29.662  29.881  1.00  0.00     0.074 A 
ATOM     79  C   UNL A   1      38.624  29.821  28.856  1.00  0.00    -0.034 C 
ATOM     80  H   UNL A   1      37.038  31.218  28.573  1.00  0.00     0.065 H 
ATOM     81  C   UNL A   1      37.847  33.942  34.331  1.00  0.00    -0.036 A 
ATOM     82  H   UNL A   1      36.365  34.297  32.865  1.00  0.00     0.065 H 
ATOM     83  C   UNL A   1      38.977  33.019  34.387  1.00  0.00     0.049 A 
ATOM     84  H   UNL A   1      39.579  31.660  32.928  1.00  0.00     0.167 HD
ATOM     85  C   UNL A   1      40.665  28.788  29.811  1.00  0.00     0.037 A 
ATOM     86  H   UNL A   1      38.548  29.227  28.015  1.00  0.00     0.065 H 
ATOM     87  H   UNL A   1      37.582  34.609  35.072  1.00  0.00     0.065 H 
ATOM     88  C   UNL A   1      39.835  32.898  35.417  1.00  0.00     0.037 A 
ATOM     89  C   UNL A   1      41.675  28.638  30.827  1.00  0.00     0.049 A 
ATOM     90  C   UNL A   1      40.981  31.930  35.305  1.00  0.00     0.074 A 
ATOM     91  C   UNL A   1      42.776  27.801  30.835  1.00  0.00    -0.036 A 
ATOM     92  N   UNL A   1      41.704  29.348  32.019  1.00  0.00    -0.354 N 
ATOM     93  N   UNL A   1      41.282  31.113  34.324  1.00  0.00    -0.248 NA
ATOM     94  C   UNL A   1      41.916  31.878  36.437  1.00  0.00    -0.034 C 
ATOM     95  C   UNL A   1      43.455  27.980  32.046  1.00  0.00    -0.036 A 
ATOM     96  H   UNL A   1      43.051  27.156  30.078  1.00  0.00     0.065 H 
ATOM     97  C   UNL A   1      42.799  28.960  32.773  1.00  0.00     0.049 A 
ATOM     98  H   UNL A   1      41.044  30.026  32.288  1.00  0.00     0.167 HD
ATOM     99  C   UNL A   1      42.448  30.465  34.712  1.00  0.00     0.074 A 
ATOM    100  C   UNL A   1      42.815  31.005  36.005  1.00  0.00    -0.034 C 
ATOM    101  H   UNL A   1      41.883  32.387  37.334  1.00  0.00     0.065 H 
ATOM    102  H   UNL A   1      44.299  27.468  32.346  1.00  0.00     0.065 H 
ATOM    103  C   UNL A   1      43.149  29.507  34.059  1.00  0.00     0.037 A 
ATOM    104  H   UNL A   1      43.667  30.742  36.523  1.00  0.00     0.065 H 
BRANCH  85 105
ATOM    105  C   UNL A   1      40.768  27.934  28.580  1.00  0.00     0.064 A 
ATOM    106  C   UNL A   1      41.514  28.350  27.466  1.00  0.00     0.173 A 
ATOM    107  C   UNL A   1      40.160  26.671  28.529  1.00  0.00     0.173 A 
ATOM    108  F   UNL A   1      42.105  29.554  27.460  1.00  0.00    -0.203 F 
ATOM    109  C   UNL A   1      41.628  27.542  26.338  1.00  0.00     0.198 A 
ATOM    110  C   UNL A   1      40.300  25.854  27.410  1.00  0.00     0.198 A 
ATOM    111  F   UNL A   1      39.440  26.224  29.568  1.00  0.00    -0.203 F 
ATOM    112  F   UNL A   1      42.312  27.976  25.271  1.00  0.00    -0.200 F 
ATOM    113  C   UNL A   1      41.029  26.291  26.314  1.00  0.00     0.200 A 
ATOM    114  F   UNL A   1      39.729  24.641  27.392  1.00  0.00    -0.200 F 
ATOM    115  F   UNL A   1      41.148  25.510  25.231  1.00  0.00    -0.200 F 
ENDBRANCH  85 105
BRANCH  88 116
ATOM    116  C   UNL A   1      39.659  33.732  36.633  1.00  0.00     0.064 A 
ATOM    117  C   UNL A   1      38.887  33.282  37.713  1.00  0.00     0.173 A 
ATOM    118  C   UNL A   1      40.247  35.002  36.734  1.00  0.00     0.173 A 
ATOM    119  F   UNL A   1      38.289  32.083  37.655  1.00  0.00    -0.203 F 
ATOM    120  C   UNL A   1      38.689  34.080  38.838  1.00  0.00     0.198 A 
ATOM    121  C   UNL A   1      40.072  35.786  37.872  1.00  0.00     0.198 A 
ATOM    122  F   UNL A   1      41.000  35.475  35.731  1.00  0.00    -0.203 F 
ATOM    123  F   UNL A   1      37.905  33.646  39.834  1.00  0.00    -0.200 F 
ATOM    124  C   UNL A   1      39.286  35.329  38.918  1.00  0.00     0.200 A 
ATOM    125  F   UNL A   1      40.662  36.986  37.951  1.00  0.00    -0.200 F 
ATOM    126  F   UNL A   1      39.095  36.096  40.000  1.00  0.00    -0.200 F 
ENDBRANCH  88 116
BRANCH 103 127
ATOM    127  C   UNL A   1      44.391  28.996  34.729  1.00  0.00     0.064 A 
ATOM    128  C   UNL A   1      44.358  27.886  35.585  1.00  0.00     0.173 A 
ATOM    129  C   UNL A   1      45.629  29.614  34.500  1.00  0.00     0.173 A 
ATOM    130  F   UNL A   1      43.195  27.270  35.848  1.00  0.00    -0.203 F 
ATOM    131  C   UNL A   1      45.515  27.434  36.214  1.00  0.00     0.198 A 
ATOM    132  C   UNL A   1      46.788  29.142  35.107  1.00  0.00     0.198 A 
ATOM    133  F   UNL A   1      45.715  30.676  33.683  1.00  0.00    -0.203 F 
ATOM    134  F   UNL A   1      45.451  26.407  37.072  1.00  0.00    -0.200 F 
ATOM    135  C   UNL A   1      46.729  28.059  35.971  1.00  0.00     0.200 A 
ATOM    136  F   UNL A   1      47.963  29.740  34.862  1.00  0.00    -0.200 F 
ATOM    137  F   UNL A   1      47.842  27.623  36.579  1.00  0.00    -0.200 F 
ENDBRANCH 103 127
ENDBRANCH  68  71
ENDBRANCH  58  61
ENDBRANCH  54  57
ENDBRANCH  51  54
ENDBRANCH  48  51
ENDBRANCH   1  48
TORSDOF 18
ENDMDL
MODEL 5
REMARK VINA RESULT:     -11.8      1.096      2.011
REMARK SMILES C[C@@H](C(=O)NCCCCCCNC(=O)c1ccc(-c2c3nc(c(-c4c(F)c(F)c(F)c(F)c4F)c4ccc([nH]4)c(-c4c(F)c(F)c(F)c(F)c4F)c4nc(c(-c5c(F)c(F)c(F)c(F)c5F)c5ccc2[nH]5)C=C4)C=C3)cc1)c1ccc(C[C@H]2CCCC2=O)cc1[N+](=O)[O-]
REMARK SMILES IDX 8 1 7 4 6 7 5 10 3 11 4 12 2 14 1 16 78 20 79 21 90 22 80 23
REMARK SMILES IDX 89 25 81 26 91 29 92 30 93 31 82 32 83 35 84 36 87 37 85 39
REMARK SMILES IDX 86 42 88 43 9 48 10 51 11 54 12 57 13 58 14 60 15 61 16 62
REMARK SMILES IDX 77 63 17 64 76 66 18 68 19 71 20 72 70 73 21 74 75 75 69 76
REMARK SMILES IDX 71 77 22 78 74 79 68 81 67 83 23 85 55 88 35 89 54 90 36 91
REMARK SMILES IDX 39 92 53 93 72 94 37 95 38 97 52 99 73 100 40 103 24 105
REMARK SMILES IDX 25 106 33 107 26 108 27 109 31 110 34 111 28 112 29 113
REMARK SMILES IDX 32 114 30 115 56 116 57 117 65 118 58 119 59 120 63 121
REMARK SMILES IDX 66 122 60 123 61 124 64 125 62 126 41 127 42 128 50 129
REMARK SMILES IDX 43 130 44 131 48 132 51 133 45 134 46 135 49 136 47 137
REMARK H PARENT 8 2 8 3 7 5 7 6 6 8 6 9 5 13 2 15 1 17 1 18 1 19 79 24 80 27
REMARK H PARENT 89 28 82 33 82 34 83 38 84 40 84 41 85 44 85 45 86 46 86 47
REMARK H PARENT 9 49 9 50 10 52 10 53 11 55 11 56 12 59 16 65 77 67 17 69
REMARK H PARENT 76 70 75 80 69 82 71 84 74 86 68 87 36 96 39 98 72 101 37 102
REMARK H PARENT 73 104
REMARK Flexibility Score: inf
ROOT
ATOM      1  C   UNL A   1      31.778  30.035  25.075  1.00  0.00    -0.052 C 
ATOM      2  H   UNL A   1      32.257  30.826  24.536  1.00  0.00     0.027 H 
ATOM      3  H   UNL A   1      32.433  29.217  25.290  1.00  0.00     0.027 H 
ENDROOT
BRANCH   1   4
ATOM      4  C   UNL A   1      30.653  29.471  24.199  1.00  0.00    -0.036 C 
ATOM      5  H   UNL A   1      29.743  29.495  24.762  1.00  0.00     0.028 H 
ATOM      6  H   UNL A   1      30.608  30.080  23.321  1.00  0.00     0.028 H 
BRANCH   4   7
ATOM      7  C   UNL A   1      30.895  28.030  23.734  1.00  0.00     0.017 C 
ATOM      8  H   UNL A   1      29.998  27.460  23.859  1.00  0.00     0.049 H 
ATOM      9  H   UNL A   1      31.176  28.032  22.702  1.00  0.00     0.049 H 
BRANCH   7  10
ATOM     10  N   UNL A   1      31.957  27.438  24.521  1.00  0.00    -0.356 N 
ATOM     11  C   UNL A   1      31.938  26.305  25.282  1.00  0.00     0.227 C 
ATOM     12  O   UNL A   1      32.800  26.219  26.160  1.00  0.00    -0.274 OA
ATOM     13  H   UNL A   1      32.814  27.923  24.505  1.00  0.00     0.163 HD
BRANCH  11  14
ATOM     14  C   UNL A   1      30.919  25.178  24.982  1.00  0.00     0.067 C 
ATOM     15  H   UNL A   1      30.384  25.374  24.076  1.00  0.00     0.045 H 
BRANCH  14  16
ATOM     16  C   UNL A   1      29.837  25.155  26.062  1.00  0.00    -0.049 C 
ATOM     17  H   UNL A   1      30.284  25.339  27.017  1.00  0.00     0.024 H 
ATOM     18  H   UNL A   1      29.360  24.198  26.069  1.00  0.00     0.024 H 
ATOM     19  H   UNL A   1      29.112  25.914  25.855  1.00  0.00     0.024 H 
ENDBRANCH  14  16
BRANCH  14  20
ATOM     20  C   UNL A   1      31.629  23.847  24.667  1.00  0.00     0.042 A 
ATOM     21  C   UNL A   1      31.314  22.753  25.505  1.00  0.00    -0.051 A 
ATOM     22  C   UNL A   1      32.585  23.596  23.665  1.00  0.00     0.273 A 
ATOM     23  C   UNL A   1      31.885  21.487  25.333  1.00  0.00    -0.058 A 
ATOM     24  H   UNL A   1      30.637  22.892  26.271  1.00  0.00     0.063 H 
ATOM     25  C   UNL A   1      33.204  22.339  23.525  1.00  0.00     0.019 A 
ATOM     26  C   UNL A   1      32.863  21.275  24.362  1.00  0.00    -0.040 A 
ATOM     27  H   UNL A   1      31.582  20.703  25.932  1.00  0.00     0.063 H 
ATOM     28  H   UNL A   1      33.919  22.203  22.794  1.00  0.00     0.070 H 
BRANCH  22  29
ATOM     29  N   UNL A   1      32.998  24.576  22.705  1.00  0.00     0.063 N 
ATOM     30  O   UNL A   1      34.177  24.750  22.476  1.00  0.00    -0.258 OA
ATOM     31  O   UNL A   1      32.070  25.239  21.940  1.00  0.00    -0.258 OA
ENDBRANCH  22  29
BRANCH  26  32
ATOM     32  C   UNL A   1      33.536  19.934  24.208  1.00  0.00    -0.018 C 
ATOM     33  H   UNL A   1      34.075  19.733  25.111  1.00  0.00     0.032 H 
ATOM     34  H   UNL A   1      34.150  20.022  23.336  1.00  0.00     0.032 H 
BRANCH  32  35
ATOM     35  C   UNL A   1      32.618  18.736  23.937  1.00  0.00     0.022 C 
ATOM     36  C   UNL A   1      32.908  17.922  22.671  1.00  0.00    -0.043 C 
ATOM     37  C   UNL A   1      32.707  17.683  25.017  1.00  0.00     0.136 C 
ATOM     38  H   UNL A   1      31.674  19.233  23.864  1.00  0.00     0.039 H 
ATOM     39  C   UNL A   1      33.730  16.718  23.116  1.00  0.00    -0.046 C 
ATOM     40  H   UNL A   1      33.462  18.511  21.971  1.00  0.00     0.027 H 
ATOM     41  H   UNL A   1      32.003  17.617  22.188  1.00  0.00     0.027 H 
ATOM     42  C   UNL A   1      33.209  16.361  24.502  1.00  0.00     0.006 C 
ATOM     43  O   UNL A   1      32.389  17.876  26.185  1.00  0.00    -0.299 OA
ATOM     44  H   UNL A   1      34.769  16.970  23.161  1.00  0.00     0.027 H 
ATOM     45  H   UNL A   1      33.637  15.899  22.434  1.00  0.00     0.027 H 
ATOM     46  H   UNL A   1      33.994  15.979  25.121  1.00  0.00     0.035 H 
ATOM     47  H   UNL A   1      32.460  15.598  24.489  1.00  0.00     0.035 H 
ENDBRANCH  32  35
ENDBRANCH  26  32
ENDBRANCH  14  20
ENDBRANCH  11  14
ENDBRANCH   7  10
ENDBRANCH   4   7
ENDBRANCH   1   4
BRANCH   1  48
ATOM     48  C   UNL A   1      31.321  30.589  26.427  1.00  0.00    -0.052 C 
ATOM     49  H   UNL A   1      31.959  30.184  27.186  1.00  0.00     0.027 H 
ATOM     50  H   UNL A   1      30.297  30.302  26.539  1.00  0.00     0.027 H 
BRANCH  48  51
ATOM     51  C   UNL A   1      31.357  32.115  26.540  1.00  0.00    -0.036 C 
ATOM     52  H   UNL A   1      30.618  32.415  27.253  1.00  0.00     0.028 H 
ATOM     53  H   UNL A   1      31.172  32.496  25.557  1.00  0.00     0.028 H 
BRANCH  51  54
ATOM     54  C   UNL A   1      32.702  32.690  26.978  1.00  0.00     0.018 C 
ATOM     55  H   UNL A   1      33.337  32.777  26.121  1.00  0.00     0.049 H 
ATOM     56  H   UNL A   1      33.125  32.027  27.704  1.00  0.00     0.049 H 
BRANCH  54  57
ATOM     57  N   UNL A   1      32.558  33.999  27.592  1.00  0.00    -0.352 N 
ATOM     58  C   UNL A   1      33.193  34.529  28.685  1.00  0.00     0.251 C 
ATOM     59  H   UNL A   1      31.905  34.594  27.158  1.00  0.00     0.163 HD
ATOM     60  O   UNL A   1      32.782  35.571  29.185  1.00  0.00    -0.269 OA
BRANCH  58  61
ATOM     61  C   UNL A   1      34.367  33.848  29.274  1.00  0.00     0.039 A 
ATOM     62  C   UNL A   1      35.643  34.293  28.917  1.00  0.00    -0.049 A 
ATOM     63  C   UNL A   1      34.222  32.751  30.128  1.00  0.00    -0.049 A 
ATOM     64  C   UNL A   1      36.770  33.667  29.450  1.00  0.00    -0.053 A 
ATOM     65  H   UNL A   1      35.750  35.083  28.262  1.00  0.00     0.063 H 
ATOM     66  C   UNL A   1      35.346  32.167  30.711  1.00  0.00    -0.053 A 
ATOM     67  H   UNL A   1      33.282  32.374  30.329  1.00  0.00     0.063 H 
ATOM     68  C   UNL A   1      36.631  32.614  30.370  1.00  0.00    -0.014 A 
ATOM     69  H   UNL A   1      37.712  33.979  29.168  1.00  0.00     0.063 H 
ATOM     70  H   UNL A   1      35.232  31.402  31.394  1.00  0.00     0.063 H 
BRANCH  68  71
ATOM     71  C   UNL A   1      37.831  31.983  30.976  1.00  0.00     0.031 A 
ATOM     72  C   UNL A   1      38.298  32.390  32.347  1.00  0.00     0.074 A 
ATOM     73  C   UNL A   1      38.514  31.058  30.277  1.00  0.00     0.049 A 
ATOM     74  N   UNL A   1      39.318  31.944  33.038  1.00  0.00    -0.248 NA
ATOM     75  C   UNL A   1      37.534  33.449  33.022  1.00  0.00    -0.034 C 
ATOM     76  C   UNL A   1      38.194  30.623  28.916  1.00  0.00    -0.036 A 
ATOM     77  N   UNL A   1      39.619  30.316  30.611  1.00  0.00    -0.354 N 
ATOM     78  C   UNL A   1      39.314  32.663  34.226  1.00  0.00     0.074 A 
ATOM     79  C   UNL A   1      38.229  33.617  34.138  1.00  0.00    -0.034 C 
ATOM     80  H   UNL A   1      36.679  33.935  32.709  1.00  0.00     0.065 H 
ATOM     81  C   UNL A   1      39.068  29.677  28.540  1.00  0.00    -0.036 A 
ATOM     82  H   UNL A   1      37.420  30.987  28.338  1.00  0.00     0.065 H 
ATOM     83  C   UNL A   1      40.023  29.455  29.621  1.00  0.00     0.049 A 
ATOM     84  H   UNL A   1      40.079  30.395  31.479  1.00  0.00     0.167 HD
ATOM     85  C   UNL A   1      40.123  32.521  35.302  1.00  0.00     0.037 A 
ATOM     86  H   UNL A   1      38.023  34.334  34.852  1.00  0.00     0.065 H 
ATOM     87  H   UNL A   1      39.066  29.186  27.632  1.00  0.00     0.065 H 
ATOM     88  C   UNL A   1      41.046  28.581  29.591  1.00  0.00     0.037 A 
ATOM     89  C   UNL A   1      41.196  31.565  35.393  1.00  0.00     0.049 A 
ATOM     90  C   UNL A   1      41.919  28.433  30.807  1.00  0.00     0.074 A 
ATOM     91  C   UNL A   1      42.053  31.324  36.452  1.00  0.00    -0.036 A 
ATOM     92  N   UNL A   1      41.556  30.688  34.380  1.00  0.00    -0.354 N 
ATOM     93  N   UNL A   1      41.865  29.076  31.948  1.00  0.00    -0.248 NA
ATOM     94  C   UNL A   1      42.987  27.426  30.735  1.00  0.00    -0.034 C 
ATOM     95  C   UNL A   1      42.954  30.324  36.069  1.00  0.00    -0.036 A 
ATOM     96  H   UNL A   1      42.032  31.800  37.368  1.00  0.00     0.065 H 
ATOM     97  C   UNL A   1      42.630  29.912  34.788  1.00  0.00     0.049 A 
ATOM     98  H   UNL A   1      41.115  30.626  33.503  1.00  0.00     0.167 HD
ATOM     99  C   UNL A   1      42.875  28.540  32.736  1.00  0.00     0.074 A 
ATOM    100  C   UNL A   1      43.509  27.501  31.952  1.00  0.00    -0.034 C 
ATOM    101  H   UNL A   1      43.261  26.820  29.946  1.00  0.00     0.065 H 
ATOM    102  H   UNL A   1      43.728  29.956  36.645  1.00  0.00     0.065 H 
ATOM    103  C   UNL A   1      43.249  28.882  33.993  1.00  0.00     0.037 A 
ATOM    104  H   UNL A   1      44.270  26.895  32.296  1.00  0.00     0.065 H 
BRANCH  85 105
ATOM    105  C   UNL A   1      39.867  33.412  36.485  1.00  0.00     0.064 A 
ATOM    106  C   UNL A   1      40.520  34.647  36.620  1.00  0.00     0.173 A 
ATOM    107  C   UNL A   1      38.929  33.054  37.464  1.00  0.00     0.173 A 
ATOM    108  F   UNL A   1      41.434  35.030  35.717  1.00  0.00    -0.203 F 
ATOM    109  C   UNL A   1      40.258  35.481  37.704  1.00  0.00     0.198 A 
ATOM    110  C   UNL A   1      38.650  33.903  38.531  1.00  0.00     0.198 A 
ATOM    111  F   UNL A   1      38.274  31.887  37.379  1.00  0.00    -0.203 F 
ATOM    112  F   UNL A   1      40.923  36.637  37.833  1.00  0.00    -0.200 F 
ATOM    113  C   UNL A   1      39.318  35.113  38.654  1.00  0.00     0.200 A 
ATOM    114  F   UNL A   1      37.733  33.551  39.444  1.00  0.00    -0.200 F 
ATOM    115  F   UNL A   1      39.060  35.921  39.692  1.00  0.00    -0.200 F 
ENDBRANCH  85 105
BRANCH  88 116
ATOM    116  C   UNL A   1      41.286  27.759  28.377  1.00  0.00     0.064 A 
ATOM    117  C   UNL A   1      40.648  26.523  28.202  1.00  0.00     0.173 A 
ATOM    118  C   UNL A   1      42.166  28.187  27.372  1.00  0.00     0.173 A 
ATOM    119  F   UNL A   1      39.811  26.063  29.143  1.00  0.00    -0.203 F 
ATOM    120  C   UNL A   1      40.901  25.735  27.081  1.00  0.00     0.198 A 
ATOM    121  C   UNL A   1      42.396  27.412  26.239  1.00  0.00     0.198 A 
ATOM    122  F   UNL A   1      42.796  29.366  27.489  1.00  0.00    -0.203 F 
ATOM    123  F   UNL A   1      40.316  24.535  26.964  1.00  0.00    -0.200 F 
ATOM    124  C   UNL A   1      41.771  26.182  26.099  1.00  0.00     0.200 A 
ATOM    125  F   UNL A   1      43.227  27.854  25.285  1.00  0.00    -0.200 F 
ATOM    126  F   UNL A   1      42.014  25.424  25.021  1.00  0.00    -0.200 F 
ENDBRANCH  88 116
BRANCH 103 127
ATOM    127  C   UNL A   1      44.384  28.110  34.600  1.00  0.00     0.064 A 
ATOM    128  C   UNL A   1      44.164  26.919  35.308  1.00  0.00     0.173 A 
ATOM    129  C   UNL A   1      45.705  28.557  34.459  1.00  0.00     0.173 A 
ATOM    130  F   UNL A   1      42.916  26.457  35.483  1.00  0.00    -0.203 F 
ATOM    131  C   UNL A   1      45.224  26.223  35.881  1.00  0.00     0.198 A 
ATOM    132  C   UNL A   1      46.766  27.843  35.009  1.00  0.00     0.198 A 
ATOM    133  F   UNL A   1      45.969  29.687  33.785  1.00  0.00    -0.203 F 
ATOM    134  F   UNL A   1      44.986  25.117  36.601  1.00  0.00    -0.200 F 
ATOM    135  C   UNL A   1      46.524  26.682  35.727  1.00  0.00     0.200 A 
ATOM    136  F   UNL A   1      48.022  28.282  34.849  1.00  0.00    -0.200 F 
ATOM    137  F   UNL A   1      47.543  26.010  36.281  1.00  0.00    -0.200 F 
ENDBRANCH 103 127
ENDBRANCH  68  71
ENDBRANCH  58  61
ENDBRANCH  54  57
ENDBRANCH  51  54
ENDBRANCH  48  51
ENDBRANCH   1  48
TORSDOF 18
ENDMDL
MODEL 6
REMARK VINA RESULT:     -11.8      1.849      2.799
REMARK SMILES C[C@@H](C(=O)NCCCCCCNC(=O)c1ccc(-c2c3nc(c(-c4c(F)c(F)c(F)c(F)c4F)c4ccc([nH]4)c(-c4c(F)c(F)c(F)c(F)c4F)c4nc(c(-c5c(F)c(F)c(F)c(F)c5F)c5ccc2[nH]5)C=C4)C=C3)cc1)c1ccc(C[C@H]2CCCC2=O)cc1[N+](=O)[O-]
REMARK SMILES IDX 8 1 7 4 6 7 5 10 3 11 4 12 2 14 1 16 78 20 79 21 90 22 80 23
REMARK SMILES IDX 89 25 81 26 91 29 92 30 93 31 82 32 83 35 84 36 87 37 85 39
REMARK SMILES IDX 86 42 88 43 9 48 10 51 11 54 12 57 13 58 14 60 15 61 16 62
REMARK SMILES IDX 77 63 17 64 76 66 18 68 19 71 20 72 70 73 21 74 75 75 69 76
REMARK SMILES IDX 71 77 22 78 74 79 68 81 67 83 23 85 55 88 35 89 54 90 36 91
REMARK SMILES IDX 39 92 53 93 72 94 37 95 38 97 52 99 73 100 40 103 24 105
REMARK SMILES IDX 25 106 33 107 26 108 27 109 31 110 34 111 28 112 29 113
REMARK SMILES IDX 32 114 30 115 56 116 57 117 65 118 58 119 59 120 63 121
REMARK SMILES IDX 66 122 60 123 61 124 64 125 62 126 41 127 42 128 50 129
REMARK SMILES IDX 43 130 44 131 48 132 51 133 45 134 46 135 49 136 47 137
REMARK H PARENT 8 2 8 3 7 5 7 6 6 8 6 9 5 13 2 15 1 17 1 18 1 19 79 24 80 27
REMARK H PARENT 89 28 82 33 82 34 83 38 84 40 84 41 85 44 85 45 86 46 86 47
REMARK H PARENT 9 49 9 50 10 52 10 53 11 55 11 56 12 59 16 65 77 67 17 69
REMARK H PARENT 76 70 75 80 69 82 71 84 74 86 68 87 36 96 39 98 72 101 37 102
REMARK H PARENT 73 104
REMARK Flexibility Score: inf
ROOT
ATOM      1  C   UNL A   1      30.458  26.381  25.467  1.00  0.00    -0.052 C 
ATOM      2  H   UNL A   1      30.582  25.416  25.914  1.00  0.00     0.027 H 
ATOM      3  H   UNL A   1      29.580  26.891  25.803  1.00  0.00     0.027 H 
ENDROOT
BRANCH   1   4
ATOM      4  C   UNL A   1      30.296  26.189  23.954  1.00  0.00    -0.036 C 
ATOM      5  H   UNL A   1      29.372  26.638  23.654  1.00  0.00     0.028 H 
ATOM      6  H   UNL A   1      31.143  26.648  23.490  1.00  0.00     0.028 H 
BRANCH   4   7
ATOM      7  C   UNL A   1      30.285  24.720  23.514  1.00  0.00     0.017 C 
ATOM      8  H   UNL A   1      30.371  24.090  24.375  1.00  0.00     0.049 H 
ATOM      9  H   UNL A   1      29.368  24.508  23.007  1.00  0.00     0.049 H 
BRANCH   7  10
ATOM     10  N   UNL A   1      31.398  24.473  22.622  1.00  0.00    -0.356 N 
ATOM     11  C   UNL A   1      32.725  24.335  22.915  1.00  0.00     0.227 C 
ATOM     12  O   UNL A   1      33.515  24.533  21.989  1.00  0.00    -0.274 OA
ATOM     13  H   UNL A   1      31.165  24.394  21.669  1.00  0.00     0.163 HD
BRANCH  11  14
ATOM     14  C   UNL A   1      33.171  23.882  24.327  1.00  0.00     0.067 C 
ATOM     15  H   UNL A   1      32.532  24.290  25.083  1.00  0.00     0.045 H 
BRANCH  14  16
ATOM     16  C   UNL A   1      34.550  24.461  24.646  1.00  0.00    -0.049 C 
ATOM     17  H   UNL A   1      35.307  23.815  24.255  1.00  0.00     0.024 H 
ATOM     18  H   UNL A   1      34.665  24.545  25.706  1.00  0.00     0.024 H 
ATOM     19  H   UNL A   1      34.641  25.430  24.200  1.00  0.00     0.024 H 
ENDBRANCH  14  16
BRANCH  14  20
ATOM     20  C   UNL A   1      32.983  22.365  24.517  1.00  0.00     0.042 A 
ATOM     21  C   UNL A   1      32.748  21.609  23.346  1.00  0.00    -0.051 A 
ATOM     22  C   UNL A   1      32.981  21.640  25.724  1.00  0.00     0.273 A 
ATOM     23  C   UNL A   1      32.559  20.223  23.372  1.00  0.00    -0.058 A 
ATOM     24  H   UNL A   1      32.715  22.097  22.437  1.00  0.00     0.063 H 
ATOM     25  C   UNL A   1      32.735  20.255  25.760  1.00  0.00     0.019 A 
ATOM     26  C   UNL A   1      32.516  19.535  24.584  1.00  0.00    -0.040 A 
ATOM     27  H   UNL A   1      32.449  19.705  22.487  1.00  0.00     0.063 H 
ATOM     28  H   UNL A   1      32.716  19.765  26.667  1.00  0.00     0.070 H 
BRANCH  22  29
ATOM     29  N   UNL A   1      33.237  22.236  27.002  1.00  0.00     0.063 N 
ATOM     30  O   UNL A   1      34.361  22.245  27.458  1.00  0.00    -0.258 OA
ATOM     31  O   UNL A   1      32.247  22.915  27.668  1.00  0.00    -0.258 OA
ENDBRANCH  22  29
BRANCH  26  32
ATOM     32  C   UNL A   1      32.248  18.051  24.634  1.00  0.00    -0.018 C 
ATOM     33  H   UNL A   1      31.322  17.870  24.129  1.00  0.00     0.032 H 
ATOM     34  H   UNL A   1      32.244  17.797  25.672  1.00  0.00     0.032 H 
BRANCH  32  35
ATOM     35  C   UNL A   1      33.309  17.143  23.999  1.00  0.00     0.022 C 
ATOM     36  C   UNL A   1      34.715  17.735  23.845  1.00  0.00    -0.043 C 
ATOM     37  C   UNL A   1      33.577  15.904  24.820  1.00  0.00     0.136 C 
ATOM     38  H   UNL A   1      32.862  16.968  23.043  1.00  0.00     0.039 H 
ATOM     39  C   UNL A   1      35.524  17.228  25.033  1.00  0.00    -0.046 C 
ATOM     40  H   UNL A   1      34.669  18.805  23.858  1.00  0.00     0.027 H 
ATOM     41  H   UNL A   1      35.161  17.445  22.918  1.00  0.00     0.027 H 
ATOM     42  C   UNL A   1      34.996  15.828  25.315  1.00  0.00     0.006 C 
ATOM     43  O   UNL A   1      32.735  15.042  25.048  1.00  0.00    -0.299 OA
ATOM     44  H   UNL A   1      35.379  17.860  25.883  1.00  0.00     0.027 H 
ATOM     45  H   UNL A   1      36.574  17.221  24.825  1.00  0.00     0.027 H 
ATOM     46  H   UNL A   1      35.029  15.608  26.362  1.00  0.00     0.035 H 
ATOM     47  H   UNL A   1      35.569  15.056  24.845  1.00  0.00     0.035 H 
ENDBRANCH  32  35
ENDBRANCH  26  32
ENDBRANCH  14  20
ENDBRANCH  11  14
ENDBRANCH   7  10
ENDBRANCH   4   7
ENDBRANCH   1   4
BRANCH   1  48
ATOM     48  C   UNL A   1      31.648  27.251  25.878  1.00  0.00    -0.052 C 
ATOM     49  H   UNL A   1      32.472  26.606  26.103  1.00  0.00     0.027 H 
ATOM     50  H   UNL A   1      31.323  27.829  26.718  1.00  0.00     0.027 H 
BRANCH  48  51
ATOM     51  C   UNL A   1      32.106  28.255  24.816  1.00  0.00    -0.036 C 
ATOM     52  H   UNL A   1      31.275  28.880  24.566  1.00  0.00     0.028 H 
ATOM     53  H   UNL A   1      32.463  27.678  23.988  1.00  0.00     0.028 H 
BRANCH  51  54
ATOM     54  C   UNL A   1      33.264  29.152  25.247  1.00  0.00     0.018 C 
ATOM     55  H   UNL A   1      33.900  29.325  24.403  1.00  0.00     0.049 H 
ATOM     56  H   UNL A   1      33.794  28.656  26.033  1.00  0.00     0.049 H 
BRANCH  54  57
ATOM     57  N   UNL A   1      32.798  30.431  25.754  1.00  0.00    -0.352 N 
ATOM     58  C   UNL A   1      33.215  31.145  26.848  1.00  0.00     0.251 C 
ATOM     59  H   UNL A   1      32.072  30.848  25.235  1.00  0.00     0.163 HD
ATOM     60  O   UNL A   1      32.555  32.099  27.244  1.00  0.00    -0.269 OA
BRANCH  58  61
ATOM     61  C   UNL A   1      34.454  30.765  27.563  1.00  0.00     0.039 A 
ATOM     62  C   UNL A   1      35.442  31.737  27.745  1.00  0.00    -0.049 A 
ATOM     63  C   UNL A   1      34.668  29.457  28.007  1.00  0.00    -0.049 A 
ATOM     64  C   UNL A   1      36.624  31.408  28.410  1.00  0.00    -0.053 A 
ATOM     65  H   UNL A   1      35.297  32.694  27.390  1.00  0.00     0.063 H 
ATOM     66  C   UNL A   1      35.821  29.144  28.728  1.00  0.00    -0.053 A 
ATOM     67  H   UNL A   1      33.973  28.722  27.804  1.00  0.00     0.063 H 
ATOM     68  C   UNL A   1      36.813  30.115  28.927  1.00  0.00    -0.014 A 
ATOM     69  H   UNL A   1      37.363  32.118  28.523  1.00  0.00     0.063 H 
ATOM     70  H   UNL A   1      35.945  28.195  29.113  1.00  0.00     0.063 H 
BRANCH  68  71
ATOM     71  C   UNL A   1      38.049  29.782  29.680  1.00  0.00     0.031 A 
ATOM     72  C   UNL A   1      38.290  30.357  31.048  1.00  0.00     0.074 A 
ATOM     73  C   UNL A   1      38.968  28.975  29.116  1.00  0.00     0.049 A 
ATOM     74  N   UNL A   1      39.306  30.172  31.856  1.00  0.00    -0.248 NA
ATOM     75  C   UNL A   1      37.269  31.276  31.572  1.00  0.00    -0.034 C 
ATOM     76  C   UNL A   1      38.875  28.403  27.771  1.00  0.00    -0.036 A 
ATOM     77  N   UNL A   1      40.160  28.497  29.598  1.00  0.00    -0.354 N 
ATOM     78  C   UNL A   1      39.042  30.946  32.979  1.00  0.00     0.074 A 
ATOM     79  C   UNL A   1      37.804  31.650  32.725  1.00  0.00    -0.034 C 
ATOM     80  H   UNL A   1      36.369  31.557  31.150  1.00  0.00     0.065 H 
ATOM     81  C   UNL A   1      39.952  27.635  27.545  1.00  0.00    -0.036 A 
ATOM     82  H   UNL A   1      38.105  28.565  27.103  1.00  0.00     0.065 H 
ATOM     83  C   UNL A   1      40.822  27.678  28.717  1.00  0.00     0.049 A 
ATOM     84  H   UNL A   1      40.507  28.720  30.493  1.00  0.00     0.167 HD
ATOM     85  C   UNL A   1      39.754  31.038  34.127  1.00  0.00     0.037 A 
ATOM     86  H   UNL A   1      37.391  32.351  33.360  1.00  0.00     0.065 H 
ATOM     87  H   UNL A   1      40.136  27.100  26.682  1.00  0.00     0.065 H 
ATOM     88  C   UNL A   1      41.996  27.032  28.842  1.00  0.00     0.037 A 
ATOM     89  C   UNL A   1      40.982  30.328  34.382  1.00  0.00     0.049 A 
ATOM     90  C   UNL A   1      42.757  27.140  30.135  1.00  0.00     0.074 A 
ATOM     91  C   UNL A   1      41.761  30.333  35.525  1.00  0.00    -0.036 A 
ATOM     92  N   UNL A   1      41.606  29.484  33.475  1.00  0.00    -0.354 N 
ATOM     93  N   UNL A   1      42.465  27.826  31.213  1.00  0.00    -0.248 NA
ATOM     94  C   UNL A   1      44.006  26.371  30.232  1.00  0.00    -0.034 C 
ATOM     95  C   UNL A   1      42.876  29.517  35.299  1.00  0.00    -0.036 A 
ATOM     96  H   UNL A   1      41.557  30.848  36.395  1.00  0.00     0.065 H 
ATOM     97  C   UNL A   1      42.767  28.970  34.031  1.00  0.00     0.049 A 
ATOM     98  H   UNL A   1      41.274  29.281  32.572  1.00  0.00     0.167 HD
ATOM     99  C   UNL A   1      43.480  27.557  32.122  1.00  0.00     0.074 A 
ATOM    100  C   UNL A   1      44.381  26.624  31.478  1.00  0.00    -0.034 C 
ATOM    101  H   UNL A   1      44.470  25.787  29.519  1.00  0.00     0.065 H 
ATOM    102  H   UNL A   1      43.647  29.351  35.964  1.00  0.00     0.065 H 
ATOM    103  C   UNL A   1      43.653  28.043  33.375  1.00  0.00     0.037 A 
ATOM    104  H   UNL A   1      45.210  26.209  31.932  1.00  0.00     0.065 H 
BRANCH  85 105
ATOM    105  C   UNL A   1      39.212  31.926  35.209  1.00  0.00     0.064 A 
ATOM    106  C   UNL A   1      38.450  31.404  36.267  1.00  0.00     0.173 A 
ATOM    107  C   UNL A   1      39.495  33.300  35.220  1.00  0.00     0.173 A 
ATOM    108  F   UNL A   1      38.142  30.099  36.296  1.00  0.00    -0.203 F 
ATOM    109  C   UNL A   1      37.974  32.228  37.282  1.00  0.00     0.198 A 
ATOM    110  C   UNL A   1      39.040  34.116  36.252  1.00  0.00     0.198 A 
ATOM    111  F   UNL A   1      40.223  33.849  34.237  1.00  0.00    -0.203 F 
ATOM    112  F   UNL A   1      37.215  31.714  38.259  1.00  0.00    -0.200 F 
ATOM    113  C   UNL A   1      38.275  33.582  37.279  1.00  0.00     0.200 A 
ATOM    114  F   UNL A   1      39.342  35.423  36.255  1.00  0.00    -0.200 F 
ATOM    115  F   UNL A   1      37.825  34.372  38.263  1.00  0.00    -0.200 F 
ENDBRANCH  85 105
BRANCH  88 116
ATOM    116  C   UNL A   1      42.511  26.206  27.720  1.00  0.00     0.064 A 
ATOM    117  C   UNL A   1      43.444  26.722  26.810  1.00  0.00     0.173 A 
ATOM    118  C   UNL A   1      42.072  24.887  27.528  1.00  0.00     0.173 A 
ATOM    119  F   UNL A   1      43.880  27.983  26.942  1.00  0.00    -0.203 F 
ATOM    120  C   UNL A   1      43.899  25.960  25.736  1.00  0.00     0.198 A 
ATOM    121  C   UNL A   1      42.550  24.117  26.470  1.00  0.00     0.198 A 
ATOM    122  F   UNL A   1      41.185  24.345  28.375  1.00  0.00    -0.203 F 
ATOM    123  F   UNL A   1      44.752  26.496  24.852  1.00  0.00    -0.200 F 
ATOM    124  C   UNL A   1      43.454  24.657  25.569  1.00  0.00     0.200 A 
ATOM    125  F   UNL A   1      42.129  22.854  26.322  1.00  0.00    -0.200 F 
ATOM    126  F   UNL A   1      43.892  23.925  24.536  1.00  0.00    -0.200 F 
ENDBRANCH  88 116
BRANCH 103 127
ATOM    127  C   UNL A   1      44.854  27.558  34.134  1.00  0.00     0.064 A 
ATOM    128  C   UNL A   1      44.797  26.411  34.939  1.00  0.00     0.173 A 
ATOM    129  C   UNL A   1      46.076  28.239  34.043  1.00  0.00     0.173 A 
ATOM    130  F   UNL A   1      43.646  25.734  35.070  1.00  0.00    -0.203 F 
ATOM    131  C   UNL A   1      45.913  25.983  35.652  1.00  0.00     0.198 A 
ATOM    132  C   UNL A   1      47.198  27.791  34.734  1.00  0.00     0.198 A 
ATOM    133  F   UNL A   1      46.184  29.338  33.280  1.00  0.00    -0.203 F 
ATOM    134  F   UNL A   1      45.822  24.916  36.459  1.00  0.00    -0.200 F 
ATOM    135  C   UNL A   1      47.114  26.670  35.545  1.00  0.00     0.200 A 
ATOM    136  F   UNL A   1      48.360  28.449  34.620  1.00  0.00    -0.200 F 
ATOM    137  F   UNL A   1      48.187  26.255  36.233  1.00  0.00    -0.200 F 
ENDBRANCH 103 127
ENDBRANCH  68  71
ENDBRANCH  58  61
ENDBRANCH  54  57
ENDBRANCH  51  54
ENDBRANCH  48  51
ENDBRANCH   1  48
TORSDOF 18
ENDMDL
MODEL 7
REMARK VINA RESULT:     -11.6      2.103      3.198
REMARK SMILES C[C@@H](C(=O)NCCCCCCNC(=O)c1ccc(-c2c3nc(c(-c4c(F)c(F)c(F)c(F)c4F)c4ccc([nH]4)c(-c4c(F)c(F)c(F)c(F)c4F)c4nc(c(-c5c(F)c(F)c(F)c(F)c5F)c5ccc2[nH]5)C=C4)C=C3)cc1)c1ccc(C[C@H]2CCCC2=O)cc1[N+](=O)[O-]
REMARK SMILES IDX 8 1 7 4 6 7 5 10 3 11 4 12 2 14 1 16 78 20 79 21 90 22 80 23
REMARK SMILES IDX 89 25 81 26 91 29 92 30 93 31 82 32 83 35 84 36 87 37 85 39
REMARK SMILES IDX 86 42 88 43 9 48 10 51 11 54 12 57 13 58 14 60 15 61 16 62
REMARK SMILES IDX 77 63 17 64 76 66 18 68 19 71 20 72 70 73 21 74 75 75 69 76
REMARK SMILES IDX 71 77 22 78 74 79 68 81 67 83 23 85 55 88 35 89 54 90 36 91
REMARK SMILES IDX 39 92 53 93 72 94 37 95 38 97 52 99 73 100 40 103 24 105
REMARK SMILES IDX 25 106 33 107 26 108 27 109 31 110 34 111 28 112 29 113
REMARK SMILES IDX 32 114 30 115 56 116 57 117 65 118 58 119 59 120 63 121
REMARK SMILES IDX 66 122 60 123 61 124 64 125 62 126 41 127 42 128 50 129
REMARK SMILES IDX 43 130 44 131 48 132 51 133 45 134 46 135 49 136 47 137
REMARK H PARENT 8 2 8 3 7 5 7 6 6 8 6 9 5 13 2 15 1 17 1 18 1 19 79 24 80 27
REMARK H PARENT 89 28 82 33 82 34 83 38 84 40 84 41 85 44 85 45 86 46 86 47
REMARK H PARENT 9 49 9 50 10 52 10 53 11 55 11 56 12 59 16 65 77 67 17 69
REMARK H PARENT 76 70 75 80 69 82 71 84 74 86 68 87 36 96 39 98 72 101 37 102
REMARK H PARENT 73 104
REMARK Flexibility Score: inf
ROOT
ATOM      1  C   UNL A   1      30.407  26.467  25.366  1.00  0.00    -0.052 C 
ATOM      2  H   UNL A   1      30.674  25.500  25.739  1.00  0.00     0.027 H 
ATOM      3  H   UNL A   1      29.432  26.782  25.673  1.00  0.00     0.027 H 
ENDROOT
BRANCH   1   4
ATOM      4  C   UNL A   1      30.378  26.397  23.834  1.00  0.00    -0.036 C 
ATOM      5  H   UNL A   1      29.426  26.753  23.499  1.00  0.00     0.028 H 
ATOM      6  H   UNL A   1      31.188  26.998  23.479  1.00  0.00     0.028 H 
BRANCH   4   7
ATOM      7  C   UNL A   1      30.589  24.984  23.276  1.00  0.00     0.017 C 
ATOM      8  H   UNL A   1      30.654  24.287  24.085  1.00  0.00     0.049 H 
ATOM      9  H   UNL A   1      29.765  24.724  22.646  1.00  0.00     0.049 H 
BRANCH   7  10
ATOM     10  N   UNL A   1      31.815  24.946  22.506  1.00  0.00    -0.356 N 
ATOM     11  C   UNL A   1      33.109  24.996  22.940  1.00  0.00     0.227 C 
ATOM     12  O   UNL A   1      33.952  25.350  22.113  1.00  0.00    -0.274 OA
ATOM     13  H   UNL A   1      31.699  24.875  21.531  1.00  0.00     0.163 HD
BRANCH  11  14
ATOM     14  C   UNL A   1      33.468  24.553  24.380  1.00  0.00     0.067 C 
ATOM     15  H   UNL A   1      32.603  24.554  25.010  1.00  0.00     0.045 H 
BRANCH  14  16
ATOM     16  C   UNL A   1      34.402  25.581  25.020  1.00  0.00    -0.049 C 
ATOM     17  H   UNL A   1      33.956  25.959  25.916  1.00  0.00     0.024 H 
ATOM     18  H   UNL A   1      34.568  26.387  24.337  1.00  0.00     0.024 H 
ATOM     19  H   UNL A   1      35.336  25.115  25.256  1.00  0.00     0.024 H 
ENDBRANCH  14  16
BRANCH  14  20
ATOM     20  C   UNL A   1      33.909  23.078  24.422  1.00  0.00     0.042 A 
ATOM     21  C   UNL A   1      32.890  22.123  24.641  1.00  0.00    -0.051 A 
ATOM     22  C   UNL A   1      35.215  22.564  24.304  1.00  0.00     0.273 A 
ATOM     23  C   UNL A   1      33.149  20.749  24.702  1.00  0.00    -0.058 A 
ATOM     24  H   UNL A   1      31.919  22.451  24.759  1.00  0.00     0.063 H 
ATOM     25  C   UNL A   1      35.486  21.188  24.421  1.00  0.00     0.019 A 
ATOM     26  C   UNL A   1      34.456  20.269  24.627  1.00  0.00    -0.040 A 
ATOM     27  H   UNL A   1      32.366  20.085  24.805  1.00  0.00     0.063 H 
ATOM     28  H   UNL A   1      36.460  20.854  24.355  1.00  0.00     0.070 H 
BRANCH  22  29
ATOM     29  N   UNL A   1      36.363  23.380  24.044  1.00  0.00     0.063 N 
ATOM     30  O   UNL A   1      37.094  23.715  24.953  1.00  0.00    -0.258 OA
ATOM     31  O   UNL A   1      36.725  23.688  22.756  1.00  0.00    -0.258 OA
ENDBRANCH  22  29
BRANCH  26  32
ATOM     32  C   UNL A   1      34.758  18.796  24.758  1.00  0.00    -0.018 C 
ATOM     33  H   UNL A   1      34.920  18.587  25.795  1.00  0.00     0.032 H 
ATOM     34  H   UNL A   1      35.608  18.624  24.133  1.00  0.00     0.032 H 
BRANCH  32  35
ATOM     35  C   UNL A   1      33.679  17.830  24.251  1.00  0.00     0.022 C 
ATOM     36  C   UNL A   1      34.171  16.579  23.516  1.00  0.00    -0.043 C 
ATOM     37  C   UNL A   1      32.861  17.236  25.373  1.00  0.00     0.136 C 
ATOM     38  H   UNL A   1      33.142  18.476  23.589  1.00  0.00     0.039 H 
ATOM     39  C   UNL A   1      34.173  15.453  24.543  1.00  0.00    -0.046 C 
ATOM     40  H   UNL A   1      35.160  16.736  23.138  1.00  0.00     0.027 H 
ATOM     41  H   UNL A   1      33.543  16.344  22.683  1.00  0.00     0.027 H 
ATOM     42  C   UNL A   1      32.992  15.739  25.460  1.00  0.00     0.006 C 
ATOM     43  O   UNL A   1      32.153  17.897  26.125  1.00  0.00    -0.299 OA
ATOM     44  H   UNL A   1      35.087  15.453  25.099  1.00  0.00     0.027 H 
ATOM     45  H   UNL A   1      34.091  14.492  24.080  1.00  0.00     0.027 H 
ATOM     46  H   UNL A   1      33.198  15.428  26.463  1.00  0.00     0.035 H 
ATOM     47  H   UNL A   1      32.100  15.218  25.180  1.00  0.00     0.035 H 
ENDBRANCH  32  35
ENDBRANCH  26  32
ENDBRANCH  14  20
ENDBRANCH  11  14
ENDBRANCH   7  10
ENDBRANCH   4   7
ENDBRANCH   1   4
BRANCH   1  48
ATOM     48  C   UNL A   1      31.393  27.487  25.941  1.00  0.00    -0.052 C 
ATOM     49  H   UNL A   1      32.210  26.952  26.377  1.00  0.00     0.027 H 
ATOM     50  H   UNL A   1      30.844  28.070  26.651  1.00  0.00     0.027 H 
BRANCH  48  51
ATOM     51  C   UNL A   1      31.962  28.476  24.920  1.00  0.00    -0.036 C 
ATOM     52  H   UNL A   1      31.187  29.162  24.651  1.00  0.00     0.028 H 
ATOM     53  H   UNL A   1      32.311  27.891  24.094  1.00  0.00     0.028 H 
BRANCH  51  54
ATOM     54  C   UNL A   1      33.160  29.282  25.415  1.00  0.00     0.018 C 
ATOM     55  H   UNL A   1      33.861  29.388  24.612  1.00  0.00     0.049 H 
ATOM     56  H   UNL A   1      33.596  28.757  26.239  1.00  0.00     0.049 H 
BRANCH  54  57
ATOM     57  N   UNL A   1      32.771  30.603  25.877  1.00  0.00    -0.352 N 
ATOM     58  C   UNL A   1      33.252  31.341  26.927  1.00  0.00     0.251 C 
ATOM     59  H   UNL A   1      32.052  31.032  25.359  1.00  0.00     0.163 HD
ATOM     60  O   UNL A   1      32.650  32.343  27.297  1.00  0.00    -0.269 OA
BRANCH  58  61
ATOM     61  C   UNL A   1      34.490  30.931  27.627  1.00  0.00     0.039 A 
ATOM     62  C   UNL A   1      35.496  31.884  27.813  1.00  0.00    -0.049 A 
ATOM     63  C   UNL A   1      34.686  29.615  28.052  1.00  0.00    -0.049 A 
ATOM     64  C   UNL A   1      36.677  31.527  28.463  1.00  0.00    -0.053 A 
ATOM     65  H   UNL A   1      35.364  32.849  27.471  1.00  0.00     0.063 H 
ATOM     66  C   UNL A   1      35.840  29.274  28.758  1.00  0.00    -0.053 A 
ATOM     67  H   UNL A   1      33.977  28.894  27.845  1.00  0.00     0.063 H 
ATOM     68  C   UNL A   1      36.850  30.225  28.962  1.00  0.00    -0.014 A 
ATOM     69  H   UNL A   1      37.430  32.224  28.579  1.00  0.00     0.063 H 
ATOM     70  H   UNL A   1      35.951  28.318  29.130  1.00  0.00     0.063 H 
BRANCH  68  71
ATOM     71  C   UNL A   1      38.086  29.861  29.700  1.00  0.00     0.031 A 
ATOM     72  C   UNL A   1      38.345  30.409  31.076  1.00  0.00     0.074 A 
ATOM     73  C   UNL A   1      38.989  29.051  29.115  1.00  0.00     0.049 A 
ATOM     74  N   UNL A   1      39.364  30.196  31.872  1.00  0.00    -0.248 NA
ATOM     75  C   UNL A   1      37.341  31.333  31.622  1.00  0.00    -0.034 C 
ATOM     76  C   UNL A   1      38.878  28.504  27.761  1.00  0.00    -0.036 A 
ATOM     77  N   UNL A   1      40.178  28.548  29.580  1.00  0.00    -0.354 N 
ATOM     78  C   UNL A   1      39.119  30.954  33.010  1.00  0.00     0.074 A 
ATOM     79  C   UNL A   1      37.889  31.680  32.778  1.00  0.00    -0.034 C 
ATOM     80  H   UNL A   1      36.442  31.634  31.213  1.00  0.00     0.065 H 
ATOM     81  C   UNL A   1      39.943  27.725  27.514  1.00  0.00    -0.036 A 
ATOM     82  H   UNL A   1      38.106  28.688  27.102  1.00  0.00     0.065 H 
ATOM     83  C   UNL A   1      40.821  27.736  28.680  1.00  0.00     0.049 A 
ATOM     84  H   UNL A   1      40.535  28.751  30.476  1.00  0.00     0.167 HD
ATOM     85  C   UNL A   1      39.841  31.016  34.154  1.00  0.00     0.037 A 
ATOM     86  H   UNL A   1      37.491  32.375  33.428  1.00  0.00     0.065 H 
ATOM     87  H   UNL A   1      40.113  27.202  26.641  1.00  0.00     0.065 H 
ATOM     88  C   UNL A   1      41.987  27.071  28.785  1.00  0.00     0.037 A 
ATOM     89  C   UNL A   1      41.060  30.285  34.388  1.00  0.00     0.049 A 
ATOM     90  C   UNL A   1      42.760  27.146  30.074  1.00  0.00     0.074 A 
ATOM     91  C   UNL A   1      41.847  30.259  35.525  1.00  0.00    -0.036 A 
ATOM     92  N   UNL A   1      41.665  29.448  33.463  1.00  0.00    -0.354 N 
ATOM     93  N   UNL A   1      42.485  27.817  31.166  1.00  0.00    -0.248 NA
ATOM     94  C   UNL A   1      43.997  26.358  30.149  1.00  0.00    -0.034 C 
ATOM     95  C   UNL A   1      42.949  29.431  35.277  1.00  0.00    -0.036 A 
ATOM     96  H   UNL A   1      41.657  30.762  36.406  1.00  0.00     0.065 H 
ATOM     97  C   UNL A   1      42.823  28.909  34.001  1.00  0.00     0.049 A 
ATOM     98  H   UNL A   1      41.324  29.265  32.558  1.00  0.00     0.167 HD
ATOM     99  C   UNL A   1      43.502  27.519  32.063  1.00  0.00     0.074 A 
ATOM    100  C   UNL A   1      44.385  26.584  31.397  1.00  0.00    -0.034 C 
ATOM    101  H   UNL A   1      44.448  25.780  29.423  1.00  0.00     0.065 H 
ATOM    102  H   UNL A   1      43.723  29.243  35.934  1.00  0.00     0.065 H 
ATOM    103  C   UNL A   1      43.691  27.980  33.323  1.00  0.00     0.037 A 
ATOM    104  H   UNL A   1      45.211  26.150  31.837  1.00  0.00     0.065 H 
BRANCH  85 105
ATOM    105  C   UNL A   1      39.319  31.894  35.256  1.00  0.00     0.064 A 
ATOM    106  C   UNL A   1      39.627  33.263  35.303  1.00  0.00     0.173 A 
ATOM    107  C   UNL A   1      38.468  31.378  36.243  1.00  0.00     0.173 A 
ATOM    108  F   UNL A   1      40.446  33.803  34.389  1.00  0.00    -0.203 F 
ATOM    109  C   UNL A   1      39.118  34.077  36.311  1.00  0.00     0.198 A 
ATOM    110  C   UNL A   1      37.939  32.201  37.234  1.00  0.00     0.198 A 
ATOM    111  F   UNL A   1      38.138  30.078  36.241  1.00  0.00    -0.203 F 
ATOM    112  F   UNL A   1      39.457  35.372  36.359  1.00  0.00    -0.200 F 
ATOM    113  C   UNL A   1      38.268  33.548  37.271  1.00  0.00     0.200 A 
ATOM    114  F   UNL A   1      37.108  31.691  38.155  1.00  0.00    -0.200 F 
ATOM    115  F   UNL A   1      37.771  34.335  38.235  1.00  0.00    -0.200 F 
ENDBRANCH  85 105
BRANCH  88 116
ATOM    116  C   UNL A   1      42.483  26.257  27.646  1.00  0.00     0.064 A 
ATOM    117  C   UNL A   1      42.036  24.943  27.448  1.00  0.00     0.173 A 
ATOM    118  C   UNL A   1      43.422  26.771  26.739  1.00  0.00     0.173 A 
ATOM    119  F   UNL A   1      41.153  24.401  28.298  1.00  0.00    -0.203 F 
ATOM    120  C   UNL A   1      42.529  24.166  26.402  1.00  0.00     0.198 A 
ATOM    121  C   UNL A   1      43.891  26.003  25.677  1.00  0.00     0.198 A 
ATOM    122  F   UNL A   1      43.875  28.025  26.881  1.00  0.00    -0.203 F 
ATOM    123  F   UNL A   1      42.123  22.896  26.266  1.00  0.00    -0.200 F 
ATOM    124  C   UNL A   1      43.453  24.698  25.515  1.00  0.00     0.200 A 
ATOM    125  F   UNL A   1      44.773  26.526  24.814  1.00  0.00    -0.200 F 
ATOM    126  F   UNL A   1      43.926  23.950  24.509  1.00  0.00    -0.200 F 
ENDBRANCH  88 116
BRANCH 103 127
ATOM    127  C   UNL A   1      44.890  27.465  34.064  1.00  0.00     0.064 A 
ATOM    128  C   UNL A   1      46.120  28.140  34.027  1.00  0.00     0.173 A 
ATOM    129  C   UNL A   1      44.804  26.295  34.831  1.00  0.00     0.173 A 
ATOM    130  F   UNL A   1      46.256  29.256  33.294  1.00  0.00    -0.203 F 
ATOM    131  C   UNL A   1      47.229  27.641  34.704  1.00  0.00     0.198 A 
ATOM    132  C   UNL A   1      45.908  25.815  35.531  1.00  0.00     0.198 A 
ATOM    133  F   UNL A   1      43.649  25.617  34.905  1.00  0.00    -0.203 F 
ATOM    134  F   UNL A   1      48.408  28.270  34.609  1.00  0.00    -0.200 F 
ATOM    135  C   UNL A   1      47.121  26.482  35.459  1.00  0.00     0.200 A 
ATOM    136  F   UNL A   1      45.799  24.702  36.269  1.00  0.00    -0.200 F 
ATOM    137  F   UNL A   1      48.191  26.004  36.110  1.00  0.00    -0.200 F 
ENDBRANCH 103 127
ENDBRANCH  68  71
ENDBRANCH  58  61
ENDBRANCH  54  57
ENDBRANCH  51  54
ENDBRANCH  48  51
ENDBRANCH   1  48
TORSDOF 18
ENDMDL
MODEL 8
REMARK VINA RESULT:     -11.6      1.836      2.658
REMARK SMILES C[C@@H](C(=O)NCCCCCCNC(=O)c1ccc(-c2c3nc(c(-c4c(F)c(F)c(F)c(F)c4F)c4ccc([nH]4)c(-c4c(F)c(F)c(F)c(F)c4F)c4nc(c(-c5c(F)c(F)c(F)c(F)c5F)c5ccc2[nH]5)C=C4)C=C3)cc1)c1ccc(C[C@H]2CCCC2=O)cc1[N+](=O)[O-]
REMARK SMILES IDX 8 1 7 4 6 7 5 10 3 11 4 12 2 14 1 16 78 20 79 21 90 22 80 23
REMARK SMILES IDX 89 25 81 26 91 29 92 30 93 31 82 32 83 35 84 36 87 37 85 39
REMARK SMILES IDX 86 42 88 43 9 48 10 51 11 54 12 57 13 58 14 60 15 61 16 62
REMARK SMILES IDX 77 63 17 64 76 66 18 68 19 71 20 72 70 73 21 74 75 75 69 76
REMARK SMILES IDX 71 77 22 78 74 79 68 81 67 83 23 85 55 88 35 89 54 90 36 91
REMARK SMILES IDX 39 92 53 93 72 94 37 95 38 97 52 99 73 100 40 103 24 105
REMARK SMILES IDX 25 106 33 107 26 108 27 109 31 110 34 111 28 112 29 113
REMARK SMILES IDX 32 114 30 115 56 116 57 117 65 118 58 119 59 120 63 121
REMARK SMILES IDX 66 122 60 123 61 124 64 125 62 126 41 127 42 128 50 129
REMARK SMILES IDX 43 130 44 131 48 132 51 133 45 134 46 135 49 136 47 137
REMARK H PARENT 8 2 8 3 7 5 7 6 6 8 6 9 5 13 2 15 1 17 1 18 1 19 79 24 80 27
REMARK H PARENT 89 28 82 33 82 34 83 38 84 40 84 41 85 44 85 45 86 46 86 47
REMARK H PARENT 9 49 9 50 10 52 10 53 11 55 11 56 12 59 16 65 77 67 17 69
REMARK H PARENT 76 70 75 80 69 82 71 84 74 86 68 87 36 96 39 98 72 101 37 102
REMARK H PARENT 73 104
REMARK Flexibility Score: inf
ROOT
ATOM      1  C   UNL A   1      31.114  28.658  24.622  1.00  0.00    -0.052 C 
ATOM      2  H   UNL A   1      30.813  29.670  24.795  1.00  0.00     0.027 H 
ATOM      3  H   UNL A   1      32.034  28.578  24.083  1.00  0.00     0.027 H 
ENDROOT
BRANCH   1   4
ATOM      4  C   UNL A   1      30.044  27.983  23.755  1.00  0.00    -0.036 C 
ATOM      5  H   UNL A   1      29.096  28.423  23.985  1.00  0.00     0.028 H 
ATOM      6  H   UNL A   1      30.329  28.135  22.735  1.00  0.00     0.028 H 
BRANCH   4   7
ATOM      7  C   UNL A   1      29.939  26.468  23.970  1.00  0.00     0.017 C 
ATOM      8  H   UNL A   1      30.373  26.211  24.914  1.00  0.00     0.049 H 
ATOM      9  H   UNL A   1      28.910  26.178  23.960  1.00  0.00     0.049 H 
BRANCH   7  10
ATOM     10  N   UNL A   1      30.645  25.778  22.910  1.00  0.00    -0.356 N 
ATOM     11  C   UNL A   1      31.968  25.452  22.824  1.00  0.00     0.227 C 
ATOM     12  O   UNL A   1      32.408  25.239  21.692  1.00  0.00    -0.274 OA
ATOM     13  H   UNL A   1      30.091  25.507  22.142  1.00  0.00     0.163 HD
BRANCH  11  14
ATOM     14  C   UNL A   1      32.820  25.294  24.108  1.00  0.00     0.067 C 
ATOM     15  H   UNL A   1      32.278  25.619  24.972  1.00  0.00     0.045 H 
BRANCH  14  16
ATOM     16  C   UNL A   1      34.028  26.229  24.047  1.00  0.00    -0.049 C 
ATOM     17  H   UNL A   1      34.913  25.656  23.864  1.00  0.00     0.024 H 
ATOM     18  H   UNL A   1      34.125  26.748  24.977  1.00  0.00     0.024 H 
ATOM     19  H   UNL A   1      33.890  26.937  23.256  1.00  0.00     0.024 H 
ENDBRANCH  14  16
BRANCH  14  20
ATOM     20  C   UNL A   1      33.091  23.811  24.425  1.00  0.00     0.042 A 
ATOM     21  C   UNL A   1      34.163  23.206  23.730  1.00  0.00    -0.051 A 
ATOM     22  C   UNL A   1      32.375  22.971  25.299  1.00  0.00     0.273 A 
ATOM     23  C   UNL A   1      34.519  21.866  23.919  1.00  0.00    -0.058 A 
ATOM     24  H   UNL A   1      34.703  23.773  23.058  1.00  0.00     0.063 H 
ATOM     25  C   UNL A   1      32.696  21.609  25.450  1.00  0.00     0.019 A 
ATOM     26  C   UNL A   1      33.767  21.043  24.757  1.00  0.00    -0.040 A 
ATOM     27  H   UNL A   1      35.345  21.483  23.434  1.00  0.00     0.063 H 
ATOM     28  H   UNL A   1      32.131  21.020  26.081  1.00  0.00     0.070 H 
BRANCH  22  29
ATOM     29  N   UNL A   1      31.284  23.422  26.110  1.00  0.00     0.063 N 
ATOM     30  O   UNL A   1      30.240  22.806  26.129  1.00  0.00    -0.258 OA
ATOM     31  O   UNL A   1      31.445  24.479  26.972  1.00  0.00    -0.258 OA
ENDBRANCH  22  29
BRANCH  26  32
ATOM     32  C   UNL A   1      34.099  19.580  24.921  1.00  0.00    -0.018 C 
ATOM     33  H   UNL A   1      34.241  19.393  25.965  1.00  0.00     0.032 H 
ATOM     34  H   UNL A   1      34.968  19.416  24.320  1.00  0.00     0.032 H 
BRANCH  32  35
ATOM     35  C   UNL A   1      33.055  18.581  24.407  1.00  0.00     0.022 C 
ATOM     36  C   UNL A   1      33.339  17.932  23.047  1.00  0.00    -0.043 C 
ATOM     37  C   UNL A   1      32.913  17.377  25.308  1.00  0.00     0.136 C 
ATOM     38  H   UNL A   1      32.195  19.215  24.355  1.00  0.00     0.039 H 
ATOM     39  C   UNL A   1      33.954  16.570  23.345  1.00  0.00    -0.046 C 
ATOM     40  H   UNL A   1      34.024  18.534  22.486  1.00  0.00     0.027 H 
ATOM     41  H   UNL A   1      32.446  17.837  22.467  1.00  0.00     0.027 H 
ATOM     42  C   UNL A   1      33.277  16.089  24.620  1.00  0.00     0.006 C 
ATOM     43  O   UNL A   1      32.528  17.437  26.470  1.00  0.00    -0.299 OA
ATOM     44  H   UNL A   1      35.010  16.659  23.492  1.00  0.00     0.027 H 
ATOM     45  H   UNL A   1      33.810  15.884  22.536  1.00  0.00     0.027 H 
ATOM     46  H   UNL A   1      33.949  15.509  25.218  1.00  0.00     0.035 H 
ATOM     47  H   UNL A   1      32.437  15.452  24.440  1.00  0.00     0.035 H 
ENDBRANCH  32  35
ENDBRANCH  26  32
ENDBRANCH  14  20
ENDBRANCH  11  14
ENDBRANCH   7  10
ENDBRANCH   4   7
ENDBRANCH   1   4
BRANCH   1  48
ATOM     48  C   UNL A   1      31.350  27.993  25.980  1.00  0.00    -0.052 C 
ATOM     49  H   UNL A   1      31.417  26.936  25.827  1.00  0.00     0.027 H 
ATOM     50  H   UNL A   1      30.528  28.278  26.602  1.00  0.00     0.027 H 
BRANCH  48  51
ATOM     51  C   UNL A   1      32.618  28.450  26.706  1.00  0.00    -0.036 C 
ATOM     52  H   UNL A   1      33.212  27.587  26.917  1.00  0.00     0.028 H 
ATOM     53  H   UNL A   1      32.294  28.963  27.588  1.00  0.00     0.028 H 
BRANCH  51  54
ATOM     54  C   UNL A   1      33.478  29.440  25.924  1.00  0.00     0.018 C 
ATOM     55  H   UNL A   1      33.270  29.328  24.880  1.00  0.00     0.049 H 
ATOM     56  H   UNL A   1      34.505  29.228  26.137  1.00  0.00     0.049 H 
BRANCH  54  57
ATOM     57  N   UNL A   1      33.210  30.814  26.311  1.00  0.00    -0.352 N 
ATOM     58  C   UNL A   1      33.776  31.570  27.306  1.00  0.00     0.251 C 
ATOM     59  H   UNL A   1      32.518  31.271  25.781  1.00  0.00     0.163 HD
ATOM     60  O   UNL A   1      33.268  32.640  27.624  1.00  0.00    -0.269 OA
BRANCH  58  61
ATOM     61  C   UNL A   1      34.991  31.100  28.006  1.00  0.00     0.039 A 
ATOM     62  C   UNL A   1      36.121  31.923  28.004  1.00  0.00    -0.049 A 
ATOM     63  C   UNL A   1      35.041  29.844  28.618  1.00  0.00    -0.049 A 
ATOM     64  C   UNL A   1      37.285  31.504  28.650  1.00  0.00    -0.053 A 
ATOM     65  H   UNL A   1      36.094  32.836  27.526  1.00  0.00     0.063 H 
ATOM     66  C   UNL A   1      36.182  29.453  29.318  1.00  0.00    -0.053 A 
ATOM     67  H   UNL A   1      34.233  29.205  28.552  1.00  0.00     0.063 H 
ATOM     68  C   UNL A   1      37.317  30.276  29.333  1.00  0.00    -0.014 A 
ATOM     69  H   UNL A   1      38.127  32.100  28.627  1.00  0.00     0.063 H 
ATOM     70  H   UNL A   1      36.191  28.555  29.826  1.00  0.00     0.063 H 
BRANCH  68  71
ATOM     71  C   UNL A   1      38.540  29.857  30.064  1.00  0.00     0.031 A 
ATOM     72  C   UNL A   1      38.832  30.395  31.437  1.00  0.00     0.074 A 
ATOM     73  C   UNL A   1      39.400  29.004  29.477  1.00  0.00     0.049 A 
ATOM     74  N   UNL A   1      39.844  30.136  32.229  1.00  0.00    -0.248 NA
ATOM     75  C   UNL A   1      37.875  31.367  31.987  1.00  0.00    -0.034 C 
ATOM     76  C   UNL A   1      39.256  28.459  28.125  1.00  0.00    -0.036 A 
ATOM     77  N   UNL A   1      40.567  28.447  29.936  1.00  0.00    -0.354 N 
ATOM     78  C   UNL A   1      39.642  30.908  33.366  1.00  0.00     0.074 A 
ATOM     79  C   UNL A   1      38.447  31.690  33.139  1.00  0.00    -0.034 C 
ATOM     80  H   UNL A   1      36.989  31.709  31.582  1.00  0.00     0.065 H 
ATOM     81  C   UNL A   1      40.282  27.631  27.874  1.00  0.00    -0.036 A 
ATOM     82  H   UNL A   1      38.489  28.678  27.470  1.00  0.00     0.065 H 
ATOM     83  C   UNL A   1      41.166  27.603  29.034  1.00  0.00     0.049 A 
ATOM     84  H   UNL A   1      40.938  28.635  30.829  1.00  0.00     0.167 HD
ATOM     85  C   UNL A   1      40.372  30.938  34.506  1.00  0.00     0.037 A 
ATOM     86  H   UNL A   1      38.085  32.405  33.790  1.00  0.00     0.065 H 
ATOM     87  H   UNL A   1      40.422  27.099  27.001  1.00  0.00     0.065 H 
ATOM     88  C   UNL A   1      42.300  26.884  29.135  1.00  0.00     0.037 A 
ATOM     89  C   UNL A   1      41.557  30.151  34.735  1.00  0.00     0.049 A 
ATOM     90  C   UNL A   1      43.083  26.926  30.419  1.00  0.00     0.074 A 
ATOM     91  C   UNL A   1      42.349  30.091  35.867  1.00  0.00    -0.036 A 
ATOM     92  N   UNL A   1      42.118  29.285  33.808  1.00  0.00    -0.354 N 
ATOM     93  N   UNL A   1      42.846  27.612  31.510  1.00  0.00    -0.248 NA
ATOM     94  C   UNL A   1      44.282  26.081  30.489  1.00  0.00    -0.034 C 
ATOM     95  C   UNL A   1      43.409  29.212  35.615  1.00  0.00    -0.036 A 
ATOM     96  H   UNL A   1      42.188  30.605  36.748  1.00  0.00     0.065 H 
ATOM     97  C   UNL A   1      43.252  28.693  34.341  1.00  0.00     0.049 A 
ATOM     98  H   UNL A   1      41.763  29.116  32.906  1.00  0.00     0.167 HD
ATOM     99  C   UNL A   1      43.853  27.268  32.403  1.00  0.00     0.074 A 
ATOM    100  C   UNL A   1      44.688  26.291  31.734  1.00  0.00    -0.034 C 
ATOM    101  H   UNL A   1      44.701  25.481  29.761  1.00  0.00     0.065 H 
ATOM    102  H   UNL A   1      44.177  28.989  36.268  1.00  0.00     0.065 H 
ATOM    103  C   UNL A   1      44.071  27.723  33.660  1.00  0.00     0.037 A 
ATOM    104  H   UNL A   1      45.495  25.820  32.170  1.00  0.00     0.065 H 
BRANCH  85 105
ATOM    105  C   UNL A   1      39.899  31.842  35.608  1.00  0.00     0.064 A 
ATOM    106  C   UNL A   1      40.479  33.104  35.815  1.00  0.00     0.173 A 
ATOM    107  C   UNL A   1      38.828  31.469  36.433  1.00  0.00     0.173 A 
ATOM    108  F   UNL A   1      41.514  33.502  35.061  1.00  0.00    -0.203 F 
ATOM    109  C   UNL A   1      40.018  33.948  36.821  1.00  0.00     0.198 A 
ATOM    110  C   UNL A   1      38.352  32.328  37.420  1.00  0.00     0.198 A 
ATOM    111  F   UNL A   1      38.235  30.277  36.274  1.00  0.00    -0.203 F 
ATOM    112  F   UNL A   1      40.614  35.131  37.026  1.00  0.00    -0.200 F 
ATOM    113  C   UNL A   1      38.950  33.564  37.617  1.00  0.00     0.200 A 
ATOM    114  F   UNL A   1      37.311  31.960  38.182  1.00  0.00    -0.200 F 
ATOM    115  F   UNL A   1      38.500  34.383  38.578  1.00  0.00    -0.200 F 
ENDBRANCH  85 105
BRANCH  88 116
ATOM    116  C   UNL A   1      42.750  26.045  27.995  1.00  0.00     0.064 A 
ATOM    117  C   UNL A   1      43.625  26.552  27.024  1.00  0.00     0.173 A 
ATOM    118  C   UNL A   1      42.304  24.724  27.845  1.00  0.00     0.173 A 
ATOM    119  F   UNL A   1      44.065  27.816  27.114  1.00  0.00    -0.203 F 
ATOM    120  C   UNL A   1      44.018  25.778  25.934  1.00  0.00     0.198 A 
ATOM    121  C   UNL A   1      42.720  23.942  26.771  1.00  0.00     0.198 A 
ATOM    122  F   UNL A   1      41.471  24.190  28.750  1.00  0.00    -0.203 F 
ATOM    123  F   UNL A   1      44.815  26.305  24.995  1.00  0.00    -0.200 F 
ATOM    124  C   UNL A   1      43.568  24.472  25.811  1.00  0.00     0.200 A 
ATOM    125  F   UNL A   1      42.295  22.676  26.663  1.00  0.00    -0.200 F 
ATOM    126  F   UNL A   1      43.946  23.728  24.762  1.00  0.00    -0.200 F 
ENDBRANCH  88 116
BRANCH 103 127
ATOM    127  C   UNL A   1      45.249  27.154  34.396  1.00  0.00     0.064 A 
ATOM    128  C   UNL A   1      46.513  27.759  34.334  1.00  0.00     0.173 A 
ATOM    129  C   UNL A   1      45.108  26.002  35.182  1.00  0.00     0.173 A 
ATOM    130  F   UNL A   1      46.702  28.854  33.582  1.00  0.00    -0.203 F 
ATOM    131  C   UNL A   1      47.601  27.210  35.006  1.00  0.00     0.198 A 
ATOM    132  C   UNL A   1      46.192  25.473  35.878  1.00  0.00     0.198 A 
ATOM    133  F   UNL A   1      43.918  25.390  35.280  1.00  0.00    -0.203 F 
ATOM    134  F   UNL A   1      48.813  27.772  34.889  1.00  0.00    -0.200 F 
ATOM    135  C   UNL A   1      47.439  26.071  35.781  1.00  0.00     0.200 A 
ATOM    136  F   UNL A   1      46.031  24.379  36.635  1.00  0.00    -0.200 F 
ATOM    137  F   UNL A   1      48.489  25.544  36.427  1.00  0.00    -0.200 F 
ENDBRANCH 103 127
ENDBRANCH  68  71
ENDBRANCH  58  61
ENDBRANCH  54  57
ENDBRANCH  51  54
ENDBRANCH  48  51
ENDBRANCH   1  48
TORSDOF 18
ENDMDL
MODEL 9
REMARK VINA RESULT:     -11.5      9.340     15.333
REMARK SMILES C[C@@H](C(=O)NCCCCCCNC(=O)c1ccc(-c2c3nc(c(-c4c(F)c(F)c(F)c(F)c4F)c4ccc([nH]4)c(-c4c(F)c(F)c(F)c(F)c4F)c4nc(c(-c5c(F)c(F)c(F)c(F)c5F)c5ccc2[nH]5)C=C4)C=C3)cc1)c1ccc(C[C@H]2CCCC2=O)cc1[N+](=O)[O-]
REMARK SMILES IDX 8 1 7 4 6 7 5 10 3 11 4 12 2 14 1 16 78 20 79 21 90 22 80 23
REMARK SMILES IDX 89 25 81 26 91 29 92 30 93 31 82 32 83 35 84 36 87 37 85 39
REMARK SMILES IDX 86 42 88 43 9 48 10 51 11 54 12 57 13 58 14 60 15 61 16 62
REMARK SMILES IDX 77 63 17 64 76 66 18 68 19 71 20 72 70 73 21 74 75 75 69 76
REMARK SMILES IDX 71 77 22 78 74 79 68 81 67 83 23 85 55 88 35 89 54 90 36 91
REMARK SMILES IDX 39 92 53 93 72 94 37 95 38 97 52 99 73 100 40 103 24 105
REMARK SMILES IDX 25 106 33 107 26 108 27 109 31 110 34 111 28 112 29 113
REMARK SMILES IDX 32 114 30 115 56 116 57 117 65 118 58 119 59 120 63 121
REMARK SMILES IDX 66 122 60 123 61 124 64 125 62 126 41 127 42 128 50 129
REMARK SMILES IDX 43 130 44 131 48 132 51 133 45 134 46 135 49 136 47 137
REMARK H PARENT 8 2 8 3 7 5 7 6 6 8 6 9 5 13 2 15 1 17 1 18 1 19 79 24 80 27
REMARK H PARENT 89 28 82 33 82 34 83 38 84 40 84 41 85 44 85 45 86 46 86 47
REMARK H PARENT 9 49 9 50 10 52 10 53 11 55 11 56 12 59 16 65 77 67 17 69
REMARK H PARENT 76 70 75 80 69 82 71 84 74 86 68 87 36 96 39 98 72 101 37 102
REMARK H PARENT 73 104
REMARK Flexibility Score: inf
ROOT
ATOM      1  C   UNL A   1      41.788  40.127  26.270  1.00  0.00    -0.052 C 
ATOM      2  H   UNL A   1      41.636  39.707  25.297  1.00  0.00     0.027 H 
ATOM      3  H   UNL A   1      40.888  40.502  26.712  1.00  0.00     0.027 H 
ENDROOT
BRANCH   1   4
ATOM      4  C   UNL A   1      42.734  41.326  26.130  1.00  0.00    -0.036 C 
ATOM      5  H   UNL A   1      42.297  42.161  26.637  1.00  0.00     0.028 H 
ATOM      6  H   UNL A   1      43.671  41.033  26.556  1.00  0.00     0.028 H 
BRANCH   4   7
ATOM      7  C   UNL A   1      43.008  41.731  24.677  1.00  0.00     0.017 C 
ATOM      8  H   UNL A   1      43.841  41.172  24.302  1.00  0.00     0.049 H 
ATOM      9  H   UNL A   1      42.144  41.526  24.081  1.00  0.00     0.049 H 
BRANCH   7  10
ATOM     10  N   UNL A   1      43.311  43.146  24.618  1.00  0.00    -0.356 N 
ATOM     11  C   UNL A   1      44.341  43.782  23.987  1.00  0.00     0.227 C 
ATOM     12  O   UNL A   1      44.623  44.910  24.397  1.00  0.00    -0.274 OA
ATOM     13  H   UNL A   1      42.685  43.732  25.102  1.00  0.00     0.163 HD
BRANCH  11  14
ATOM     14  C   UNL A   1      45.045  43.121  22.775  1.00  0.00     0.067 C 
ATOM     15  H   UNL A   1      44.731  42.105  22.656  1.00  0.00     0.045 H 
BRANCH  14  16
ATOM     16  C   UNL A   1      46.547  43.022  23.039  1.00  0.00    -0.049 C 
ATOM     17  H   UNL A   1      46.741  42.201  23.697  1.00  0.00     0.024 H 
ATOM     18  H   UNL A   1      46.890  43.929  23.491  1.00  0.00     0.024 H 
ATOM     19  H   UNL A   1      47.062  42.868  22.114  1.00  0.00     0.024 H 
ENDBRANCH  14  16
BRANCH  14  20
ATOM     20  C   UNL A   1      44.603  43.764  21.447  1.00  0.00     0.042 A 
ATOM     21  C   UNL A   1      45.498  44.694  20.870  1.00  0.00    -0.051 A 
ATOM     22  C   UNL A   1      43.394  43.566  20.753  1.00  0.00     0.273 A 
ATOM     23  C   UNL A   1      45.223  45.354  19.667  1.00  0.00    -0.058 A 
ATOM     24  H   UNL A   1      46.387  44.894  21.354  1.00  0.00     0.063 H 
ATOM     25  C   UNL A   1      43.090  44.269  19.572  1.00  0.00     0.019 A 
ATOM     26  C   UNL A   1      44.000  45.174  19.022  1.00  0.00    -0.040 A 
ATOM     27  H   UNL A   1      45.931  45.980  19.254  1.00  0.00     0.063 H 
ATOM     28  H   UNL A   1      42.183  44.114  19.108  1.00  0.00     0.070 H 
BRANCH  22  29
ATOM     29  N   UNL A   1      42.388  42.636  21.171  1.00  0.00     0.063 N 
ATOM     30  O   UNL A   1      42.640  41.451  21.238  1.00  0.00    -0.258 OA
ATOM     31  O   UNL A   1      41.170  43.080  21.624  1.00  0.00    -0.258 OA
ENDBRANCH  22  29
BRANCH  26  32
ATOM     32  C   UNL A   1      43.662  45.927  17.759  1.00  0.00    -0.018 C 
ATOM     33  H   UNL A   1      43.028  45.302  17.166  1.00  0.00     0.032 H 
ATOM     34  H   UNL A   1      44.603  46.160  17.307  1.00  0.00     0.032 H 
BRANCH  32  35
ATOM     35  C   UNL A   1      42.953  47.275  17.937  1.00  0.00     0.022 C 
ATOM     36  C   UNL A   1      43.816  48.446  18.420  1.00  0.00    -0.043 C 
ATOM     37  C   UNL A   1      42.392  47.810  16.640  1.00  0.00     0.136 C 
ATOM     38  H   UNL A   1      42.223  47.010  18.673  1.00  0.00     0.039 H 
ATOM     39  C   UNL A   1      44.203  49.233  17.173  1.00  0.00    -0.046 C 
ATOM     40  H   UNL A   1      44.693  48.081  18.914  1.00  0.00     0.027 H 
ATOM     41  H   UNL A   1      43.287  49.059  19.118  1.00  0.00     0.027 H 
ATOM     42  C   UNL A   1      43.008  49.123  16.237  1.00  0.00     0.006 C 
ATOM     43  O   UNL A   1      41.519  47.245  15.991  1.00  0.00    -0.299 OA
ATOM     44  H   UNL A   1      45.075  48.812  16.719  1.00  0.00     0.027 H 
ATOM     45  H   UNL A   1      44.433  50.253  17.403  1.00  0.00     0.027 H 
ATOM     46  H   UNL A   1      43.321  49.103  15.213  1.00  0.00     0.035 H 
ATOM     47  H   UNL A   1      42.332  49.949  16.311  1.00  0.00     0.035 H 
ENDBRANCH  32  35
ENDBRANCH  26  32
ENDBRANCH  14  20
ENDBRANCH  11  14
ENDBRANCH   7  10
ENDBRANCH   4   7
ENDBRANCH   1   4
BRANCH   1  48
ATOM     48  C   UNL A   1      42.293  39.016  27.194  1.00  0.00    -0.052 C 
ATOM     49  H   UNL A   1      42.887  38.343  26.612  1.00  0.00     0.027 H 
ATOM     50  H   UNL A   1      41.424  38.556  27.615  1.00  0.00     0.027 H 
BRANCH  48  51
ATOM     51  C   UNL A   1      43.140  39.500  28.375  1.00  0.00    -0.036 C 
ATOM     52  H   UNL A   1      42.493  39.986  29.073  1.00  0.00     0.028 H 
ATOM     53  H   UNL A   1      43.884  40.152  27.966  1.00  0.00     0.028 H 
BRANCH  51  54
ATOM     54  C   UNL A   1      43.893  38.395  29.112  1.00  0.00     0.018 C 
ATOM     55  H   UNL A   1      43.480  37.448  28.832  1.00  0.00     0.049 H 
ATOM     56  H   UNL A   1      43.787  38.565  30.163  1.00  0.00     0.049 H 
BRANCH  54  57
ATOM     57  N   UNL A   1      45.311  38.401  28.794  1.00  0.00    -0.352 N 
ATOM     58  C   UNL A   1      46.188  37.354  28.680  1.00  0.00     0.251 C 
ATOM     59  H   UNL A   1      45.700  39.292  28.640  1.00  0.00     0.163 HD
ATOM     60  O   UNL A   1      47.394  37.570  28.621  1.00  0.00    -0.269 OA
BRANCH  58  61
ATOM     61  C   UNL A   1      45.691  35.961  28.637  1.00  0.00     0.039 A 
ATOM     62  C   UNL A   1      44.930  35.560  27.536  1.00  0.00    -0.049 A 
ATOM     63  C   UNL A   1      45.926  35.070  29.688  1.00  0.00    -0.049 A 
ATOM     64  C   UNL A   1      44.442  34.254  27.470  1.00  0.00    -0.053 A 
ATOM     65  H   UNL A   1      44.730  36.227  26.774  1.00  0.00     0.063 H 
ATOM     66  C   UNL A   1      45.493  33.747  29.592  1.00  0.00    -0.053 A 
ATOM     67  H   UNL A   1      46.421  35.390  30.535  1.00  0.00     0.063 H 
ATOM     68  C   UNL A   1      44.739  33.331  28.486  1.00  0.00    -0.014 A 
ATOM     69  H   UNL A   1      43.858  33.965  26.669  1.00  0.00     0.063 H 
ATOM     70  H   UNL A   1      45.726  33.075  30.338  1.00  0.00     0.063 H 
BRANCH  68  71
ATOM     71  C   UNL A   1      44.262  31.928  28.387  1.00  0.00     0.031 A 
ATOM     72  C   UNL A   1      42.975  31.509  29.043  1.00  0.00     0.074 A 
ATOM     73  C   UNL A   1      45.007  31.023  27.725  1.00  0.00     0.049 A 
ATOM     74  N   UNL A   1      42.399  30.333  29.056  1.00  0.00    -0.248 NA
ATOM     75  C   UNL A   1      42.249  32.541  29.798  1.00  0.00    -0.034 C 
ATOM     76  C   UNL A   1      46.303  31.294  27.098  1.00  0.00    -0.036 A 
ATOM     77  N   UNL A   1      44.786  29.694  27.467  1.00  0.00    -0.354 N 
ATOM     78  C   UNL A   1      41.245  30.485  29.815  1.00  0.00     0.074 A 
ATOM     79  C   UNL A   1      41.233  31.850  30.295  1.00  0.00    -0.034 C 
ATOM     80  H   UNL A   1      42.472  33.543  29.912  1.00  0.00     0.065 H 
ATOM     81  C   UNL A   1      46.750  30.172  26.511  1.00  0.00    -0.036 A 
ATOM     82  H   UNL A   1      46.794  32.201  27.107  1.00  0.00     0.065 H 
ATOM     83  C   UNL A   1      45.787  29.100  26.739  1.00  0.00     0.049 A 
ATOM     84  H   UNL A   1      43.984  29.211  27.776  1.00  0.00     0.167 HD
ATOM     85  C   UNL A   1      40.272  29.577  30.063  1.00  0.00     0.037 A 
ATOM     86  H   UNL A   1      40.525  32.235  30.940  1.00  0.00     0.065 H 
ATOM     87  H   UNL A   1      47.632  30.083  25.984  1.00  0.00     0.065 H 
ATOM     88  C   UNL A   1      45.911  27.833  26.300  1.00  0.00     0.037 A 
ATOM     89  C   UNL A   1      40.280  28.222  29.576  1.00  0.00     0.049 A 
ATOM     90  C   UNL A   1      44.806  26.850  26.578  1.00  0.00     0.074 A 
ATOM     91  C   UNL A   1      39.326  27.235  29.749  1.00  0.00    -0.036 A 
ATOM     92  N   UNL A   1      41.297  27.665  28.815  1.00  0.00    -0.354 N 
ATOM     93  N   UNL A   1      43.691  27.025  27.243  1.00  0.00    -0.248 NA
ATOM     94  C   UNL A   1      44.973  25.497  26.029  1.00  0.00    -0.034 C 
ATOM     95  C   UNL A   1      39.781  26.070  29.121  1.00  0.00    -0.036 A 
ATOM     96  H   UNL A   1      38.432  27.339  30.254  1.00  0.00     0.065 H 
ATOM     97  C   UNL A   1      40.998  26.344  28.520  1.00  0.00     0.049 A 
ATOM     98  H   UNL A   1      42.111  28.138  28.528  1.00  0.00     0.167 HD
ATOM     99  C   UNL A   1      43.014  25.814  27.178  1.00  0.00     0.074 A 
ATOM    100  C   UNL A   1      43.833  24.920  26.384  1.00  0.00    -0.034 C 
ATOM    101  H   UNL A   1      45.768  25.099  25.505  1.00  0.00     0.065 H 
ATOM    102  H   UNL A   1      39.292  25.160  29.108  1.00  0.00     0.065 H 
ATOM    103  C   UNL A   1      41.825  25.469  27.729  1.00  0.00     0.037 A 
ATOM    104  H   UNL A   1      43.564  23.958  26.128  1.00  0.00     0.065 H 
BRANCH  85 105
ATOM    105  C   UNL A   1      39.099  30.026  30.888  1.00  0.00     0.064 A 
ATOM    106  C   UNL A   1      39.100  29.896  32.285  1.00  0.00     0.173 A 
ATOM    107  C   UNL A   1      37.988  30.634  30.286  1.00  0.00     0.173 A 
ATOM    108  F   UNL A   1      40.133  29.310  32.908  1.00  0.00    -0.203 F 
ATOM    109  C   UNL A   1      38.022  30.338  33.047  1.00  0.00     0.198 A 
ATOM    110  C   UNL A   1      36.924  31.100  31.053  1.00  0.00     0.198 A 
ATOM    111  F   UNL A   1      37.939  30.787  28.954  1.00  0.00    -0.203 F 
ATOM    112  F   UNL A   1      38.028  30.167  34.376  1.00  0.00    -0.200 F 
ATOM    113  C   UNL A   1      36.939  30.948  32.432  1.00  0.00     0.200 A 
ATOM    114  F   UNL A   1      35.882  31.699  30.459  1.00  0.00    -0.200 F 
ATOM    115  F   UNL A   1      35.906  31.383  33.167  1.00  0.00    -0.200 F 
ENDBRANCH  85 105
BRANCH  88 116
ATOM    116  C   UNL A   1      47.116  27.429  25.531  1.00  0.00     0.064 A 
ATOM    117  C   UNL A   1      48.213  26.833  26.167  1.00  0.00     0.173 A 
ATOM    118  C   UNL A   1      47.200  27.642  24.147  1.00  0.00     0.173 A 
ATOM    119  F   UNL A   1      48.188  26.625  27.492  1.00  0.00    -0.203 F 
ATOM    120  C   UNL A   1      49.359  26.488  25.453  1.00  0.00     0.198 A 
ATOM    121  C   UNL A   1      48.334  27.270  23.430  1.00  0.00     0.198 A 
ATOM    122  F   UNL A   1      46.173  28.203  23.491  1.00  0.00    -0.203 F 
ATOM    123  F   UNL A   1      50.413  25.966  26.095  1.00  0.00    -0.200 F 
ATOM    124  C   UNL A   1      49.417  26.703  24.085  1.00  0.00     0.200 A 
ATOM    125  F   UNL A   1      48.380  27.467  22.105  1.00  0.00    -0.200 F 
ATOM    126  F   UNL A   1      50.518  26.372  23.398  1.00  0.00    -0.200 F 
ENDBRANCH  88 116
BRANCH 103 127
ATOM    127  C   UNL A   1      41.336  24.074  27.476  1.00  0.00     0.064 A 
ATOM    128  C   UNL A   1      41.949  22.963  28.073  1.00  0.00     0.173 A 
ATOM    129  C   UNL A   1      40.233  23.847  26.641  1.00  0.00     0.173 A 
ATOM    130  F   UNL A   1      43.018  23.127  28.868  1.00  0.00    -0.203 F 
ATOM    131  C   UNL A   1      41.496  21.672  27.815  1.00  0.00     0.198 A 
ATOM    132  C   UNL A   1      39.764  22.557  26.408  1.00  0.00     0.198 A 
ATOM    133  F   UNL A   1      39.606  24.877  26.051  1.00  0.00    -0.203 F 
ATOM    134  F   UNL A   1      42.132  20.621  28.351  1.00  0.00    -0.200 F 
ATOM    135  C   UNL A   1      40.402  21.470  26.987  1.00  0.00     0.200 A 
ATOM    136  F   UNL A   1      38.699  22.365  25.617  1.00  0.00    -0.200 F 
ATOM    137  F   UNL A   1      39.968  20.226  26.740  1.00  0.00    -0.200 F 
ENDBRANCH 103 127
ENDBRANCH  68  71
ENDBRANCH  58  61
ENDBRANCH  54  57
ENDBRANCH  51  54
ENDBRANCH  48  51
ENDBRANCH   1  48
TORSDOF 18
ENDMDL
MODEL 10
REMARK VINA RESULT:     -11.5      5.124     10.868
REMARK SMILES C[C@@H](C(=O)NCCCCCCNC(=O)c1ccc(-c2c3nc(c(-c4c(F)c(F)c(F)c(F)c4F)c4ccc([nH]4)c(-c4c(F)c(F)c(F)c(F)c4F)c4nc(c(-c5c(F)c(F)c(F)c(F)c5F)c5ccc2[nH]5)C=C4)C=C3)cc1)c1ccc(C[C@H]2CCCC2=O)cc1[N+](=O)[O-]
REMARK SMILES IDX 8 1 7 4 6 7 5 10 3 11 4 12 2 14 1 16 78 20 79 21 90 22 80 23
REMARK SMILES IDX 89 25 81 26 91 29 92 30 93 31 82 32 83 35 84 36 87 37 85 39
REMARK SMILES IDX 86 42 88 43 9 48 10 51 11 54 12 57 13 58 14 60 15 61 16 62
REMARK SMILES IDX 77 63 17 64 76 66 18 68 19 71 20 72 70 73 21 74 75 75 69 76
REMARK SMILES IDX 71 77 22 78 74 79 68 81 67 83 23 85 55 88 35 89 54 90 36 91
REMARK SMILES IDX 39 92 53 93 72 94 37 95 38 97 52 99 73 100 40 103 24 105
REMARK SMILES IDX 25 106 33 107 26 108 27 109 31 110 34 111 28 112 29 113
REMARK SMILES IDX 32 114 30 115 56 116 57 117 65 118 58 119 59 120 63 121
REMARK SMILES IDX 66 122 60 123 61 124 64 125 62 126 41 127 42 128 50 129
REMARK SMILES IDX 43 130 44 131 48 132 51 133 45 134 46 135 49 136 47 137
REMARK H PARENT 8 2 8 3 7 5 7 6 6 8 6 9 5 13 2 15 1 17 1 18 1 19 79 24 80 27
REMARK H PARENT 89 28 82 33 82 34 83 38 84 40 84 41 85 44 85 45 86 46 86 47
REMARK H PARENT 9 49 9 50 10 52 10 53 11 55 11 56 12 59 16 65 77 67 17 69
REMARK H PARENT 76 70 75 80 69 82 71 84 74 86 68 87 36 96 39 98 72 101 37 102
REMARK H PARENT 73 104
REMARK Flexibility Score: inf
ROOT
ATOM      1  C   UNL A   1      36.570  21.619  24.374  1.00  0.00    -0.052 C 
ATOM      2  H   UNL A   1      36.253  22.640  24.326  1.00  0.00     0.027 H 
ATOM      3  H   UNL A   1      36.706  21.174  23.411  1.00  0.00     0.027 H 
ENDROOT
BRANCH   1   4
ATOM      4  C   UNL A   1      35.472  20.809  25.074  1.00  0.00    -0.036 C 
ATOM      5  H   UNL A   1      35.383  19.863  24.581  1.00  0.00     0.028 H 
ATOM      6  H   UNL A   1      35.763  20.710  26.099  1.00  0.00     0.028 H 
BRANCH   4   7
ATOM      7  C   UNL A   1      34.098  21.491  25.062  1.00  0.00     0.017 C 
ATOM      8  H   UNL A   1      33.587  21.248  24.154  1.00  0.00     0.049 H 
ATOM      9  H   UNL A   1      33.524  21.149  25.897  1.00  0.00     0.049 H 
BRANCH   7  10
ATOM     10  N   UNL A   1      34.269  22.926  25.150  1.00  0.00    -0.356 N 
ATOM     11  C   UNL A   1      33.886  23.897  24.270  1.00  0.00     0.227 C 
ATOM     12  O   UNL A   1      34.477  24.976  24.350  1.00  0.00    -0.274 OA
ATOM     13  H   UNL A   1      34.728  23.248  25.960  1.00  0.00     0.163 HD
BRANCH  11  14
ATOM     14  C   UNL A   1      32.716  23.643  23.286  1.00  0.00     0.067 C 
ATOM     15  H   UNL A   1      32.071  22.869  23.647  1.00  0.00     0.045 H 
BRANCH  14  16
ATOM     16  C   UNL A   1      33.258  23.097  21.965  1.00  0.00    -0.049 C 
ATOM     17  H   UNL A   1      32.986  22.067  21.867  1.00  0.00     0.024 H 
ATOM     18  H   UNL A   1      34.324  23.187  21.953  1.00  0.00     0.024 H 
ATOM     19  H   UNL A   1      32.843  23.655  21.152  1.00  0.00     0.024 H 
ENDBRANCH  14  16
BRANCH  14  20
ATOM     20  C   UNL A   1      31.770  24.856  23.212  1.00  0.00     0.042 A 
ATOM     21  C   UNL A   1      30.643  24.829  24.065  1.00  0.00    -0.051 A 
ATOM     22  C   UNL A   1      31.871  25.978  22.367  1.00  0.00     0.273 A 
ATOM     23  C   UNL A   1      29.702  25.864  24.100  1.00  0.00    -0.058 A 
ATOM     24  H   UNL A   1      30.510  24.015  24.686  1.00  0.00     0.063 H 
ATOM     25  C   UNL A   1      30.896  26.994  22.360  1.00  0.00     0.019 A 
ATOM     26  C   UNL A   1      29.800  26.942  23.222  1.00  0.00    -0.040 A 
ATOM     27  H   UNL A   1      28.927  25.828  24.781  1.00  0.00     0.063 H 
ATOM     28  H   UNL A   1      30.994  27.787  21.707  1.00  0.00     0.070 H 
BRANCH  22  29
ATOM     29  N   UNL A   1      32.963  26.190  21.465  1.00  0.00     0.063 N 
ATOM     30  O   UNL A   1      33.932  26.831  21.816  1.00  0.00    -0.258 OA
ATOM     31  O   UNL A   1      32.990  25.568  20.241  1.00  0.00    -0.258 OA
ENDBRANCH  22  29
BRANCH  26  32
ATOM     32  C   UNL A   1      28.758  28.033  23.202  1.00  0.00    -0.018 C 
ATOM     33  H   UNL A   1      28.426  28.186  24.208  1.00  0.00     0.032 H 
ATOM     34  H   UNL A   1      27.999  27.689  22.532  1.00  0.00     0.032 H 
BRANCH  32  35
ATOM     35  C   UNL A   1      29.203  29.393  22.648  1.00  0.00     0.022 C 
ATOM     36  C   UNL A   1      28.119  30.249  21.983  1.00  0.00    -0.043 C 
ATOM     37  C   UNL A   1      29.718  30.317  23.726  1.00  0.00     0.136 C 
ATOM     38  H   UNL A   1      29.932  29.077  21.933  1.00  0.00     0.039 H 
ATOM     39  C   UNL A   1      27.656  31.247  23.038  1.00  0.00    -0.046 C 
ATOM     40  H   UNL A   1      27.301  29.634  21.670  1.00  0.00     0.027 H 
ATOM     41  H   UNL A   1      28.495  30.748  21.115  1.00  0.00     0.027 H 
ATOM     42  C   UNL A   1      28.895  31.569  23.862  1.00  0.00     0.006 C 
ATOM     43  O   UNL A   1      30.709  30.082  24.408  1.00  0.00    -0.299 OA
ATOM     44  H   UNL A   1      26.897  30.815  23.656  1.00  0.00     0.027 H 
ATOM     45  H   UNL A   1      27.234  32.125  22.596  1.00  0.00     0.027 H 
ATOM     46  H   UNL A   1      28.639  31.754  24.886  1.00  0.00     0.035 H 
ATOM     47  H   UNL A   1      29.405  32.451  23.535  1.00  0.00     0.035 H 
ENDBRANCH  32  35
ENDBRANCH  26  32
ENDBRANCH  14  20
ENDBRANCH  11  14
ENDBRANCH   7  10
ENDBRANCH   4   7
ENDBRANCH   1   4
BRANCH   1  48
ATOM     48  C   UNL A   1      37.935  21.577  25.066  1.00  0.00    -0.052 C 
ATOM     49  H   UNL A   1      37.794  21.828  26.096  1.00  0.00     0.027 H 
ATOM     50  H   UNL A   1      38.559  22.272  24.544  1.00  0.00     0.027 H 
BRANCH  48  51
ATOM     51  C   UNL A   1      38.647  20.223  24.998  1.00  0.00    -0.036 C 
ATOM     52  H   UNL A   1      39.377  20.268  24.218  1.00  0.00     0.028 H 
ATOM     53  H   UNL A   1      37.888  19.490  24.822  1.00  0.00     0.028 H 
BRANCH  51  54
ATOM     54  C   UNL A   1      39.353  19.811  26.287  1.00  0.00     0.018 C 
ATOM     55  H   UNL A   1      38.696  19.190  26.859  1.00  0.00     0.049 H 
ATOM     56  H   UNL A   1      39.607  20.701  26.826  1.00  0.00     0.049 H 
BRANCH  54  57
ATOM     57  N   UNL A   1      40.580  19.079  26.023  1.00  0.00    -0.352 N 
ATOM     58  C   UNL A   1      41.869  19.535  25.923  1.00  0.00     0.251 C 
ATOM     59  H   UNL A   1      40.468  18.109  25.896  1.00  0.00     0.163 HD
ATOM     60  O   UNL A   1      42.745  18.800  25.478  1.00  0.00    -0.269 OA
BRANCH  58  61
ATOM     61  C   UNL A   1      42.211  20.913  26.338  1.00  0.00     0.039 A 
ATOM     62  C   UNL A   1      42.323  21.188  27.704  1.00  0.00    -0.049 A 
ATOM     63  C   UNL A   1      42.372  21.939  25.402  1.00  0.00    -0.049 A 
ATOM     64  C   UNL A   1      42.638  22.480  28.127  1.00  0.00    -0.053 A 
ATOM     65  H   UNL A   1      42.174  20.438  28.396  1.00  0.00     0.063 H 
ATOM     66  C   UNL A   1      42.750  23.214  25.822  1.00  0.00    -0.053 A 
ATOM     67  H   UNL A   1      42.213  21.752  24.399  1.00  0.00     0.063 H 
ATOM     68  C   UNL A   1      42.877  23.498  27.189  1.00  0.00    -0.014 A 
ATOM     69  H   UNL A   1      42.696  22.689  29.136  1.00  0.00     0.063 H 
ATOM     70  H   UNL A   1      42.934  23.951  25.124  1.00  0.00     0.063 H 
BRANCH  68  71
ATOM     71  C   UNL A   1      43.264  24.859  27.640  1.00  0.00     0.031 A 
ATOM     72  C   UNL A   1      44.711  25.265  27.693  1.00  0.00     0.074 A 
ATOM     73  C   UNL A   1      42.306  25.723  28.026  1.00  0.00     0.049 A 
ATOM     74  N   UNL A   1      45.235  26.411  28.052  1.00  0.00    -0.248 NA
ATOM     75  C   UNL A   1      45.701  24.247  27.312  1.00  0.00    -0.034 C 
ATOM     76  C   UNL A   1      40.873  25.425  28.077  1.00  0.00    -0.036 A 
ATOM     77  N   UNL A   1      42.390  27.024  28.452  1.00  0.00    -0.354 N 
ATOM     78  C   UNL A   1      46.610  26.251  27.936  1.00  0.00     0.074 A 
ATOM     79  C   UNL A   1      46.843  24.882  27.533  1.00  0.00    -0.034 C 
ATOM     80  H   UNL A   1      45.546  23.287  26.962  1.00  0.00     0.065 H 
ATOM     81  C   UNL A   1      40.212  26.519  28.487  1.00  0.00    -0.036 A 
ATOM     82  H   UNL A   1      40.441  24.520  27.836  1.00  0.00     0.065 H 
ATOM     83  C   UNL A   1      41.173  27.585  28.751  1.00  0.00     0.049 A 
ATOM     84  H   UNL A   1      43.243  27.510  28.534  1.00  0.00     0.167 HD
ATOM     85  C   UNL A   1      47.586  27.172  28.121  1.00  0.00     0.037 A 
ATOM     86  H   UNL A   1      47.777  24.455  27.430  1.00  0.00     0.065 H 
ATOM     87  H   UNL A   1      39.188  26.593  28.598  1.00  0.00     0.065 H 
ATOM     88  C   UNL A   1      40.866  28.822  29.185  1.00  0.00     0.037 A 
ATOM     89  C   UNL A   1      47.352  28.538  28.513  1.00  0.00     0.049 A 
ATOM     90  C   UNL A   1      41.970  29.828  29.367  1.00  0.00     0.074 A 
ATOM     91  C   UNL A   1      48.272  29.554  28.698  1.00  0.00    -0.036 A 
ATOM     92  N   UNL A   1      46.101  29.078  28.778  1.00  0.00    -0.354 N 
ATOM     93  N   UNL A   1      43.260  29.682  29.193  1.00  0.00    -0.248 NA
ATOM     94  C   UNL A   1      41.570  31.177  29.792  1.00  0.00    -0.034 C 
ATOM     95  C   UNL A   1      47.583  30.702  29.107  1.00  0.00    -0.036 A 
ATOM     96  H   UNL A   1      49.292  29.480  28.558  1.00  0.00     0.065 H 
ATOM     97  C   UNL A   1      46.229  30.411  29.135  1.00  0.00     0.049 A 
ATOM     98  H   UNL A   1      45.251  28.587  28.721  1.00  0.00     0.167 HD
ATOM     99  C   UNL A   1      43.825  30.921  29.468  1.00  0.00     0.074 A 
ATOM    100  C   UNL A   1      42.733  31.814  29.793  1.00  0.00    -0.034 C 
ATOM    101  H   UNL A   1      40.632  31.536  30.028  1.00  0.00     0.065 H 
ATOM    102  H   UNL A   1      48.011  31.609  29.348  1.00  0.00     0.065 H 
ATOM    103  C   UNL A   1      45.130  31.285  29.457  1.00  0.00     0.037 A 
ATOM    104  H   UNL A   1      42.845  32.819  30.000  1.00  0.00     0.065 H 
BRANCH  85 105
ATOM    105  C   UNL A   1      49.003  26.737  27.883  1.00  0.00     0.064 A 
ATOM    106  C   UNL A   1      49.850  26.400  28.951  1.00  0.00     0.173 A 
ATOM    107  C   UNL A   1      49.506  26.607  26.581  1.00  0.00     0.173 A 
ATOM    108  F   UNL A   1      49.421  26.517  30.216  1.00  0.00    -0.203 F 
ATOM    109  C   UNL A   1      51.155  25.971  28.723  1.00  0.00     0.198 A 
ATOM    110  C   UNL A   1      50.802  26.152  26.356  1.00  0.00     0.198 A 
ATOM    111  F   UNL A   1      48.737  26.911  25.525  1.00  0.00    -0.203 F 
ATOM    112  F   UNL A   1      51.958  25.693  29.759  1.00  0.00    -0.200 F 
ATOM    113  C   UNL A   1      51.628  25.839  27.426  1.00  0.00     0.200 A 
ATOM    114  F   UNL A   1      51.255  26.014  25.101  1.00  0.00    -0.200 F 
ATOM    115  F   UNL A   1      52.881  25.416  27.208  1.00  0.00    -0.200 F 
ENDBRANCH  85 105
BRANCH  88 116
ATOM    116  C   UNL A   1      39.452  29.185  29.453  1.00  0.00     0.064 A 
ATOM    117  C   UNL A   1      38.920  29.116  30.749  1.00  0.00     0.173 A 
ATOM    118  C   UNL A   1      38.598  29.596  28.419  1.00  0.00     0.173 A 
ATOM    119  F   UNL A   1      39.692  28.710  31.768  1.00  0.00    -0.203 F 
ATOM    120  C   UNL A   1      37.583  29.419  30.995  1.00  0.00     0.198 A 
ATOM    121  C   UNL A   1      37.269  29.928  28.671  1.00  0.00     0.198 A 
ATOM    122  F   UNL A   1      39.060  29.686  27.163  1.00  0.00    -0.203 F 
ATOM    123  F   UNL A   1      37.088  29.296  32.234  1.00  0.00    -0.200 F 
ATOM    124  C   UNL A   1      36.760  29.829  29.957  1.00  0.00     0.200 A 
ATOM    125  F   UNL A   1      36.482  30.337  27.668  1.00  0.00    -0.200 F 
ATOM    126  F   UNL A   1      35.474  30.121  30.194  1.00  0.00    -0.200 F 
ENDBRANCH  88 116
BRANCH 103 127
ATOM    127  C   UNL A   1      45.441  32.715  29.790  1.00  0.00     0.064 A 
ATOM    128  C   UNL A   1      45.469  33.709  28.801  1.00  0.00     0.173 A 
ATOM    129  C   UNL A   1      45.698  33.097  31.115  1.00  0.00     0.173 A 
ATOM    130  F   UNL A   1      45.245  33.390  27.517  1.00  0.00    -0.203 F 
ATOM    131  C   UNL A   1      45.777  35.028  29.122  1.00  0.00     0.198 A 
ATOM    132  C   UNL A   1      45.977  34.423  31.436  1.00  0.00     0.198 A 
ATOM    133  F   UNL A   1      45.676  32.186  32.099  1.00  0.00    -0.203 F 
ATOM    134  F   UNL A   1      45.854  35.951  28.153  1.00  0.00    -0.200 F 
ATOM    135  C   UNL A   1      46.026  35.385  30.439  1.00  0.00     0.200 A 
ATOM    136  F   UNL A   1      46.206  34.767  32.711  1.00  0.00    -0.200 F 
ATOM    137  F   UNL A   1      46.323  36.655  30.745  1.00  0.00    -0.200 F 
ENDBRANCH 103 127
ENDBRANCH  68  71
ENDBRANCH  58  61
ENDBRANCH  54  57
ENDBRANCH  51  54
ENDBRANCH  48  51
ENDBRANCH   1  48
TORSDOF 18
ENDMDL
