MODEL 1
REMARK VINA RESULT:     -12.7      0.000      0.000
REMARK SMILES O=C(CNc1nc(-c2ccccc2)c(-c2ccccc2)s1)NCCCCCCNC(=O)c1ccc(-c2c3nc(c(-c4c(F)c(F)c(F)c(F)c4F)c4ccc([nH]4)c(-c4c(F)c(F)c(F)c(F)c4F)c4nc(c(-c5c(F)c(F)c(F)c(F)c5F)c5ccc2[nH]5)C=C4)C=C3)cc1
REMARK SMILES IDX 25 1 24 4 23 7 22 10 1 11 2 12 3 14 4 17 5 19 6 20 21 21
REMARK SMILES IDX 7 22 14 23 8 24 9 25 13 26 10 27 12 29 11 31 15 35 16 36
REMARK SMILES IDX 20 37 17 38 19 40 18 42 26 46 27 49 28 52 29 55 30 56 31 58
REMARK SMILES IDX 32 59 33 60 94 61 34 62 93 64 35 66 36 69 37 70 87 71 38 72
REMARK SMILES IDX 92 73 86 74 88 75 39 76 91 77 85 79 84 81 40 83 72 86 52 87
REMARK SMILES IDX 71 88 53 89 56 90 70 91 89 92 54 93 55 95 69 97 90 98 57 101
REMARK SMILES IDX 41 103 42 104 50 105 43 106 44 107 48 108 51 109 45 110
REMARK SMILES IDX 46 111 49 112 47 113 73 114 74 115 82 116 75 117 76 118
REMARK SMILES IDX 80 119 83 120 77 121 78 122 81 123 79 124 58 125 59 126
REMARK SMILES IDX 67 127 60 128 61 129 65 130 68 131 62 132 63 133 66 134
REMARK SMILES IDX 64 135
REMARK H PARENT 25 2 25 3 24 5 24 6 23 8 23 9 22 13 3 15 3 16 4 18 9 28 13 30
REMARK H PARENT 10 32 12 33 11 34 16 39 20 41 17 43 19 44 18 45 26 47 26 48
REMARK H PARENT 27 50 27 51 28 53 28 54 29 57 33 63 94 65 34 67 93 68 92 78
REMARK H PARENT 86 80 88 82 91 84 85 85 53 94 56 96 89 99 54 100 90 102
REMARK Flexibility Score: inf
ROOT
ATOM      1  C   UNL A   1      32.733  29.729  27.230  1.00  0.00    -0.052 C 
ATOM      2  H   UNL A   1      33.362  30.408  27.766  1.00  0.00     0.027 H 
ATOM      3  H   UNL A   1      32.067  29.172  27.856  1.00  0.00     0.027 H 
ENDROOT
BRANCH   1   4
ATOM      4  C   UNL A   1      33.632  28.692  26.543  1.00  0.00    -0.036 C 
ATOM      5  H   UNL A   1      34.551  29.171  26.277  1.00  0.00     0.028 H 
ATOM      6  H   UNL A   1      33.761  27.894  27.244  1.00  0.00     0.028 H 
BRANCH   4   7
ATOM      7  C   UNL A   1      33.039  28.066  25.282  1.00  0.00     0.017 C 
ATOM      8  H   UNL A   1      32.536  28.826  24.722  1.00  0.00     0.049 H 
ATOM      9  H   UNL A   1      33.838  27.637  24.714  1.00  0.00     0.049 H 
BRANCH   7  10
ATOM     10  N   UNL A   1      32.097  27.015  25.597  1.00  0.00    -0.355 N 
ATOM     11  O   UNL A   1      30.337  27.791  24.329  1.00  0.00    -0.273 OA
ATOM     12  C   UNL A   1      30.810  26.955  25.091  1.00  0.00     0.239 C 
ATOM     13  H   UNL A   1      32.388  26.300  26.208  1.00  0.00     0.163 HD
BRANCH  12  14
ATOM     14  C   UNL A   1      30.014  25.747  25.616  1.00  0.00     0.096 C 
ATOM     15  H   UNL A   1      29.711  25.133  24.793  1.00  0.00     0.059 H 
ATOM     16  H   UNL A   1      29.145  26.089  26.140  1.00  0.00     0.059 H 
BRANCH  14  17
ATOM     17  N   UNL A   1      30.856  24.971  26.517  1.00  0.00    -0.352 N 
ATOM     18  H   UNL A   1      30.848  25.184  27.478  1.00  0.00     0.163 HD
BRANCH  17  19
ATOM     19  C   UNL A   1      31.640  23.973  26.077  1.00  0.00     0.184 A 
ATOM     20  N   UNL A   1      32.919  24.064  25.802  1.00  0.00    -0.220 NA
ATOM     21  S   UNL A   1      30.939  22.428  25.800  1.00  0.00    -0.096 S 
ATOM     22  C   UNL A   1      33.389  22.849  25.325  1.00  0.00     0.091 A 
ATOM     23  C   UNL A   1      32.436  21.850  25.198  1.00  0.00     0.064 A 
BRANCH  22  24
ATOM     24  C   UNL A   1      34.798  22.648  25.020  1.00  0.00     0.002 A 
ATOM     25  C   UNL A   1      35.314  22.953  23.755  1.00  0.00    -0.053 A 
ATOM     26  C   UNL A   1      35.631  22.057  25.979  1.00  0.00    -0.053 A 
ATOM     27  C   UNL A   1      36.637  22.634  23.439  1.00  0.00    -0.062 A 
ATOM     28  H   UNL A   1      34.716  23.415  23.053  1.00  0.00     0.063 H 
ATOM     29  C   UNL A   1      36.952  21.737  25.660  1.00  0.00    -0.062 A 
ATOM     30  H   UNL A   1      35.267  21.860  26.924  1.00  0.00     0.063 H 
ATOM     31  C   UNL A   1      37.452  22.017  24.388  1.00  0.00    -0.062 A 
ATOM     32  H   UNL A   1      37.013  22.856  22.504  1.00  0.00     0.062 H 
ATOM     33  H   UNL A   1      37.559  21.290  26.364  1.00  0.00     0.062 H 
ATOM     34  H   UNL A   1      38.424  21.768  24.150  1.00  0.00     0.062 H 
ENDBRANCH  22  24
BRANCH  23  35
ATOM     35  C   UNL A   1      32.540  20.477  24.705  1.00  0.00    -0.006 A 
ATOM     36  C   UNL A   1      32.823  19.425  25.588  1.00  0.00    -0.053 A 
ATOM     37  C   UNL A   1      32.302  20.186  23.355  1.00  0.00    -0.053 A 
ATOM     38  C   UNL A   1      32.864  18.108  25.130  1.00  0.00    -0.062 A 
ATOM     39  H   UNL A   1      33.003  19.628  26.584  1.00  0.00     0.063 H 
ATOM     40  C   UNL A   1      32.343  18.867  22.899  1.00  0.00    -0.062 A 
ATOM     41  H   UNL A   1      32.095  20.951  22.694  1.00  0.00     0.063 H 
ATOM     42  C   UNL A   1      32.623  17.830  23.787  1.00  0.00    -0.062 A 
ATOM     43  H   UNL A   1      33.074  17.339  25.787  1.00  0.00     0.062 H 
ATOM     44  H   UNL A   1      32.165  18.659  21.904  1.00  0.00     0.062 H 
ATOM     45  H   UNL A   1      32.651  16.855  23.449  1.00  0.00     0.062 H 
ENDBRANCH  23  35
ENDBRANCH  17  19
ENDBRANCH  14  17
ENDBRANCH  12  14
ENDBRANCH   7  10
ENDBRANCH   4   7
ENDBRANCH   1   4
BRANCH   1  46
ATOM     46  C   UNL A   1      31.839  30.552  26.297  1.00  0.00    -0.052 C 
ATOM     47  H   UNL A   1      30.904  30.041  26.200  1.00  0.00     0.027 H 
ATOM     48  H   UNL A   1      32.377  30.640  25.375  1.00  0.00     0.027 H 
BRANCH  46  49
ATOM     49  C   UNL A   1      31.551  31.983  26.756  1.00  0.00    -0.036 C 
ATOM     50  H   UNL A   1      30.839  31.938  27.554  1.00  0.00     0.028 H 
ATOM     51  H   UNL A   1      31.192  32.505  25.894  1.00  0.00     0.028 H 
BRANCH  49  52
ATOM     52  C   UNL A   1      32.766  32.761  27.250  1.00  0.00     0.018 C 
ATOM     53  H   UNL A   1      33.509  32.763  26.479  1.00  0.00     0.049 H 
ATOM     54  H   UNL A   1      33.121  32.281  28.138  1.00  0.00     0.049 H 
BRANCH  52  55
ATOM     55  N   UNL A   1      32.447  34.140  27.592  1.00  0.00    -0.352 N 
ATOM     56  C   UNL A   1      32.987  34.953  28.559  1.00  0.00     0.251 C 
ATOM     57  H   UNL A   1      31.737  34.552  27.049  1.00  0.00     0.163 HD
ATOM     58  O   UNL A   1      32.472  36.040  28.811  1.00  0.00    -0.269 OA
BRANCH  56  59
ATOM     59  C   UNL A   1      34.173  34.511  29.324  1.00  0.00     0.039 A 
ATOM     60  C   UNL A   1      33.987  33.948  30.590  1.00  0.00    -0.049 A 
ATOM     61  C   UNL A   1      35.461  34.643  28.799  1.00  0.00    -0.049 A 
ATOM     62  C   UNL A   1      35.084  33.438  31.290  1.00  0.00    -0.053 A 
ATOM     63  H   UNL A   1      33.043  33.908  31.006  1.00  0.00     0.063 H 
ATOM     64  C   UNL A   1      36.542  34.070  29.465  1.00  0.00    -0.053 A 
ATOM     65  H   UNL A   1      35.610  35.163  27.920  1.00  0.00     0.063 H 
ATOM     66  C   UNL A   1      36.363  33.451  30.711  1.00  0.00    -0.014 A 
ATOM     67  H   UNL A   1      34.952  33.052  32.238  1.00  0.00     0.063 H 
ATOM     68  H   UNL A   1      37.482  34.101  29.038  1.00  0.00     0.063 H 
BRANCH  66  69
ATOM     69  C   UNL A   1      37.513  32.780  31.372  1.00  0.00     0.031 A 
ATOM     70  C   UNL A   1      38.177  31.594  30.735  1.00  0.00     0.074 A 
ATOM     71  C   UNL A   1      37.905  33.194  32.593  1.00  0.00     0.049 A 
ATOM     72  N   UNL A   1      39.136  30.832  31.200  1.00  0.00    -0.248 NA
ATOM     73  C   UNL A   1      37.679  31.193  29.411  1.00  0.00    -0.034 C 
ATOM     74  C   UNL A   1      37.305  34.299  33.341  1.00  0.00    -0.036 A 
ATOM     75  N   UNL A   1      38.887  32.722  33.429  1.00  0.00    -0.354 N 
ATOM     76  C   UNL A   1      39.353  29.864  30.229  1.00  0.00     0.074 A 
ATOM     77  C   UNL A   1      38.385  30.096  29.179  1.00  0.00    -0.034 C 
ATOM     78  H   UNL A   1      36.967  31.647  28.818  1.00  0.00     0.065 H 
ATOM     79  C   UNL A   1      37.935  34.426  34.519  1.00  0.00    -0.036 A 
ATOM     80  H   UNL A   1      36.522  34.887  33.015  1.00  0.00     0.065 H 
ATOM     81  C   UNL A   1      38.952  33.385  34.630  1.00  0.00     0.049 A 
ATOM     82  H   UNL A   1      39.486  31.977  33.190  1.00  0.00     0.167 HD
ATOM     83  C   UNL A   1      40.290  28.884  30.205  1.00  0.00     0.037 A 
ATOM     84  H   UNL A   1      38.259  29.486  28.355  1.00  0.00     0.065 H 
ATOM     85  H   UNL A   1      37.733  35.145  35.231  1.00  0.00     0.065 H 
ATOM     86  C   UNL A   1      39.728  33.169  35.709  1.00  0.00     0.037 A 
ATOM     87  C   UNL A   1      41.251  28.656  31.256  1.00  0.00     0.049 A 
ATOM     88  C   UNL A   1      40.740  32.056  35.676  1.00  0.00     0.074 A 
ATOM     89  C   UNL A   1      42.274  27.727  31.303  1.00  0.00    -0.036 A 
ATOM     90  N   UNL A   1      41.294  29.358  32.453  1.00  0.00    -0.354 N 
ATOM     91  N   UNL A   1      40.990  31.195  34.719  1.00  0.00    -0.248 NA
ATOM     92  C   UNL A   1      41.581  31.888  36.868  1.00  0.00    -0.034 C 
ATOM     93  C   UNL A   1      42.897  27.822  32.552  1.00  0.00    -0.036 A 
ATOM     94  H   UNL A   1      42.534  27.074  30.546  1.00  0.00     0.065 H 
ATOM     95  C   UNL A   1      42.304  28.855  33.261  1.00  0.00     0.049 A 
ATOM     96  H   UNL A   1      40.696  30.102  32.695  1.00  0.00     0.167 HD
ATOM     97  C   UNL A   1      42.025  30.396  35.185  1.00  0.00     0.074 A 
ATOM     98  C   UNL A   1      42.371  30.889  36.503  1.00  0.00    -0.034 C 
ATOM     99  H   UNL A   1      41.561  32.412  37.757  1.00  0.00     0.065 H 
ATOM    100  H   UNL A   1      43.668  27.224  32.889  1.00  0.00     0.065 H 
ATOM    101  C   UNL A   1      42.633  29.348  34.576  1.00  0.00     0.037 A 
ATOM    102  H   UNL A   1      43.137  30.510  37.083  1.00  0.00     0.065 H 
BRANCH  83 103
ATOM    103  C   UNL A   1      40.312  27.980  29.005  1.00  0.00     0.064 A 
ATOM    104  C   UNL A   1      41.073  28.285  27.865  1.00  0.00     0.173 A 
ATOM    105  C   UNL A   1      39.576  26.786  28.997  1.00  0.00     0.173 A 
ATOM    106  F   UNL A   1      41.791  29.417  27.815  1.00  0.00    -0.203 F 
ATOM    107  C   UNL A   1      41.060  27.453  26.748  1.00  0.00     0.198 A 
ATOM    108  C   UNL A   1      39.594  25.938  27.892  1.00  0.00     0.198 A 
ATOM    109  F   UNL A   1      38.839  26.437  30.063  1.00  0.00    -0.203 F 
ATOM    110  F   UNL A   1      41.741  27.800  25.648  1.00  0.00    -0.200 F 
ATOM    111  C   UNL A   1      40.324  26.278  26.765  1.00  0.00     0.200 A 
ATOM    112  F   UNL A   1      38.895  24.793  27.916  1.00  0.00    -0.200 F 
ATOM    113  F   UNL A   1      40.312  25.478  25.690  1.00  0.00    -0.200 F 
ENDBRANCH  83 103
BRANCH  86 114
ATOM    114  C   UNL A   1      39.568  34.029  36.910  1.00  0.00     0.064 A 
ATOM    115  C   UNL A   1      38.777  33.622  37.993  1.00  0.00     0.173 A 
ATOM    116  C   UNL A   1      40.223  35.266  37.009  1.00  0.00     0.173 A 
ATOM    117  F   UNL A   1      38.115  32.457  37.937  1.00  0.00    -0.203 F 
ATOM    118  C   UNL A   1      38.637  34.425  39.123  1.00  0.00     0.198 A 
ATOM    119  C   UNL A   1      40.108  36.052  38.153  1.00  0.00     0.198 A 
ATOM    120  F   UNL A   1      40.998  35.699  36.003  1.00  0.00    -0.203 F 
ATOM    121  F   UNL A   1      37.844  34.028  40.129  1.00  0.00    -0.200 F 
ATOM    122  C   UNL A   1      39.310  35.634  39.207  1.00  0.00     0.200 A 
ATOM    123  F   UNL A   1      40.775  37.211  38.236  1.00  0.00    -0.200 F 
ATOM    124  F   UNL A   1      39.186  36.399  40.300  1.00  0.00    -0.200 F 
ENDBRANCH  86 114
BRANCH 101 125
ATOM    125  C   UNL A   1      43.747  28.668  35.321  1.00  0.00     0.064 A 
ATOM    126  C   UNL A   1      43.505  27.590  36.186  1.00  0.00     0.173 A 
ATOM    127  C   UNL A   1      45.078  29.071  35.133  1.00  0.00     0.173 A 
ATOM    128  F   UNL A   1      42.249  27.176  36.413  1.00  0.00    -0.203 F 
ATOM    129  C   UNL A   1      44.551  26.957  36.852  1.00  0.00     0.198 A 
ATOM    130  C   UNL A   1      46.125  28.414  35.775  1.00  0.00     0.198 A 
ATOM    131  F   UNL A   1      45.366  30.093  34.314  1.00  0.00    -0.203 F 
ATOM    132  F   UNL A   1      44.290  25.962  37.711  1.00  0.00    -0.200 F 
ATOM    133  C   UNL A   1      45.860  27.364  36.640  1.00  0.00     0.200 A 
ATOM    134  F   UNL A   1      47.389  28.800  35.557  1.00  0.00    -0.200 F 
ATOM    135  F   UNL A   1      46.866  26.745  37.273  1.00  0.00    -0.200 F 
ENDBRANCH 101 125
ENDBRANCH  66  69
ENDBRANCH  56  59
ENDBRANCH  52  55
ENDBRANCH  49  52
ENDBRANCH  46  49
ENDBRANCH   1  46
TORSDOF 17
ENDMDL
MODEL 2
REMARK VINA RESULT:     -11.9      1.013      2.372
REMARK SMILES O=C(CNc1nc(-c2ccccc2)c(-c2ccccc2)s1)NCCCCCCNC(=O)c1ccc(-c2c3nc(c(-c4c(F)c(F)c(F)c(F)c4F)c4ccc([nH]4)c(-c4c(F)c(F)c(F)c(F)c4F)c4nc(c(-c5c(F)c(F)c(F)c(F)c5F)c5ccc2[nH]5)C=C4)C=C3)cc1
REMARK SMILES IDX 25 1 24 4 23 7 22 10 1 11 2 12 3 14 4 17 5 19 6 20 21 21
REMARK SMILES IDX 7 22 14 23 8 24 9 25 13 26 10 27 12 29 11 31 15 35 16 36
REMARK SMILES IDX 20 37 17 38 19 40 18 42 26 46 27 49 28 52 29 55 30 56 31 58
REMARK SMILES IDX 32 59 33 60 94 61 34 62 93 64 35 66 36 69 37 70 87 71 38 72
REMARK SMILES IDX 92 73 86 74 88 75 39 76 91 77 85 79 84 81 40 83 72 86 52 87
REMARK SMILES IDX 71 88 53 89 56 90 70 91 89 92 54 93 55 95 69 97 90 98 57 101
REMARK SMILES IDX 41 103 42 104 50 105 43 106 44 107 48 108 51 109 45 110
REMARK SMILES IDX 46 111 49 112 47 113 73 114 74 115 82 116 75 117 76 118
REMARK SMILES IDX 80 119 83 120 77 121 78 122 81 123 79 124 58 125 59 126
REMARK SMILES IDX 67 127 60 128 61 129 65 130 68 131 62 132 63 133 66 134
REMARK SMILES IDX 64 135
REMARK H PARENT 25 2 25 3 24 5 24 6 23 8 23 9 22 13 3 15 3 16 4 18 9 28 13 30
REMARK H PARENT 10 32 12 33 11 34 16 39 20 41 17 43 19 44 18 45 26 47 26 48
REMARK H PARENT 27 50 27 51 28 53 28 54 29 57 33 63 94 65 34 67 93 68 92 78
REMARK H PARENT 86 80 88 82 91 84 85 85 53 94 56 96 89 99 54 100 90 102
REMARK Flexibility Score: inf
ROOT
ATOM      1  C   UNL A   1      32.358  29.232  25.349  1.00  0.00    -0.052 C 
ATOM      2  H   UNL A   1      33.152  29.313  26.061  1.00  0.00     0.027 H 
ATOM      3  H   UNL A   1      31.691  28.416  25.537  1.00  0.00     0.027 H 
ENDROOT
BRANCH   1   4
ATOM      4  C   UNL A   1      32.982  28.957  23.973  1.00  0.00    -0.036 C 
ATOM      5  H   UNL A   1      33.564  29.810  23.695  1.00  0.00     0.028 H 
ATOM      6  H   UNL A   1      33.563  28.066  24.079  1.00  0.00     0.028 H 
BRANCH   4   7
ATOM      7  C   UNL A   1      31.974  28.685  22.857  1.00  0.00     0.017 C 
ATOM      8  H   UNL A   1      31.218  29.441  22.881  1.00  0.00     0.049 H 
ATOM      9  H   UNL A   1      32.498  28.697  21.924  1.00  0.00     0.049 H 
BRANCH   7  10
ATOM     10  N   UNL A   1      31.348  27.390  23.005  1.00  0.00    -0.355 N 
ATOM     11  O   UNL A   1      29.267  28.130  23.662  1.00  0.00    -0.273 OA
ATOM     12  C   UNL A   1      30.033  27.209  23.396  1.00  0.00     0.239 C 
ATOM     13  H   UNL A   1      31.889  26.590  22.817  1.00  0.00     0.163 HD
BRANCH  12  14
ATOM     14  C   UNL A   1      29.635  25.726  23.501  1.00  0.00     0.096 C 
ATOM     15  H   UNL A   1      29.955  25.206  22.623  1.00  0.00     0.059 H 
ATOM     16  H   UNL A   1      28.571  25.645  23.592  1.00  0.00     0.059 H 
BRANCH  14  17
ATOM     17  N   UNL A   1      30.272  25.141  24.674  1.00  0.00    -0.352 N 
ATOM     18  H   UNL A   1      29.999  25.449  25.568  1.00  0.00     0.163 HD
BRANCH  17  19
ATOM     19  C   UNL A   1      31.218  24.192  24.572  1.00  0.00     0.184 A 
ATOM     20  N   UNL A   1      31.007  22.902  24.479  1.00  0.00    -0.220 NA
ATOM     21  S   UNL A   1      32.871  24.665  24.601  1.00  0.00    -0.096 S 
ATOM     22  C   UNL A   1      32.217  22.225  24.441  1.00  0.00     0.091 A 
ATOM     23  C   UNL A   1      33.348  23.019  24.557  1.00  0.00     0.064 A 
BRANCH  22  24
ATOM     24  C   UNL A   1      32.273  20.782  24.257  1.00  0.00     0.002 A 
ATOM     25  C   UNL A   1      32.532  19.925  25.333  1.00  0.00    -0.053 A 
ATOM     26  C   UNL A   1      32.156  20.250  22.966  1.00  0.00    -0.053 A 
ATOM     27  C   UNL A   1      32.710  18.556  25.116  1.00  0.00    -0.062 A 
ATOM     28  H   UNL A   1      32.591  20.304  26.290  1.00  0.00     0.063 H 
ATOM     29  C   UNL A   1      32.338  18.883  22.751  1.00  0.00    -0.062 A 
ATOM     30  H   UNL A   1      31.932  20.871  22.173  1.00  0.00     0.063 H 
ATOM     31  C   UNL A   1      32.623  18.038  23.823  1.00  0.00    -0.062 A 
ATOM     32  H   UNL A   1      32.905  17.928  25.911  1.00  0.00     0.062 H 
ATOM     33  H   UNL A   1      32.262  18.496  21.797  1.00  0.00     0.062 H 
ATOM     34  H   UNL A   1      32.770  17.030  23.661  1.00  0.00     0.062 H 
ENDBRANCH  22  24
BRANCH  23  35
ATOM     35  C   UNL A   1      34.768  22.672  24.598  1.00  0.00    -0.006 A 
ATOM     36  C   UNL A   1      35.299  21.990  25.702  1.00  0.00    -0.053 A 
ATOM     37  C   UNL A   1      35.604  22.965  23.513  1.00  0.00    -0.053 A 
ATOM     38  C   UNL A   1      36.641  21.606  25.718  1.00  0.00    -0.062 A 
ATOM     39  H   UNL A   1      34.694  21.772  26.509  1.00  0.00     0.063 H 
ATOM     40  C   UNL A   1      36.946  22.579  23.530  1.00  0.00    -0.062 A 
ATOM     41  H   UNL A   1      35.226  23.469  22.696  1.00  0.00     0.063 H 
ATOM     42  C   UNL A   1      37.462  21.899  24.632  1.00  0.00    -0.062 A 
ATOM     43  H   UNL A   1      37.025  21.105  26.535  1.00  0.00     0.062 H 
ATOM     44  H   UNL A   1      37.555  22.797  22.726  1.00  0.00     0.062 H 
ATOM     45  H   UNL A   1      38.454  21.613  24.643  1.00  0.00     0.062 H 
ENDBRANCH  23  35
ENDBRANCH  17  19
ENDBRANCH  14  17
ENDBRANCH  12  14
ENDBRANCH   7  10
ENDBRANCH   4   7
ENDBRANCH   1   4
BRANCH   1  46
ATOM     46  C   UNL A   1      31.504  30.501  25.448  1.00  0.00    -0.052 C 
ATOM     47  H   UNL A   1      30.483  30.225  25.285  1.00  0.00     0.027 H 
ATOM     48  H   UNL A   1      31.890  31.173  24.709  1.00  0.00     0.027 H 
BRANCH  46  49
ATOM     49  C   UNL A   1      31.587  31.245  26.781  1.00  0.00    -0.036 C 
ATOM     50  H   UNL A   1      31.563  30.519  27.568  1.00  0.00     0.028 H 
ATOM     51  H   UNL A   1      30.755  31.918  26.798  1.00  0.00     0.028 H 
BRANCH  49  52
ATOM     52  C   UNL A   1      32.834  32.104  26.968  1.00  0.00     0.018 C 
ATOM     53  H   UNL A   1      33.405  32.081  26.063  1.00  0.00     0.049 H 
ATOM     54  H   UNL A   1      33.385  31.701  27.793  1.00  0.00     0.049 H 
BRANCH  52  55
ATOM     55  N   UNL A   1      32.518  33.490  27.284  1.00  0.00    -0.352 N 
ATOM     56  C   UNL A   1      33.044  34.312  28.250  1.00  0.00     0.251 C 
ATOM     57  H   UNL A   1      31.822  33.899  26.721  1.00  0.00     0.163 HD
ATOM     58  O   UNL A   1      32.531  35.407  28.476  1.00  0.00    -0.269 OA
BRANCH  56  59
ATOM     59  C   UNL A   1      34.211  33.874  29.046  1.00  0.00     0.039 A 
ATOM     60  C   UNL A   1      34.000  33.046  30.152  1.00  0.00    -0.049 A 
ATOM     61  C   UNL A   1      35.507  34.268  28.703  1.00  0.00    -0.049 A 
ATOM     62  C   UNL A   1      35.093  32.543  30.861  1.00  0.00    -0.053 A 
ATOM     63  H   UNL A   1      33.039  32.806  30.444  1.00  0.00     0.063 H 
ATOM     64  C   UNL A   1      36.598  33.709  29.365  1.00  0.00    -0.053 A 
ATOM     65  H   UNL A   1      35.655  34.970  27.962  1.00  0.00     0.063 H 
ATOM     66  C   UNL A   1      36.403  32.831  30.442  1.00  0.00    -0.014 A 
ATOM     67  H   UNL A   1      34.938  31.958  31.697  1.00  0.00     0.063 H 
ATOM     68  H   UNL A   1      37.557  33.942  29.060  1.00  0.00     0.063 H 
BRANCH  66  69
ATOM     69  C   UNL A   1      37.576  32.187  31.089  1.00  0.00     0.031 A 
ATOM     70  C   UNL A   1      38.329  31.091  30.391  1.00  0.00     0.074 A 
ATOM     71  C   UNL A   1      37.911  32.537  32.346  1.00  0.00     0.049 A 
ATOM     72  N   UNL A   1      39.322  30.359  30.829  1.00  0.00    -0.248 NA
ATOM     73  C   UNL A   1      37.890  30.755  29.028  1.00  0.00    -0.034 C 
ATOM     74  C   UNL A   1      37.224  33.547  33.150  1.00  0.00    -0.036 A 
ATOM     75  N   UNL A   1      38.899  32.067  33.175  1.00  0.00    -0.354 N 
ATOM     76  C   UNL A   1      39.623  29.476  29.801  1.00  0.00     0.074 A 
ATOM     77  C   UNL A   1      38.669  29.723  28.742  1.00  0.00    -0.034 C 
ATOM     78  H   UNL A   1      37.166  31.206  28.448  1.00  0.00     0.065 H 
ATOM     79  C   UNL A   1      37.816  33.629  34.352  1.00  0.00    -0.036 A 
ATOM     80  H   UNL A   1      36.414  34.108  32.843  1.00  0.00     0.065 H 
ATOM     81  C   UNL A   1      38.893  32.647  34.420  1.00  0.00     0.049 A 
ATOM     82  H   UNL A   1      39.550  31.379  32.904  1.00  0.00     0.167 HD
ATOM     83  C   UNL A   1      40.621  28.560  29.737  1.00  0.00     0.037 A 
ATOM     84  H   UNL A   1      38.602  29.166  27.875  1.00  0.00     0.065 H 
ATOM     85  H   UNL A   1      37.552  34.283  35.107  1.00  0.00     0.065 H 
ATOM     86  C   UNL A   1      39.654  32.402  35.504  1.00  0.00     0.037 A 
ATOM     87  C   UNL A   1      41.567  28.317  30.797  1.00  0.00     0.049 A 
ATOM     88  C   UNL A   1      40.735  31.358  35.424  1.00  0.00     0.074 A 
ATOM     89  C   UNL A   1      42.646  27.451  30.809  1.00  0.00    -0.036 A 
ATOM     90  N   UNL A   1      41.537  28.934  32.040  1.00  0.00    -0.354 N 
ATOM     91  N   UNL A   1      41.062  30.585  34.418  1.00  0.00    -0.248 NA
ATOM     92  C   UNL A   1      41.555  31.159  36.626  1.00  0.00    -0.034 C 
ATOM     93  C   UNL A   1      43.230  27.496  32.080  1.00  0.00    -0.036 A 
ATOM     94  H   UNL A   1      42.964  26.870  30.017  1.00  0.00     0.065 H 
ATOM     95  C   UNL A   1      42.556  28.438  32.840  1.00  0.00     0.049 A 
ATOM     96  H   UNL A   1      40.888  29.621  32.315  1.00  0.00     0.167 HD
ATOM     97  C   UNL A   1      42.133  29.819  34.857  1.00  0.00     0.074 A 
ATOM     98  C   UNL A   1      42.415  30.238  36.215  1.00  0.00    -0.034 C 
ATOM     99  H   UNL A   1      41.480  31.616  37.548  1.00  0.00     0.065 H 
ATOM    100  H   UNL A   1      44.028  26.923  32.396  1.00  0.00     0.065 H 
ATOM    101  C   UNL A   1      42.821  28.855  34.195  1.00  0.00     0.037 A 
ATOM    102  H   UNL A   1      43.188  29.866  36.790  1.00  0.00     0.065 H 
BRANCH  83 103
ATOM    103  C   UNL A   1      40.729  27.745  28.478  1.00  0.00     0.064 A 
ATOM    104  C   UNL A   1      41.521  28.162  27.396  1.00  0.00     0.173 A 
ATOM    105  C   UNL A   1      40.046  26.526  28.355  1.00  0.00     0.173 A 
ATOM    106  F   UNL A   1      42.190  29.322  27.456  1.00  0.00    -0.203 F 
ATOM    107  C   UNL A   1      41.587  27.412  26.224  1.00  0.00     0.198 A 
ATOM    108  C   UNL A   1      40.143  25.761  27.196  1.00  0.00     0.198 A 
ATOM    109  F   UNL A   1      39.283  26.072  29.362  1.00  0.00    -0.203 F 
ATOM    110  F   UNL A   1      42.296  27.864  25.181  1.00  0.00    -0.200 F 
ATOM    111  C   UNL A   1      40.903  26.211  26.127  1.00  0.00     0.200 A 
ATOM    112  F   UNL A   1      39.495  24.591  27.110  1.00  0.00    -0.200 F 
ATOM    113  F   UNL A   1      40.967  25.490  24.999  1.00  0.00    -0.200 F 
ENDBRANCH  83 103
BRANCH  86 114
ATOM    114  C   UNL A   1      39.412  33.164  36.757  1.00  0.00     0.064 A 
ATOM    115  C   UNL A   1      40.101  34.355  37.026  1.00  0.00     0.173 A 
ATOM    116  C   UNL A   1      38.468  32.729  37.700  1.00  0.00     0.173 A 
ATOM    117  F   UNL A   1      41.027  34.801  36.165  1.00  0.00    -0.203 F 
ATOM    118  C   UNL A   1      39.864  35.074  38.197  1.00  0.00     0.198 A 
ATOM    119  C   UNL A   1      38.210  33.466  38.854  1.00  0.00     0.198 A 
ATOM    120  F   UNL A   1      37.777  31.599  37.487  1.00  0.00    -0.203 F 
ATOM    121  F   UNL A   1      40.565  36.189  38.447  1.00  0.00    -0.200 F 
ATOM    122  C   UNL A   1      38.913  34.634  39.104  1.00  0.00     0.200 A 
ATOM    123  F   UNL A   1      37.276  33.046  39.718  1.00  0.00    -0.200 F 
ATOM    124  F   UNL A   1      38.676  35.333  40.222  1.00  0.00    -0.200 F 
ENDBRANCH  86 114
BRANCH 101 125
ATOM    125  C   UNL A   1      43.956  28.194  34.924  1.00  0.00     0.064 A 
ATOM    126  C   UNL A   1      43.775  27.007  35.649  1.00  0.00     0.173 A 
ATOM    127  C   UNL A   1      45.252  28.730  34.858  1.00  0.00     0.173 A 
ATOM    128  F   UNL A   1      42.554  26.462  35.757  1.00  0.00    -0.203 F 
ATOM    129  C   UNL A   1      44.843  26.395  36.301  1.00  0.00     0.198 A 
ATOM    130  C   UNL A   1      46.323  28.097  35.483  1.00  0.00     0.198 A 
ATOM    131  F   UNL A   1      45.483  29.861  34.174  1.00  0.00    -0.203 F 
ATOM    132  F   UNL A   1      44.635  25.289  37.028  1.00  0.00    -0.200 F 
ATOM    133  C   UNL A   1      46.117  26.935  36.210  1.00  0.00     0.200 A 
ATOM    134  F   UNL A   1      47.556  28.613  35.381  1.00  0.00    -0.200 F 
ATOM    135  F   UNL A   1      47.145  26.338  36.828  1.00  0.00    -0.200 F 
ENDBRANCH 101 125
ENDBRANCH  66  69
ENDBRANCH  56  59
ENDBRANCH  52  55
ENDBRANCH  49  52
ENDBRANCH  46  49
ENDBRANCH   1  46
TORSDOF 17
ENDMDL
MODEL 3
REMARK VINA RESULT:     -11.8      1.109      7.381
REMARK SMILES O=C(CNc1nc(-c2ccccc2)c(-c2ccccc2)s1)NCCCCCCNC(=O)c1ccc(-c2c3nc(c(-c4c(F)c(F)c(F)c(F)c4F)c4ccc([nH]4)c(-c4c(F)c(F)c(F)c(F)c4F)c4nc(c(-c5c(F)c(F)c(F)c(F)c5F)c5ccc2[nH]5)C=C4)C=C3)cc1
REMARK SMILES IDX 25 1 24 4 23 7 22 10 1 11 2 12 3 14 4 17 5 19 6 20 21 21
REMARK SMILES IDX 7 22 14 23 8 24 9 25 13 26 10 27 12 29 11 31 15 35 16 36
REMARK SMILES IDX 20 37 17 38 19 40 18 42 26 46 27 49 28 52 29 55 30 56 31 58
REMARK SMILES IDX 32 59 33 60 94 61 34 62 93 64 35 66 36 69 37 70 87 71 38 72
REMARK SMILES IDX 92 73 86 74 88 75 39 76 91 77 85 79 84 81 40 83 72 86 52 87
REMARK SMILES IDX 71 88 53 89 56 90 70 91 89 92 54 93 55 95 69 97 90 98 57 101
REMARK SMILES IDX 41 103 42 104 50 105 43 106 44 107 48 108 51 109 45 110
REMARK SMILES IDX 46 111 49 112 47 113 73 114 74 115 82 116 75 117 76 118
REMARK SMILES IDX 80 119 83 120 77 121 78 122 81 123 79 124 58 125 59 126
REMARK SMILES IDX 67 127 60 128 61 129 65 130 68 131 62 132 63 133 66 134
REMARK SMILES IDX 64 135
REMARK H PARENT 25 2 25 3 24 5 24 6 23 8 23 9 22 13 3 15 3 16 4 18 9 28 13 30
REMARK H PARENT 10 32 12 33 11 34 16 39 20 41 17 43 19 44 18 45 26 47 26 48
REMARK H PARENT 27 50 27 51 28 53 28 54 29 57 33 63 94 65 34 67 93 68 92 78
REMARK H PARENT 86 80 88 82 91 84 85 85 53 94 56 96 89 99 54 100 90 102
REMARK Flexibility Score: inf
ROOT
ATOM      1  C   UNL A   1      33.573  29.580  27.390  1.00  0.00    -0.052 C 
ATOM      2  H   UNL A   1      34.149  28.726  27.678  1.00  0.00     0.027 H 
ATOM      3  H   UNL A   1      32.586  29.595  27.803  1.00  0.00     0.027 H 
ENDROOT
BRANCH   1   4
ATOM      4  C   UNL A   1      33.390  29.533  25.866  1.00  0.00    -0.036 C 
ATOM      5  H   UNL A   1      33.949  30.339  25.438  1.00  0.00     0.028 H 
ATOM      6  H   UNL A   1      33.730  28.569  25.551  1.00  0.00     0.028 H 
BRANCH   4   7
ATOM      7  C   UNL A   1      31.942  29.655  25.392  1.00  0.00     0.017 C 
ATOM      8  H   UNL A   1      31.343  30.019  26.199  1.00  0.00     0.049 H 
ATOM      9  H   UNL A   1      31.918  30.330  24.562  1.00  0.00     0.049 H 
BRANCH   7  10
ATOM     10  N   UNL A   1      31.413  28.383  24.952  1.00  0.00    -0.355 N 
ATOM     11  O   UNL A   1      29.910  29.195  23.407  1.00  0.00    -0.273 OA
ATOM     12  C   UNL A   1      30.433  28.248  23.985  1.00  0.00     0.239 C 
ATOM     13  H   UNL A   1      31.770  27.565  25.366  1.00  0.00     0.163 HD
BRANCH  12  14
ATOM     14  C   UNL A   1      30.034  26.784  23.732  1.00  0.00     0.096 C 
ATOM     15  H   UNL A   1      29.076  26.750  23.258  1.00  0.00     0.059 H 
ATOM     16  H   UNL A   1      29.985  26.259  24.664  1.00  0.00     0.059 H 
BRANCH  14  17
ATOM     17  N   UNL A   1      31.027  26.157  22.869  1.00  0.00    -0.352 N 
ATOM     18  H   UNL A   1      31.182  26.531  21.972  1.00  0.00     0.163 HD
BRANCH  17  19
ATOM     19  C   UNL A   1      31.737  25.086  23.261  1.00  0.00     0.184 A 
ATOM     20  N   UNL A   1      33.007  25.083  23.591  1.00  0.00    -0.220 NA
ATOM     21  S   UNL A   1      30.963  23.552  23.313  1.00  0.00    -0.096 S 
ATOM     22  C   UNL A   1      33.415  23.793  23.893  1.00  0.00     0.091 A 
ATOM     23  C   UNL A   1      32.448  22.810  23.739  1.00  0.00     0.064 A 
BRANCH  22  24
ATOM     24  C   UNL A   1      34.762  23.516  24.370  1.00  0.00     0.002 A 
ATOM     25  C   UNL A   1      35.160  23.881  25.662  1.00  0.00    -0.053 A 
ATOM     26  C   UNL A   1      35.700  22.956  23.494  1.00  0.00    -0.053 A 
ATOM     27  C   UNL A   1      36.490  23.725  26.059  1.00  0.00    -0.062 A 
ATOM     28  H   UNL A   1      34.469  24.266  26.324  1.00  0.00     0.063 H 
ATOM     29  C   UNL A   1      37.030  22.805  23.892  1.00  0.00    -0.062 A 
ATOM     30  H   UNL A   1      35.407  22.654  22.552  1.00  0.00     0.063 H 
ATOM     31  C   UNL A   1      37.426  23.196  25.170  1.00  0.00    -0.062 A 
ATOM     32  H   UNL A   1      36.781  23.999  27.011  1.00  0.00     0.062 H 
ATOM     33  H   UNL A   1      37.721  22.404  23.239  1.00  0.00     0.062 H 
ATOM     34  H   UNL A   1      38.411  23.096  25.458  1.00  0.00     0.062 H 
ENDBRANCH  22  24
BRANCH  23  35
ATOM     35  C   UNL A   1      32.512  21.361  23.921  1.00  0.00    -0.006 A 
ATOM     36  C   UNL A   1      32.874  20.817  25.161  1.00  0.00    -0.053 A 
ATOM     37  C   UNL A   1      32.156  20.497  22.877  1.00  0.00    -0.053 A 
ATOM     38  C   UNL A   1      32.878  19.434  25.354  1.00  0.00    -0.062 A 
ATOM     39  H   UNL A   1      33.141  21.443  25.937  1.00  0.00     0.063 H 
ATOM     40  C   UNL A   1      32.159  19.114  23.071  1.00  0.00    -0.062 A 
ATOM     41  H   UNL A   1      31.890  20.884  21.958  1.00  0.00     0.063 H 
ATOM     42  C   UNL A   1      32.519  18.585  24.310  1.00  0.00    -0.062 A 
ATOM     43  H   UNL A   1      33.147  19.041  26.270  1.00  0.00     0.062 H 
ATOM     44  H   UNL A   1      31.895  18.483  22.299  1.00  0.00     0.062 H 
ATOM     45  H   UNL A   1      32.520  17.562  24.453  1.00  0.00     0.062 H 
ENDBRANCH  23  35
ENDBRANCH  17  19
ENDBRANCH  14  17
ENDBRANCH  12  14
ENDBRANCH   7  10
ENDBRANCH   4   7
ENDBRANCH   1   4
BRANCH   1  46
ATOM     46  C   UNL A   1      34.275  30.828  27.934  1.00  0.00    -0.052 C 
ATOM     47  H   UNL A   1      35.330  30.687  27.824  1.00  0.00     0.027 H 
ATOM     48  H   UNL A   1      33.959  30.924  28.952  1.00  0.00     0.027 H 
BRANCH  46  49
ATOM     49  C   UNL A   1      33.899  32.143  27.250  1.00  0.00    -0.036 C 
ATOM     50  H   UNL A   1      33.919  31.984  26.192  1.00  0.00     0.028 H 
ATOM     51  H   UNL A   1      34.612  32.867  27.584  1.00  0.00     0.028 H 
BRANCH  49  52
ATOM     52  C   UNL A   1      32.526  32.696  27.619  1.00  0.00     0.018 C 
ATOM     53  H   UNL A   1      32.209  32.244  28.536  1.00  0.00     0.049 H 
ATOM     54  H   UNL A   1      31.857  32.468  26.815  1.00  0.00     0.049 H 
BRANCH  52  55
ATOM     55  N   UNL A   1      32.531  34.142  27.790  1.00  0.00    -0.352 N 
ATOM     56  C   UNL A   1      33.302  34.926  28.612  1.00  0.00     0.251 C 
ATOM     57  H   UNL A   1      31.883  34.631  27.234  1.00  0.00     0.163 HD
ATOM     58  O   UNL A   1      33.047  36.122  28.743  1.00  0.00    -0.269 OA
BRANCH  56  59
ATOM     59  C   UNL A   1      34.425  34.331  29.369  1.00  0.00     0.039 A 
ATOM     60  C   UNL A   1      34.140  33.542  30.487  1.00  0.00    -0.049 A 
ATOM     61  C   UNL A   1      35.749  34.540  28.979  1.00  0.00    -0.049 A 
ATOM     62  C   UNL A   1      35.179  32.894  31.161  1.00  0.00    -0.053 A 
ATOM     63  H   UNL A   1      33.167  33.438  30.815  1.00  0.00     0.063 H 
ATOM     64  C   UNL A   1      36.776  33.837  29.606  1.00  0.00    -0.053 A 
ATOM     65  H   UNL A   1      35.967  35.215  28.228  1.00  0.00     0.063 H 
ATOM     66  C   UNL A   1      36.499  32.996  30.695  1.00  0.00    -0.014 A 
ATOM     67  H   UNL A   1      34.974  32.337  32.006  1.00  0.00     0.063 H 
ATOM     68  H   UNL A   1      37.746  33.934  29.266  1.00  0.00     0.063 H 
BRANCH  66  69
ATOM     69  C   UNL A   1      37.594  32.196  31.303  1.00  0.00     0.031 A 
ATOM     70  C   UNL A   1      38.113  32.525  32.673  1.00  0.00     0.074 A 
ATOM     71  C   UNL A   1      38.178  31.220  30.581  1.00  0.00     0.049 A 
ATOM     72  N   UNL A   1      39.113  31.993  33.330  1.00  0.00    -0.248 NA
ATOM     73  C   UNL A   1      37.435  33.616  33.389  1.00  0.00    -0.034 C 
ATOM     74  C   UNL A   1      37.802  30.840  29.219  1.00  0.00    -0.036 A 
ATOM     75  N   UNL A   1      39.224  30.383  30.882  1.00  0.00    -0.354 N 
ATOM     76  C   UNL A   1      39.185  32.684  34.532  1.00  0.00     0.074 A 
ATOM     77  C   UNL A   1      38.169  33.714  34.487  1.00  0.00    -0.034 C 
ATOM     78  H   UNL A   1      36.604  34.161  33.110  1.00  0.00     0.065 H 
ATOM     79  C   UNL A   1      38.597  29.842  28.805  1.00  0.00    -0.036 A 
ATOM     80  H   UNL A   1      37.046  31.271  28.665  1.00  0.00     0.065 H 
ATOM     81  C   UNL A   1      39.568  29.541  29.853  1.00  0.00     0.049 A 
ATOM     82  H   UNL A   1      39.685  30.387  31.752  1.00  0.00     0.167 HD
ATOM     83  C   UNL A   1      40.009  32.465  35.586  1.00  0.00     0.037 A 
ATOM     84  H   UNL A   1      38.034  34.433  35.216  1.00  0.00     0.065 H 
ATOM     85  H   UNL A   1      38.532  29.363  27.893  1.00  0.00     0.065 H 
ATOM     86  C   UNL A   1      40.565  28.642  29.753  1.00  0.00     0.037 A 
ATOM     87  C   UNL A   1      41.022  31.440  35.624  1.00  0.00     0.049 A 
ATOM     88  C   UNL A   1      41.489  28.435  30.923  1.00  0.00     0.074 A 
ATOM     89  C   UNL A   1      41.869  31.101  36.664  1.00  0.00    -0.036 A 
ATOM     90  N   UNL A   1      41.332  30.596  34.566  1.00  0.00    -0.354 N 
ATOM     91  N   UNL A   1      41.498  29.041  32.085  1.00  0.00    -0.248 NA
ATOM     92  C   UNL A   1      42.537  27.418  30.768  1.00  0.00    -0.034 C 
ATOM     93  C   UNL A   1      42.735  30.097  36.215  1.00  0.00    -0.036 A 
ATOM     94  H   UNL A   1      41.864  31.518  37.608  1.00  0.00     0.065 H 
ATOM     95  C   UNL A   1      42.385  29.764  34.916  1.00  0.00     0.049 A 
ATOM     96  H   UNL A   1      40.874  30.590  33.695  1.00  0.00     0.167 HD
ATOM     97  C   UNL A   1      42.537  28.469  32.806  1.00  0.00     0.074 A 
ATOM     98  C   UNL A   1      43.123  27.452  31.957  1.00  0.00    -0.034 C 
ATOM     99  H   UNL A   1      42.759  26.831  29.949  1.00  0.00     0.065 H 
ATOM    100  H   UNL A   1      43.504  29.677  36.760  1.00  0.00     0.065 H 
ATOM    101  C   UNL A   1      42.967  28.761  34.059  1.00  0.00     0.037 A 
ATOM    102  H   UNL A   1      43.897  26.832  32.241  1.00  0.00     0.065 H 
BRANCH  83 103
ATOM    103  C   UNL A   1      39.852  33.362  36.783  1.00  0.00     0.064 A 
ATOM    104  C   UNL A   1      38.919  33.086  37.795  1.00  0.00     0.173 A 
ATOM    105  C   UNL A   1      40.653  34.504  36.929  1.00  0.00     0.173 A 
ATOM    106  F   UNL A   1      38.122  32.010  37.703  1.00  0.00    -0.203 F 
ATOM    107  C   UNL A   1      38.762  33.942  38.882  1.00  0.00     0.198 A 
ATOM    108  C   UNL A   1      40.520  35.339  38.036  1.00  0.00     0.198 A 
ATOM    109  F   UNL A   1      41.570  34.813  35.999  1.00  0.00    -0.203 F 
ATOM    110  F   UNL A   1      37.819  33.692  39.800  1.00  0.00    -0.200 F 
ATOM    111  C   UNL A   1      39.566  35.064  39.004  1.00  0.00     0.200 A 
ATOM    112  F   UNL A   1      41.309  36.416  38.161  1.00  0.00    -0.200 F 
ATOM    113  F   UNL A   1      39.416  35.888  40.050  1.00  0.00    -0.200 F 
ENDBRANCH  83 103
BRANCH  86 114
ATOM    114  C   UNL A   1      40.735  27.873  28.492  1.00  0.00     0.064 A 
ATOM    115  C   UNL A   1      41.508  28.376  27.436  1.00  0.00     0.173 A 
ATOM    116  C   UNL A   1      40.147  26.610  28.327  1.00  0.00     0.173 A 
ATOM    117  F   UNL A   1      42.074  29.587  27.539  1.00  0.00    -0.203 F 
ATOM    118  C   UNL A   1      41.676  27.649  26.259  1.00  0.00     0.198 A 
ATOM    119  C   UNL A   1      40.342  25.872  27.162  1.00  0.00     0.198 A 
ATOM    120  F   UNL A   1      39.402  26.082  29.309  1.00  0.00    -0.203 F 
ATOM    121  F   UNL A   1      42.389  28.169  25.250  1.00  0.00    -0.200 F 
ATOM    122  C   UNL A   1      41.101  26.394  26.126  1.00  0.00     0.200 A 
ATOM    123  F   UNL A   1      39.799  24.652  27.046  1.00  0.00    -0.200 F 
ATOM    124  F   UNL A   1      41.274  25.691  24.999  1.00  0.00    -0.200 F 
ENDBRANCH  86 114
BRANCH 101 125
ATOM    125  C   UNL A   1      44.120  27.962  34.596  1.00  0.00     0.064 A 
ATOM    126  C   UNL A   1      45.444  28.414  34.488  1.00  0.00     0.173 A 
ATOM    127  C   UNL A   1      43.894  26.749  35.267  1.00  0.00     0.173 A 
ATOM    128  F   UNL A   1      45.717  29.558  33.843  1.00  0.00    -0.203 F 
ATOM    129  C   UNL A   1      46.500  27.671  35.011  1.00  0.00     0.198 A 
ATOM    130  C   UNL A   1      44.949  26.026  35.817  1.00  0.00     0.198 A 
ATOM    131  F   UNL A   1      42.648  26.273  35.402  1.00  0.00    -0.203 F 
ATOM    132  F   UNL A   1      47.760  28.099  34.853  1.00  0.00    -0.200 F 
ATOM    133  C   UNL A   1      46.251  26.483  35.683  1.00  0.00     0.200 A 
ATOM    134  F   UNL A   1      44.704  24.886  36.478  1.00  0.00    -0.200 F 
ATOM    135  F   UNL A   1      47.267  25.776  36.195  1.00  0.00    -0.200 F 
ENDBRANCH 101 125
ENDBRANCH  66  69
ENDBRANCH  56  59
ENDBRANCH  52  55
ENDBRANCH  49  52
ENDBRANCH  46  49
ENDBRANCH   1  46
TORSDOF 17
ENDMDL
MODEL 4
REMARK VINA RESULT:     -11.6      1.614      7.474
REMARK SMILES O=C(CNc1nc(-c2ccccc2)c(-c2ccccc2)s1)NCCCCCCNC(=O)c1ccc(-c2c3nc(c(-c4c(F)c(F)c(F)c(F)c4F)c4ccc([nH]4)c(-c4c(F)c(F)c(F)c(F)c4F)c4nc(c(-c5c(F)c(F)c(F)c(F)c5F)c5ccc2[nH]5)C=C4)C=C3)cc1
REMARK SMILES IDX 25 1 24 4 23 7 22 10 1 11 2 12 3 14 4 17 5 19 6 20 21 21
REMARK SMILES IDX 7 22 14 23 8 24 9 25 13 26 10 27 12 29 11 31 15 35 16 36
REMARK SMILES IDX 20 37 17 38 19 40 18 42 26 46 27 49 28 52 29 55 30 56 31 58
REMARK SMILES IDX 32 59 33 60 94 61 34 62 93 64 35 66 36 69 37 70 87 71 38 72
REMARK SMILES IDX 92 73 86 74 88 75 39 76 91 77 85 79 84 81 40 83 72 86 52 87
REMARK SMILES IDX 71 88 53 89 56 90 70 91 89 92 54 93 55 95 69 97 90 98 57 101
REMARK SMILES IDX 41 103 42 104 50 105 43 106 44 107 48 108 51 109 45 110
REMARK SMILES IDX 46 111 49 112 47 113 73 114 74 115 82 116 75 117 76 118
REMARK SMILES IDX 80 119 83 120 77 121 78 122 81 123 79 124 58 125 59 126
REMARK SMILES IDX 67 127 60 128 61 129 65 130 68 131 62 132 63 133 66 134
REMARK SMILES IDX 64 135
REMARK H PARENT 25 2 25 3 24 5 24 6 23 8 23 9 22 13 3 15 3 16 4 18 9 28 13 30
REMARK H PARENT 10 32 12 33 11 34 16 39 20 41 17 43 19 44 18 45 26 47 26 48
REMARK H PARENT 27 50 27 51 28 53 28 54 29 57 33 63 94 65 34 67 93 68 92 78
REMARK H PARENT 86 80 88 82 91 84 85 85 53 94 56 96 89 99 54 100 90 102
REMARK Flexibility Score: inf
ROOT
ATOM      1  C   UNL A   1      33.149  29.696  26.742  1.00  0.00    -0.052 C 
ATOM      2  H   UNL A   1      34.034  29.472  26.184  1.00  0.00     0.027 H 
ATOM      3  H   UNL A   1      33.324  30.313  27.599  1.00  0.00     0.027 H 
ENDROOT
BRANCH   1   4
ATOM      4  C   UNL A   1      32.584  28.375  27.283  1.00  0.00    -0.036 C 
ATOM      5  H   UNL A   1      33.358  27.638  27.238  1.00  0.00     0.028 H 
ATOM      6  H   UNL A   1      32.250  28.576  28.279  1.00  0.00     0.028 H 
BRANCH   4   7
ATOM      7  C   UNL A   1      31.372  27.839  26.522  1.00  0.00     0.017 C 
ATOM      8  H   UNL A   1      30.510  28.411  26.796  1.00  0.00     0.049 H 
ATOM      9  H   UNL A   1      31.571  27.924  25.474  1.00  0.00     0.049 H 
BRANCH   7  10
ATOM     10  N   UNL A   1      31.124  26.446  26.821  1.00  0.00    -0.355 N 
ATOM     11  O   UNL A   1      30.230  25.850  24.784  1.00  0.00    -0.273 OA
ATOM     12  C   UNL A   1      30.571  25.550  25.923  1.00  0.00     0.239 C 
ATOM     13  H   UNL A   1      31.362  26.115  27.717  1.00  0.00     0.163 HD
BRANCH  12  14
ATOM     14  C   UNL A   1      30.390  24.141  26.513  1.00  0.00     0.096 C 
ATOM     15  H   UNL A   1      29.442  24.078  27.006  1.00  0.00     0.059 H 
ATOM     16  H   UNL A   1      31.169  23.944  27.220  1.00  0.00     0.059 H 
BRANCH  14  17
ATOM     17  N   UNL A   1      30.446  23.159  25.437  1.00  0.00    -0.352 N 
ATOM     18  H   UNL A   1      29.687  23.093  24.813  1.00  0.00     0.163 HD
BRANCH  17  19
ATOM     19  C   UNL A   1      31.500  22.343  25.271  1.00  0.00     0.184 A 
ATOM     20  N   UNL A   1      31.452  21.039  25.145  1.00  0.00    -0.220 NA
ATOM     21  S   UNL A   1      33.079  23.024  25.254  1.00  0.00    -0.096 S 
ATOM     22  C   UNL A   1      32.736  20.525  25.041  1.00  0.00     0.091 A 
ATOM     23  C   UNL A   1      33.760  21.455  25.140  1.00  0.00     0.064 A 
BRANCH  22  24
ATOM     24  C   UNL A   1      32.968  19.107  24.809  1.00  0.00     0.002 A 
ATOM     25  C   UNL A   1      33.168  18.609  23.516  1.00  0.00    -0.053 A 
ATOM     26  C   UNL A   1      32.904  18.215  25.887  1.00  0.00    -0.053 A 
ATOM     27  C   UNL A   1      33.260  17.233  23.298  1.00  0.00    -0.062 A 
ATOM     28  H   UNL A   1      33.246  19.261  22.720  1.00  0.00     0.063 H 
ATOM     29  C   UNL A   1      32.993  16.839  25.666  1.00  0.00    -0.062 A 
ATOM     30  H   UNL A   1      32.791  18.576  26.847  1.00  0.00     0.063 H 
ATOM     31  C   UNL A   1      33.163  16.348  24.372  1.00  0.00    -0.062 A 
ATOM     32  H   UNL A   1      33.402  16.869  22.342  1.00  0.00     0.062 H 
ATOM     33  H   UNL A   1      32.933  16.184  26.462  1.00  0.00     0.062 H 
ATOM     34  H   UNL A   1      33.216  15.331  24.209  1.00  0.00     0.062 H 
ENDBRANCH  22  24
BRANCH  23  35
ATOM     35  C   UNL A   1      35.213  21.293  25.118  1.00  0.00    -0.006 A 
ATOM     36  C   UNL A   1      36.052  22.382  25.395  1.00  0.00    -0.053 A 
ATOM     37  C   UNL A   1      35.786  20.037  24.877  1.00  0.00    -0.053 A 
ATOM     38  C   UNL A   1      37.437  22.216  25.432  1.00  0.00    -0.062 A 
ATOM     39  H   UNL A   1      35.642  23.312  25.571  1.00  0.00     0.063 H 
ATOM     40  C   UNL A   1      37.172  19.873  24.916  1.00  0.00    -0.062 A 
ATOM     41  H   UNL A   1      35.180  19.228  24.670  1.00  0.00     0.063 H 
ATOM     42  C   UNL A   1      37.996  20.962  25.195  1.00  0.00    -0.062 A 
ATOM     43  H   UNL A   1      38.049  23.024  25.636  1.00  0.00     0.062 H 
ATOM     44  H   UNL A   1      37.587  18.945  24.739  1.00  0.00     0.062 H 
ATOM     45  H   UNL A   1      39.020  20.840  25.224  1.00  0.00     0.062 H 
ENDBRANCH  23  35
ENDBRANCH  17  19
ENDBRANCH  14  17
ENDBRANCH  12  14
ENDBRANCH   7  10
ENDBRANCH   4   7
ENDBRANCH   1   4
BRANCH   1  46
ATOM     46  C   UNL A   1      32.209  30.496  25.835  1.00  0.00    -0.052 C 
ATOM     47  H   UNL A   1      31.423  29.844  25.516  1.00  0.00     0.027 H 
ATOM     48  H   UNL A   1      32.815  30.862  25.031  1.00  0.00     0.027 H 
BRANCH  46  49
ATOM     49  C   UNL A   1      31.570  31.729  26.476  1.00  0.00    -0.036 C 
ATOM     50  H   UNL A   1      30.572  31.473  26.764  1.00  0.00     0.028 H 
ATOM     51  H   UNL A   1      31.615  32.505  25.741  1.00  0.00     0.028 H 
BRANCH  49  52
ATOM     52  C   UNL A   1      32.293  32.268  27.707  1.00  0.00     0.018 C 
ATOM     53  H   UNL A   1      33.106  31.611  27.942  1.00  0.00     0.049 H 
ATOM     54  H   UNL A   1      31.583  32.318  28.505  1.00  0.00     0.049 H 
BRANCH  52  55
ATOM     55  N   UNL A   1      32.823  33.609  27.503  1.00  0.00    -0.352 N 
ATOM     56  C   UNL A   1      34.042  34.135  27.856  1.00  0.00     0.251 C 
ATOM     57  H   UNL A   1      32.216  34.233  27.045  1.00  0.00     0.163 HD
ATOM     58  O   UNL A   1      34.248  35.342  27.750  1.00  0.00    -0.269 OA
BRANCH  56  59
ATOM     59  C   UNL A   1      35.103  33.257  28.395  1.00  0.00     0.039 A 
ATOM     60  C   UNL A   1      36.439  33.629  28.221  1.00  0.00    -0.049 A 
ATOM     61  C   UNL A   1      34.787  32.078  29.075  1.00  0.00    -0.049 A 
ATOM     62  C   UNL A   1      37.453  32.864  28.803  1.00  0.00    -0.053 A 
ATOM     63  H   UNL A   1      36.676  34.465  27.664  1.00  0.00     0.063 H 
ATOM     64  C   UNL A   1      35.793  31.358  29.716  1.00  0.00    -0.053 A 
ATOM     65  H   UNL A   1      33.812  31.743  29.103  1.00  0.00     0.063 H 
ATOM     66  C   UNL A   1      37.135  31.750  29.597  1.00  0.00    -0.014 A 
ATOM     67  H   UNL A   1      38.441  33.119  28.647  1.00  0.00     0.063 H 
ATOM     68  H   UNL A   1      35.549  30.529  30.282  1.00  0.00     0.063 H 
BRANCH  66  69
ATOM     69  C   UNL A   1      38.186  31.015  30.347  1.00  0.00     0.031 A 
ATOM     70  C   UNL A   1      38.474  31.343  31.783  1.00  0.00     0.074 A 
ATOM     71  C   UNL A   1      38.940  30.103  29.702  1.00  0.00     0.049 A 
ATOM     72  N   UNL A   1      39.405  30.867  32.572  1.00  0.00    -0.248 NA
ATOM     73  C   UNL A   1      37.619  32.362  32.409  1.00  0.00    -0.034 C 
ATOM     74  C   UNL A   1      38.796  29.734  28.294  1.00  0.00    -0.036 A 
ATOM     75  N   UNL A   1      39.991  29.336  30.140  1.00  0.00    -0.354 N 
ATOM     76  C   UNL A   1      39.249  31.528  33.782  1.00  0.00     0.074 A 
ATOM     77  C   UNL A   1      38.176  32.483  33.605  1.00  0.00    -0.034 C 
ATOM     78  H   UNL A   1      36.799  32.853  32.020  1.00  0.00     0.065 H 
ATOM     79  C   UNL A   1      39.716  28.807  27.985  1.00  0.00    -0.036 A 
ATOM     80  H   UNL A   1      38.099  30.125  27.641  1.00  0.00     0.065 H 
ATOM     81  C   UNL A   1      40.543  28.548  29.159  1.00  0.00     0.049 A 
ATOM     82  H   UNL A   1      40.319  29.349  31.069  1.00  0.00     0.167 HD
ATOM     83  C   UNL A   1      39.925  31.340  34.943  1.00  0.00     0.037 A 
ATOM     84  H   UNL A   1      37.882  33.170  34.318  1.00  0.00     0.065 H 
ATOM     85  H   UNL A   1      39.820  28.350  27.066  1.00  0.00     0.065 H 
ATOM     86  C   UNL A   1      41.609  27.726  29.193  1.00  0.00     0.037 A 
ATOM     87  C   UNL A   1      40.995  30.389  35.112  1.00  0.00     0.049 A 
ATOM     88  C   UNL A   1      42.366  27.555  30.482  1.00  0.00     0.074 A 
ATOM     89  C   UNL A   1      41.705  30.084  36.259  1.00  0.00    -0.036 A 
ATOM     90  N   UNL A   1      41.519  29.599  34.098  1.00  0.00    -0.354 N 
ATOM     91  N   UNL A   1      42.160  28.128  31.643  1.00  0.00    -0.248 NA
ATOM     92  C   UNL A   1      43.499  26.620  30.467  1.00  0.00    -0.034 C 
ATOM     93  C   UNL A   1      42.700  29.158  35.927  1.00  0.00    -0.036 A 
ATOM     94  H   UNL A   1      41.532  30.474  37.200  1.00  0.00     0.065 H 
ATOM     95  C   UNL A   1      42.569  28.835  34.585  1.00  0.00     0.049 A 
ATOM     96  H   UNL A   1      41.194  29.584  33.168  1.00  0.00     0.167 HD
ATOM     97  C   UNL A   1      43.123  27.613  32.499  1.00  0.00     0.074 A 
ATOM     98  C   UNL A   1      43.901  26.663  31.729  1.00  0.00    -0.034 C 
ATOM     99  H   UNL A   1      43.880  26.073  29.680  1.00  0.00     0.065 H 
ATOM    100  H   UNL A   1      43.410  28.779  36.572  1.00  0.00     0.065 H 
ATOM    101  C   UNL A   1      43.343  27.901  33.806  1.00  0.00     0.037 A 
ATOM    102  H   UNL A   1      44.670  26.093  32.115  1.00  0.00     0.065 H 
BRANCH  83 103
ATOM    103  C   UNL A   1      39.529  32.190  36.117  1.00  0.00     0.064 A 
ATOM    104  C   UNL A   1      40.178  33.402  36.403  1.00  0.00     0.173 A 
ATOM    105  C   UNL A   1      38.477  31.799  36.960  1.00  0.00     0.173 A 
ATOM    106  F   UNL A   1      41.195  33.821  35.635  1.00  0.00    -0.203 F 
ATOM    107  C   UNL A   1      39.821  34.165  37.513  1.00  0.00     0.198 A 
ATOM    108  C   UNL A   1      38.098  32.582  38.047  1.00  0.00     0.198 A 
ATOM    109  F   UNL A   1      37.813  30.657  36.729  1.00  0.00    -0.203 F 
ATOM    110  F   UNL A   1      40.500  35.282  37.803  1.00  0.00    -0.200 F 
ATOM    111  C   UNL A   1      38.778  33.757  38.330  1.00  0.00     0.200 A 
ATOM    112  F   UNL A   1      37.079  32.195  38.827  1.00  0.00    -0.200 F 
ATOM    113  F   UNL A   1      38.435  34.491  39.398  1.00  0.00    -0.200 F 
ENDBRANCH  83 103
BRANCH  86 114
ATOM    114  C   UNL A   1      42.018  27.006  27.959  1.00  0.00     0.064 A 
ATOM    115  C   UNL A   1      41.510  25.735  27.658  1.00  0.00     0.173 A 
ATOM    116  C   UNL A   1      42.909  27.586  27.042  1.00  0.00     0.173 A 
ATOM    117  F   UNL A   1      40.670  25.132  28.513  1.00  0.00    -0.203 F 
ATOM    118  C   UNL A   1      41.886  25.066  26.495  1.00  0.00     0.198 A 
ATOM    119  C   UNL A   1      43.260  26.929  25.865  1.00  0.00     0.198 A 
ATOM    120  F   UNL A   1      43.420  28.803  27.279  1.00  0.00    -0.203 F 
ATOM    121  F   UNL A   1      41.413  23.836  26.251  1.00  0.00    -0.200 F 
ATOM    122  C   UNL A   1      42.753  25.667  25.595  1.00  0.00     0.200 A 
ATOM    123  F   UNL A   1      44.083  27.522  24.990  1.00  0.00    -0.200 F 
ATOM    124  F   UNL A   1      43.103  25.029  24.470  1.00  0.00    -0.200 F 
ENDBRANCH  86 114
BRANCH 101 125
ATOM    125  C   UNL A   1      44.462  27.172  34.494  1.00  0.00     0.064 A 
ATOM    126  C   UNL A   1      44.269  25.913  35.084  1.00  0.00     0.173 A 
ATOM    127  C   UNL A   1      45.755  27.718  34.525  1.00  0.00     0.173 A 
ATOM    128  F   UNL A   1      43.050  25.353  35.096  1.00  0.00    -0.203 F 
ATOM    129  C   UNL A   1      45.322  25.241  35.698  1.00  0.00     0.198 A 
ATOM    130  C   UNL A   1      46.813  27.028  35.111  1.00  0.00     0.198 A 
ATOM    131  F   UNL A   1      45.996  28.916  33.973  1.00  0.00    -0.203 F 
ATOM    132  F   UNL A   1      45.103  24.062  36.297  1.00  0.00    -0.200 F 
ATOM    133  C   UNL A   1      46.594  25.794  35.704  1.00  0.00     0.200 A 
ATOM    134  F   UNL A   1      48.043  27.558  35.102  1.00  0.00    -0.200 F 
ATOM    135  F   UNL A   1      47.608  25.139  36.286  1.00  0.00    -0.200 F 
ENDBRANCH 101 125
ENDBRANCH  66  69
ENDBRANCH  56  59
ENDBRANCH  52  55
ENDBRANCH  49  52
ENDBRANCH  46  49
ENDBRANCH   1  46
TORSDOF 17
ENDMDL
MODEL 5
REMARK VINA RESULT:     -11.3      5.399     11.414
REMARK SMILES O=C(CNc1nc(-c2ccccc2)c(-c2ccccc2)s1)NCCCCCCNC(=O)c1ccc(-c2c3nc(c(-c4c(F)c(F)c(F)c(F)c4F)c4ccc([nH]4)c(-c4c(F)c(F)c(F)c(F)c4F)c4nc(c(-c5c(F)c(F)c(F)c(F)c5F)c5ccc2[nH]5)C=C4)C=C3)cc1
REMARK SMILES IDX 25 1 24 4 23 7 22 10 1 11 2 12 3 14 4 17 5 19 6 20 21 21
REMARK SMILES IDX 7 22 14 23 8 24 9 25 13 26 10 27 12 29 11 31 15 35 16 36
REMARK SMILES IDX 20 37 17 38 19 40 18 42 26 46 27 49 28 52 29 55 30 56 31 58
REMARK SMILES IDX 32 59 33 60 94 61 34 62 93 64 35 66 36 69 37 70 87 71 38 72
REMARK SMILES IDX 92 73 86 74 88 75 39 76 91 77 85 79 84 81 40 83 72 86 52 87
REMARK SMILES IDX 71 88 53 89 56 90 70 91 89 92 54 93 55 95 69 97 90 98 57 101
REMARK SMILES IDX 41 103 42 104 50 105 43 106 44 107 48 108 51 109 45 110
REMARK SMILES IDX 46 111 49 112 47 113 73 114 74 115 82 116 75 117 76 118
REMARK SMILES IDX 80 119 83 120 77 121 78 122 81 123 79 124 58 125 59 126
REMARK SMILES IDX 67 127 60 128 61 129 65 130 68 131 62 132 63 133 66 134
REMARK SMILES IDX 64 135
REMARK H PARENT 25 2 25 3 24 5 24 6 23 8 23 9 22 13 3 15 3 16 4 18 9 28 13 30
REMARK H PARENT 10 32 12 33 11 34 16 39 20 41 17 43 19 44 18 45 26 47 26 48
REMARK H PARENT 27 50 27 51 28 53 28 54 29 57 33 63 94 65 34 67 93 68 92 78
REMARK H PARENT 86 80 88 82 91 84 85 85 53 94 56 96 89 99 54 100 90 102
REMARK Flexibility Score: inf
ROOT
ATOM      1  C   UNL A   1      42.836  23.610  27.674  1.00  0.00    -0.052 C 
ATOM      2  H   UNL A   1      41.904  24.080  27.440  1.00  0.00     0.027 H 
ATOM      3  H   UNL A   1      42.979  23.431  28.720  1.00  0.00     0.027 H 
ENDROOT
BRANCH   1   4
ATOM      4  C   UNL A   1      43.965  24.562  27.253  1.00  0.00    -0.036 C 
ATOM      5  H   UNL A   1      44.015  25.356  27.969  1.00  0.00     0.028 H 
ATOM      6  H   UNL A   1      44.857  23.972  27.214  1.00  0.00     0.028 H 
BRANCH   4   7
ATOM      7  C   UNL A   1      43.795  25.181  25.867  1.00  0.00     0.017 C 
ATOM      8  H   UNL A   1      44.236  24.531  25.140  1.00  0.00     0.049 H 
ATOM      9  H   UNL A   1      42.748  25.307  25.683  1.00  0.00     0.049 H 
BRANCH   7  10
ATOM     10  N   UNL A   1      44.425  26.479  25.779  1.00  0.00    -0.355 N 
ATOM     11  O   UNL A   1      46.304  25.829  24.616  1.00  0.00    -0.273 OA
ATOM     12  C   UNL A   1      45.638  26.708  25.154  1.00  0.00     0.239 C 
ATOM     13  H   UNL A   1      43.965  27.247  26.189  1.00  0.00     0.163 HD
BRANCH  12  14
ATOM     14  C   UNL A   1      46.091  28.176  25.235  1.00  0.00     0.096 C 
ATOM     15  H   UNL A   1      46.081  28.609  24.257  1.00  0.00     0.059 H 
ATOM     16  H   UNL A   1      47.084  28.225  25.633  1.00  0.00     0.059 H 
BRANCH  14  17
ATOM     17  N   UNL A   1      45.180  28.912  26.102  1.00  0.00    -0.352 N 
ATOM     18  H   UNL A   1      44.401  28.444  26.482  1.00  0.00     0.163 HD
BRANCH  17  19
ATOM     19  C   UNL A   1      45.370  30.208  26.400  1.00  0.00     0.184 A 
ATOM     20  N   UNL A   1      44.435  31.123  26.487  1.00  0.00    -0.220 NA
ATOM     21  S   UNL A   1      46.974  30.771  26.663  1.00  0.00    -0.096 S 
ATOM     22  C   UNL A   1      45.004  32.358  26.763  1.00  0.00     0.091 A 
ATOM     23  C   UNL A   1      46.389  32.373  26.836  1.00  0.00     0.064 A 
BRANCH  22  24
ATOM     24  C   UNL A   1      44.182  33.537  26.992  1.00  0.00     0.002 A 
ATOM     25  C   UNL A   1      43.747  33.876  28.279  1.00  0.00    -0.053 A 
ATOM     26  C   UNL A   1      43.747  34.294  25.897  1.00  0.00    -0.053 A 
ATOM     27  C   UNL A   1      42.855  34.935  28.464  1.00  0.00    -0.062 A 
ATOM     28  H   UNL A   1      44.086  33.342  29.094  1.00  0.00     0.063 H 
ATOM     29  C   UNL A   1      42.852  35.350  26.084  1.00  0.00    -0.062 A 
ATOM     30  H   UNL A   1      44.089  34.072  24.950  1.00  0.00     0.063 H 
ATOM     31  C   UNL A   1      42.400  35.665  27.365  1.00  0.00    -0.062 A 
ATOM     32  H   UNL A   1      42.533  35.179  29.414  1.00  0.00     0.062 H 
ATOM     33  H   UNL A   1      42.524  35.898  25.274  1.00  0.00     0.062 H 
ATOM     34  H   UNL A   1      41.730  36.436  27.501  1.00  0.00     0.062 H 
ENDBRANCH  22  24
BRANCH  23  35
ATOM     35  C   UNL A   1      47.329  33.469  27.065  1.00  0.00    -0.006 A 
ATOM     36  C   UNL A   1      47.766  34.263  25.995  1.00  0.00    -0.053 A 
ATOM     37  C   UNL A   1      47.761  33.778  28.361  1.00  0.00    -0.053 A 
ATOM     38  C   UNL A   1      48.617  35.346  26.219  1.00  0.00    -0.062 A 
ATOM     39  H   UNL A   1      47.457  34.044  25.035  1.00  0.00     0.063 H 
ATOM     40  C   UNL A   1      48.611  34.863  28.584  1.00  0.00    -0.062 A 
ATOM     41  H   UNL A   1      47.448  33.200  29.157  1.00  0.00     0.063 H 
ATOM     42  C   UNL A   1      49.037  35.646  27.513  1.00  0.00    -0.062 A 
ATOM     43  H   UNL A   1      48.936  35.926  25.426  1.00  0.00     0.062 H 
ATOM     44  H   UNL A   1      48.924  35.085  29.542  1.00  0.00     0.062 H 
ATOM     45  H   UNL A   1      49.665  36.449  27.679  1.00  0.00     0.062 H 
ENDBRANCH  23  35
ENDBRANCH  17  19
ENDBRANCH  14  17
ENDBRANCH  12  14
ENDBRANCH   7  10
ENDBRANCH   4   7
ENDBRANCH   1   4
BRANCH   1  46
ATOM     46  C   UNL A   1      42.850  22.231  27.007  1.00  0.00    -0.052 C 
ATOM     47  H   UNL A   1      42.864  21.491  27.780  1.00  0.00     0.027 H 
ATOM     48  H   UNL A   1      43.718  22.214  26.382  1.00  0.00     0.027 H 
BRANCH  46  49
ATOM     49  C   UNL A   1      41.663  21.934  26.090  1.00  0.00    -0.036 C 
ATOM     50  H   UNL A   1      41.864  21.017  25.574  1.00  0.00     0.028 H 
ATOM     51  H   UNL A   1      41.572  22.777  25.438  1.00  0.00     0.028 H 
BRANCH  49  52
ATOM     52  C   UNL A   1      40.317  21.794  26.795  1.00  0.00     0.018 C 
ATOM     53  H   UNL A   1      40.363  22.317  27.728  1.00  0.00     0.049 H 
ATOM     54  H   UNL A   1      40.132  20.750  26.937  1.00  0.00     0.049 H 
BRANCH  52  55
ATOM     55  N   UNL A   1      39.215  22.335  26.012  1.00  0.00    -0.352 N 
ATOM     56  C   UNL A   1      38.643  23.583  26.045  1.00  0.00     0.251 C 
ATOM     57  H   UNL A   1      38.819  21.711  25.361  1.00  0.00     0.163 HD
ATOM     58  O   UNL A   1      37.606  23.804  25.423  1.00  0.00    -0.269 OA
BRANCH  56  59
ATOM     59  C   UNL A   1      39.254  24.660  26.855  1.00  0.00     0.039 A 
ATOM     60  C   UNL A   1      40.117  25.565  26.231  1.00  0.00    -0.049 A 
ATOM     61  C   UNL A   1      38.975  24.784  28.218  1.00  0.00    -0.049 A 
ATOM     62  C   UNL A   1      40.631  26.644  26.955  1.00  0.00    -0.053 A 
ATOM     63  H   UNL A   1      40.375  25.437  25.240  1.00  0.00     0.063 H 
ATOM     64  C   UNL A   1      39.428  25.899  28.919  1.00  0.00    -0.053 A 
ATOM     65  H   UNL A   1      38.434  24.051  28.704  1.00  0.00     0.063 H 
ATOM     66  C   UNL A   1      40.250  26.848  28.291  1.00  0.00    -0.014 A 
ATOM     67  H   UNL A   1      41.294  27.295  26.505  1.00  0.00     0.063 H 
ATOM     68  H   UNL A   1      39.157  26.029  29.907  1.00  0.00     0.063 H 
BRANCH  66  69
ATOM     69  C   UNL A   1      40.663  28.068  29.031  1.00  0.00     0.031 A 
ATOM     70  C   UNL A   1      42.026  28.162  29.654  1.00  0.00     0.074 A 
ATOM     71  C   UNL A   1      39.773  29.063  29.212  1.00  0.00     0.049 A 
ATOM     72  N   UNL A   1      42.532  29.110  30.403  1.00  0.00    -0.248 NA
ATOM     73  C   UNL A   1      42.933  27.028  29.426  1.00  0.00    -0.034 C 
ATOM     74  C   UNL A   1      38.401  29.067  28.704  1.00  0.00    -0.036 A 
ATOM     75  N   UNL A   1      39.880  30.253  29.889  1.00  0.00    -0.354 N 
ATOM     76  C   UNL A   1      43.810  28.685  30.738  1.00  0.00     0.074 A 
ATOM     77  C   UNL A   1      43.980  27.369  30.162  1.00  0.00    -0.034 C 
ATOM     78  H   UNL A   1      42.792  26.187  28.845  1.00  0.00     0.065 H 
ATOM     79  C   UNL A   1      37.797  30.206  29.079  1.00  0.00    -0.036 A 
ATOM     80  H   UNL A   1      37.966  28.316  28.147  1.00  0.00     0.065 H 
ATOM     81  C   UNL A   1      38.722  30.991  29.890  1.00  0.00     0.049 A 
ATOM     82  H   UNL A   1      40.708  30.548  30.333  1.00  0.00     0.167 HD
ATOM     83  C   UNL A   1      44.763  29.344  31.442  1.00  0.00     0.037 A 
ATOM     84  H   UNL A   1      44.811  26.771  30.306  1.00  0.00     0.065 H 
ATOM     85  H   UNL A   1      36.833  30.482  28.832  1.00  0.00     0.065 H 
ATOM     86  C   UNL A   1      38.428  32.159  30.493  1.00  0.00     0.037 A 
ATOM     87  C   UNL A   1      44.587  30.655  32.016  1.00  0.00     0.049 A 
ATOM     88  C   UNL A   1      39.490  32.859  31.297  1.00  0.00     0.074 A 
ATOM     89  C   UNL A   1      45.507  31.429  32.698  1.00  0.00    -0.036 A 
ATOM     90  N   UNL A   1      43.402  31.378  31.985  1.00  0.00    -0.354 N 
ATOM     91  N   UNL A   1      40.722  32.485  31.541  1.00  0.00    -0.248 NA
ATOM     92  C   UNL A   1      39.122  34.145  31.904  1.00  0.00    -0.034 C 
ATOM     93  C   UNL A   1      44.864  32.592  33.136  1.00  0.00    -0.036 A 
ATOM     94  H   UNL A   1      46.499  31.190  32.858  1.00  0.00     0.065 H 
ATOM     95  C   UNL A   1      43.559  32.574  32.670  1.00  0.00     0.049 A 
ATOM     96  H   UNL A   1      42.572  31.085  31.543  1.00  0.00     0.167 HD
ATOM     97  C   UNL A   1      41.282  33.493  32.313  1.00  0.00     0.074 A 
ATOM     98  C   UNL A   1      40.260  34.507  32.479  1.00  0.00    -0.034 C 
ATOM     99  H   UNL A   1      38.216  34.637  31.886  1.00  0.00     0.065 H 
ATOM    100  H   UNL A   1      45.290  33.337  33.708  1.00  0.00     0.065 H 
ATOM    101  C   UNL A   1      42.531  33.571  32.838  1.00  0.00     0.037 A 
ATOM    102  H   UNL A   1      40.401  35.398  32.981  1.00  0.00     0.065 H 
BRANCH  83 103
ATOM    103  C   UNL A   1      46.081  28.648  31.637  1.00  0.00     0.064 A 
ATOM    104  C   UNL A   1      46.320  27.817  32.744  1.00  0.00     0.173 A 
ATOM    105  C   UNL A   1      47.115  28.799  30.700  1.00  0.00     0.173 A 
ATOM    106  F   UNL A   1      45.370  27.642  33.674  1.00  0.00    -0.203 F 
ATOM    107  C   UNL A   1      47.556  27.203  32.928  1.00  0.00     0.198 A 
ATOM    108  C   UNL A   1      48.337  28.154  30.869  1.00  0.00     0.198 A 
ATOM    109  F   UNL A   1      46.940  29.571  29.617  1.00  0.00    -0.203 F 
ATOM    110  F   UNL A   1      47.781  26.469  34.027  1.00  0.00    -0.200 F 
ATOM    111  C   UNL A   1      48.562  27.367  31.988  1.00  0.00     0.200 A 
ATOM    112  F   UNL A   1      49.303  28.300  29.950  1.00  0.00    -0.200 F 
ATOM    113  F   UNL A   1      49.751  26.776  32.166  1.00  0.00    -0.200 F 
ENDBRANCH  83 103
BRANCH  86 114
ATOM    114  C   UNL A   1      37.064  32.731  30.355  1.00  0.00     0.064 A 
ATOM    115  C   UNL A   1      36.086  32.518  31.337  1.00  0.00     0.173 A 
ATOM    116  C   UNL A   1      36.717  33.523  29.250  1.00  0.00     0.173 A 
ATOM    117  F   UNL A   1      36.364  31.752  32.402  1.00  0.00    -0.203 F 
ATOM    118  C   UNL A   1      34.810  33.065  31.212  1.00  0.00     0.198 A 
ATOM    119  C   UNL A   1      35.451  34.095  29.143  1.00  0.00     0.198 A 
ATOM    120  F   UNL A   1      37.617  33.763  28.286  1.00  0.00    -0.203 F 
ATOM    121  F   UNL A   1      33.883  32.814  32.147  1.00  0.00    -0.200 F 
ATOM    122  C   UNL A   1      34.497  33.860  30.121  1.00  0.00     0.200 A 
ATOM    123  F   UNL A   1      35.159  34.878  28.095  1.00  0.00    -0.200 F 
ATOM    124  F   UNL A   1      33.274  34.397  30.008  1.00  0.00    -0.200 F 
ENDBRANCH  86 114
BRANCH 101 125
ATOM    125  C   UNL A   1      42.869  34.801  33.631  1.00  0.00     0.064 A 
ATOM    126  C   UNL A   1      43.278  35.990  33.009  1.00  0.00     0.173 A 
ATOM    127  C   UNL A   1      42.739  34.805  35.029  1.00  0.00     0.173 A 
ATOM    128  F   UNL A   1      43.434  36.036  31.677  1.00  0.00    -0.203 F 
ATOM    129  C   UNL A   1      43.567  37.128  33.758  1.00  0.00     0.198 A 
ATOM    130  C   UNL A   1      42.997  35.954  35.771  1.00  0.00     0.198 A 
ATOM    131  F   UNL A   1      42.347  33.696  35.675  1.00  0.00    -0.203 F 
ATOM    132  F   UNL A   1      44.004  38.237  33.145  1.00  0.00    -0.200 F 
ATOM    133  C   UNL A   1      43.418  37.112  35.136  1.00  0.00     0.200 A 
ATOM    134  F   UNL A   1      42.837  35.941  37.102  1.00  0.00    -0.200 F 
ATOM    135  F   UNL A   1      43.686  38.212  35.853  1.00  0.00    -0.200 F 
ENDBRANCH 101 125
ENDBRANCH  66  69
ENDBRANCH  56  59
ENDBRANCH  52  55
ENDBRANCH  49  52
ENDBRANCH  46  49
ENDBRANCH   1  46
TORSDOF 17
ENDMDL
MODEL 6
REMARK VINA RESULT:     -11.1      4.969     11.291
REMARK SMILES O=C(CNc1nc(-c2ccccc2)c(-c2ccccc2)s1)NCCCCCCNC(=O)c1ccc(-c2c3nc(c(-c4c(F)c(F)c(F)c(F)c4F)c4ccc([nH]4)c(-c4c(F)c(F)c(F)c(F)c4F)c4nc(c(-c5c(F)c(F)c(F)c(F)c5F)c5ccc2[nH]5)C=C4)C=C3)cc1
REMARK SMILES IDX 25 1 24 4 23 7 22 10 1 11 2 12 3 14 4 17 5 19 6 20 21 21
REMARK SMILES IDX 7 22 14 23 8 24 9 25 13 26 10 27 12 29 11 31 15 35 16 36
REMARK SMILES IDX 20 37 17 38 19 40 18 42 26 46 27 49 28 52 29 55 30 56 31 58
REMARK SMILES IDX 32 59 33 60 94 61 34 62 93 64 35 66 36 69 37 70 87 71 38 72
REMARK SMILES IDX 92 73 86 74 88 75 39 76 91 77 85 79 84 81 40 83 72 86 52 87
REMARK SMILES IDX 71 88 53 89 56 90 70 91 89 92 54 93 55 95 69 97 90 98 57 101
REMARK SMILES IDX 41 103 42 104 50 105 43 106 44 107 48 108 51 109 45 110
REMARK SMILES IDX 46 111 49 112 47 113 73 114 74 115 82 116 75 117 76 118
REMARK SMILES IDX 80 119 83 120 77 121 78 122 81 123 79 124 58 125 59 126
REMARK SMILES IDX 67 127 60 128 61 129 65 130 68 131 62 132 63 133 66 134
REMARK SMILES IDX 64 135
REMARK H PARENT 25 2 25 3 24 5 24 6 23 8 23 9 22 13 3 15 3 16 4 18 9 28 13 30
REMARK H PARENT 10 32 12 33 11 34 16 39 20 41 17 43 19 44 18 45 26 47 26 48
REMARK H PARENT 27 50 27 51 28 53 28 54 29 57 33 63 94 65 34 67 93 68 92 78
REMARK H PARENT 86 80 88 82 91 84 85 85 53 94 56 96 89 99 54 100 90 102
REMARK Flexibility Score: inf
ROOT
ATOM      1  C   UNL A   1      34.645  33.746  32.036  1.00  0.00    -0.052 C 
ATOM      2  H   UNL A   1      35.144  34.632  32.367  1.00  0.00     0.027 H 
ATOM      3  H   UNL A   1      33.639  33.659  32.390  1.00  0.00     0.027 H 
ENDROOT
BRANCH   1   4
ATOM      4  C   UNL A   1      35.397  32.536  32.611  1.00  0.00    -0.036 C 
ATOM      5  H   UNL A   1      34.841  32.165  33.446  1.00  0.00     0.028 H 
ATOM      6  H   UNL A   1      35.484  31.829  31.814  1.00  0.00     0.028 H 
BRANCH   4   7
ATOM      7  C   UNL A   1      36.820  32.834  33.082  1.00  0.00     0.017 C 
ATOM      8  H   UNL A   1      37.246  33.582  32.447  1.00  0.00     0.049 H 
ATOM      9  H   UNL A   1      36.773  33.173  34.096  1.00  0.00     0.049 H 
BRANCH   7  10
ATOM     10  N   UNL A   1      37.655  31.654  33.042  1.00  0.00    -0.355 N 
ATOM     11  O   UNL A   1      37.998  31.444  35.310  1.00  0.00    -0.273 OA
ATOM     12  C   UNL A   1      38.182  31.043  34.166  1.00  0.00     0.239 C 
ATOM     13  H   UNL A   1      37.863  31.263  32.163  1.00  0.00     0.163 HD
BRANCH  12  14
ATOM     14  C   UNL A   1      39.060  29.824  33.833  1.00  0.00     0.096 C 
ATOM     15  H   UNL A   1      39.093  29.685  32.772  1.00  0.00     0.059 H 
ATOM     16  H   UNL A   1      38.649  28.948  34.291  1.00  0.00     0.059 H 
BRANCH  14  17
ATOM     17  N   UNL A   1      40.409  30.051  34.336  1.00  0.00    -0.352 N 
ATOM     18  H   UNL A   1      40.722  30.977  34.457  1.00  0.00     0.163 HD
BRANCH  17  19
ATOM     19  C   UNL A   1      41.236  29.038  34.642  1.00  0.00     0.184 A 
ATOM     20  N   UNL A   1      42.027  28.978  35.686  1.00  0.00    -0.220 NA
ATOM     21  S   UNL A   1      41.327  27.692  33.575  1.00  0.00    -0.096 S 
ATOM     22  C   UNL A   1      42.772  27.808  35.651  1.00  0.00     0.091 A 
ATOM     23  C   UNL A   1      42.568  27.006  34.538  1.00  0.00     0.064 A 
BRANCH  22  24
ATOM     24  C   UNL A   1      43.673  27.450  36.736  1.00  0.00     0.002 A 
ATOM     25  C   UNL A   1      44.956  28.004  36.824  1.00  0.00    -0.053 A 
ATOM     26  C   UNL A   1      43.283  26.469  37.656  1.00  0.00    -0.053 A 
ATOM     27  C   UNL A   1      45.852  27.554  37.795  1.00  0.00    -0.062 A 
ATOM     28  H   UNL A   1      45.240  28.748  36.168  1.00  0.00     0.063 H 
ATOM     29  C   UNL A   1      44.182  26.017  38.625  1.00  0.00    -0.062 A 
ATOM     30  H   UNL A   1      42.328  26.079  37.620  1.00  0.00     0.063 H 
ATOM     31  C   UNL A   1      45.468  26.553  38.689  1.00  0.00    -0.062 A 
ATOM     32  H   UNL A   1      46.798  27.961  37.854  1.00  0.00     0.062 H 
ATOM     33  H   UNL A   1      43.896  25.285  39.293  1.00  0.00     0.062 H 
ATOM     34  H   UNL A   1      46.135  26.210  39.396  1.00  0.00     0.062 H 
ENDBRANCH  22  24
BRANCH  23  35
ATOM     35  C   UNL A   1      43.184  25.742  34.137  1.00  0.00    -0.006 A 
ATOM     36  C   UNL A   1      42.827  24.545  34.774  1.00  0.00    -0.053 A 
ATOM     37  C   UNL A   1      44.096  25.701  33.074  1.00  0.00    -0.053 A 
ATOM     38  C   UNL A   1      43.370  23.330  34.353  1.00  0.00    -0.062 A 
ATOM     39  H   UNL A   1      42.158  24.563  35.560  1.00  0.00     0.063 H 
ATOM     40  C   UNL A   1      44.638  24.484  32.654  1.00  0.00    -0.062 A 
ATOM     41  H   UNL A   1      44.370  26.575  32.599  1.00  0.00     0.063 H 
ATOM     42  C   UNL A   1      44.273  23.300  33.293  1.00  0.00    -0.062 A 
ATOM     43  H   UNL A   1      43.102  22.453  34.828  1.00  0.00     0.062 H 
ATOM     44  H   UNL A   1      45.308  24.461  31.869  1.00  0.00     0.062 H 
ATOM     45  H   UNL A   1      44.673  22.401  32.981  1.00  0.00     0.062 H 
ENDBRANCH  23  35
ENDBRANCH  17  19
ENDBRANCH  14  17
ENDBRANCH  12  14
ENDBRANCH   7  10
ENDBRANCH   4   7
ENDBRANCH   1   4
BRANCH   1  46
ATOM     46  C   UNL A   1      34.549  33.800  30.508  1.00  0.00    -0.052 C 
ATOM     47  H   UNL A   1      35.167  34.604  30.168  1.00  0.00     0.027 H 
ATOM     48  H   UNL A   1      33.511  33.931  30.282  1.00  0.00     0.027 H 
BRANCH  46  49
ATOM     49  C   UNL A   1      34.983  32.528  29.778  1.00  0.00    -0.036 C 
ATOM     50  H   UNL A   1      34.615  31.687  30.329  1.00  0.00     0.028 H 
ATOM     51  H   UNL A   1      36.050  32.566  29.722  1.00  0.00     0.028 H 
BRANCH  49  52
ATOM     52  C   UNL A   1      34.486  32.405  28.341  1.00  0.00     0.018 C 
ATOM     53  H   UNL A   1      35.306  32.582  27.677  1.00  0.00     0.049 H 
ATOM     54  H   UNL A   1      33.705  33.124  28.204  1.00  0.00     0.049 H 
BRANCH  52  55
ATOM     55  N   UNL A   1      33.929  31.090  28.051  1.00  0.00    -0.352 N 
ATOM     56  C   UNL A   1      34.554  29.870  27.972  1.00  0.00     0.251 C 
ATOM     57  H   UNL A   1      32.959  31.074  27.886  1.00  0.00     0.163 HD
ATOM     58  O   UNL A   1      33.944  28.890  27.550  1.00  0.00    -0.269 OA
BRANCH  56  59
ATOM     59  C   UNL A   1      35.973  29.734  28.365  1.00  0.00     0.039 A 
ATOM     60  C   UNL A   1      36.276  29.322  29.665  1.00  0.00    -0.049 A 
ATOM     61  C   UNL A   1      37.001  30.003  27.458  1.00  0.00    -0.049 A 
ATOM     62  C   UNL A   1      37.606  29.096  30.029  1.00  0.00    -0.053 A 
ATOM     63  H   UNL A   1      35.521  29.184  30.355  1.00  0.00     0.063 H 
ATOM     64  C   UNL A   1      38.320  29.709  27.799  1.00  0.00    -0.053 A 
ATOM     65  H   UNL A   1      36.784  30.419  26.539  1.00  0.00     0.063 H 
ATOM     66  C   UNL A   1      38.635  29.240  29.083  1.00  0.00    -0.014 A 
ATOM     67  H   UNL A   1      37.834  28.823  30.998  1.00  0.00     0.063 H 
ATOM     68  H   UNL A   1      39.070  29.836  27.101  1.00  0.00     0.063 H 
BRANCH  66  69
ATOM     69  C   UNL A   1      40.035  28.861  29.406  1.00  0.00     0.031 A 
ATOM     70  C   UNL A   1      40.938  29.812  30.136  1.00  0.00     0.074 A 
ATOM     71  C   UNL A   1      40.518  27.683  28.963  1.00  0.00     0.049 A 
ATOM     72  N   UNL A   1      42.208  29.689  30.431  1.00  0.00    -0.248 NA
ATOM     73  C   UNL A   1      40.341  31.084  30.569  1.00  0.00    -0.034 C 
ATOM     74  C   UNL A   1      39.757  26.696  28.196  1.00  0.00    -0.036 A 
ATOM     75  N   UNL A   1      41.767  27.125  29.076  1.00  0.00    -0.354 N 
ATOM     76  C   UNL A   1      42.561  30.864  31.079  1.00  0.00     0.074 A 
ATOM     77  C   UNL A   1      41.389  31.713  31.080  1.00  0.00    -0.034 C 
ATOM     78  H   UNL A   1      39.362  31.403  30.496  1.00  0.00     0.065 H 
ATOM     79  C   UNL A   1      40.552  25.651  27.915  1.00  0.00    -0.036 A 
ATOM     80  H   UNL A   1      38.769  26.788  27.915  1.00  0.00     0.065 H 
ATOM     81  C   UNL A   1      41.887  25.913  28.442  1.00  0.00     0.049 A 
ATOM     82  H   UNL A   1      42.507  27.554  29.565  1.00  0.00     0.167 HD
ATOM     83  C   UNL A   1      43.748  31.195  31.644  1.00  0.00     0.037 A 
ATOM     84  H   UNL A   1      41.371  32.684  31.432  1.00  0.00     0.065 H 
ATOM     85  H   UNL A   1      40.263  24.799  27.409  1.00  0.00     0.065 H 
ATOM     86  C   UNL A   1      42.956  25.110  28.282  1.00  0.00     0.037 A 
ATOM     87  C   UNL A   1      44.913  30.347  31.638  1.00  0.00     0.049 A 
ATOM     88  C   UNL A   1      44.274  25.511  28.888  1.00  0.00     0.074 A 
ATOM     89  C   UNL A   1      46.145  30.567  32.228  1.00  0.00    -0.036 A 
ATOM     90  N   UNL A   1      44.993  29.119  30.995  1.00  0.00    -0.354 N 
ATOM     91  N   UNL A   1      44.576  26.590  29.568  1.00  0.00    -0.248 NA
ATOM     92  C   UNL A   1      45.397  24.581  28.709  1.00  0.00    -0.034 C 
ATOM     93  C   UNL A   1      46.990  29.504  31.890  1.00  0.00    -0.036 A 
ATOM     94  H   UNL A   1      46.398  31.377  32.816  1.00  0.00     0.065 H 
ATOM     95  C   UNL A   1      46.266  28.588  31.143  1.00  0.00     0.049 A 
ATOM     96  H   UNL A   1      44.256  28.688  30.505  1.00  0.00     0.167 HD
ATOM     97  C   UNL A   1      45.915  26.462  29.912  1.00  0.00     0.074 A 
ATOM     98  C   UNL A   1      46.361  25.189  29.385  1.00  0.00    -0.034 C 
ATOM     99  H   UNL A   1      45.426  23.687  28.193  1.00  0.00     0.065 H 
ATOM    100  H   UNL A   1      47.984  29.417  32.153  1.00  0.00     0.065 H 
ATOM    101  C   UNL A   1      46.703  27.323  30.603  1.00  0.00     0.037 A 
ATOM    102  H   UNL A   1      47.310  24.805  29.518  1.00  0.00     0.065 H 
BRANCH  83 103
ATOM    103  C   UNL A   1      43.845  32.541  32.307  1.00  0.00     0.064 A 
ATOM    104  C   UNL A   1      43.603  32.706  33.680  1.00  0.00     0.173 A 
ATOM    105  C   UNL A   1      44.198  33.679  31.565  1.00  0.00     0.173 A 
ATOM    106  F   UNL A   1      43.255  31.654  34.436  1.00  0.00    -0.203 F 
ATOM    107  C   UNL A   1      43.666  33.964  34.275  1.00  0.00     0.198 A 
ATOM    108  C   UNL A   1      44.296  34.929  32.171  1.00  0.00     0.198 A 
ATOM    109  F   UNL A   1      44.452  33.580  30.251  1.00  0.00    -0.203 F 
ATOM    110  F   UNL A   1      43.365  34.105  35.573  1.00  0.00    -0.200 F 
ATOM    111  C   UNL A   1      44.018  35.073  33.521  1.00  0.00     0.200 A 
ATOM    112  F   UNL A   1      44.653  35.998  31.444  1.00  0.00    -0.200 F 
ATOM    113  F   UNL A   1      44.078  36.283  34.094  1.00  0.00    -0.200 F 
ENDBRANCH  83 103
BRANCH  86 114
ATOM    114  C   UNL A   1      42.816  23.849  27.509  1.00  0.00     0.064 A 
ATOM    115  C   UNL A   1      43.064  23.812  26.130  1.00  0.00     0.173 A 
ATOM    116  C   UNL A   1      42.454  22.648  28.139  1.00  0.00     0.173 A 
ATOM    117  F   UNL A   1      43.394  24.937  25.480  1.00  0.00    -0.203 F 
ATOM    118  C   UNL A   1      42.943  22.625  25.409  1.00  0.00     0.198 A 
ATOM    119  C   UNL A   1      42.364  21.457  27.422  1.00  0.00     0.198 A 
ATOM    120  F   UNL A   1      42.212  22.628  29.458  1.00  0.00    -0.203 F 
ATOM    121  F   UNL A   1      43.149  22.626  24.084  1.00  0.00    -0.200 F 
ATOM    122  C   UNL A   1      42.603  21.448  26.057  1.00  0.00     0.200 A 
ATOM    123  F   UNL A   1      42.054  20.319  28.057  1.00  0.00    -0.200 F 
ATOM    124  F   UNL A   1      42.500  20.305  25.365  1.00  0.00    -0.200 F 
ENDBRANCH  86 114
BRANCH 101 125
ATOM    125  C   UNL A   1      48.128  26.913  30.843  1.00  0.00     0.064 A 
ATOM    126  C   UNL A   1      49.155  27.261  29.952  1.00  0.00     0.173 A 
ATOM    127  C   UNL A   1      48.479  26.201  32.001  1.00  0.00     0.173 A 
ATOM    128  F   UNL A   1      48.871  27.927  28.822  1.00  0.00    -0.203 F 
ATOM    129  C   UNL A   1      50.474  26.892  30.200  1.00  0.00     0.198 A 
ATOM    130  C   UNL A   1      49.804  25.863  32.262  1.00  0.00     0.198 A 
ATOM    131  F   UNL A   1      47.538  25.847  32.888  1.00  0.00    -0.203 F 
ATOM    132  F   UNL A   1      51.430  27.193  29.310  1.00  0.00    -0.200 F 
ATOM    133  C   UNL A   1      50.799  26.201  31.358  1.00  0.00     0.200 A 
ATOM    134  F   UNL A   1      50.117  25.209  33.388  1.00  0.00    -0.200 F 
ATOM    135  F   UNL A   1      52.072  25.857  31.599  1.00  0.00    -0.200 F 
ENDBRANCH 101 125
ENDBRANCH  66  69
ENDBRANCH  56  59
ENDBRANCH  52  55
ENDBRANCH  49  52
ENDBRANCH  46  49
ENDBRANCH   1  46
TORSDOF 17
ENDMDL
MODEL 7
REMARK VINA RESULT:     -11.0      6.235     10.566
REMARK SMILES O=C(CNc1nc(-c2ccccc2)c(-c2ccccc2)s1)NCCCCCCNC(=O)c1ccc(-c2c3nc(c(-c4c(F)c(F)c(F)c(F)c4F)c4ccc([nH]4)c(-c4c(F)c(F)c(F)c(F)c4F)c4nc(c(-c5c(F)c(F)c(F)c(F)c5F)c5ccc2[nH]5)C=C4)C=C3)cc1
REMARK SMILES IDX 25 1 24 4 23 7 22 10 1 11 2 12 3 14 4 17 5 19 6 20 21 21
REMARK SMILES IDX 7 22 14 23 8 24 9 25 13 26 10 27 12 29 11 31 15 35 16 36
REMARK SMILES IDX 20 37 17 38 19 40 18 42 26 46 27 49 28 52 29 55 30 56 31 58
REMARK SMILES IDX 32 59 33 60 94 61 34 62 93 64 35 66 36 69 37 70 87 71 38 72
REMARK SMILES IDX 92 73 86 74 88 75 39 76 91 77 85 79 84 81 40 83 72 86 52 87
REMARK SMILES IDX 71 88 53 89 56 90 70 91 89 92 54 93 55 95 69 97 90 98 57 101
REMARK SMILES IDX 41 103 42 104 50 105 43 106 44 107 48 108 51 109 45 110
REMARK SMILES IDX 46 111 49 112 47 113 73 114 74 115 82 116 75 117 76 118
REMARK SMILES IDX 80 119 83 120 77 121 78 122 81 123 79 124 58 125 59 126
REMARK SMILES IDX 67 127 60 128 61 129 65 130 68 131 62 132 63 133 66 134
REMARK SMILES IDX 64 135
REMARK H PARENT 25 2 25 3 24 5 24 6 23 8 23 9 22 13 3 15 3 16 4 18 9 28 13 30
REMARK H PARENT 10 32 12 33 11 34 16 39 20 41 17 43 19 44 18 45 26 47 26 48
REMARK H PARENT 27 50 27 51 28 53 28 54 29 57 33 63 94 65 34 67 93 68 92 78
REMARK H PARENT 86 80 88 82 91 84 85 85 53 94 56 96 89 99 54 100 90 102
REMARK Flexibility Score: inf
ROOT
ATOM      1  C   UNL A   1      34.293  33.517  33.052  1.00  0.00    -0.052 C 
ATOM      2  H   UNL A   1      33.340  33.210  32.677  1.00  0.00     0.027 H 
ATOM      3  H   UNL A   1      34.470  33.231  34.068  1.00  0.00     0.027 H 
ENDROOT
BRANCH   1   4
ATOM      4  C   UNL A   1      34.336  35.052  33.034  1.00  0.00    -0.036 C 
ATOM      5  H   UNL A   1      34.111  35.403  34.019  1.00  0.00     0.028 H 
ATOM      6  H   UNL A   1      35.317  35.322  32.703  1.00  0.00     0.028 H 
BRANCH   4   7
ATOM      7  C   UNL A   1      33.357  35.708  32.061  1.00  0.00     0.017 C 
ATOM      8  H   UNL A   1      32.396  35.770  32.526  1.00  0.00     0.049 H 
ATOM      9  H   UNL A   1      33.729  36.681  31.817  1.00  0.00     0.049 H 
BRANCH   7  10
ATOM     10  N   UNL A   1      33.235  34.953  30.834  1.00  0.00    -0.355 N 
ATOM     11  O   UNL A   1      32.916  36.735  29.409  1.00  0.00    -0.273 OA
ATOM     12  C   UNL A   1      33.025  35.527  29.592  1.00  0.00     0.239 C 
ATOM     13  H   UNL A   1      33.304  33.972  30.884  1.00  0.00     0.163 HD
BRANCH  12  14
ATOM     14  C   UNL A   1      32.903  34.490  28.462  1.00  0.00     0.096 C 
ATOM     15  H   UNL A   1      32.132  34.789  27.783  1.00  0.00     0.059 H 
ATOM     16  H   UNL A   1      32.657  33.534  28.876  1.00  0.00     0.059 H 
BRANCH  14  17
ATOM     17  N   UNL A   1      34.172  34.403  27.750  1.00  0.00    -0.352 N 
ATOM     18  H   UNL A   1      34.269  34.875  26.892  1.00  0.00     0.163 HD
BRANCH  17  19
ATOM     19  C   UNL A   1      35.212  33.701  28.230  1.00  0.00     0.184 A 
ATOM     20  N   UNL A   1      36.328  34.203  28.701  1.00  0.00    -0.220 NA
ATOM     21  S   UNL A   1      35.131  31.983  28.209  1.00  0.00    -0.096 S 
ATOM     22  C   UNL A   1      37.193  33.180  29.060  1.00  0.00     0.091 A 
ATOM     23  C   UNL A   1      36.735  31.896  28.808  1.00  0.00     0.064 A 
BRANCH  22  24
ATOM     24  C   UNL A   1      38.476  33.459  29.689  1.00  0.00     0.002 A 
ATOM     25  C   UNL A   1      38.838  32.845  30.894  1.00  0.00    -0.053 A 
ATOM     26  C   UNL A   1      39.322  34.422  29.126  1.00  0.00    -0.053 A 
ATOM     27  C   UNL A   1      40.014  33.219  31.550  1.00  0.00    -0.062 A 
ATOM     28  H   UNL A   1      38.235  32.113  31.301  1.00  0.00     0.063 H 
ATOM     29  C   UNL A   1      40.495  34.797  29.785  1.00  0.00    -0.062 A 
ATOM     30  H   UNL A   1      39.079  34.855  28.221  1.00  0.00     0.063 H 
ATOM     31  C   UNL A   1      40.836  34.203  30.999  1.00  0.00    -0.062 A 
ATOM     32  H   UNL A   1      40.275  32.768  32.440  1.00  0.00     0.062 H 
ATOM     33  H   UNL A   1      41.110  35.517  29.373  1.00  0.00     0.062 H 
ATOM     34  H   UNL A   1      41.696  34.490  31.491  1.00  0.00     0.062 H 
ENDBRANCH  22  24
BRANCH  23  35
ATOM     35  C   UNL A   1      37.366  30.592  29.009  1.00  0.00    -0.006 A 
ATOM     36  C   UNL A   1      38.263  30.084  28.058  1.00  0.00    -0.053 A 
ATOM     37  C   UNL A   1      37.128  29.859  30.179  1.00  0.00    -0.053 A 
ATOM     38  C   UNL A   1      38.911  28.867  28.276  1.00  0.00    -0.062 A 
ATOM     39  H   UNL A   1      38.444  30.614  27.191  1.00  0.00     0.063 H 
ATOM     40  C   UNL A   1      37.778  28.642  30.395  1.00  0.00    -0.062 A 
ATOM     41  H   UNL A   1      36.468  30.220  30.885  1.00  0.00     0.063 H 
ATOM     42  C   UNL A   1      38.669  28.149  29.444  1.00  0.00    -0.062 A 
ATOM     43  H   UNL A   1      39.570  28.500  27.570  1.00  0.00     0.062 H 
ATOM     44  H   UNL A   1      37.599  28.108  31.260  1.00  0.00     0.062 H 
ATOM     45  H   UNL A   1      39.151  27.250  29.606  1.00  0.00     0.062 H 
ENDBRANCH  23  35
ENDBRANCH  17  19
ENDBRANCH  14  17
ENDBRANCH  12  14
ENDBRANCH   7  10
ENDBRANCH   4   7
ENDBRANCH   1   4
BRANCH   1  46
ATOM     46  C   UNL A   1      35.374  32.815  32.225  1.00  0.00    -0.052 C 
ATOM     47  H   UNL A   1      35.993  33.568  31.783  1.00  0.00     0.027 H 
ATOM     48  H   UNL A   1      34.854  32.213  31.509  1.00  0.00     0.027 H 
BRANCH  46  49
ATOM     49  C   UNL A   1      36.278  31.858  33.003  1.00  0.00    -0.036 C 
ATOM     50  H   UNL A   1      36.862  31.304  32.297  1.00  0.00     0.028 H 
ATOM     51  H   UNL A   1      35.627  31.244  33.590  1.00  0.00     0.028 H 
BRANCH  49  52
ATOM     52  C   UNL A   1      37.235  32.525  33.986  1.00  0.00     0.018 C 
ATOM     53  H   UNL A   1      36.866  33.504  34.213  1.00  0.00     0.049 H 
ATOM     54  H   UNL A   1      38.200  32.564  33.525  1.00  0.00     0.049 H 
BRANCH  52  55
ATOM     55  N   UNL A   1      37.371  31.780  35.230  1.00  0.00    -0.352 N 
ATOM     56  C   UNL A   1      38.300  30.834  35.590  1.00  0.00     0.251 C 
ATOM     57  H   UNL A   1      36.695  31.984  35.916  1.00  0.00     0.163 HD
ATOM     58  O   UNL A   1      38.155  30.189  36.626  1.00  0.00    -0.269 OA
BRANCH  56  59
ATOM     59  C   UNL A   1      39.463  30.563  34.717  1.00  0.00     0.039 A 
ATOM     60  C   UNL A   1      40.682  31.180  35.009  1.00  0.00    -0.049 A 
ATOM     61  C   UNL A   1      39.357  29.702  33.622  1.00  0.00    -0.049 A 
ATOM     62  C   UNL A   1      41.816  30.866  34.255  1.00  0.00    -0.053 A 
ATOM     63  H   UNL A   1      40.746  31.866  35.778  1.00  0.00     0.063 H 
ATOM     64  C   UNL A   1      40.502  29.335  32.918  1.00  0.00    -0.053 A 
ATOM     65  H   UNL A   1      38.435  29.339  33.336  1.00  0.00     0.063 H 
ATOM     66  C   UNL A   1      41.745  29.903  33.235  1.00  0.00    -0.014 A 
ATOM     67  H   UNL A   1      42.710  31.345  34.448  1.00  0.00     0.063 H 
ATOM     68  H   UNL A   1      40.435  28.639  32.158  1.00  0.00     0.063 H 
BRANCH  66  69
ATOM     69  C   UNL A   1      42.967  29.445  32.524  1.00  0.00     0.031 A 
ATOM     70  C   UNL A   1      43.777  28.298  33.054  1.00  0.00     0.074 A 
ATOM     71  C   UNL A   1      43.392  30.122  31.439  1.00  0.00     0.049 A 
ATOM     72  N   UNL A   1      44.912  27.812  32.617  1.00  0.00    -0.248 NA
ATOM     73  C   UNL A   1      43.256  27.622  34.252  1.00  0.00    -0.034 C 
ATOM     74  C   UNL A   1      42.724  31.287  30.859  1.00  0.00    -0.036 A 
ATOM     75  N   UNL A   1      44.497  29.943  30.645  1.00  0.00    -0.354 N 
ATOM     76  C   UNL A   1      45.241  26.780  33.485  1.00  0.00     0.074 A 
ATOM     77  C   UNL A   1      44.219  26.749  34.509  1.00  0.00    -0.034 C 
ATOM     78  H   UNL A   1      42.372  27.785  34.759  1.00  0.00     0.065 H 
ATOM     79  C   UNL A   1      43.426  31.713  29.797  1.00  0.00    -0.036 A 
ATOM     80  H   UNL A   1      41.852  31.714  31.209  1.00  0.00     0.065 H 
ATOM     81  C   UNL A   1      44.616  30.881  29.649  1.00  0.00     0.049 A 
ATOM     82  H   UNL A   1      45.144  29.212  30.778  1.00  0.00     0.167 HD
ATOM     83  C   UNL A   1      46.288  25.921  33.420  1.00  0.00     0.037 A 
ATOM     84  H   UNL A   1      44.238  26.128  35.334  1.00  0.00     0.065 H 
ATOM     85  H   UNL A   1      43.165  32.501  29.184  1.00  0.00     0.065 H 
ATOM     86  C   UNL A   1      45.584  31.066  28.731  1.00  0.00     0.037 A 
ATOM     87  C   UNL A   1      47.305  25.958  32.399  1.00  0.00     0.049 A 
ATOM     88  C   UNL A   1      46.755  30.121  28.695  1.00  0.00     0.074 A 
ATOM     89  C   UNL A   1      48.374  25.100  32.214  1.00  0.00    -0.036 A 
ATOM     90  N   UNL A   1      47.384  26.916  31.397  1.00  0.00    -0.354 N 
ATOM     91  N   UNL A   1      47.014  29.099  29.474  1.00  0.00    -0.248 NA
ATOM     92  C   UNL A   1      47.762  30.352  27.652  1.00  0.00    -0.034 C 
ATOM     93  C   UNL A   1      49.137  25.574  31.140  1.00  0.00    -0.036 A 
ATOM     94  H   UNL A   1      48.575  24.255  32.772  1.00  0.00     0.065 H 
ATOM     95  C   UNL A   1      48.508  26.691  30.614  1.00  0.00     0.049 A 
ATOM     96  H   UNL A   1      46.740  27.648  31.263  1.00  0.00     0.167 HD
ATOM     97  C   UNL A   1      48.203  28.555  29.006  1.00  0.00     0.074 A 
ATOM     98  C   UNL A   1      48.602  29.349  27.861  1.00  0.00    -0.034 C 
ATOM     99  H   UNL A   1      47.804  31.100  26.942  1.00  0.00     0.065 H 
ATOM    100  H   UNL A   1      50.018  25.161  30.799  1.00  0.00     0.065 H 
ATOM    101  C   UNL A   1      48.901  27.494  29.483  1.00  0.00     0.037 A 
ATOM    102  H   UNL A   1      49.435  29.156  27.282  1.00  0.00     0.065 H 
BRANCH  83 103
ATOM    103  C   UNL A   1      46.388  24.873  34.494  1.00  0.00     0.064 A 
ATOM    104  C   UNL A   1      45.776  23.617  34.358  1.00  0.00     0.173 A 
ATOM    105  C   UNL A   1      47.116  25.121  35.667  1.00  0.00     0.173 A 
ATOM    106  F   UNL A   1      45.062  23.328  33.260  1.00  0.00    -0.203 F 
ATOM    107  C   UNL A   1      45.851  22.667  35.374  1.00  0.00     0.198 A 
ATOM    108  C   UNL A   1      47.219  24.155  36.665  1.00  0.00     0.198 A 
ATOM    109  F   UNL A   1      47.731  26.299  35.848  1.00  0.00    -0.203 F 
ATOM    110  F   UNL A   1      45.203  21.501  35.248  1.00  0.00    -0.200 F 
ATOM    111  C   UNL A   1      46.576  22.935  36.524  1.00  0.00     0.200 A 
ATOM    112  F   UNL A   1      47.936  24.409  37.770  1.00  0.00    -0.200 F 
ATOM    113  F   UNL A   1      46.648  22.021  37.501  1.00  0.00    -0.200 F 
ENDBRANCH  83 103
BRANCH  86 114
ATOM    114  C   UNL A   1      45.479  32.198  27.774  1.00  0.00     0.064 A 
ATOM    115  C   UNL A   1      46.244  33.361  27.941  1.00  0.00     0.173 A 
ATOM    116  C   UNL A   1      44.629  32.132  26.660  1.00  0.00     0.173 A 
ATOM    117  F   UNL A   1      47.057  33.480  29.001  1.00  0.00    -0.203 F 
ATOM    118  C   UNL A   1      46.153  34.418  27.037  1.00  0.00     0.198 A 
ATOM    119  C   UNL A   1      44.562  33.176  25.740  1.00  0.00     0.198 A 
ATOM    120  F   UNL A   1      43.879  31.039  26.452  1.00  0.00    -0.203 F 
ATOM    121  F   UNL A   1      46.868  35.533  27.241  1.00  0.00    -0.200 F 
ATOM    122  C   UNL A   1      45.320  34.320  25.933  1.00  0.00     0.200 A 
ATOM    123  F   UNL A   1      43.770  33.069  24.666  1.00  0.00    -0.200 F 
ATOM    124  F   UNL A   1      45.244  35.331  25.057  1.00  0.00    -0.200 F 
ENDBRANCH  86 114
BRANCH 101 125
ATOM    125  C   UNL A   1      50.163  27.118  28.760  1.00  0.00     0.064 A 
ATOM    126  C   UNL A   1      51.405  27.667  29.112  1.00  0.00     0.173 A 
ATOM    127  C   UNL A   1      50.137  26.162  27.732  1.00  0.00     0.173 A 
ATOM    128  F   UNL A   1      51.484  28.596  30.077  1.00  0.00    -0.203 F 
ATOM    129  C   UNL A   1      52.569  27.291  28.447  1.00  0.00     0.198 A 
ATOM    130  C   UNL A   1      51.307  25.764  27.092  1.00  0.00     0.198 A 
ATOM    131  F   UNL A   1      48.976  25.603  27.359  1.00  0.00    -0.203 F 
ATOM    132  F   UNL A   1      53.737  27.865  28.768  1.00  0.00    -0.200 F 
ATOM    133  C   UNL A   1      52.521  26.334  27.443  1.00  0.00     0.200 A 
ATOM    134  F   UNL A   1      51.259  24.829  26.133  1.00  0.00    -0.200 F 
ATOM    135  F   UNL A   1      53.644  25.966  26.813  1.00  0.00    -0.200 F 
ENDBRANCH 101 125
ENDBRANCH  66  69
ENDBRANCH  56  59
ENDBRANCH  52  55
ENDBRANCH  49  52
ENDBRANCH  46  49
ENDBRANCH   1  46
TORSDOF 17
ENDMDL
MODEL 8
REMARK VINA RESULT:     -10.9      2.940      8.213
REMARK SMILES O=C(CNc1nc(-c2ccccc2)c(-c2ccccc2)s1)NCCCCCCNC(=O)c1ccc(-c2c3nc(c(-c4c(F)c(F)c(F)c(F)c4F)c4ccc([nH]4)c(-c4c(F)c(F)c(F)c(F)c4F)c4nc(c(-c5c(F)c(F)c(F)c(F)c5F)c5ccc2[nH]5)C=C4)C=C3)cc1
REMARK SMILES IDX 25 1 24 4 23 7 22 10 1 11 2 12 3 14 4 17 5 19 6 20 21 21
REMARK SMILES IDX 7 22 14 23 8 24 9 25 13 26 10 27 12 29 11 31 15 35 16 36
REMARK SMILES IDX 20 37 17 38 19 40 18 42 26 46 27 49 28 52 29 55 30 56 31 58
REMARK SMILES IDX 32 59 33 60 94 61 34 62 93 64 35 66 36 69 37 70 87 71 38 72
REMARK SMILES IDX 92 73 86 74 88 75 39 76 91 77 85 79 84 81 40 83 72 86 52 87
REMARK SMILES IDX 71 88 53 89 56 90 70 91 89 92 54 93 55 95 69 97 90 98 57 101
REMARK SMILES IDX 41 103 42 104 50 105 43 106 44 107 48 108 51 109 45 110
REMARK SMILES IDX 46 111 49 112 47 113 73 114 74 115 82 116 75 117 76 118
REMARK SMILES IDX 80 119 83 120 77 121 78 122 81 123 79 124 58 125 59 126
REMARK SMILES IDX 67 127 60 128 61 129 65 130 68 131 62 132 63 133 66 134
REMARK SMILES IDX 64 135
REMARK H PARENT 25 2 25 3 24 5 24 6 23 8 23 9 22 13 3 15 3 16 4 18 9 28 13 30
REMARK H PARENT 10 32 12 33 11 34 16 39 20 41 17 43 19 44 18 45 26 47 26 48
REMARK H PARENT 27 50 27 51 28 53 28 54 29 57 33 63 94 65 34 67 93 68 92 78
REMARK H PARENT 86 80 88 82 91 84 85 85 53 94 56 96 89 99 54 100 90 102
REMARK Flexibility Score: inf
ROOT
ATOM      1  C   UNL A   1      33.469  27.525  26.262  1.00  0.00    -0.052 C 
ATOM      2  H   UNL A   1      33.192  27.606  25.232  1.00  0.00     0.027 H 
ATOM      3  H   UNL A   1      34.015  26.634  26.493  1.00  0.00     0.027 H 
ENDROOT
BRANCH   1   4
ATOM      4  C   UNL A   1      32.180  27.456  27.093  1.00  0.00    -0.036 C 
ATOM      5  H   UNL A   1      32.086  26.463  27.480  1.00  0.00     0.028 H 
ATOM      6  H   UNL A   1      32.274  28.199  27.857  1.00  0.00     0.028 H 
BRANCH   4   7
ATOM      7  C   UNL A   1      30.903  27.789  26.323  1.00  0.00     0.017 C 
ATOM      8  H   UNL A   1      30.065  27.378  26.845  1.00  0.00     0.049 H 
ATOM      9  H   UNL A   1      30.825  28.854  26.250  1.00  0.00     0.049 H 
BRANCH   7  10
ATOM     10  N   UNL A   1      30.930  27.249  24.982  1.00  0.00    -0.355 N 
ATOM     11  O   UNL A   1      30.709  29.240  23.845  1.00  0.00    -0.273 OA
ATOM     12  C   UNL A   1      30.833  28.020  23.837  1.00  0.00     0.239 C 
ATOM     13  H   UNL A   1      31.022  26.274  24.877  1.00  0.00     0.163 HD
BRANCH  12  14
ATOM     14  C   UNL A   1      30.858  27.185  22.544  1.00  0.00     0.096 C 
ATOM     15  H   UNL A   1      30.505  27.778  21.728  1.00  0.00     0.059 H 
ATOM     16  H   UNL A   1      30.226  26.328  22.658  1.00  0.00     0.059 H 
BRANCH  14  17
ATOM     17  N   UNL A   1      32.224  26.753  22.278  1.00  0.00    -0.352 N 
ATOM     18  H   UNL A   1      32.794  27.308  21.697  1.00  0.00     0.163 HD
BRANCH  17  19
ATOM     19  C   UNL A   1      32.730  25.623  22.800  1.00  0.00     0.184 A 
ATOM     20  N   UNL A   1      33.963  25.449  23.210  1.00  0.00    -0.220 NA
ATOM     21  S   UNL A   1      31.713  24.242  22.927  1.00  0.00    -0.096 S 
ATOM     22  C   UNL A   1      34.140  24.143  23.641  1.00  0.00     0.091 A 
ATOM     23  C   UNL A   1      33.034  23.316  23.506  1.00  0.00     0.064 A 
BRANCH  22  24
ATOM     24  C   UNL A   1      35.397  23.701  24.226  1.00  0.00     0.002 A 
ATOM     25  C   UNL A   1      36.201  22.754  23.580  1.00  0.00    -0.053 A 
ATOM     26  C   UNL A   1      35.764  24.164  25.496  1.00  0.00    -0.053 A 
ATOM     27  C   UNL A   1      37.338  22.246  24.214  1.00  0.00    -0.062 A 
ATOM     28  H   UNL A   1      35.954  22.429  22.633  1.00  0.00     0.063 H 
ATOM     29  C   UNL A   1      36.899  23.653  26.129  1.00  0.00    -0.062 A 
ATOM     30  H   UNL A   1      35.195  24.887  25.964  1.00  0.00     0.063 H 
ATOM     31  C   UNL A   1      37.680  22.689  25.492  1.00  0.00    -0.062 A 
ATOM     32  H   UNL A   1      37.925  21.545  23.737  1.00  0.00     0.062 H 
ATOM     33  H   UNL A   1      37.159  23.987  27.070  1.00  0.00     0.062 H 
ATOM     34  H   UNL A   1      38.510  22.302  25.966  1.00  0.00     0.062 H 
ENDBRANCH  22  24
BRANCH  23  35
ATOM     35  C   UNL A   1      32.851  21.898  23.808  1.00  0.00    -0.006 A 
ATOM     36  C   UNL A   1      33.089  21.411  25.102  1.00  0.00    -0.053 A 
ATOM     37  C   UNL A   1      32.379  21.016  22.827  1.00  0.00    -0.053 A 
ATOM     38  C   UNL A   1      32.859  20.069  25.408  1.00  0.00    -0.062 A 
ATOM     39  H   UNL A   1      33.440  22.051  25.833  1.00  0.00     0.063 H 
ATOM     40  C   UNL A   1      32.147  19.673  23.135  1.00  0.00    -0.062 A 
ATOM     41  H   UNL A   1      32.202  21.360  21.871  1.00  0.00     0.063 H 
ATOM     42  C   UNL A   1      32.386  19.202  24.425  1.00  0.00    -0.062 A 
ATOM     43  H   UNL A   1      33.038  19.719  26.363  1.00  0.00     0.062 H 
ATOM     44  H   UNL A   1      31.799  19.030  22.407  1.00  0.00     0.062 H 
ATOM     45  H   UNL A   1      32.213  18.210  24.652  1.00  0.00     0.062 H 
ENDBRANCH  23  35
ENDBRANCH  17  19
ENDBRANCH  14  17
ENDBRANCH  12  14
ENDBRANCH   7  10
ENDBRANCH   4   7
ENDBRANCH   1   4
BRANCH   1  46
ATOM     46  C   UNL A   1      34.408  28.690  26.591  1.00  0.00    -0.052 C 
ATOM     47  H   UNL A   1      34.770  29.092  25.669  1.00  0.00     0.027 H 
ATOM     48  H   UNL A   1      35.178  28.281  27.213  1.00  0.00     0.027 H 
BRANCH  46  49
ATOM     49  C   UNL A   1      33.780  29.832  27.392  1.00  0.00    -0.036 C 
ATOM     50  H   UNL A   1      33.564  29.467  28.375  1.00  0.00     0.028 H 
ATOM     51  H   UNL A   1      32.910  30.133  26.849  1.00  0.00     0.028 H 
BRANCH  49  52
ATOM     52  C   UNL A   1      34.648  31.078  27.532  1.00  0.00     0.018 C 
ATOM     53  H   UNL A   1      34.485  31.707  26.681  1.00  0.00     0.049 H 
ATOM     54  H   UNL A   1      35.668  30.759  27.596  1.00  0.00     0.049 H 
BRANCH  52  55
ATOM     55  N   UNL A   1      34.348  31.839  28.737  1.00  0.00    -0.352 N 
ATOM     56  C   UNL A   1      34.995  31.858  29.948  1.00  0.00     0.251 C 
ATOM     57  H   UNL A   1      33.562  32.428  28.674  1.00  0.00     0.163 HD
ATOM     58  O   UNL A   1      34.494  32.441  30.907  1.00  0.00    -0.269 OA
BRANCH  56  59
ATOM     59  C   UNL A   1      36.282  31.149  30.114  1.00  0.00     0.039 A 
ATOM     60  C   UNL A   1      37.438  31.713  29.566  1.00  0.00    -0.049 A 
ATOM     61  C   UNL A   1      36.356  29.941  30.812  1.00  0.00    -0.049 A 
ATOM     62  C   UNL A   1      38.678  31.110  29.791  1.00  0.00    -0.053 A 
ATOM     63  H   UNL A   1      37.376  32.571  28.996  1.00  0.00     0.063 H 
ATOM     64  C   UNL A   1      37.600  29.381  31.097  1.00  0.00    -0.053 A 
ATOM     65  H   UNL A   1      35.492  29.466  31.115  1.00  0.00     0.063 H 
ATOM     66  C   UNL A   1      38.774  29.967  30.601  1.00  0.00    -0.014 A 
ATOM     67  H   UNL A   1      39.527  31.507  29.359  1.00  0.00     0.063 H 
ATOM     68  H   UNL A   1      37.657  28.530  31.679  1.00  0.00     0.063 H 
BRANCH  66  69
ATOM     69  C   UNL A   1      40.095  29.399  30.976  1.00  0.00     0.031 A 
ATOM     70  C   UNL A   1      40.880  29.976  32.118  1.00  0.00     0.074 A 
ATOM     71  C   UNL A   1      40.625  28.411  30.229  1.00  0.00     0.049 A 
ATOM     72  N   UNL A   1      42.081  29.667  32.539  1.00  0.00    -0.248 NA
ATOM     73  C   UNL A   1      40.240  31.064  32.873  1.00  0.00    -0.034 C 
ATOM     74  C   UNL A   1      39.987  27.803  29.061  1.00  0.00    -0.036 A 
ATOM     75  N   UNL A   1      41.829  27.759  30.326  1.00  0.00    -0.354 N 
ATOM     76  C   UNL A   1      42.341  30.522  33.601  1.00  0.00     0.074 A 
ATOM     77  C   UNL A   1      41.199  31.403  33.722  1.00  0.00    -0.034 C 
ATOM     78  H   UNL A   1      39.293  31.459  32.770  1.00  0.00     0.065 H 
ATOM     79  C   UNL A   1      40.799  26.862  28.556  1.00  0.00    -0.036 A 
ATOM     80  H   UNL A   1      39.060  28.057  28.686  1.00  0.00     0.065 H 
ATOM     81  C   UNL A   1      42.033  26.831  29.334  1.00  0.00     0.049 A 
ATOM     82  H   UNL A   1      42.485  27.940  31.038  1.00  0.00     0.167 HD
ATOM     83  C   UNL A   1      43.424  30.554  34.416  1.00  0.00     0.037 A 
ATOM     84  H   UNL A   1      41.140  32.193  34.383  1.00  0.00     0.065 H 
ATOM     85  H   UNL A   1      40.585  26.257  27.747  1.00  0.00     0.065 H 
ATOM     86  C   UNL A   1      43.101  26.055  29.067  1.00  0.00     0.037 A 
ATOM     87  C   UNL A   1      44.560  29.675  34.290  1.00  0.00     0.049 A 
ATOM     88  C   UNL A   1      44.307  26.128  29.965  1.00  0.00     0.074 A 
ATOM     89  C   UNL A   1      45.680  29.591  35.097  1.00  0.00    -0.036 A 
ATOM     90  N   UNL A   1      44.725  28.738  33.279  1.00  0.00    -0.354 N 
ATOM     91  N   UNL A   1      44.509  26.886  31.015  1.00  0.00    -0.248 NA
ATOM     92  C   UNL A   1      45.428  25.235  29.643  1.00  0.00    -0.034 C 
ATOM     93  C   UNL A   1      46.552  28.648  34.540  1.00  0.00    -0.036 A 
ATOM     94  H   UNL A   1      45.845  30.131  35.961  1.00  0.00     0.065 H 
ATOM     95  C   UNL A   1      45.948  28.097  33.421  1.00  0.00     0.049 A 
ATOM     96  H   UNL A   1      44.073  28.555  32.565  1.00  0.00     0.167 HD
ATOM     97  C   UNL A   1      45.770  26.551  31.490  1.00  0.00     0.074 A 
ATOM     98  C   UNL A   1      46.277  25.505  30.624  1.00  0.00    -0.034 C 
ATOM     99  H   UNL A   1      45.527  24.572  28.859  1.00  0.00     0.065 H 
ATOM    100  H   UNL A   1      47.487  28.405  34.902  1.00  0.00     0.065 H 
ATOM    101  C   UNL A   1      46.447  27.065  32.547  1.00  0.00     0.037 A 
ATOM    102  H   UNL A   1      47.184  25.030  30.756  1.00  0.00     0.065 H 
BRANCH  83 103
ATOM    103  C   UNL A   1      43.432  31.582  35.513  1.00  0.00     0.064 A 
ATOM    104  C   UNL A   1      43.957  32.869  35.315  1.00  0.00     0.173 A 
ATOM    105  C   UNL A   1      42.895  31.284  36.775  1.00  0.00     0.173 A 
ATOM    106  F   UNL A   1      44.490  33.206  34.131  1.00  0.00    -0.203 F 
ATOM    107  C   UNL A   1      43.986  33.801  36.349  1.00  0.00     0.198 A 
ATOM    108  C   UNL A   1      42.892  32.231  37.796  1.00  0.00     0.198 A 
ATOM    109  F   UNL A   1      42.369  30.074  37.019  1.00  0.00    -0.203 F 
ATOM    110  F   UNL A   1      44.553  34.999  36.154  1.00  0.00    -0.200 F 
ATOM    111  C   UNL A   1      43.448  33.483  37.587  1.00  0.00     0.200 A 
ATOM    112  F   UNL A   1      42.356  31.928  38.988  1.00  0.00    -0.200 F 
ATOM    113  F   UNL A   1      43.476  34.380  38.582  1.00  0.00    -0.200 F 
ENDBRANCH  83 103
BRANCH  86 114
ATOM    114  C   UNL A   1      43.071  25.147  27.891  1.00  0.00     0.064 A 
ATOM    115  C   UNL A   1      43.624  25.532  26.663  1.00  0.00     0.173 A 
ATOM    116  C   UNL A   1      42.507  23.865  27.979  1.00  0.00     0.173 A 
ATOM    117  F   UNL A   1      44.157  26.755  26.523  1.00  0.00    -0.203 F 
ATOM    118  C   UNL A   1      43.605  24.674  25.564  1.00  0.00     0.198 A 
ATOM    119  C   UNL A   1      42.516  22.997  26.890  1.00  0.00     0.198 A 
ATOM    120  F   UNL A   1      41.969  23.445  29.134  1.00  0.00    -0.203 F 
ATOM    121  F   UNL A   1      44.108  25.082  24.391  1.00  0.00    -0.200 F 
ATOM    122  C   UNL A   1      43.060  23.405  25.681  1.00  0.00     0.200 A 
ATOM    123  F   UNL A   1      42.005  21.765  27.013  1.00  0.00    -0.200 F 
ATOM    124  F   UNL A   1      43.053  22.576  24.628  1.00  0.00    -0.200 F 
ENDBRANCH  86 114
BRANCH 101 125
ATOM    125  C   UNL A   1      47.806  26.495  32.839  1.00  0.00     0.064 A 
ATOM    126  C   UNL A   1      47.968  25.331  33.606  1.00  0.00     0.173 A 
ATOM    127  C   UNL A   1      48.958  27.094  32.307  1.00  0.00     0.173 A 
ATOM    128  F   UNL A   1      46.901  24.728  34.152  1.00  0.00    -0.203 F 
ATOM    129  C   UNL A   1      49.233  24.803  33.849  1.00  0.00     0.198 A 
ATOM    130  C   UNL A   1      50.219  26.544  32.524  1.00  0.00     0.198 A 
ATOM    131  F   UNL A   1      48.860  28.205  31.562  1.00  0.00    -0.203 F 
ATOM    132  F   UNL A   1      49.367  23.719  34.626  1.00  0.00    -0.200 F 
ATOM    133  C   UNL A   1      50.357  25.405  33.301  1.00  0.00     0.200 A 
ATOM    134  F   UNL A   1      51.301  27.119  31.980  1.00  0.00    -0.200 F 
ATOM    135  F   UNL A   1      51.572  24.888  33.526  1.00  0.00    -0.200 F 
ENDBRANCH 101 125
ENDBRANCH  66  69
ENDBRANCH  56  59
ENDBRANCH  52  55
ENDBRANCH  49  52
ENDBRANCH  46  49
ENDBRANCH   1  46
TORSDOF 17
ENDMDL
MODEL 9
REMARK VINA RESULT:     -10.9      3.903      8.420
REMARK SMILES O=C(CNc1nc(-c2ccccc2)c(-c2ccccc2)s1)NCCCCCCNC(=O)c1ccc(-c2c3nc(c(-c4c(F)c(F)c(F)c(F)c4F)c4ccc([nH]4)c(-c4c(F)c(F)c(F)c(F)c4F)c4nc(c(-c5c(F)c(F)c(F)c(F)c5F)c5ccc2[nH]5)C=C4)C=C3)cc1
REMARK SMILES IDX 25 1 24 4 23 7 22 10 1 11 2 12 3 14 4 17 5 19 6 20 21 21
REMARK SMILES IDX 7 22 14 23 8 24 9 25 13 26 10 27 12 29 11 31 15 35 16 36
REMARK SMILES IDX 20 37 17 38 19 40 18 42 26 46 27 49 28 52 29 55 30 56 31 58
REMARK SMILES IDX 32 59 33 60 94 61 34 62 93 64 35 66 36 69 37 70 87 71 38 72
REMARK SMILES IDX 92 73 86 74 88 75 39 76 91 77 85 79 84 81 40 83 72 86 52 87
REMARK SMILES IDX 71 88 53 89 56 90 70 91 89 92 54 93 55 95 69 97 90 98 57 101
REMARK SMILES IDX 41 103 42 104 50 105 43 106 44 107 48 108 51 109 45 110
REMARK SMILES IDX 46 111 49 112 47 113 73 114 74 115 82 116 75 117 76 118
REMARK SMILES IDX 80 119 83 120 77 121 78 122 81 123 79 124 58 125 59 126
REMARK SMILES IDX 67 127 60 128 61 129 65 130 68 131 62 132 63 133 66 134
REMARK SMILES IDX 64 135
REMARK H PARENT 25 2 25 3 24 5 24 6 23 8 23 9 22 13 3 15 3 16 4 18 9 28 13 30
REMARK H PARENT 10 32 12 33 11 34 16 39 20 41 17 43 19 44 18 45 26 47 26 48
REMARK H PARENT 27 50 27 51 28 53 28 54 29 57 33 63 94 65 34 67 93 68 92 78
REMARK H PARENT 86 80 88 82 91 84 85 85 53 94 56 96 89 99 54 100 90 102
REMARK Flexibility Score: inf
ROOT
ATOM      1  C   UNL A   1      44.519  22.101  26.318  1.00  0.00    -0.052 C 
ATOM      2  H   UNL A   1      45.393  21.729  26.809  1.00  0.00     0.027 H 
ATOM      3  H   UNL A   1      43.710  22.322  26.983  1.00  0.00     0.027 H 
ENDROOT
BRANCH   1   4
ATOM      4  C   UNL A   1      44.001  21.004  25.377  1.00  0.00    -0.036 C 
ATOM      5  H   UNL A   1      43.926  21.417  24.393  1.00  0.00     0.028 H 
ATOM      6  H   UNL A   1      44.699  20.196  25.444  1.00  0.00     0.028 H 
BRANCH   4   7
ATOM      7  C   UNL A   1      42.637  20.428  25.756  1.00  0.00     0.017 C 
ATOM      8  H   UNL A   1      42.268  19.845  24.939  1.00  0.00     0.049 H 
ATOM      9  H   UNL A   1      42.761  19.827  26.633  1.00  0.00     0.049 H 
BRANCH   7  10
ATOM     10  N   UNL A   1      41.681  21.470  26.057  1.00  0.00    -0.355 N 
ATOM     11  O   UNL A   1      40.708  20.471  27.890  1.00  0.00    -0.273 OA
ATOM     12  C   UNL A   1      40.785  21.414  27.110  1.00  0.00     0.239 C 
ATOM     13  H   UNL A   1      41.665  22.266  25.479  1.00  0.00     0.163 HD
BRANCH  12  14
ATOM     14  C   UNL A   1      39.861  22.643  27.181  1.00  0.00     0.096 C 
ATOM     15  H   UNL A   1      40.427  23.499  27.485  1.00  0.00     0.059 H 
ATOM     16  H   UNL A   1      39.080  22.466  27.891  1.00  0.00     0.059 H 
BRANCH  14  17
ATOM     17  N   UNL A   1      39.282  22.885  25.866  1.00  0.00    -0.352 N 
ATOM     18  H   UNL A   1      39.878  23.121  25.118  1.00  0.00     0.163 HD
BRANCH  17  19
ATOM     19  C   UNL A   1      37.960  22.795  25.642  1.00  0.00     0.184 A 
ATOM     20  N   UNL A   1      37.054  23.663  26.021  1.00  0.00    -0.220 NA
ATOM     21  S   UNL A   1      37.352  21.412  24.820  1.00  0.00    -0.096 S 
ATOM     22  C   UNL A   1      35.791  23.218  25.661  1.00  0.00     0.091 A 
ATOM     23  C   UNL A   1      35.749  21.976  25.047  1.00  0.00     0.064 A 
BRANCH  22  24
ATOM     24  C   UNL A   1      34.606  24.033  25.890  1.00  0.00     0.002 A 
ATOM     25  C   UNL A   1      33.569  23.585  26.717  1.00  0.00    -0.053 A 
ATOM     26  C   UNL A   1      34.463  25.244  25.202  1.00  0.00    -0.053 A 
ATOM     27  C   UNL A   1      32.386  24.320  26.824  1.00  0.00    -0.062 A 
ATOM     28  H   UNL A   1      33.679  22.709  27.250  1.00  0.00     0.063 H 
ATOM     29  C   UNL A   1      33.278  25.976  25.307  1.00  0.00    -0.062 A 
ATOM     30  H   UNL A   1      35.236  25.598  24.617  1.00  0.00     0.063 H 
ATOM     31  C   UNL A   1      32.238  25.509  26.110  1.00  0.00    -0.062 A 
ATOM     32  H   UNL A   1      31.622  23.984  27.430  1.00  0.00     0.062 H 
ATOM     33  H   UNL A   1      33.171  26.861  24.789  1.00  0.00     0.062 H 
ATOM     34  H   UNL A   1      31.358  26.044  26.177  1.00  0.00     0.062 H 
ENDBRANCH  22  24
BRANCH  23  35
ATOM     35  C   UNL A   1      34.623  21.175  24.570  1.00  0.00    -0.006 A 
ATOM     36  C   UNL A   1      34.540  19.810  24.881  1.00  0.00    -0.053 A 
ATOM     37  C   UNL A   1      33.582  21.770  23.845  1.00  0.00    -0.053 A 
ATOM     38  C   UNL A   1      33.437  19.057  24.477  1.00  0.00    -0.062 A 
ATOM     39  H   UNL A   1      35.302  19.360  25.412  1.00  0.00     0.063 H 
ATOM     40  C   UNL A   1      32.478  21.016  23.442  1.00  0.00    -0.062 A 
ATOM     41  H   UNL A   1      33.631  22.774  23.607  1.00  0.00     0.063 H 
ATOM     42  C   UNL A   1      32.407  19.661  23.759  1.00  0.00    -0.062 A 
ATOM     43  H   UNL A   1      33.385  18.052  24.709  1.00  0.00     0.062 H 
ATOM     44  H   UNL A   1      31.715  21.462  22.910  1.00  0.00     0.062 H 
ATOM     45  H   UNL A   1      31.590  19.104  23.463  1.00  0.00     0.062 H 
ENDBRANCH  23  35
ENDBRANCH  17  19
ENDBRANCH  14  17
ENDBRANCH  12  14
ENDBRANCH   7  10
ENDBRANCH   4   7
ENDBRANCH   1   4
BRANCH   1  46
ATOM     46  C   UNL A   1      44.885  23.430  25.648  1.00  0.00    -0.052 C 
ATOM     47  H   UNL A   1      44.403  24.216  26.190  1.00  0.00     0.027 H 
ATOM     48  H   UNL A   1      44.558  23.347  24.631  1.00  0.00     0.027 H 
BRANCH  46  49
ATOM     49  C   UNL A   1      46.380  23.744  25.586  1.00  0.00    -0.036 C 
ATOM     50  H   UNL A   1      46.688  23.694  24.562  1.00  0.00     0.028 H 
ATOM     51  H   UNL A   1      46.862  23.021  26.211  1.00  0.00     0.028 H 
BRANCH  49  52
ATOM     52  C   UNL A   1      46.778  25.112  26.133  1.00  0.00     0.018 C 
ATOM     53  H   UNL A   1      47.816  25.088  26.394  1.00  0.00     0.049 H 
ATOM     54  H   UNL A   1      46.161  25.314  26.984  1.00  0.00     0.049 H 
BRANCH  52  55
ATOM     55  N   UNL A   1      46.565  26.183  25.170  1.00  0.00    -0.352 N 
ATOM     56  C   UNL A   1      45.825  27.334  25.287  1.00  0.00     0.251 C 
ATOM     57  H   UNL A   1      47.020  26.065  24.305  1.00  0.00     0.163 HD
ATOM     58  O   UNL A   1      45.627  28.044  24.302  1.00  0.00    -0.269 OA
BRANCH  56  59
ATOM     59  C   UNL A   1      45.235  27.711  26.589  1.00  0.00     0.039 A 
ATOM     60  C   UNL A   1      45.541  28.962  27.132  1.00  0.00    -0.049 A 
ATOM     61  C   UNL A   1      44.380  26.842  27.272  1.00  0.00    -0.049 A 
ATOM     62  C   UNL A   1      44.921  29.376  28.314  1.00  0.00    -0.053 A 
ATOM     63  H   UNL A   1      46.222  29.579  26.661  1.00  0.00     0.063 H 
ATOM     64  C   UNL A   1      43.709  27.284  28.410  1.00  0.00    -0.053 A 
ATOM     65  H   UNL A   1      44.247  25.876  26.934  1.00  0.00     0.063 H 
ATOM     66  C   UNL A   1      43.963  28.560  28.936  1.00  0.00    -0.014 A 
ATOM     67  H   UNL A   1      45.171  30.286  28.732  1.00  0.00     0.063 H 
ATOM     68  H   UNL A   1      43.019  26.667  28.870  1.00  0.00     0.063 H 
BRANCH  66  69
ATOM     69  C   UNL A   1      43.184  29.042  30.106  1.00  0.00     0.031 A 
ATOM     70  C   UNL A   1      41.762  29.496  29.945  1.00  0.00     0.074 A 
ATOM     71  C   UNL A   1      43.791  29.149  31.304  1.00  0.00     0.049 A 
ATOM     72  N   UNL A   1      40.955  30.023  30.831  1.00  0.00    -0.248 NA
ATOM     73  C   UNL A   1      41.177  29.365  28.602  1.00  0.00    -0.034 C 
ATOM     74  C   UNL A   1      45.184  28.793  31.577  1.00  0.00    -0.036 A 
ATOM     75  N   UNL A   1      43.323  29.607  32.510  1.00  0.00    -0.354 N 
ATOM     76  C   UNL A   1      39.772  30.288  30.155  1.00  0.00     0.074 A 
ATOM     77  C   UNL A   1      39.987  29.922  28.771  1.00  0.00    -0.034 C 
ATOM     78  H   UNL A   1      41.586  28.947  27.751  1.00  0.00     0.065 H 
ATOM     79  C   UNL A   1      45.454  29.036  32.869  1.00  0.00    -0.036 A 
ATOM     80  H   UNL A   1      45.851  28.415  30.887  1.00  0.00     0.065 H 
ATOM     81  C   UNL A   1      44.271  29.607  33.504  1.00  0.00     0.049 A 
ATOM     82  H   UNL A   1      42.395  29.908  32.650  1.00  0.00     0.167 HD
ATOM     83  C   UNL A   1      38.605  30.772  30.647  1.00  0.00     0.037 A 
ATOM     84  H   UNL A   1      39.303  30.075  28.013  1.00  0.00     0.065 H 
ATOM     85  H   UNL A   1      46.355  28.849  33.337  1.00  0.00     0.065 H 
ATOM     86  C   UNL A   1      44.204  30.037  34.778  1.00  0.00     0.037 A 
ATOM     87  C   UNL A   1      38.397  31.138  32.026  1.00  0.00     0.049 A 
ATOM     88  C   UNL A   1      42.909  30.601  35.298  1.00  0.00     0.074 A 
ATOM     89  C   UNL A   1      37.239  31.585  32.635  1.00  0.00    -0.036 A 
ATOM     90  N   UNL A   1      39.379  31.112  33.007  1.00  0.00    -0.354 N 
ATOM     91  N   UNL A   1      41.773  30.773  34.668  1.00  0.00    -0.248 NA
ATOM     92  C   UNL A   1      42.887  31.023  36.704  1.00  0.00    -0.034 C 
ATOM     93  C   UNL A   1      37.533  31.890  33.969  1.00  0.00    -0.036 A 
ATOM     94  H   UNL A   1      36.315  31.678  32.184  1.00  0.00     0.065 H 
ATOM     95  C   UNL A   1      38.861  31.572  34.209  1.00  0.00     0.049 A 
ATOM     96  H   UNL A   1      40.307  30.813  32.871  1.00  0.00     0.167 HD
ATOM     97  C   UNL A   1      40.896  31.307  35.603  1.00  0.00     0.074 A 
ATOM     98  C   UNL A   1      41.628  31.410  36.849  1.00  0.00    -0.034 C 
ATOM     99  H   UNL A   1      43.652  31.019  37.397  1.00  0.00     0.065 H 
ATOM    100  H   UNL A   1      36.874  32.285  34.657  1.00  0.00     0.065 H 
ATOM    101  C   UNL A   1      39.602  31.680  35.441  1.00  0.00     0.037 A 
ATOM    102  H   UNL A   1      41.219  31.742  37.737  1.00  0.00     0.065 H 
BRANCH  83 103
ATOM    103  C   UNL A   1      37.466  30.940  29.681  1.00  0.00     0.064 A 
ATOM    104  C   UNL A   1      36.603  29.879  29.365  1.00  0.00     0.173 A 
ATOM    105  C   UNL A   1      37.222  32.181  29.074  1.00  0.00     0.173 A 
ATOM    106  F   UNL A   1      36.793  28.669  29.912  1.00  0.00    -0.203 F 
ATOM    107  C   UNL A   1      35.570  30.041  28.445  1.00  0.00     0.198 A 
ATOM    108  C   UNL A   1      36.166  32.350  28.182  1.00  0.00     0.198 A 
ATOM    109  F   UNL A   1      38.007  33.235  29.346  1.00  0.00    -0.203 F 
ATOM    110  F   UNL A   1      34.802  28.996  28.110  1.00  0.00    -0.200 F 
ATOM    111  C   UNL A   1      35.350  31.277  27.858  1.00  0.00     0.200 A 
ATOM    112  F   UNL A   1      35.944  33.551  27.627  1.00  0.00    -0.200 F 
ATOM    113  F   UNL A   1      34.356  31.433  26.972  1.00  0.00    -0.200 F 
ENDBRANCH  83 103
BRANCH  86 114
ATOM    114  C   UNL A   1      45.409  29.951  35.644  1.00  0.00     0.064 A 
ATOM    115  C   UNL A   1      45.691  28.791  36.379  1.00  0.00     0.173 A 
ATOM    116  C   UNL A   1      46.314  31.018  35.738  1.00  0.00     0.173 A 
ATOM    117  F   UNL A   1      44.845  27.751  36.338  1.00  0.00    -0.203 F 
ATOM    118  C   UNL A   1      46.827  28.707  37.183  1.00  0.00     0.198 A 
ATOM    119  C   UNL A   1      47.465  30.921  36.517  1.00  0.00     0.198 A 
ATOM    120  F   UNL A   1      46.094  32.149  35.050  1.00  0.00    -0.203 F 
ATOM    121  F   UNL A   1      47.053  27.600  37.904  1.00  0.00    -0.200 F 
ATOM    122  C   UNL A   1      47.717  29.768  37.243  1.00  0.00     0.200 A 
ATOM    123  F   UNL A   1      48.332  31.942  36.557  1.00  0.00    -0.200 F 
ATOM    124  F   UNL A   1      48.816  29.681  38.006  1.00  0.00    -0.200 F 
ENDBRANCH  86 114
BRANCH 101 125
ATOM    125  C   UNL A   1      38.885  32.221  36.646  1.00  0.00     0.064 A 
ATOM    126  C   UNL A   1      38.005  31.428  37.398  1.00  0.00     0.173 A 
ATOM    127  C   UNL A   1      39.116  33.536  37.080  1.00  0.00     0.173 A 
ATOM    128  F   UNL A   1      37.737  30.170  37.017  1.00  0.00    -0.203 F 
ATOM    129  C   UNL A   1      37.366  31.938  38.525  1.00  0.00     0.198 A 
ATOM    130  C   UNL A   1      38.500  34.032  38.226  1.00  0.00     0.198 A 
ATOM    131  F   UNL A   1      39.951  34.336  36.401  1.00  0.00    -0.203 F 
ATOM    132  F   UNL A   1      36.492  31.177  39.199  1.00  0.00    -0.200 F 
ATOM    133  C   UNL A   1      37.620  33.236  38.943  1.00  0.00     0.200 A 
ATOM    134  F   UNL A   1      38.759  35.281  38.637  1.00  0.00    -0.200 F 
ATOM    135  F   UNL A   1      37.012  33.721  40.034  1.00  0.00    -0.200 F 
ENDBRANCH 101 125
ENDBRANCH  66  69
ENDBRANCH  56  59
ENDBRANCH  52  55
ENDBRANCH  49  52
ENDBRANCH  46  49
ENDBRANCH   1  46
TORSDOF 17
ENDMDL
MODEL 10
REMARK VINA RESULT:     -10.9      2.896      8.351
REMARK SMILES O=C(CNc1nc(-c2ccccc2)c(-c2ccccc2)s1)NCCCCCCNC(=O)c1ccc(-c2c3nc(c(-c4c(F)c(F)c(F)c(F)c4F)c4ccc([nH]4)c(-c4c(F)c(F)c(F)c(F)c4F)c4nc(c(-c5c(F)c(F)c(F)c(F)c5F)c5ccc2[nH]5)C=C4)C=C3)cc1
REMARK SMILES IDX 25 1 24 4 23 7 22 10 1 11 2 12 3 14 4 17 5 19 6 20 21 21
REMARK SMILES IDX 7 22 14 23 8 24 9 25 13 26 10 27 12 29 11 31 15 35 16 36
REMARK SMILES IDX 20 37 17 38 19 40 18 42 26 46 27 49 28 52 29 55 30 56 31 58
REMARK SMILES IDX 32 59 33 60 94 61 34 62 93 64 35 66 36 69 37 70 87 71 38 72
REMARK SMILES IDX 92 73 86 74 88 75 39 76 91 77 85 79 84 81 40 83 72 86 52 87
REMARK SMILES IDX 71 88 53 89 56 90 70 91 89 92 54 93 55 95 69 97 90 98 57 101
REMARK SMILES IDX 41 103 42 104 50 105 43 106 44 107 48 108 51 109 45 110
REMARK SMILES IDX 46 111 49 112 47 113 73 114 74 115 82 116 75 117 76 118
REMARK SMILES IDX 80 119 83 120 77 121 78 122 81 123 79 124 58 125 59 126
REMARK SMILES IDX 67 127 60 128 61 129 65 130 68 131 62 132 63 133 66 134
REMARK SMILES IDX 64 135
REMARK H PARENT 25 2 25 3 24 5 24 6 23 8 23 9 22 13 3 15 3 16 4 18 9 28 13 30
REMARK H PARENT 10 32 12 33 11 34 16 39 20 41 17 43 19 44 18 45 26 47 26 48
REMARK H PARENT 27 50 27 51 28 53 28 54 29 57 33 63 94 65 34 67 93 68 92 78
REMARK H PARENT 86 80 88 82 91 84 85 85 53 94 56 96 89 99 54 100 90 102
REMARK Flexibility Score: inf
ROOT
ATOM      1  C   UNL A   1      33.551  27.927  26.304  1.00  0.00    -0.052 C 
ATOM      2  H   UNL A   1      33.786  27.869  25.262  1.00  0.00     0.027 H 
ATOM      3  H   UNL A   1      33.727  27.017  26.837  1.00  0.00     0.027 H 
ENDROOT
BRANCH   1   4
ATOM      4  C   UNL A   1      32.047  28.208  26.435  1.00  0.00    -0.036 C 
ATOM      5  H   UNL A   1      31.548  27.277  26.605  1.00  0.00     0.028 H 
ATOM      6  H   UNL A   1      31.939  28.898  27.245  1.00  0.00     0.028 H 
BRANCH   4   7
ATOM      7  C   UNL A   1      31.412  28.872  25.214  1.00  0.00     0.017 C 
ATOM      8  H   UNL A   1      30.476  29.304  25.502  1.00  0.00     0.049 H 
ATOM      9  H   UNL A   1      32.085  29.622  24.853  1.00  0.00     0.049 H 
BRANCH   7  10
ATOM     10  N   UNL A   1      31.182  27.924  24.147  1.00  0.00    -0.355 N 
ATOM     11  O   UNL A   1      32.726  28.760  22.657  1.00  0.00    -0.273 OA
ATOM     12  C   UNL A   1      31.862  27.938  22.943  1.00  0.00     0.239 C 
ATOM     13  H   UNL A   1      30.500  27.227  24.285  1.00  0.00     0.163 HD
BRANCH  12  14
ATOM     14  C   UNL A   1      31.397  26.834  21.975  1.00  0.00     0.096 C 
ATOM     15  H   UNL A   1      32.212  26.543  21.346  1.00  0.00     0.059 H 
ATOM     16  H   UNL A   1      30.596  27.203  21.369  1.00  0.00     0.059 H 
BRANCH  14  17
ATOM     17  N   UNL A   1      30.940  25.684  22.744  1.00  0.00    -0.352 N 
ATOM     18  H   UNL A   1      29.983  25.608  22.965  1.00  0.00     0.163 HD
BRANCH  17  19
ATOM     19  C   UNL A   1      31.782  24.722  23.157  1.00  0.00     0.184 A 
ATOM     20  N   UNL A   1      31.469  23.469  23.383  1.00  0.00    -0.220 NA
ATOM     21  S   UNL A   1      33.422  25.136  23.468  1.00  0.00    -0.096 S 
ATOM     22  C   UNL A   1      32.579  22.779  23.846  1.00  0.00     0.091 A 
ATOM     23  C   UNL A   1      33.727  23.540  24.014  1.00  0.00     0.064 A 
BRANCH  22  24
ATOM     24  C   UNL A   1      32.531  21.346  24.097  1.00  0.00     0.002 A 
ATOM     25  C   UNL A   1      32.758  20.828  25.378  1.00  0.00    -0.053 A 
ATOM     26  C   UNL A   1      32.342  20.467  23.023  1.00  0.00    -0.053 A 
ATOM     27  C   UNL A   1      32.835  19.448  25.576  1.00  0.00    -0.062 A 
ATOM     28  H   UNL A   1      32.869  21.468  26.179  1.00  0.00     0.063 H 
ATOM     29  C   UNL A   1      32.423  19.087  23.223  1.00  0.00    -0.062 A 
ATOM     30  H   UNL A   1      32.140  20.840  22.083  1.00  0.00     0.063 H 
ATOM     31  C   UNL A   1      32.678  18.579  24.496  1.00  0.00    -0.062 A 
ATOM     32  H   UNL A   1      33.008  19.070  26.521  1.00  0.00     0.062 H 
ATOM     33  H   UNL A   1      32.295  18.443  22.427  1.00  0.00     0.062 H 
ATOM     34  H   UNL A   1      32.750  17.560  24.639  1.00  0.00     0.062 H 
ENDBRANCH  22  24
BRANCH  23  35
ATOM     35  C   UNL A   1      35.055  23.182  24.510  1.00  0.00    -0.006 A 
ATOM     36  C   UNL A   1      35.843  22.252  23.817  1.00  0.00    -0.053 A 
ATOM     37  C   UNL A   1      35.582  23.804  25.649  1.00  0.00    -0.053 A 
ATOM     38  C   UNL A   1      37.134  21.952  24.254  1.00  0.00    -0.062 A 
ATOM     39  H   UNL A   1      35.465  21.784  22.978  1.00  0.00     0.063 H 
ATOM     40  C   UNL A   1      36.874  23.505  26.085  1.00  0.00    -0.062 A 
ATOM     41  H   UNL A   1      35.011  24.489  26.169  1.00  0.00     0.063 H 
ATOM     42  C   UNL A   1      37.649  22.580  25.387  1.00  0.00    -0.062 A 
ATOM     43  H   UNL A   1      37.708  21.265  23.739  1.00  0.00     0.062 H 
ATOM     44  H   UNL A   1      37.256  23.968  26.924  1.00  0.00     0.062 H 
ATOM     45  H   UNL A   1      38.605  22.360  25.709  1.00  0.00     0.062 H 
ENDBRANCH  23  35
ENDBRANCH  17  19
ENDBRANCH  14  17
ENDBRANCH  12  14
ENDBRANCH   7  10
ENDBRANCH   4   7
ENDBRANCH   1   4
BRANCH   1  46
ATOM     46  C   UNL A   1      34.477  28.970  26.939  1.00  0.00    -0.052 C 
ATOM     47  H   UNL A   1      35.154  29.313  26.184  1.00  0.00     0.027 H 
ATOM     48  H   UNL A   1      34.960  28.476  27.756  1.00  0.00     0.027 H 
BRANCH  46  49
ATOM     49  C   UNL A   1      33.777  30.191  27.537  1.00  0.00    -0.036 C 
ATOM     50  H   UNL A   1      33.439  29.931  28.519  1.00  0.00     0.028 H 
ATOM     51  H   UNL A   1      32.982  30.438  26.866  1.00  0.00     0.028 H 
BRANCH  49  52
ATOM     52  C   UNL A   1      34.642  31.443  27.651  1.00  0.00     0.018 C 
ATOM     53  H   UNL A   1      34.454  32.068  26.803  1.00  0.00     0.049 H 
ATOM     54  H   UNL A   1      35.664  31.129  27.691  1.00  0.00     0.049 H 
BRANCH  52  55
ATOM     55  N   UNL A   1      34.367  32.206  28.861  1.00  0.00    -0.352 N 
ATOM     56  C   UNL A   1      35.017  32.197  30.071  1.00  0.00     0.251 C 
ATOM     57  H   UNL A   1      33.600  32.820  28.803  1.00  0.00     0.163 HD
ATOM     58  O   UNL A   1      34.536  32.791  31.034  1.00  0.00    -0.269 OA
BRANCH  56  59
ATOM     59  C   UNL A   1      36.282  31.448  30.231  1.00  0.00     0.039 A 
ATOM     60  C   UNL A   1      37.460  31.996  29.713  1.00  0.00    -0.049 A 
ATOM     61  C   UNL A   1      36.313  30.218  30.892  1.00  0.00    -0.049 A 
ATOM     62  C   UNL A   1      38.679  31.351  29.935  1.00  0.00    -0.053 A 
ATOM     63  H   UNL A   1      37.429  32.872  29.169  1.00  0.00     0.063 H 
ATOM     64  C   UNL A   1      37.537  29.615  31.175  1.00  0.00    -0.053 A 
ATOM     65  H   UNL A   1      35.433  29.758  31.171  1.00  0.00     0.063 H 
ATOM     66  C   UNL A   1      38.734  30.182  30.710  1.00  0.00    -0.014 A 
ATOM     67  H   UNL A   1      39.545  31.737  29.525  1.00  0.00     0.063 H 
ATOM     68  H   UNL A   1      37.563  28.745  31.731  1.00  0.00     0.063 H 
BRANCH  66  69
ATOM     69  C   UNL A   1      40.034  29.566  31.084  1.00  0.00     0.031 A 
ATOM     70  C   UNL A   1      40.835  30.107  32.232  1.00  0.00     0.074 A 
ATOM     71  C   UNL A   1      40.531  28.566  30.330  1.00  0.00     0.049 A 
ATOM     72  N   UNL A   1      42.024  29.754  32.652  1.00  0.00    -0.248 NA
ATOM     73  C   UNL A   1      40.232  31.210  32.994  1.00  0.00    -0.034 C 
ATOM     74  C   UNL A   1      39.874  27.990  29.156  1.00  0.00    -0.036 A 
ATOM     75  N   UNL A   1      41.712  27.872  30.424  1.00  0.00    -0.354 N 
ATOM     76  C   UNL A   1      42.311  30.591  33.722  1.00  0.00     0.074 A 
ATOM     77  C   UNL A   1      41.200  31.509  33.847  1.00  0.00    -0.034 C 
ATOM     78  H   UNL A   1      39.299  31.639  32.892  1.00  0.00     0.065 H 
ATOM     79  C   UNL A   1      40.655  27.025  28.645  1.00  0.00    -0.036 A 
ATOM     80  H   UNL A   1      38.958  28.279  28.781  1.00  0.00     0.065 H 
ATOM     81  C   UNL A   1      41.886  26.945  29.426  1.00  0.00     0.049 A 
ATOM     82  H   UNL A   1      42.372  28.026  31.139  1.00  0.00     0.167 HD
ATOM     83  C   UNL A   1      43.393  30.579  34.539  1.00  0.00     0.037 A 
ATOM     84  H   UNL A   1      41.166  32.297  34.515  1.00  0.00     0.065 H 
ATOM     85  H   UNL A   1      40.422  26.434  27.832  1.00  0.00     0.065 H 
ATOM     86  C   UNL A   1      42.927  26.136  29.154  1.00  0.00     0.037 A 
ATOM     87  C   UNL A   1      44.498  29.663  34.408  1.00  0.00     0.049 A 
ATOM     88  C   UNL A   1      44.132  26.160  30.055  1.00  0.00     0.074 A 
ATOM     89  C   UNL A   1      45.613  29.533  35.216  1.00  0.00    -0.036 A 
ATOM     90  N   UNL A   1      44.633  28.728  33.390  1.00  0.00    -0.354 N 
ATOM     91  N   UNL A   1      44.358  26.902  31.111  1.00  0.00    -0.248 NA
ATOM     92  C   UNL A   1      45.222  25.231  29.729  1.00  0.00    -0.034 C 
ATOM     93  C   UNL A   1      46.453  28.566  34.654  1.00  0.00    -0.036 A 
ATOM     94  H   UNL A   1      45.795  30.061  36.085  1.00  0.00     0.065 H 
ATOM     95  C   UNL A   1      45.832  28.045  33.530  1.00  0.00     0.049 A 
ATOM     96  H   UNL A   1      43.976  28.573  32.674  1.00  0.00     0.167 HD
ATOM     97  C   UNL A   1      45.606  26.520  31.586  1.00  0.00     0.074 A 
ATOM     98  C   UNL A   1      46.078  25.464  30.714  1.00  0.00    -0.034 C 
ATOM     99  H   UNL A   1      45.301  24.571  28.939  1.00  0.00     0.065 H 
ATOM    100  H   UNL A   1      47.378  28.288  35.016  1.00  0.00     0.065 H 
ATOM    101  C   UNL A   1      46.297  27.002  32.649  1.00  0.00     0.037 A 
ATOM    102  H   UNL A   1      46.968  24.958  30.843  1.00  0.00     0.065 H 
BRANCH  83 103
ATOM    103  C   UNL A   1      43.433  31.597  35.644  1.00  0.00     0.064 A 
ATOM    104  C   UNL A   1      44.028  32.857  35.465  1.00  0.00     0.173 A 
ATOM    105  C   UNL A   1      42.858  31.319  36.893  1.00  0.00     0.173 A 
ATOM    106  F   UNL A   1      44.599  33.174  34.294  1.00  0.00    -0.203 F 
ATOM    107  C   UNL A   1      44.086  33.779  36.507  1.00  0.00     0.198 A 
ATOM    108  C   UNL A   1      42.885  32.258  37.922  1.00  0.00     0.198 A 
ATOM    109  F   UNL A   1      42.266  30.137  37.119  1.00  0.00    -0.203 F 
ATOM    110  F   UNL A   1      44.718  34.947  36.332  1.00  0.00    -0.200 F 
ATOM    111  C   UNL A   1      43.510  33.481  37.732  1.00  0.00     0.200 A 
ATOM    112  F   UNL A   1      42.313  31.975  39.101  1.00  0.00    -0.200 F 
ATOM    113  F   UNL A   1      43.566  34.369  38.735  1.00  0.00    -0.200 F 
ENDBRANCH  83 103
BRANCH  86 114
ATOM    114  C   UNL A   1      42.867  25.237  27.972  1.00  0.00     0.064 A 
ATOM    115  C   UNL A   1      43.302  25.669  26.711  1.00  0.00     0.173 A 
ATOM    116  C   UNL A   1      42.395  23.921  28.083  1.00  0.00     0.173 A 
ATOM    117  F   UNL A   1      43.743  26.925  26.550  1.00  0.00    -0.203 F 
ATOM    118  C   UNL A   1      43.256  24.822  25.606  1.00  0.00     0.198 A 
ATOM    119  C   UNL A   1      42.380  23.065  26.984  1.00  0.00     0.198 A 
ATOM    120  F   UNL A   1      41.973  23.457  29.269  1.00  0.00    -0.203 F 
ATOM    121  F   UNL A   1      43.643  25.273  24.404  1.00  0.00    -0.200 F 
ATOM    122  C   UNL A   1      42.804  23.519  25.745  1.00  0.00     0.200 A 
ATOM    123  F   UNL A   1      41.959  21.801  27.128  1.00  0.00    -0.200 F 
ATOM    124  F   UNL A   1      42.773  22.701  24.684  1.00  0.00    -0.200 F 
ENDBRANCH  86 114
BRANCH 101 125
ATOM    125  C   UNL A   1      47.635  26.383  32.939  1.00  0.00     0.064 A 
ATOM    126  C   UNL A   1      47.755  25.209  33.698  1.00  0.00     0.173 A 
ATOM    127  C   UNL A   1      48.809  26.946  32.413  1.00  0.00     0.173 A 
ATOM    128  F   UNL A   1      46.667  24.640  34.237  1.00  0.00    -0.203 F 
ATOM    129  C   UNL A   1      49.002  24.636  33.939  1.00  0.00     0.198 A 
ATOM    130  C   UNL A   1      50.050  26.352  32.628  1.00  0.00     0.198 A 
ATOM    131  F   UNL A   1      48.751  28.065  31.676  1.00  0.00    -0.203 F 
ATOM    132  F   UNL A   1      49.096  23.543  34.708  1.00  0.00    -0.200 F 
ATOM    133  C   UNL A   1      50.146  25.202  33.397  1.00  0.00     0.200 A 
ATOM    134  F   UNL A   1      51.152  26.892  32.091  1.00  0.00    -0.200 F 
ATOM    135  F   UNL A   1      51.343  24.642  33.621  1.00  0.00    -0.200 F 
ENDBRANCH 101 125
ENDBRANCH  66  69
ENDBRANCH  56  59
ENDBRANCH  52  55
ENDBRANCH  49  52
ENDBRANCH  46  49
ENDBRANCH   1  46
TORSDOF 17
ENDMDL
