MODEL 1
REMARK VINA RESULT:     -11.0      0.000      0.000
REMARK SMILES COc1ccc(/C=C/c2cc(OC)cc(OC)c2/C=C/C(=O)NCCCCCCNC(=O)c2ccc(-c3c4nc(c(-c5c(F)c(F)c(F)c(F)c5F)c5ccc([nH]5)c(-c5c(F)c(F)c(F)c(F)c5F)c5nc(c(-c6c(F)c(F)c(F)c(F)c6F)c6ccc3[nH]6)C=C5)C=C4)cc2)cc1
REMARK SMILES IDX 25 1 24 4 23 7 21 8 22 9 20 11 19 12 18 15 9 16 10 17 11 18
REMARK SMILES IDX 15 20 14 21 8 23 7 24 6 27 3 28 4 29 97 30 5 31 96 33 2 37
REMARK SMILES IDX 1 38 12 42 13 43 16 47 17 48 26 52 27 55 28 58 29 61 30 64
REMARK SMILES IDX 31 65 32 67 33 68 34 69 95 70 35 71 94 73 36 75 37 78 38 79
REMARK SMILES IDX 88 80 39 81 93 82 87 83 89 84 40 85 92 86 86 88 85 90 41 92
REMARK SMILES IDX 73 95 53 96 72 97 54 98 57 99 71 100 90 101 55 102 56 104
REMARK SMILES IDX 70 106 91 107 58 110 42 112 43 113 51 114 44 115 45 116
REMARK SMILES IDX 49 117 52 118 46 119 47 120 50 121 48 122 74 123 75 124
REMARK SMILES IDX 83 125 76 126 77 127 81 128 84 129 78 130 79 131 82 132
REMARK SMILES IDX 80 133 59 134 60 135 68 136 61 137 62 138 66 139 69 140
REMARK SMILES IDX 63 141 64 142 67 143 65 144
REMARK H PARENT 25 2 25 3 24 5 24 6 23 10 19 13 20 14 10 19 14 22 7 25 8 26
REMARK H PARENT 4 32 97 34 5 35 96 36 1 39 1 40 1 41 13 44 13 45 13 46 17 49
REMARK H PARENT 17 50 17 51 26 53 26 54 27 56 27 57 28 59 28 60 29 62 29 63
REMARK H PARENT 30 66 34 72 95 74 35 76 94 77 93 87 87 89 89 91 92 93 86 94
REMARK H PARENT 54 103 57 105 90 108 55 109 91 111
REMARK Flexibility Score: inf
ROOT
ATOM      1  C   UNL A   1      35.989  20.759  24.636  1.00  0.00    -0.036 C 
ATOM      2  H   UNL A   1      36.903  21.106  24.203  1.00  0.00     0.028 H 
ATOM      3  H   UNL A   1      35.134  21.013  24.046  1.00  0.00     0.028 H 
ENDROOT
BRANCH   1   4
ATOM      4  C   UNL A   1      35.812  21.434  25.990  1.00  0.00     0.018 C 
ATOM      5  H   UNL A   1      34.866  21.934  26.009  1.00  0.00     0.049 H 
ATOM      6  H   UNL A   1      35.858  20.682  26.750  1.00  0.00     0.049 H 
BRANCH   4   7
ATOM      7  N   UNL A   1      36.859  22.399  26.239  1.00  0.00    -0.353 N 
ATOM      8  C   UNL A   1      36.824  23.747  26.075  1.00  0.00     0.244 C 
ATOM      9  O   UNL A   1      37.779  24.447  26.389  1.00  0.00    -0.270 OA
ATOM     10  H   UNL A   1      37.711  22.031  26.571  1.00  0.00     0.163 HD
BRANCH   8  11
ATOM     11  C   UNL A   1      35.592  24.374  25.557  1.00  0.00     0.004 C 
ATOM     12  C   UNL A   1      34.420  24.203  26.187  1.00  0.00    -0.045 C 
ATOM     13  H   UNL A   1      34.415  23.742  27.110  1.00  0.00     0.063 H 
ATOM     14  H   UNL A   1      35.633  24.950  24.701  1.00  0.00     0.068 H 
BRANCH  12  15
ATOM     15  C   UNL A   1      33.143  24.650  25.611  1.00  0.00     0.024 A 
ATOM     16  C   UNL A   1      32.211  23.663  25.174  1.00  0.00    -0.011 A 
ATOM     17  C   UNL A   1      31.011  24.052  24.555  1.00  0.00    -0.012 A 
ATOM     18  C   UNL A   1      30.715  25.394  24.344  1.00  0.00     0.123 A 
ATOM     19  H   UNL A   1      30.338  23.330  24.253  1.00  0.00     0.067 H 
ATOM     20  C   UNL A   1      32.826  26.013  25.412  1.00  0.00     0.130 A 
ATOM     21  C   UNL A   1      31.610  26.357  24.792  1.00  0.00     0.023 A 
ATOM     22  H   UNL A   1      31.377  27.355  24.668  1.00  0.00     0.070 H 
BRANCH  16  23
ATOM     23  C   UNL A   1      32.427  22.201  25.267  1.00  0.00    -0.054 C 
ATOM     24  C   UNL A   1      32.278  21.373  24.220  1.00  0.00    -0.054 C 
ATOM     25  H   UNL A   1      31.996  21.800  23.324  1.00  0.00     0.063 H 
ATOM     26  H   UNL A   1      32.703  21.801  26.176  1.00  0.00     0.063 H 
BRANCH  24  27
ATOM     27  C   UNL A   1      32.479  19.908  24.226  1.00  0.00    -0.025 A 
ATOM     28  C   UNL A   1      32.908  17.109  24.399  1.00  0.00     0.118 A 
ATOM     29  C   UNL A   1      32.792  17.738  23.160  1.00  0.00    -0.019 A 
ATOM     30  C   UNL A   1      32.786  17.875  25.556  1.00  0.00    -0.019 A 
ATOM     31  C   UNL A   1      32.573  19.122  23.071  1.00  0.00    -0.051 A 
ATOM     32  H   UNL A   1      32.868  17.178  22.295  1.00  0.00     0.066 H 
ATOM     33  C   UNL A   1      32.578  19.258  25.466  1.00  0.00    -0.051 A 
ATOM     34  H   UNL A   1      32.849  17.423  26.480  1.00  0.00     0.066 H 
ATOM     35  H   UNL A   1      32.482  19.565  22.144  1.00  0.00     0.063 H 
ATOM     36  H   UNL A   1      32.496  19.812  26.333  1.00  0.00     0.063 H 
BRANCH  28  37
ATOM     37  O   UNL A   1      33.176  15.767  24.351  1.00  0.00    -0.497 OA
BRANCH  37  38
ATOM     38  C   UNL A   1      32.716  14.983  25.445  1.00  0.00     0.078 C 
ATOM     39  H   UNL A   1      32.313  14.061  25.078  1.00  0.00     0.067 H 
ATOM     40  H   UNL A   1      31.955  15.520  25.973  1.00  0.00     0.067 H 
ATOM     41  H   UNL A   1      33.532  14.778  26.105  1.00  0.00     0.067 H 
ENDBRANCH  37  38
ENDBRANCH  28  37
ENDBRANCH  24  27
ENDBRANCH  16  23
BRANCH  18  42
ATOM     42  O   UNL A   1      29.542  25.645  23.687  1.00  0.00    -0.497 OA
BRANCH  42  43
ATOM     43  C   UNL A   1      29.136  27.011  23.632  1.00  0.00     0.078 C 
ATOM     44  H   UNL A   1      28.601  27.188  22.722  1.00  0.00     0.067 H 
ATOM     45  H   UNL A   1      29.999  27.642  23.667  1.00  0.00     0.067 H 
ATOM     46  H   UNL A   1      28.501  27.228  24.466  1.00  0.00     0.067 H 
ENDBRANCH  42  43
ENDBRANCH  18  42
BRANCH  20  47
ATOM     47  O   UNL A   1      33.537  27.153  25.677  1.00  0.00    -0.496 OA
BRANCH  47  48
ATOM     48  C   UNL A   1      32.940  28.430  25.779  1.00  0.00     0.078 C 
ATOM     49  H   UNL A   1      33.006  28.775  26.789  1.00  0.00     0.067 H 
ATOM     50  H   UNL A   1      31.912  28.368  25.489  1.00  0.00     0.067 H 
ATOM     51  H   UNL A   1      33.451  29.116  25.135  1.00  0.00     0.067 H 
ENDBRANCH  47  48
ENDBRANCH  20  47
ENDBRANCH  12  15
ENDBRANCH   8  11
ENDBRANCH   4   7
ENDBRANCH   1   4
BRANCH   1  52
ATOM     52  C   UNL A   1      36.041  19.229  24.711  1.00  0.00    -0.052 C 
ATOM     53  H   UNL A   1      35.713  18.839  23.770  1.00  0.00     0.027 H 
ATOM     54  H   UNL A   1      35.414  18.948  25.530  1.00  0.00     0.027 H 
BRANCH  52  55
ATOM     55  C   UNL A   1      37.426  18.641  25.011  1.00  0.00    -0.052 C 
ATOM     56  H   UNL A   1      37.586  17.812  24.354  1.00  0.00     0.027 H 
ATOM     57  H   UNL A   1      37.418  18.364  26.045  1.00  0.00     0.027 H 
BRANCH  55  58
ATOM     58  C   UNL A   1      38.588  19.619  24.836  1.00  0.00    -0.036 C 
ATOM     59  H   UNL A   1      38.184  20.574  24.570  1.00  0.00     0.028 H 
ATOM     60  H   UNL A   1      39.221  19.208  24.077  1.00  0.00     0.028 H 
BRANCH  58  61
ATOM     61  C   UNL A   1      39.456  19.797  26.074  1.00  0.00     0.018 C 
ATOM     62  H   UNL A   1      38.874  19.576  26.943  1.00  0.00     0.049 H 
ATOM     63  H   UNL A   1      39.806  20.809  26.099  1.00  0.00     0.049 H 
BRANCH  61  64
ATOM     64  N   UNL A   1      40.609  18.914  26.041  1.00  0.00    -0.352 N 
ATOM     65  C   UNL A   1      41.943  19.231  26.011  1.00  0.00     0.251 C 
ATOM     66  H   UNL A   1      40.404  17.952  26.040  1.00  0.00     0.163 HD
ATOM     67  O   UNL A   1      42.768  18.374  25.711  1.00  0.00    -0.269 OA
BRANCH  65  68
ATOM     68  C   UNL A   1      42.395  20.604  26.332  1.00  0.00     0.039 A 
ATOM     69  C   UNL A   1      42.722  21.466  25.281  1.00  0.00    -0.049 A 
ATOM     70  C   UNL A   1      42.549  21.028  27.655  1.00  0.00    -0.049 A 
ATOM     71  C   UNL A   1      43.168  22.760  25.555  1.00  0.00    -0.053 A 
ATOM     72  H   UNL A   1      42.634  21.145  24.303  1.00  0.00     0.063 H 
ATOM     73  C   UNL A   1      42.922  22.343  27.927  1.00  0.00    -0.053 A 
ATOM     74  H   UNL A   1      42.388  20.368  28.431  1.00  0.00     0.063 H 
ATOM     75  C   UNL A   1      43.250  23.218  26.881  1.00  0.00    -0.014 A 
ATOM     76  H   UNL A   1      43.439  23.384  24.780  1.00  0.00     0.063 H 
ATOM     77  H   UNL A   1      42.955  22.675  28.903  1.00  0.00     0.063 H 
BRANCH  75  78
ATOM     78  C   UNL A   1      43.693  24.604  27.185  1.00  0.00     0.031 A 
ATOM     79  C   UNL A   1      42.708  25.621  27.689  1.00  0.00     0.074 A 
ATOM     80  C   UNL A   1      44.972  24.960  26.962  1.00  0.00     0.049 A 
ATOM     81  N   UNL A   1      42.898  26.886  27.970  1.00  0.00    -0.248 NA
ATOM     82  C   UNL A   1      41.323  25.165  27.880  1.00  0.00    -0.034 C 
ATOM     83  C   UNL A   1      46.004  24.075  26.429  1.00  0.00    -0.036 A 
ATOM     84  N   UNL A   1      45.623  26.154  27.140  1.00  0.00    -0.354 N 
ATOM     85  C   UNL A   1      41.660  27.376  28.358  1.00  0.00     0.074 A 
ATOM     86  C   UNL A   1      40.714  26.289  28.226  1.00  0.00    -0.034 C 
ATOM     87  H   UNL A   1      40.929  24.217  27.774  1.00  0.00     0.065 H 
ATOM     88  C   UNL A   1      47.162  24.744  26.336  1.00  0.00    -0.036 A 
ATOM     89  H   UNL A   1      45.864  23.087  26.165  1.00  0.00     0.065 H 
ATOM     90  C   UNL A   1      46.946  26.120  26.770  1.00  0.00     0.049 A 
ATOM     91  H   UNL A   1      45.185  26.959  27.500  1.00  0.00     0.167 HD
ATOM     92  C   UNL A   1      41.346  28.615  28.807  1.00  0.00     0.037 A 
ATOM     93  H   UNL A   1      39.697  26.379  28.380  1.00  0.00     0.065 H 
ATOM     94  H   UNL A   1      48.059  24.352  26.010  1.00  0.00     0.065 H 
ATOM     95  C   UNL A   1      47.878  27.091  26.770  1.00  0.00     0.037 A 
ATOM     96  C   UNL A   1      42.299  29.684  28.957  1.00  0.00     0.049 A 
ATOM     97  C   UNL A   1      47.503  28.459  27.268  1.00  0.00     0.074 A 
ATOM     98  C   UNL A   1      42.097  30.954  29.467  1.00  0.00    -0.036 A 
ATOM     99  N   UNL A   1      43.635  29.609  28.588  1.00  0.00    -0.354 N 
ATOM    100  N   UNL A   1      46.346  28.888  27.710  1.00  0.00    -0.248 NA
ATOM    101  C   UNL A   1      48.564  29.475  27.278  1.00  0.00    -0.034 C 
ATOM    102  C   UNL A   1      43.295  31.666  29.357  1.00  0.00    -0.036 A 
ATOM    103  H   UNL A   1      41.213  31.313  29.861  1.00  0.00     0.065 H 
ATOM    104  C   UNL A   1      44.262  30.822  28.834  1.00  0.00     0.049 A 
ATOM    105  H   UNL A   1      44.073  28.814  28.208  1.00  0.00     0.167 HD
ATOM    106  C   UNL A   1      46.544  30.212  28.075  1.00  0.00     0.074 A 
ATOM    107  C   UNL A   1      47.939  30.510  27.821  1.00  0.00    -0.034 C 
ATOM    108  H   UNL A   1      49.539  29.401  26.949  1.00  0.00     0.065 H 
ATOM    109  H   UNL A   1      43.437  32.653  29.622  1.00  0.00     0.065 H 
ATOM    110  C   UNL A   1      45.652  31.101  28.576  1.00  0.00     0.037 A 
ATOM    111  H   UNL A   1      48.389  31.413  28.036  1.00  0.00     0.065 H 
BRANCH  92 112
ATOM    112  C   UNL A   1      39.914  28.882  29.170  1.00  0.00     0.064 A 
ATOM    113  C   UNL A   1      38.989  29.352  28.225  1.00  0.00     0.173 A 
ATOM    114  C   UNL A   1      39.451  28.627  30.470  1.00  0.00     0.173 A 
ATOM    115  F   UNL A   1      39.382  29.622  26.971  1.00  0.00    -0.203 F 
ATOM    116  C   UNL A   1      37.661  29.584  28.576  1.00  0.00     0.198 A 
ATOM    117  C   UNL A   1      38.114  28.830  30.808  1.00  0.00     0.198 A 
ATOM    118  F   UNL A   1      40.291  28.172  31.411  1.00  0.00    -0.203 F 
ATOM    119  F   UNL A   1      36.808  30.081  27.669  1.00  0.00    -0.200 F 
ATOM    120  C   UNL A   1      37.223  29.316  29.864  1.00  0.00     0.200 A 
ATOM    121  F   UNL A   1      37.691  28.556  32.050  1.00  0.00    -0.200 F 
ATOM    122  F   UNL A   1      35.943  29.530  30.196  1.00  0.00    -0.200 F 
ENDBRANCH  92 112
BRANCH  95 123
ATOM    123  C   UNL A   1      49.259  26.797  26.302  1.00  0.00     0.064 A 
ATOM    124  C   UNL A   1      49.636  27.032  24.973  1.00  0.00     0.173 A 
ATOM    125  C   UNL A   1      50.228  26.275  27.172  1.00  0.00     0.173 A 
ATOM    126  F   UNL A   1      48.741  27.513  24.099  1.00  0.00    -0.203 F 
ATOM    127  C   UNL A   1      50.921  26.733  24.525  1.00  0.00     0.198 A 
ATOM    128  C   UNL A   1      51.523  26.006  26.730  1.00  0.00     0.198 A 
ATOM    129  F   UNL A   1      49.922  26.038  28.456  1.00  0.00    -0.203 F 
ATOM    130  F   UNL A   1      51.241  26.922  23.238  1.00  0.00    -0.200 F 
ATOM    131  C   UNL A   1      51.865  26.226  25.406  1.00  0.00     0.200 A 
ATOM    132  F   UNL A   1      52.437  25.534  27.589  1.00  0.00    -0.200 F 
ATOM    133  F   UNL A   1      53.102  25.945  24.975  1.00  0.00    -0.200 F 
ENDBRANCH  95 123
BRANCH 110 134
ATOM    134  C   UNL A   1      46.166  32.471  28.912  1.00  0.00     0.064 A 
ATOM    135  C   UNL A   1      46.707  32.766  30.173  1.00  0.00     0.173 A 
ATOM    136  C   UNL A   1      46.146  33.491  27.950  1.00  0.00     0.173 A 
ATOM    137  F   UNL A   1      46.735  31.830  31.132  1.00  0.00    -0.203 F 
ATOM    138  C   UNL A   1      47.182  34.042  30.465  1.00  0.00     0.198 A 
ATOM    139  C   UNL A   1      46.651  34.757  28.235  1.00  0.00     0.198 A 
ATOM    140  F   UNL A   1      45.645  33.260  26.727  1.00  0.00    -0.203 F 
ATOM    141  F   UNL A   1      47.644  34.317  31.693  1.00  0.00    -0.200 F 
ATOM    142  C   UNL A   1      47.160  35.033  29.495  1.00  0.00     0.200 A 
ATOM    143  F   UNL A   1      46.644  35.708  27.292  1.00  0.00    -0.200 F 
ATOM    144  F   UNL A   1      47.624  36.259  29.777  1.00  0.00    -0.200 F 
ENDBRANCH 110 134
ENDBRANCH  75  78
ENDBRANCH  65  68
ENDBRANCH  61  64
ENDBRANCH  58  61
ENDBRANCH  55  58
ENDBRANCH  52  55
ENDBRANCH   1  52
TORSDOF 22
ENDMDL
MODEL 2
REMARK VINA RESULT:     -10.9      1.872      8.421
REMARK SMILES COc1ccc(/C=C/c2cc(OC)cc(OC)c2/C=C/C(=O)NCCCCCCNC(=O)c2ccc(-c3c4nc(c(-c5c(F)c(F)c(F)c(F)c5F)c5ccc([nH]5)c(-c5c(F)c(F)c(F)c(F)c5F)c5nc(c(-c6c(F)c(F)c(F)c(F)c6F)c6ccc3[nH]6)C=C5)C=C4)cc2)cc1
REMARK SMILES IDX 25 1 24 4 23 7 21 8 22 9 20 11 19 12 18 15 9 16 10 17 11 18
REMARK SMILES IDX 15 20 14 21 8 23 7 24 6 27 3 28 4 29 97 30 5 31 96 33 2 37
REMARK SMILES IDX 1 38 12 42 13 43 16 47 17 48 26 52 27 55 28 58 29 61 30 64
REMARK SMILES IDX 31 65 32 67 33 68 34 69 95 70 35 71 94 73 36 75 37 78 38 79
REMARK SMILES IDX 88 80 39 81 93 82 87 83 89 84 40 85 92 86 86 88 85 90 41 92
REMARK SMILES IDX 73 95 53 96 72 97 54 98 57 99 71 100 90 101 55 102 56 104
REMARK SMILES IDX 70 106 91 107 58 110 42 112 43 113 51 114 44 115 45 116
REMARK SMILES IDX 49 117 52 118 46 119 47 120 50 121 48 122 74 123 75 124
REMARK SMILES IDX 83 125 76 126 77 127 81 128 84 129 78 130 79 131 82 132
REMARK SMILES IDX 80 133 59 134 60 135 68 136 61 137 62 138 66 139 69 140
REMARK SMILES IDX 63 141 64 142 67 143 65 144
REMARK H PARENT 25 2 25 3 24 5 24 6 23 10 19 13 20 14 10 19 14 22 7 25 8 26
REMARK H PARENT 4 32 97 34 5 35 96 36 1 39 1 40 1 41 13 44 13 45 13 46 17 49
REMARK H PARENT 17 50 17 51 26 53 26 54 27 56 27 57 28 59 28 60 29 62 29 63
REMARK H PARENT 30 66 34 72 95 74 35 76 94 77 93 87 87 89 89 91 92 93 86 94
REMARK H PARENT 54 103 57 105 90 108 55 109 91 111
REMARK Flexibility Score: inf
ROOT
ATOM      1  C   UNL A   1      39.768  20.363  26.076  1.00  0.00    -0.036 C 
ATOM      2  H   UNL A   1      40.254  20.082  25.166  1.00  0.00     0.028 H 
ATOM      3  H   UNL A   1      39.269  19.540  26.544  1.00  0.00     0.028 H 
ENDROOT
BRANCH   1   4
ATOM      4  C   UNL A   1      38.703  21.402  25.751  1.00  0.00     0.018 C 
ATOM      5  H   UNL A   1      38.661  21.539  24.691  1.00  0.00     0.049 H 
ATOM      6  H   UNL A   1      37.763  21.050  26.125  1.00  0.00     0.049 H 
BRANCH   4   7
ATOM      7  N   UNL A   1      38.996  22.672  26.378  1.00  0.00    -0.353 N 
ATOM      8  C   UNL A   1      38.293  23.832  26.307  1.00  0.00     0.244 C 
ATOM      9  O   UNL A   1      38.636  24.818  26.948  1.00  0.00    -0.270 OA
ATOM     10  H   UNL A   1      39.812  22.699  26.929  1.00  0.00     0.163 HD
BRANCH   8  11
ATOM     11  C   UNL A   1      37.072  23.881  25.479  1.00  0.00     0.004 C 
ATOM     12  C   UNL A   1      35.858  23.874  26.050  1.00  0.00    -0.045 C 
ATOM     13  H   UNL A   1      35.791  23.969  27.075  1.00  0.00     0.063 H 
ATOM     14  H   UNL A   1      37.152  23.922  24.451  1.00  0.00     0.068 H 
BRANCH  12  15
ATOM     15  C   UNL A   1      34.620  23.734  25.268  1.00  0.00     0.024 A 
ATOM     16  C   UNL A   1      33.762  24.867  25.147  1.00  0.00    -0.011 A 
ATOM     17  C   UNL A   1      32.537  24.752  24.467  1.00  0.00    -0.012 A 
ATOM     18  C   UNL A   1      32.133  23.541  23.915  1.00  0.00     0.123 A 
ATOM     19  H   UNL A   1      31.928  25.580  24.374  1.00  0.00     0.067 H 
ATOM     20  C   UNL A   1      34.213  22.513  24.688  1.00  0.00     0.130 A 
ATOM     21  C   UNL A   1      32.981  22.445  24.010  1.00  0.00     0.023 A 
ATOM     22  H   UNL A   1      32.699  21.554  23.572  1.00  0.00     0.070 H 
BRANCH  16  23
ATOM     23  C   UNL A   1      34.028  26.194  25.746  1.00  0.00    -0.054 C 
ATOM     24  C   UNL A   1      33.114  27.177  25.779  1.00  0.00    -0.054 C 
ATOM     25  H   UNL A   1      32.195  26.974  25.357  1.00  0.00     0.063 H 
ATOM     26  H   UNL A   1      34.958  26.371  26.156  1.00  0.00     0.063 H 
BRANCH  24  27
ATOM     27  C   UNL A   1      33.297  28.525  26.360  1.00  0.00    -0.025 A 
ATOM     28  C   UNL A   1      33.788  31.054  27.548  1.00  0.00     0.118 A 
ATOM     29  C   UNL A   1      32.534  30.744  27.023  1.00  0.00    -0.019 A 
ATOM     30  C   UNL A   1      34.807  30.109  27.458  1.00  0.00    -0.019 A 
ATOM     31  C   UNL A   1      32.290  29.495  26.430  1.00  0.00    -0.051 A 
ATOM     32  H   UNL A   1      31.774  31.441  27.072  1.00  0.00     0.066 H 
ATOM     33  C   UNL A   1      34.559  28.859  26.874  1.00  0.00    -0.051 A 
ATOM     34  H   UNL A   1      35.746  30.330  27.822  1.00  0.00     0.066 H 
ATOM     35  H   UNL A   1      31.357  29.289  26.040  1.00  0.00     0.063 H 
ATOM     36  H   UNL A   1      35.324  28.167  26.821  1.00  0.00     0.063 H 
BRANCH  28  37
ATOM     37  O   UNL A   1      33.883  32.280  28.149  1.00  0.00    -0.497 OA
BRANCH  37  38
ATOM     38  C   UNL A   1      34.527  32.322  29.417  1.00  0.00     0.078 C 
ATOM     39  H   UNL A   1      35.478  32.805  29.318  1.00  0.00     0.067 H 
ATOM     40  H   UNL A   1      34.669  31.325  29.778  1.00  0.00     0.067 H 
ATOM     41  H   UNL A   1      33.920  32.869  30.107  1.00  0.00     0.067 H 
ENDBRANCH  37  38
ENDBRANCH  28  37
ENDBRANCH  24  27
ENDBRANCH  16  23
BRANCH  18  42
ATOM     42  O   UNL A   1      30.901  23.543  23.322  1.00  0.00    -0.497 OA
BRANCH  42  43
ATOM     43  C   UNL A   1      30.257  24.811  23.221  1.00  0.00     0.078 C 
ATOM     44  H   UNL A   1      30.442  25.228  22.252  1.00  0.00     0.067 H 
ATOM     45  H   UNL A   1      30.642  25.468  23.972  1.00  0.00     0.067 H 
ATOM     46  H   UNL A   1      29.204  24.689  23.361  1.00  0.00     0.067 H 
ENDBRANCH  42  43
ENDBRANCH  18  42
BRANCH  20  47
ATOM     47  O   UNL A   1      34.796  21.273  24.689  1.00  0.00    -0.496 OA
BRANCH  47  48
ATOM     48  C   UNL A   1      34.092  20.088  25.001  1.00  0.00     0.078 C 
ATOM     49  H   UNL A   1      33.832  19.579  24.097  1.00  0.00     0.067 H 
ATOM     50  H   UNL A   1      33.201  20.333  25.541  1.00  0.00     0.067 H 
ATOM     51  H   UNL A   1      34.710  19.453  25.601  1.00  0.00     0.067 H 
ENDBRANCH  47  48
ENDBRANCH  20  47
ENDBRANCH  12  15
ENDBRANCH   8  11
ENDBRANCH   4   7
ENDBRANCH   1   4
BRANCH   1  52
ATOM     52  C   UNL A   1      40.833  20.857  27.060  1.00  0.00    -0.052 C 
ATOM     53  H   UNL A   1      40.348  21.094  27.984  1.00  0.00     0.027 H 
ATOM     54  H   UNL A   1      41.300  21.701  26.597  1.00  0.00     0.027 H 
BRANCH  52  55
ATOM     55  C   UNL A   1      41.957  19.855  27.357  1.00  0.00    -0.052 C 
ATOM     56  H   UNL A   1      41.630  19.213  28.147  1.00  0.00     0.027 H 
ATOM     57  H   UNL A   1      42.818  20.436  27.615  1.00  0.00     0.027 H 
BRANCH  55  58
ATOM     58  C   UNL A   1      42.366  18.983  26.170  1.00  0.00    -0.036 C 
ATOM     59  H   UNL A   1      42.149  19.520  25.270  1.00  0.00     0.028 H 
ATOM     60  H   UNL A   1      41.812  18.072  26.256  1.00  0.00     0.028 H 
BRANCH  58  61
ATOM     61  C   UNL A   1      43.838  18.594  26.149  1.00  0.00     0.018 C 
ATOM     62  H   UNL A   1      43.956  17.646  26.629  1.00  0.00     0.049 H 
ATOM     63  H   UNL A   1      44.395  19.351  26.663  1.00  0.00     0.049 H 
BRANCH  61  64
ATOM     64  N   UNL A   1      44.338  18.501  24.789  1.00  0.00    -0.352 N 
ATOM     65  C   UNL A   1      44.692  19.505  23.925  1.00  0.00     0.251 C 
ATOM     66  H   UNL A   1      44.437  17.587  24.438  1.00  0.00     0.163 HD
ATOM     67  O   UNL A   1      44.833  19.262  22.730  1.00  0.00    -0.269 OA
BRANCH  65  68
ATOM     68  C   UNL A   1      44.900  20.884  24.422  1.00  0.00     0.039 A 
ATOM     69  C   UNL A   1      44.522  21.955  23.608  1.00  0.00    -0.049 A 
ATOM     70  C   UNL A   1      45.511  21.128  25.656  1.00  0.00    -0.049 A 
ATOM     71  C   UNL A   1      44.722  23.266  24.045  1.00  0.00    -0.053 A 
ATOM     72  H   UNL A   1      44.094  21.777  22.686  1.00  0.00     0.063 H 
ATOM     73  C   UNL A   1      45.642  22.434  26.124  1.00  0.00    -0.053 A 
ATOM     74  H   UNL A   1      45.866  20.340  26.220  1.00  0.00     0.063 H 
ATOM     75  C   UNL A   1      45.264  23.517  25.317  1.00  0.00    -0.014 A 
ATOM     76  H   UNL A   1      44.471  24.056  23.430  1.00  0.00     0.063 H 
ATOM     77  H   UNL A   1      46.019  22.605  27.068  1.00  0.00     0.063 H 
BRANCH  75  78
ATOM     78  C   UNL A   1      45.453  24.907  25.807  1.00  0.00     0.031 A 
ATOM     79  C   UNL A   1      46.813  25.544  25.775  1.00  0.00     0.074 A 
ATOM     80  C   UNL A   1      44.408  25.580  26.326  1.00  0.00     0.049 A 
ATOM     81  N   UNL A   1      47.181  26.728  26.196  1.00  0.00    -0.248 NA
ATOM     82  C   UNL A   1      47.911  24.737  25.221  1.00  0.00    -0.034 C 
ATOM     83  C   UNL A   1      43.054  25.048  26.455  1.00  0.00    -0.036 A 
ATOM     84  N   UNL A   1      44.317  26.843  26.852  1.00  0.00    -0.354 N 
ATOM     85  C   UNL A   1      48.547  26.803  25.967  1.00  0.00     0.074 A 
ATOM     86  C   UNL A   1      48.956  25.526  25.423  1.00  0.00    -0.034 C 
ATOM     87  H   UNL A   1      47.876  23.801  24.788  1.00  0.00     0.065 H 
ATOM     88  C   UNL A   1      42.260  25.977  27.007  1.00  0.00    -0.036 A 
ATOM     89  H   UNL A   1      42.754  24.104  26.165  1.00  0.00     0.065 H 
ATOM     90  C   UNL A   1      43.059  27.161  27.305  1.00  0.00     0.049 A 
ATOM     91  H   UNL A   1      45.079  27.464  26.900  1.00  0.00     0.167 HD
ATOM     92  C   UNL A   1      49.381  27.851  26.172  1.00  0.00     0.037 A 
ATOM     93  H   UNL A   1      49.933  25.265  25.218  1.00  0.00     0.065 H 
ATOM     94  H   UNL A   1      41.250  25.872  27.192  1.00  0.00     0.065 H 
ATOM     95  C   UNL A   1      42.601  28.277  27.903  1.00  0.00     0.037 A 
ATOM     96  C   UNL A   1      48.962  29.125  26.695  1.00  0.00     0.049 A 
ATOM     97  C   UNL A   1      43.549  29.422  28.125  1.00  0.00     0.074 A 
ATOM     98  C   UNL A   1      49.714  30.272  26.876  1.00  0.00    -0.036 A 
ATOM     99  N   UNL A   1      47.675  29.418  27.128  1.00  0.00    -0.354 N 
ATOM    100  N   UNL A   1      44.823  29.510  27.829  1.00  0.00    -0.248 NA
ATOM    101  C   UNL A   1      42.994  30.629  28.752  1.00  0.00    -0.034 C 
ATOM    102  C   UNL A   1      48.898  31.241  27.468  1.00  0.00    -0.036 A 
ATOM    103  H   UNL A   1      50.706  30.391  26.618  1.00  0.00     0.065 H 
ATOM    104  C   UNL A   1      47.621  30.719  27.602  1.00  0.00     0.049 A 
ATOM    105  H   UNL A   1      46.915  28.793  27.101  1.00  0.00     0.167 HD
ATOM    106  C   UNL A   1      45.216  30.785  28.208  1.00  0.00     0.074 A 
ATOM    107  C   UNL A   1      44.039  31.444  28.738  1.00  0.00    -0.034 C 
ATOM    108  H   UNL A   1      42.040  30.798  29.110  1.00  0.00     0.065 H 
ATOM    109  H   UNL A   1      49.196  32.186  27.757  1.00  0.00     0.065 H 
ATOM    110  C   UNL A   1      46.441  31.361  28.125  1.00  0.00     0.037 A 
ATOM    111  H   UNL A   1      44.018  32.423  29.062  1.00  0.00     0.065 H 
BRANCH  92 112
ATOM    112  C   UNL A   1      50.831  27.664  25.831  1.00  0.00     0.064 A 
ATOM    113  C   UNL A   1      51.317  27.873  24.531  1.00  0.00     0.173 A 
ATOM    114  C   UNL A   1      51.755  27.309  26.826  1.00  0.00     0.173 A 
ATOM    115  F   UNL A   1      50.474  28.202  23.540  1.00  0.00    -0.203 F 
ATOM    116  C   UNL A   1      52.667  27.705  24.234  1.00  0.00     0.198 A 
ATOM    117  C   UNL A   1      53.110  27.174  26.532  1.00  0.00     0.198 A 
ATOM    118  F   UNL A   1      51.346  27.102  28.087  1.00  0.00    -0.203 F 
ATOM    119  F   UNL A   1      53.098  27.862  22.975  1.00  0.00    -0.200 F 
ATOM    120  C   UNL A   1      53.563  27.364  25.236  1.00  0.00     0.200 A 
ATOM    121  F   UNL A   1      53.976  26.859  27.505  1.00  0.00    -0.200 F 
ATOM    122  F   UNL A   1      54.863  27.214  24.950  1.00  0.00    -0.200 F 
ENDBRANCH  92 112
BRANCH  95 123
ATOM    123  C   UNL A   1      41.175  28.369  28.316  1.00  0.00     0.064 A 
ATOM    124  C   UNL A   1      40.760  27.935  29.581  1.00  0.00     0.173 A 
ATOM    125  C   UNL A   1      40.200  28.892  27.454  1.00  0.00     0.173 A 
ATOM    126  F   UNL A   1      41.652  27.411  30.435  1.00  0.00    -0.203 F 
ATOM    127  C   UNL A   1      39.421  27.996  29.961  1.00  0.00     0.198 A 
ATOM    128  C   UNL A   1      38.865  28.982  27.846  1.00  0.00     0.198 A 
ATOM    129  F   UNL A   1      40.544  29.329  26.233  1.00  0.00    -0.203 F 
ATOM    130  F   UNL A   1      39.044  27.529  31.159  1.00  0.00    -0.200 F 
ATOM    131  C   UNL A   1      38.476  28.525  29.095  1.00  0.00     0.200 A 
ATOM    132  F   UNL A   1      37.958  29.511  27.013  1.00  0.00    -0.200 F 
ATOM    133  F   UNL A   1      37.189  28.589  29.463  1.00  0.00    -0.200 F 
ENDBRANCH  95 123
BRANCH 110 134
ATOM    134  C   UNL A   1      46.562  32.783  28.588  1.00  0.00     0.064 A 
ATOM    135  C   UNL A   1      46.337  33.862  27.721  1.00  0.00     0.173 A 
ATOM    136  C   UNL A   1      46.877  33.068  29.925  1.00  0.00     0.173 A 
ATOM    137  F   UNL A   1      46.048  33.643  26.430  1.00  0.00    -0.203 F 
ATOM    138  C   UNL A   1      46.451  35.175  28.170  1.00  0.00     0.198 A 
ATOM    139  C   UNL A   1      46.958  34.382  30.379  1.00  0.00     0.198 A 
ATOM    140  F   UNL A   1      47.096  32.072  30.797  1.00  0.00    -0.203 F 
ATOM    141  F   UNL A   1      46.285  36.191  27.311  1.00  0.00    -0.200 F 
ATOM    142  C   UNL A   1      46.754  35.434  29.499  1.00  0.00     0.200 A 
ATOM    143  F   UNL A   1      47.236  34.630  31.666  1.00  0.00    -0.200 F 
ATOM    144  F   UNL A   1      46.857  36.698  29.930  1.00  0.00    -0.200 F 
ENDBRANCH 110 134
ENDBRANCH  75  78
ENDBRANCH  65  68
ENDBRANCH  61  64
ENDBRANCH  58  61
ENDBRANCH  55  58
ENDBRANCH  52  55
ENDBRANCH   1  52
TORSDOF 22
ENDMDL
MODEL 3
REMARK VINA RESULT:     -10.0      5.822     11.585
REMARK SMILES COc1ccc(/C=C/c2cc(OC)cc(OC)c2/C=C/C(=O)NCCCCCCNC(=O)c2ccc(-c3c4nc(c(-c5c(F)c(F)c(F)c(F)c5F)c5ccc([nH]5)c(-c5c(F)c(F)c(F)c(F)c5F)c5nc(c(-c6c(F)c(F)c(F)c(F)c6F)c6ccc3[nH]6)C=C5)C=C4)cc2)cc1
REMARK SMILES IDX 25 1 24 4 23 7 21 8 22 9 20 11 19 12 18 15 9 16 10 17 11 18
REMARK SMILES IDX 15 20 14 21 8 23 7 24 6 27 3 28 4 29 97 30 5 31 96 33 2 37
REMARK SMILES IDX 1 38 12 42 13 43 16 47 17 48 26 52 27 55 28 58 29 61 30 64
REMARK SMILES IDX 31 65 32 67 33 68 34 69 95 70 35 71 94 73 36 75 37 78 38 79
REMARK SMILES IDX 88 80 39 81 93 82 87 83 89 84 40 85 92 86 86 88 85 90 41 92
REMARK SMILES IDX 73 95 53 96 72 97 54 98 57 99 71 100 90 101 55 102 56 104
REMARK SMILES IDX 70 106 91 107 58 110 42 112 43 113 51 114 44 115 45 116
REMARK SMILES IDX 49 117 52 118 46 119 47 120 50 121 48 122 74 123 75 124
REMARK SMILES IDX 83 125 76 126 77 127 81 128 84 129 78 130 79 131 82 132
REMARK SMILES IDX 80 133 59 134 60 135 68 136 61 137 62 138 66 139 69 140
REMARK SMILES IDX 63 141 64 142 67 143 65 144
REMARK H PARENT 25 2 25 3 24 5 24 6 23 10 19 13 20 14 10 19 14 22 7 25 8 26
REMARK H PARENT 4 32 97 34 5 35 96 36 1 39 1 40 1 41 13 44 13 45 13 46 17 49
REMARK H PARENT 17 50 17 51 26 53 26 54 27 56 27 57 28 59 28 60 29 62 29 63
REMARK H PARENT 30 66 34 72 95 74 35 76 94 77 93 87 87 89 89 91 92 93 86 94
REMARK H PARENT 54 103 57 105 90 108 55 109 91 111
REMARK Flexibility Score: inf
ROOT
ATOM      1  C   UNL A   1      49.476  25.419  26.625  1.00  0.00    -0.036 C 
ATOM      2  H   UNL A   1      49.988  26.355  26.712  1.00  0.00     0.028 H 
ATOM      3  H   UNL A   1      49.961  24.749  25.947  1.00  0.00     0.028 H 
ENDROOT
BRANCH   1   4
ATOM      4  C   UNL A   1      48.083  25.683  26.070  1.00  0.00     0.018 C 
ATOM      5  H   UNL A   1      48.143  25.780  25.007  1.00  0.00     0.049 H 
ATOM      6  H   UNL A   1      47.451  24.862  26.341  1.00  0.00     0.049 H 
BRANCH   4   7
ATOM      7  N   UNL A   1      47.517  26.894  26.621  1.00  0.00    -0.353 N 
ATOM      8  C   UNL A   1      46.224  27.150  26.948  1.00  0.00     0.244 C 
ATOM      9  O   UNL A   1      45.902  28.213  27.467  1.00  0.00    -0.270 OA
ATOM     10  H   UNL A   1      48.152  27.630  26.780  1.00  0.00     0.163 HD
BRANCH   8  11
ATOM     11  C   UNL A   1      45.205  26.107  26.715  1.00  0.00     0.004 C 
ATOM     12  C   UNL A   1      45.136  25.030  27.511  1.00  0.00    -0.045 C 
ATOM     13  H   UNL A   1      45.714  25.005  28.365  1.00  0.00     0.063 H 
ATOM     14  H   UNL A   1      44.539  26.209  25.933  1.00  0.00     0.068 H 
BRANCH  12  15
ATOM     15  C   UNL A   1      44.266  23.882  27.209  1.00  0.00     0.024 A 
ATOM     16  C   UNL A   1      43.474  23.336  28.261  1.00  0.00    -0.011 A 
ATOM     17  C   UNL A   1      42.684  22.196  28.027  1.00  0.00    -0.012 A 
ATOM     18  C   UNL A   1      42.669  21.576  26.783  1.00  0.00     0.123 A 
ATOM     19  H   UNL A   1      42.105  21.815  28.792  1.00  0.00     0.067 H 
ATOM     20  C   UNL A   1      44.230  23.260  25.942  1.00  0.00     0.130 A 
ATOM     21  C   UNL A   1      43.421  22.124  25.751  1.00  0.00     0.023 A 
ATOM     22  H   UNL A   1      43.384  21.686  24.818  1.00  0.00     0.070 H 
BRANCH  16  23
ATOM     23  C   UNL A   1      43.449  23.846  29.650  1.00  0.00    -0.054 C 
ATOM     24  C   UNL A   1      44.039  23.207  30.673  1.00  0.00    -0.054 C 
ATOM     25  H   UNL A   1      44.520  22.321  30.455  1.00  0.00     0.063 H 
ATOM     26  H   UNL A   1      42.955  24.731  29.840  1.00  0.00     0.063 H 
BRANCH  24  27
ATOM     27  C   UNL A   1      44.064  23.649  32.085  1.00  0.00    -0.025 A 
ATOM     28  C   UNL A   1      44.226  24.614  34.748  1.00  0.00     0.118 A 
ATOM     29  C   UNL A   1      43.643  23.377  34.471  1.00  0.00    -0.019 A 
ATOM     30  C   UNL A   1      44.707  25.382  33.690  1.00  0.00    -0.019 A 
ATOM     31  C   UNL A   1      43.557  22.900  33.153  1.00  0.00    -0.051 A 
ATOM     32  H   UNL A   1      43.271  22.804  35.245  1.00  0.00     0.066 H 
ATOM     33  C   UNL A   1      44.630  24.900  32.376  1.00  0.00    -0.051 A 
ATOM     34  H   UNL A   1      45.123  26.307  33.876  1.00  0.00     0.066 H 
ATOM     35  H   UNL A   1      43.114  21.987  32.970  1.00  0.00     0.063 H 
ATOM     36  H   UNL A   1      44.997  25.479  31.605  1.00  0.00     0.063 H 
BRANCH  28  37
ATOM     37  O   UNL A   1      44.301  24.940  36.075  1.00  0.00    -0.497 OA
BRANCH  37  38
ATOM     38  C   UNL A   1      44.544  26.307  36.385  1.00  0.00     0.078 C 
ATOM     39  H   UNL A   1      43.980  26.582  37.252  1.00  0.00     0.067 H 
ATOM     40  H   UNL A   1      44.248  26.918  35.558  1.00  0.00     0.067 H 
ATOM     41  H   UNL A   1      45.587  26.449  36.579  1.00  0.00     0.067 H 
ENDBRANCH  37  38
ENDBRANCH  28  37
ENDBRANCH  24  27
ENDBRANCH  16  23
BRANCH  18  42
ATOM     42  O   UNL A   1      41.901  20.448  26.693  1.00  0.00    -0.497 OA
BRANCH  42  43
ATOM     43  C   UNL A   1      42.468  19.362  25.965  1.00  0.00     0.078 C 
ATOM     44  H   UNL A   1      41.905  19.202  25.068  1.00  0.00     0.067 H 
ATOM     45  H   UNL A   1      42.441  18.477  26.565  1.00  0.00     0.067 H 
ATOM     46  H   UNL A   1      43.482  19.592  25.713  1.00  0.00     0.067 H 
ENDBRANCH  42  43
ENDBRANCH  18  42
BRANCH  20  47
ATOM     47  O   UNL A   1      44.911  23.528  24.784  1.00  0.00    -0.496 OA
BRANCH  47  48
ATOM     48  C   UNL A   1      44.762  22.763  23.604  1.00  0.00     0.078 C 
ATOM     49  H   UNL A   1      44.309  23.364  22.844  1.00  0.00     0.067 H 
ATOM     50  H   UNL A   1      44.142  21.914  23.805  1.00  0.00     0.067 H 
ATOM     51  H   UNL A   1      45.723  22.432  23.270  1.00  0.00     0.067 H 
ENDBRANCH  47  48
ENDBRANCH  20  47
ENDBRANCH  12  15
ENDBRANCH   8  11
ENDBRANCH   4   7
ENDBRANCH   1   4
BRANCH   1  52
ATOM     52  C   UNL A   1      49.476  24.741  27.999  1.00  0.00    -0.052 C 
ATOM     53  H   UNL A   1      50.382  24.179  28.092  1.00  0.00     0.027 H 
ATOM     54  H   UNL A   1      48.595  24.136  28.034  1.00  0.00     0.027 H 
BRANCH  52  55
ATOM     55  C   UNL A   1      49.386  25.698  29.195  1.00  0.00    -0.052 C 
ATOM     56  H   UNL A   1      48.394  25.644  29.591  1.00  0.00     0.027 H 
ATOM     57  H   UNL A   1      49.640  26.669  28.824  1.00  0.00     0.027 H 
BRANCH  55  58
ATOM     58  C   UNL A   1      50.368  25.400  30.328  1.00  0.00    -0.036 C 
ATOM     59  H   UNL A   1      51.142  26.140  30.303  1.00  0.00     0.028 H 
ATOM     60  H   UNL A   1      50.734  24.409  30.163  1.00  0.00     0.028 H 
BRANCH  58  61
ATOM     61  C   UNL A   1      49.749  25.407  31.720  1.00  0.00     0.018 C 
ATOM     62  H   UNL A   1      49.779  24.416  32.120  1.00  0.00     0.049 H 
ATOM     63  H   UNL A   1      48.739  25.753  31.639  1.00  0.00     0.049 H 
BRANCH  61  64
ATOM     64  N   UNL A   1      50.469  26.299  32.612  1.00  0.00    -0.352 N 
ATOM     65  C   UNL A   1      50.154  27.577  32.999  1.00  0.00     0.251 C 
ATOM     66  H   UNL A   1      51.300  25.935  32.993  1.00  0.00     0.163 HD
ATOM     67  O   UNL A   1      51.004  28.279  33.536  1.00  0.00    -0.269 OA
BRANCH  65  68
ATOM     68  C   UNL A   1      48.796  28.117  32.767  1.00  0.00     0.039 A 
ATOM     69  C   UNL A   1      48.569  28.898  31.630  1.00  0.00    -0.049 A 
ATOM     70  C   UNL A   1      47.763  27.907  33.685  1.00  0.00    -0.049 A 
ATOM     71  C   UNL A   1      47.302  29.436  31.396  1.00  0.00    -0.053 A 
ATOM     72  H   UNL A   1      49.338  29.076  30.964  1.00  0.00     0.063 H 
ATOM     73  C   UNL A   1      46.480  28.380  33.413  1.00  0.00    -0.053 A 
ATOM     74  H   UNL A   1      47.949  27.402  34.565  1.00  0.00     0.063 H 
ATOM     75  C   UNL A   1      46.240  29.162  32.274  1.00  0.00    -0.014 A 
ATOM     76  H   UNL A   1      47.144  30.037  30.573  1.00  0.00     0.063 H 
ATOM     77  H   UNL A   1      45.703  28.153  34.053  1.00  0.00     0.063 H 
BRANCH  75  78
ATOM     78  C   UNL A   1      44.879  29.701  32.020  1.00  0.00     0.031 A 
ATOM     79  C   UNL A   1      43.937  28.980  31.098  1.00  0.00     0.074 A 
ATOM     80  C   UNL A   1      44.507  30.868  32.581  1.00  0.00     0.049 A 
ATOM     81  N   UNL A   1      42.728  29.316  30.723  1.00  0.00    -0.248 NA
ATOM     82  C   UNL A   1      44.424  27.728  30.499  1.00  0.00    -0.034 C 
ATOM     83  C   UNL A   1      45.352  31.682  33.451  1.00  0.00    -0.036 A 
ATOM     84  N   UNL A   1      43.337  31.579  32.499  1.00  0.00    -0.354 N 
ATOM     85  C   UNL A   1      42.318  28.327  29.841  1.00  0.00     0.074 A 
ATOM     86  C   UNL A   1      43.424  27.407  29.692  1.00  0.00    -0.034 C 
ATOM     87  H   UNL A   1      45.312  27.229  30.666  1.00  0.00     0.065 H 
ATOM     88  C   UNL A   1      44.675  32.772  33.838  1.00  0.00    -0.036 A 
ATOM     89  H   UNL A   1      46.320  31.453  33.727  1.00  0.00     0.065 H 
ATOM     90  C   UNL A   1      43.356  32.753  33.213  1.00  0.00     0.049 A 
ATOM     91  H   UNL A   1      42.558  31.278  31.979  1.00  0.00     0.167 HD
ATOM     92  C   UNL A   1      41.118  28.189  29.229  1.00  0.00     0.037 A 
ATOM     93  H   UNL A   1      43.433  26.605  29.041  1.00  0.00     0.065 H 
ATOM     94  H   UNL A   1      45.027  33.505  34.473  1.00  0.00     0.065 H 
ATOM     95  C   UNL A   1      42.421  33.713  33.342  1.00  0.00     0.037 A 
ATOM     96  C   UNL A   1      40.015  29.098  29.399  1.00  0.00     0.049 A 
ATOM     97  C   UNL A   1      41.100  33.537  32.647  1.00  0.00     0.074 A 
ATOM     98  C   UNL A   1      38.736  29.010  28.878  1.00  0.00    -0.036 A 
ATOM     99  N   UNL A   1      40.063  30.269  30.144  1.00  0.00    -0.354 N 
ATOM    100  N   UNL A   1      40.694  32.555  31.880  1.00  0.00    -0.248 NA
ATOM    101  C   UNL A   1      40.101  34.597  32.845  1.00  0.00    -0.034 C 
ATOM    102  C   UNL A   1      38.028  30.153  29.262  1.00  0.00    -0.036 A 
ATOM    103  H   UNL A   1      38.369  28.234  28.305  1.00  0.00     0.065 H 
ATOM    104  C   UNL A   1      38.844  30.926  30.072  1.00  0.00     0.049 A 
ATOM    105  H   UNL A   1      40.847  30.585  30.648  1.00  0.00     0.167 HD
ATOM    106  C   UNL A   1      39.389  32.862  31.525  1.00  0.00     0.074 A 
ATOM    107  C   UNL A   1      39.063  34.114  32.177  1.00  0.00    -0.034 C 
ATOM    108  H   UNL A   1      40.186  35.483  33.367  1.00  0.00     0.065 H 
ATOM    109  H   UNL A   1      37.059  30.383  28.989  1.00  0.00     0.065 H 
ATOM    110  C   UNL A   1      38.536  32.171  30.729  1.00  0.00     0.037 A 
ATOM    111  H   UNL A   1      38.139  34.571  32.129  1.00  0.00     0.065 H 
BRANCH  92 112
ATOM    112  C   UNL A   1      40.934  27.010  28.316  1.00  0.00     0.064 A 
ATOM    113  C   UNL A   1      40.055  25.963  28.631  1.00  0.00     0.173 A 
ATOM    114  C   UNL A   1      41.615  26.947  27.091  1.00  0.00     0.173 A 
ATOM    115  F   UNL A   1      39.387  25.968  29.795  1.00  0.00    -0.203 F 
ATOM    116  C   UNL A   1      39.888  24.882  27.768  1.00  0.00     0.198 A 
ATOM    117  C   UNL A   1      41.421  25.880  26.216  1.00  0.00     0.198 A 
ATOM    118  F   UNL A   1      42.463  27.924  26.737  1.00  0.00    -0.203 F 
ATOM    119  F   UNL A   1      39.081  23.869  28.115  1.00  0.00    -0.200 F 
ATOM    120  C   UNL A   1      40.564  24.846  26.559  1.00  0.00     0.200 A 
ATOM    121  F   UNL A   1      42.065  25.855  25.041  1.00  0.00    -0.200 F 
ATOM    122  F   UNL A   1      40.394  23.811  25.726  1.00  0.00    -0.200 F 
ENDBRANCH  92 112
BRANCH  95 123
ATOM    123  C   UNL A   1      42.696  34.913  34.177  1.00  0.00     0.064 A 
ATOM    124  C   UNL A   1      43.155  36.104  33.601  1.00  0.00     0.173 A 
ATOM    125  C   UNL A   1      42.506  34.892  35.567  1.00  0.00     0.173 A 
ATOM    126  F   UNL A   1      43.369  36.168  32.278  1.00  0.00    -0.203 F 
ATOM    127  C   UNL A   1      43.438  37.221  34.383  1.00  0.00     0.198 A 
ATOM    128  C   UNL A   1      42.758  36.020  36.345  1.00  0.00     0.198 A 
ATOM    129  F   UNL A   1      42.060  33.780  36.169  1.00  0.00    -0.203 F 
ATOM    130  F   UNL A   1      43.922  38.332  33.812  1.00  0.00    -0.200 F 
ATOM    131  C   UNL A   1      43.233  37.181  35.755  1.00  0.00     0.200 A 
ATOM    132  F   UNL A   1      42.543  35.982  37.667  1.00  0.00    -0.200 F 
ATOM    133  F   UNL A   1      43.501  38.257  36.506  1.00  0.00    -0.200 F 
ENDBRANCH  95 123
BRANCH 110 134
ATOM    134  C   UNL A   1      37.158  32.737  30.548  1.00  0.00     0.064 A 
ATOM    135  C   UNL A   1      36.130  32.485  31.470  1.00  0.00     0.173 A 
ATOM    136  C   UNL A   1      36.871  33.568  29.455  1.00  0.00     0.173 A 
ATOM    137  F   UNL A   1      36.349  31.684  32.523  1.00  0.00    -0.203 F 
ATOM    138  C   UNL A   1      34.859  33.021  31.287  1.00  0.00     0.198 A 
ATOM    139  C   UNL A   1      35.607  34.129  29.292  1.00  0.00     0.198 A 
ATOM    140  F   UNL A   1      37.819  33.845  28.548  1.00  0.00    -0.203 F 
ATOM    141  F   UNL A   1      33.878  32.723  32.151  1.00  0.00    -0.200 F 
ATOM    142  C   UNL A   1      34.601  33.848  30.203  1.00  0.00     0.200 A 
ATOM    143  F   UNL A   1      35.364  34.939  28.254  1.00  0.00    -0.200 F 
ATOM    144  F   UNL A   1      33.377  34.368  30.032  1.00  0.00    -0.200 F 
ENDBRANCH 110 134
ENDBRANCH  75  78
ENDBRANCH  65  68
ENDBRANCH  61  64
ENDBRANCH  58  61
ENDBRANCH  55  58
ENDBRANCH  52  55
ENDBRANCH   1  52
TORSDOF 22
ENDMDL
MODEL 4
REMARK VINA RESULT:     -10.0      2.013      8.355
REMARK SMILES COc1ccc(/C=C/c2cc(OC)cc(OC)c2/C=C/C(=O)NCCCCCCNC(=O)c2ccc(-c3c4nc(c(-c5c(F)c(F)c(F)c(F)c5F)c5ccc([nH]5)c(-c5c(F)c(F)c(F)c(F)c5F)c5nc(c(-c6c(F)c(F)c(F)c(F)c6F)c6ccc3[nH]6)C=C5)C=C4)cc2)cc1
REMARK SMILES IDX 25 1 24 4 23 7 21 8 22 9 20 11 19 12 18 15 9 16 10 17 11 18
REMARK SMILES IDX 15 20 14 21 8 23 7 24 6 27 3 28 4 29 97 30 5 31 96 33 2 37
REMARK SMILES IDX 1 38 12 42 13 43 16 47 17 48 26 52 27 55 28 58 29 61 30 64
REMARK SMILES IDX 31 65 32 67 33 68 34 69 95 70 35 71 94 73 36 75 37 78 38 79
REMARK SMILES IDX 88 80 39 81 93 82 87 83 89 84 40 85 92 86 86 88 85 90 41 92
REMARK SMILES IDX 73 95 53 96 72 97 54 98 57 99 71 100 90 101 55 102 56 104
REMARK SMILES IDX 70 106 91 107 58 110 42 112 43 113 51 114 44 115 45 116
REMARK SMILES IDX 49 117 52 118 46 119 47 120 50 121 48 122 74 123 75 124
REMARK SMILES IDX 83 125 76 126 77 127 81 128 84 129 78 130 79 131 82 132
REMARK SMILES IDX 80 133 59 134 60 135 68 136 61 137 62 138 66 139 69 140
REMARK SMILES IDX 63 141 64 142 67 143 65 144
REMARK H PARENT 25 2 25 3 24 5 24 6 23 10 19 13 20 14 10 19 14 22 7 25 8 26
REMARK H PARENT 4 32 97 34 5 35 96 36 1 39 1 40 1 41 13 44 13 45 13 46 17 49
REMARK H PARENT 17 50 17 51 26 53 26 54 27 56 27 57 28 59 28 60 29 62 29 63
REMARK H PARENT 30 66 34 72 95 74 35 76 94 77 93 87 87 89 89 91 92 93 86 94
REMARK H PARENT 54 103 57 105 90 108 55 109 91 111
REMARK Flexibility Score: inf
ROOT
ATOM      1  C   UNL A   1      38.932  20.723  25.722  1.00  0.00    -0.036 C 
ATOM      2  H   UNL A   1      39.308  20.551  24.736  1.00  0.00     0.028 H 
ATOM      3  H   UNL A   1      38.569  19.829  26.184  1.00  0.00     0.028 H 
ENDROOT
BRANCH   1   4
ATOM      4  C   UNL A   1      37.755  21.685  25.627  1.00  0.00     0.018 C 
ATOM      5  H   UNL A   1      36.844  21.126  25.661  1.00  0.00     0.049 H 
ATOM      6  H   UNL A   1      37.811  22.369  26.450  1.00  0.00     0.049 H 
BRANCH   4   7
ATOM      7  N   UNL A   1      37.795  22.447  24.399  1.00  0.00    -0.353 N 
ATOM      8  C   UNL A   1      36.756  22.951  23.683  1.00  0.00     0.244 C 
ATOM      9  O   UNL A   1      36.950  23.635  22.685  1.00  0.00    -0.270 OA
ATOM     10  H   UNL A   1      38.692  22.623  24.033  1.00  0.00     0.163 HD
BRANCH   8  11
ATOM     11  C   UNL A   1      35.378  22.708  24.152  1.00  0.00     0.004 C 
ATOM     12  C   UNL A   1      34.652  23.702  24.685  1.00  0.00    -0.045 C 
ATOM     13  H   UNL A   1      35.019  24.665  24.640  1.00  0.00     0.063 H 
ATOM     14  H   UNL A   1      34.968  21.765  24.067  1.00  0.00     0.068 H 
BRANCH  12  15
ATOM     15  C   UNL A   1      33.351  23.469  25.331  1.00  0.00     0.024 A 
ATOM     16  C   UNL A   1      32.740  24.546  26.037  1.00  0.00    -0.011 A 
ATOM     17  C   UNL A   1      31.531  24.340  26.726  1.00  0.00    -0.012 A 
ATOM     18  C   UNL A   1      30.919  23.093  26.744  1.00  0.00     0.123 A 
ATOM     19  H   UNL A   1      31.091  25.129  27.225  1.00  0.00     0.067 H 
ATOM     20  C   UNL A   1      32.712  22.209  25.335  1.00  0.00     0.130 A 
ATOM     21  C   UNL A   1      31.500  22.049  26.033  1.00  0.00     0.023 A 
ATOM     22  H   UNL A   1      31.029  21.132  26.016  1.00  0.00     0.070 H 
BRANCH  16  23
ATOM     23  C   UNL A   1      33.315  25.904  26.166  1.00  0.00    -0.054 C 
ATOM     24  C   UNL A   1      32.693  26.902  26.813  1.00  0.00    -0.054 C 
ATOM     25  H   UNL A   1      31.772  26.688  27.226  1.00  0.00     0.063 H 
ATOM     26  H   UNL A   1      34.235  26.091  25.738  1.00  0.00     0.063 H 
BRANCH  24  27
ATOM     27  C   UNL A   1      33.199  28.281  26.990  1.00  0.00    -0.025 A 
ATOM     28  C   UNL A   1      34.022  30.981  27.276  1.00  0.00     0.118 A 
ATOM     29  C   UNL A   1      34.956  29.945  27.290  1.00  0.00    -0.019 A 
ATOM     30  C   UNL A   1      32.672  30.667  27.142  1.00  0.00    -0.019 A 
ATOM     31  C   UNL A   1      34.550  28.607  27.155  1.00  0.00    -0.051 A 
ATOM     32  H   UNL A   1      35.958  30.164  27.401  1.00  0.00     0.066 H 
ATOM     33  C   UNL A   1      32.269  29.332  26.997  1.00  0.00    -0.051 A 
ATOM     34  H   UNL A   1      31.966  31.419  27.150  1.00  0.00     0.066 H 
ATOM     35  H   UNL A   1      35.257  27.856  27.177  1.00  0.00     0.063 H 
ATOM     36  H   UNL A   1      31.265  29.117  26.893  1.00  0.00     0.063 H 
BRANCH  28  37
ATOM     37  O   UNL A   1      34.547  32.242  27.359  1.00  0.00    -0.497 OA
BRANCH  37  38
ATOM     38  C   UNL A   1      34.157  33.025  28.481  1.00  0.00     0.078 C 
ATOM     39  H   UNL A   1      34.783  33.891  28.546  1.00  0.00     0.067 H 
ATOM     40  H   UNL A   1      34.259  32.443  29.373  1.00  0.00     0.067 H 
ATOM     41  H   UNL A   1      33.138  33.329  28.367  1.00  0.00     0.067 H 
ENDBRANCH  37  38
ENDBRANCH  28  37
ENDBRANCH  24  27
ENDBRANCH  16  23
BRANCH  18  42
ATOM     42  O   UNL A   1      29.774  23.006  27.487  1.00  0.00    -0.497 OA
BRANCH  42  43
ATOM     43  C   UNL A   1      28.695  23.841  27.075  1.00  0.00     0.078 C 
ATOM     44  H   UNL A   1      28.985  24.867  27.162  1.00  0.00     0.067 H 
ATOM     45  H   UNL A   1      27.844  23.656  27.695  1.00  0.00     0.067 H 
ATOM     46  H   UNL A   1      28.447  23.626  26.056  1.00  0.00     0.067 H 
ENDBRANCH  42  43
ENDBRANCH  18  42
BRANCH  20  47
ATOM     47  O   UNL A   1      33.085  21.005  24.798  1.00  0.00    -0.496 OA
BRANCH  47  48
ATOM     48  C   UNL A   1      32.446  20.429  23.676  1.00  0.00     0.078 C 
ATOM     49  H   UNL A   1      31.408  20.288  23.890  1.00  0.00     0.067 H 
ATOM     50  H   UNL A   1      32.896  19.483  23.456  1.00  0.00     0.067 H 
ATOM     51  H   UNL A   1      32.551  21.078  22.832  1.00  0.00     0.067 H 
ENDBRANCH  47  48
ENDBRANCH  20  47
ENDBRANCH  12  15
ENDBRANCH   8  11
ENDBRANCH   4   7
ENDBRANCH   1   4
BRANCH   1  52
ATOM     52  C   UNL A   1      40.083  21.239  26.593  1.00  0.00    -0.052 C 
ATOM     53  H   UNL A   1      39.668  21.603  27.510  1.00  0.00     0.027 H 
ATOM     54  H   UNL A   1      40.577  21.994  26.019  1.00  0.00     0.027 H 
BRANCH  52  55
ATOM     55  C   UNL A   1      41.153  20.195  26.938  1.00  0.00    -0.052 C 
ATOM     56  H   UNL A   1      40.666  19.352  27.381  1.00  0.00     0.027 H 
ATOM     57  H   UNL A   1      41.843  20.678  27.599  1.00  0.00     0.027 H 
BRANCH  55  58
ATOM     58  C   UNL A   1      41.973  19.701  25.746  1.00  0.00    -0.036 C 
ATOM     59  H   UNL A   1      42.331  20.555  25.209  1.00  0.00     0.028 H 
ATOM     60  H   UNL A   1      41.323  19.084  25.163  1.00  0.00     0.028 H 
BRANCH  58  61
ATOM     61  C   UNL A   1      43.171  18.838  26.117  1.00  0.00     0.018 C 
ATOM     62  H   UNL A   1      42.822  17.899  26.494  1.00  0.00     0.049 H 
ATOM     63  H   UNL A   1      43.744  19.355  26.860  1.00  0.00     0.049 H 
BRANCH  61  64
ATOM     64  N   UNL A   1      44.024  18.597  24.966  1.00  0.00    -0.352 N 
ATOM     65  C   UNL A   1      44.712  19.498  24.195  1.00  0.00     0.251 C 
ATOM     66  H   UNL A   1      44.121  17.654  24.703  1.00  0.00     0.163 HD
ATOM     67  O   UNL A   1      45.160  19.153  23.105  1.00  0.00    -0.269 OA
BRANCH  65  68
ATOM     68  C   UNL A   1      44.915  20.887  24.664  1.00  0.00     0.039 A 
ATOM     69  C   UNL A   1      44.509  21.940  23.839  1.00  0.00    -0.049 A 
ATOM     70  C   UNL A   1      45.547  21.158  25.881  1.00  0.00    -0.049 A 
ATOM     71  C   UNL A   1      44.705  23.260  24.249  1.00  0.00    -0.053 A 
ATOM     72  H   UNL A   1      44.066  21.741  22.929  1.00  0.00     0.063 H 
ATOM     73  C   UNL A   1      45.674  22.474  26.323  1.00  0.00    -0.053 A 
ATOM     74  H   UNL A   1      45.922  20.385  26.452  1.00  0.00     0.063 H 
ATOM     75  C   UNL A   1      45.268  23.539  25.506  1.00  0.00    -0.014 A 
ATOM     76  H   UNL A   1      44.433  24.036  23.626  1.00  0.00     0.063 H 
ATOM     77  H   UNL A   1      46.067  22.665  27.258  1.00  0.00     0.063 H 
BRANCH  75  78
ATOM     78  C   UNL A   1      45.452  24.939  25.968  1.00  0.00     0.031 A 
ATOM     79  C   UNL A   1      46.810  25.581  25.923  1.00  0.00     0.074 A 
ATOM     80  C   UNL A   1      44.404  25.618  26.474  1.00  0.00     0.049 A 
ATOM     81  N   UNL A   1      47.173  26.775  26.319  1.00  0.00    -0.248 NA
ATOM     82  C   UNL A   1      47.910  24.768  25.384  1.00  0.00    -0.034 C 
ATOM     83  C   UNL A   1      43.053  25.084  26.615  1.00  0.00    -0.036 A 
ATOM     84  N   UNL A   1      44.309  26.891  26.975  1.00  0.00    -0.354 N 
ATOM     85  C   UNL A   1      48.539  26.850  26.088  1.00  0.00     0.074 A 
ATOM     86  C   UNL A   1      48.952  25.564  25.569  1.00  0.00    -0.034 C 
ATOM     87  H   UNL A   1      47.879  23.823  24.969  1.00  0.00     0.065 H 
ATOM     88  C   UNL A   1      42.255  26.020  27.148  1.00  0.00    -0.036 A 
ATOM     89  H   UNL A   1      42.757  24.132  26.344  1.00  0.00     0.065 H 
ATOM     90  C   UNL A   1      43.050  27.213  27.423  1.00  0.00     0.049 A 
ATOM     91  H   UNL A   1      45.068  27.516  27.010  1.00  0.00     0.167 HD
ATOM     92  C   UNL A   1      49.368  27.905  26.272  1.00  0.00     0.037 A 
ATOM     93  H   UNL A   1      49.930  25.303  25.369  1.00  0.00     0.065 H 
ATOM     94  H   UNL A   1      41.246  25.915  27.336  1.00  0.00     0.065 H 
ATOM     95  C   UNL A   1      42.588  28.338  27.998  1.00  0.00     0.037 A 
ATOM     96  C   UNL A   1      48.944  29.188  26.769  1.00  0.00     0.049 A 
ATOM     97  C   UNL A   1      43.531  29.492  28.197  1.00  0.00     0.074 A 
ATOM     98  C   UNL A   1      49.692  30.342  26.927  1.00  0.00    -0.036 A 
ATOM     99  N   UNL A   1      47.657  29.484  27.197  1.00  0.00    -0.354 N 
ATOM    100  N   UNL A   1      44.804  29.579  27.898  1.00  0.00    -0.248 NA
ATOM    101  C   UNL A   1      42.971  30.709  28.800  1.00  0.00    -0.034 C 
ATOM    102  C   UNL A   1      48.873  31.319  27.501  1.00  0.00    -0.036 A 
ATOM    103  H   UNL A   1      50.683  30.460  26.666  1.00  0.00     0.065 H 
ATOM    104  C   UNL A   1      47.598  30.795  27.646  1.00  0.00     0.049 A 
ATOM    105  H   UNL A   1      46.899  28.856  27.184  1.00  0.00     0.167 HD
ATOM    106  C   UNL A   1      45.192  30.863  28.251  1.00  0.00     0.074 A 
ATOM    107  C   UNL A   1      44.013  31.527  28.769  1.00  0.00    -0.034 C 
ATOM    108  H   UNL A   1      42.017  30.881  29.155  1.00  0.00     0.065 H 
ATOM    109  H   UNL A   1      49.167  32.271  27.770  1.00  0.00     0.065 H 
ATOM    110  C   UNL A   1      46.415  31.442  28.156  1.00  0.00     0.037 A 
ATOM    111  H   UNL A   1      43.988  32.513  29.073  1.00  0.00     0.065 H 
BRANCH  92 112
ATOM    112  C   UNL A   1      50.819  27.717  25.934  1.00  0.00     0.064 A 
ATOM    113  C   UNL A   1      51.765  27.364  26.909  1.00  0.00     0.173 A 
ATOM    114  C   UNL A   1      51.263  27.852  24.610  1.00  0.00     0.173 A 
ATOM    115  F   UNL A   1      51.395  27.233  28.192  1.00  0.00    -0.203 F 
ATOM    116  C   UNL A   1      53.105  27.183  26.576  1.00  0.00     0.198 A 
ATOM    117  C   UNL A   1      52.598  27.639  24.275  1.00  0.00     0.198 A 
ATOM    118  F   UNL A   1      50.400  28.183  23.637  1.00  0.00    -0.203 F 
ATOM    119  F   UNL A   1      53.998  26.896  27.533  1.00  0.00    -0.200 F 
ATOM    120  C   UNL A   1      53.519  27.313  25.259  1.00  0.00     0.200 A 
ATOM    121  F   UNL A   1      52.993  27.750  22.999  1.00  0.00    -0.200 F 
ATOM    122  F   UNL A   1      54.806  27.128  24.939  1.00  0.00    -0.200 F 
ENDBRANCH  92 112
BRANCH  95 123
ATOM    123  C   UNL A   1      41.162  28.434  28.410  1.00  0.00     0.064 A 
ATOM    124  C   UNL A   1      40.192  28.949  27.540  1.00  0.00     0.173 A 
ATOM    125  C   UNL A   1      40.740  28.014  29.680  1.00  0.00     0.173 A 
ATOM    126  F   UNL A   1      40.548  29.381  26.321  1.00  0.00    -0.203 F 
ATOM    127  C   UNL A   1      38.860  29.064  27.931  1.00  0.00     0.198 A 
ATOM    128  C   UNL A   1      39.402  28.099  30.059  1.00  0.00     0.198 A 
ATOM    129  F   UNL A   1      41.626  27.505  30.549  1.00  0.00    -0.203 F 
ATOM    130  F   UNL A   1      37.962  29.605  27.097  1.00  0.00    -0.200 F 
ATOM    131  C   UNL A   1      38.465  28.633  29.189  1.00  0.00     0.200 A 
ATOM    132  F   UNL A   1      39.021  27.665  31.269  1.00  0.00    -0.200 F 
ATOM    133  F   UNL A   1      37.183  28.738  29.563  1.00  0.00    -0.200 F 
ENDBRANCH  95 123
BRANCH 110 134
ATOM    134  C   UNL A   1      46.531  32.873  28.591  1.00  0.00     0.064 A 
ATOM    135  C   UNL A   1      46.895  33.218  29.901  1.00  0.00     0.173 A 
ATOM    136  C   UNL A   1      46.306  33.912  27.676  1.00  0.00     0.173 A 
ATOM    137  F   UNL A   1      47.106  32.263  30.818  1.00  0.00    -0.203 F 
ATOM    138  C   UNL A   1      47.001  34.552  30.286  1.00  0.00     0.198 A 
ATOM    139  C   UNL A   1      46.445  35.245  28.055  1.00  0.00     0.198 A 
ATOM    140  F   UNL A   1      45.962  33.636  26.409  1.00  0.00    -0.203 F 
ATOM    141  F   UNL A   1      47.297  34.859  31.556  1.00  0.00    -0.200 F 
ATOM    142  C   UNL A   1      46.783  35.563  29.361  1.00  0.00     0.200 A 
ATOM    143  F   UNL A   1      46.249  36.220  27.157  1.00  0.00    -0.200 F 
ATOM    144  F   UNL A   1      46.892  36.847  29.732  1.00  0.00    -0.200 F 
ENDBRANCH 110 134
ENDBRANCH  75  78
ENDBRANCH  65  68
ENDBRANCH  61  64
ENDBRANCH  58  61
ENDBRANCH  55  58
ENDBRANCH  52  55
ENDBRANCH   1  52
TORSDOF 22
ENDMDL
MODEL 5
REMARK VINA RESULT:     -10.0      4.818     10.781
REMARK SMILES COc1ccc(/C=C/c2cc(OC)cc(OC)c2/C=C/C(=O)NCCCCCCNC(=O)c2ccc(-c3c4nc(c(-c5c(F)c(F)c(F)c(F)c5F)c5ccc([nH]5)c(-c5c(F)c(F)c(F)c(F)c5F)c5nc(c(-c6c(F)c(F)c(F)c(F)c6F)c6ccc3[nH]6)C=C5)C=C4)cc2)cc1
REMARK SMILES IDX 25 1 24 4 23 7 21 8 22 9 20 11 19 12 18 15 9 16 10 17 11 18
REMARK SMILES IDX 15 20 14 21 8 23 7 24 6 27 3 28 4 29 97 30 5 31 96 33 2 37
REMARK SMILES IDX 1 38 12 42 13 43 16 47 17 48 26 52 27 55 28 58 29 61 30 64
REMARK SMILES IDX 31 65 32 67 33 68 34 69 95 70 35 71 94 73 36 75 37 78 38 79
REMARK SMILES IDX 88 80 39 81 93 82 87 83 89 84 40 85 92 86 86 88 85 90 41 92
REMARK SMILES IDX 73 95 53 96 72 97 54 98 57 99 71 100 90 101 55 102 56 104
REMARK SMILES IDX 70 106 91 107 58 110 42 112 43 113 51 114 44 115 45 116
REMARK SMILES IDX 49 117 52 118 46 119 47 120 50 121 48 122 74 123 75 124
REMARK SMILES IDX 83 125 76 126 77 127 81 128 84 129 78 130 79 131 82 132
REMARK SMILES IDX 80 133 59 134 60 135 68 136 61 137 62 138 66 139 69 140
REMARK SMILES IDX 63 141 64 142 67 143 65 144
REMARK H PARENT 25 2 25 3 24 5 24 6 23 10 19 13 20 14 10 19 14 22 7 25 8 26
REMARK H PARENT 4 32 97 34 5 35 96 36 1 39 1 40 1 41 13 44 13 45 13 46 17 49
REMARK H PARENT 17 50 17 51 26 53 26 54 27 56 27 57 28 59 28 60 29 62 29 63
REMARK H PARENT 30 66 34 72 95 74 35 76 94 77 93 87 87 89 89 91 92 93 86 94
REMARK H PARENT 54 103 57 105 90 108 55 109 91 111
REMARK Flexibility Score: inf
ROOT
ATOM      1  C   UNL A   1      45.823  25.550  31.962  1.00  0.00    -0.036 C 
ATOM      2  H   UNL A   1      45.657  26.605  32.024  1.00  0.00     0.028 H 
ATOM      3  H   UNL A   1      46.862  25.296  32.005  1.00  0.00     0.028 H 
ENDROOT
BRANCH   1   4
ATOM      4  C   UNL A   1      45.299  25.058  30.619  1.00  0.00     0.018 C 
ATOM      5  H   UNL A   1      45.082  24.013  30.691  1.00  0.00     0.049 H 
ATOM      6  H   UNL A   1      44.415  25.613  30.379  1.00  0.00     0.049 H 
BRANCH   4   7
ATOM      7  N   UNL A   1      46.268  25.267  29.567  1.00  0.00    -0.353 N 
ATOM      8  C   UNL A   1      46.194  24.893  28.263  1.00  0.00     0.244 C 
ATOM      9  O   UNL A   1      47.076  25.197  27.468  1.00  0.00    -0.270 OA
ATOM     10  H   UNL A   1      47.089  25.744  29.830  1.00  0.00     0.163 HD
BRANCH   8  11
ATOM     11  C   UNL A   1      45.006  24.152  27.797  1.00  0.00     0.004 C 
ATOM     12  C   UNL A   1      43.891  24.804  27.437  1.00  0.00    -0.045 C 
ATOM     13  H   UNL A   1      43.919  25.833  27.362  1.00  0.00     0.063 H 
ATOM     14  H   UNL A   1      45.034  23.121  27.746  1.00  0.00     0.068 H 
BRANCH  12  15
ATOM     15  C   UNL A   1      42.629  24.106  27.144  1.00  0.00     0.024 A 
ATOM     16  C   UNL A   1      41.411  24.678  27.616  1.00  0.00    -0.011 A 
ATOM     17  C   UNL A   1      40.194  24.004  27.416  1.00  0.00    -0.012 A 
ATOM     18  C   UNL A   1      40.153  22.772  26.773  1.00  0.00     0.123 A 
ATOM     19  H   UNL A   1      39.316  24.431  27.751  1.00  0.00     0.067 H 
ATOM     20  C   UNL A   1      42.578  22.864  26.473  1.00  0.00     0.130 A 
ATOM     21  C   UNL A   1      41.336  22.227  26.290  1.00  0.00     0.023 A 
ATOM     22  H   UNL A   1      41.304  21.330  25.782  1.00  0.00     0.070 H 
BRANCH  16  23
ATOM     23  C   UNL A   1      41.313  25.942  28.379  1.00  0.00    -0.054 C 
ATOM     24  C   UNL A   1      40.141  26.502  28.717  1.00  0.00    -0.054 C 
ATOM     25  H   UNL A   1      39.285  26.011  28.416  1.00  0.00     0.063 H 
ATOM     26  H   UNL A   1      42.185  26.415  28.663  1.00  0.00     0.063 H 
BRANCH  24  27
ATOM     27  C   UNL A   1      39.956  27.756  29.480  1.00  0.00    -0.025 A 
ATOM     28  C   UNL A   1      39.691  30.240  30.826  1.00  0.00     0.118 A 
ATOM     29  C   UNL A   1      39.404  29.040  31.478  1.00  0.00    -0.019 A 
ATOM     30  C   UNL A   1      40.088  30.201  29.491  1.00  0.00    -0.019 A 
ATOM     31  C   UNL A   1      39.529  27.810  30.812  1.00  0.00    -0.051 A 
ATOM     32  H   UNL A   1      39.097  29.057  32.463  1.00  0.00     0.066 H 
ATOM     33  C   UNL A   1      40.222  28.971  28.831  1.00  0.00    -0.051 A 
ATOM     34  H   UNL A   1      40.285  31.079  28.988  1.00  0.00     0.066 H 
ATOM     35  H   UNL A   1      39.303  26.936  31.311  1.00  0.00     0.063 H 
ATOM     36  H   UNL A   1      40.524  28.960  27.844  1.00  0.00     0.063 H 
BRANCH  28  37
ATOM     37  O   UNL A   1      39.586  31.364  31.598  1.00  0.00    -0.497 OA
BRANCH  37  38
ATOM     38  C   UNL A   1      39.269  31.170  32.971  1.00  0.00     0.078 C 
ATOM     39  H   UNL A   1      39.324  32.107  33.486  1.00  0.00     0.067 H 
ATOM     40  H   UNL A   1      39.967  30.484  33.404  1.00  0.00     0.067 H 
ATOM     41  H   UNL A   1      38.279  30.775  33.057  1.00  0.00     0.067 H 
ENDBRANCH  37  38
ENDBRANCH  28  37
ENDBRANCH  24  27
ENDBRANCH  16  23
BRANCH  18  42
ATOM     42  O   UNL A   1      38.917  22.192  26.683  1.00  0.00    -0.497 OA
BRANCH  42  43
ATOM     43  C   UNL A   1      38.749  21.238  25.637  1.00  0.00     0.078 C 
ATOM     44  H   UNL A   1      39.510  21.381  24.898  1.00  0.00     0.067 H 
ATOM     45  H   UNL A   1      37.787  21.366  25.188  1.00  0.00     0.067 H 
ATOM     46  H   UNL A   1      38.826  20.249  26.040  1.00  0.00     0.067 H 
ENDBRANCH  42  43
ENDBRANCH  18  42
BRANCH  20  47
ATOM     47  O   UNL A   1      43.572  22.069  25.967  1.00  0.00    -0.496 OA
BRANCH  47  48
ATOM     48  C   UNL A   1      43.398  20.694  25.692  1.00  0.00     0.078 C 
ATOM     49  H   UNL A   1      43.542  20.518  24.647  1.00  0.00     0.067 H 
ATOM     50  H   UNL A   1      42.408  20.396  25.971  1.00  0.00     0.067 H 
ATOM     51  H   UNL A   1      44.112  20.125  26.250  1.00  0.00     0.067 H 
ENDBRANCH  47  48
ENDBRANCH  20  47
ENDBRANCH  12  15
ENDBRANCH   8  11
ENDBRANCH   4   7
ENDBRANCH   1   4
BRANCH   1  52
ATOM     52  C   UNL A   1      45.152  24.885  33.169  1.00  0.00    -0.052 C 
ATOM     53  H   UNL A   1      44.628  25.641  33.716  1.00  0.00     0.027 H 
ATOM     54  H   UNL A   1      45.936  24.420  33.729  1.00  0.00     0.027 H 
BRANCH  52  55
ATOM     55  C   UNL A   1      44.154  23.772  32.824  1.00  0.00    -0.052 C 
ATOM     56  H   UNL A   1      44.624  23.105  32.131  1.00  0.00     0.027 H 
ATOM     57  H   UNL A   1      43.289  24.256  32.421  1.00  0.00     0.027 H 
BRANCH  55  58
ATOM     58  C   UNL A   1      43.670  22.952  34.020  1.00  0.00    -0.036 C 
ATOM     59  H   UNL A   1      44.120  21.982  33.965  1.00  0.00     0.028 H 
ATOM     60  H   UNL A   1      42.603  22.921  33.957  1.00  0.00     0.028 H 
BRANCH  58  61
ATOM     61  C   UNL A   1      44.006  23.556  35.377  1.00  0.00     0.018 C 
ATOM     62  H   UNL A   1      44.449  24.519  35.231  1.00  0.00     0.049 H 
ATOM     63  H   UNL A   1      44.685  22.899  35.881  1.00  0.00     0.049 H 
BRANCH  61  64
ATOM     64  N   UNL A   1      42.816  23.703  36.197  1.00  0.00    -0.352 N 
ATOM     65  C   UNL A   1      42.071  24.826  36.450  1.00  0.00     0.251 C 
ATOM     66  H   UNL A   1      42.500  22.879  36.634  1.00  0.00     0.163 HD
ATOM     67  O   UNL A   1      41.265  24.830  37.375  1.00  0.00    -0.269 OA
BRANCH  65  68
ATOM     68  C   UNL A   1      42.236  26.038  35.616  1.00  0.00     0.039 A 
ATOM     69  C   UNL A   1      43.444  26.739  35.683  1.00  0.00    -0.049 A 
ATOM     70  C   UNL A   1      41.196  26.518  34.816  1.00  0.00    -0.049 A 
ATOM     71  C   UNL A   1      43.621  27.895  34.921  1.00  0.00    -0.053 A 
ATOM     72  H   UNL A   1      44.205  26.400  36.293  1.00  0.00     0.063 H 
ATOM     73  C   UNL A   1      41.398  27.629  33.999  1.00  0.00    -0.053 A 
ATOM     74  H   UNL A   1      40.276  26.050  34.829  1.00  0.00     0.063 H 
ATOM     75  C   UNL A   1      42.607  28.339  34.055  1.00  0.00    -0.014 A 
ATOM     76  H   UNL A   1      44.501  28.429  34.995  1.00  0.00     0.063 H 
ATOM     77  H   UNL A   1      40.656  27.931  33.350  1.00  0.00     0.063 H 
BRANCH  75  78
ATOM     78  C   UNL A   1      42.794  29.550  33.215  1.00  0.00     0.031 A 
ATOM     79  C   UNL A   1      43.169  29.418  31.766  1.00  0.00     0.074 A 
ATOM     80  C   UNL A   1      42.674  30.772  33.769  1.00  0.00     0.049 A 
ATOM     81  N   UNL A   1      43.414  30.357  30.887  1.00  0.00    -0.248 NA
ATOM     82  C   UNL A   1      43.311  28.052  31.239  1.00  0.00    -0.034 C 
ATOM     83  C   UNL A   1      42.364  31.024  35.173  1.00  0.00    -0.036 A 
ATOM     84  N   UNL A   1      42.809  32.026  33.231  1.00  0.00    -0.354 N 
ATOM     85  C   UNL A   1      43.748  29.698  29.713  1.00  0.00     0.074 A 
ATOM     86  C   UNL A   1      43.728  28.280  30.003  1.00  0.00    -0.034 C 
ATOM     87  H   UNL A   1      43.131  27.151  31.710  1.00  0.00     0.065 H 
ATOM     88  C   UNL A   1      42.315  32.346  35.390  1.00  0.00    -0.036 A 
ATOM     89  H   UNL A   1      42.206  30.297  35.889  1.00  0.00     0.065 H 
ATOM     90  C   UNL A   1      42.627  33.038  34.143  1.00  0.00     0.049 A 
ATOM     91  H   UNL A   1      43.016  32.187  32.283  1.00  0.00     0.167 HD
ATOM     92  C   UNL A   1      44.023  30.228  28.497  1.00  0.00     0.037 A 
ATOM     93  H   UNL A   1      44.004  27.544  29.334  1.00  0.00     0.065 H 
ATOM     94  H   UNL A   1      42.093  32.801  36.289  1.00  0.00     0.065 H 
ATOM     95  C   UNL A   1      42.711  34.373  33.995  1.00  0.00     0.037 A 
ATOM     96  C   UNL A   1      44.019  31.639  28.212  1.00  0.00     0.049 A 
ATOM     97  C   UNL A   1      43.024  34.935  32.637  1.00  0.00     0.074 A 
ATOM     98  C   UNL A   1      44.217  32.274  26.999  1.00  0.00    -0.036 A 
ATOM     99  N   UNL A   1      43.813  32.636  29.157  1.00  0.00    -0.354 N 
ATOM    100  N   UNL A   1      43.257  34.300  31.514  1.00  0.00    -0.248 NA
ATOM    101  C   UNL A   1      43.073  36.399  32.521  1.00  0.00    -0.034 C 
ATOM    102  C   UNL A   1      44.186  33.655  27.218  1.00  0.00    -0.036 A 
ATOM    103  H   UNL A   1      44.363  31.808  26.090  1.00  0.00     0.065 H 
ATOM    104  C   UNL A   1      43.909  33.882  28.557  1.00  0.00     0.049 A 
ATOM    105  H   UNL A   1      43.628  32.480  30.110  1.00  0.00     0.167 HD
ATOM    106  C   UNL A   1      43.455  35.282  30.554  1.00  0.00     0.074 A 
ATOM    107  C   UNL A   1      43.294  36.557  31.223  1.00  0.00    -0.034 C 
ATOM    108  H   UNL A   1      42.964  37.115  33.256  1.00  0.00     0.065 H 
ATOM    109  H   UNL A   1      44.342  34.383  26.503  1.00  0.00     0.065 H 
ATOM    110  C   UNL A   1      43.744  35.142  29.237  1.00  0.00     0.037 A 
ATOM    111  H   UNL A   1      43.345  37.472  30.749  1.00  0.00     0.065 H 
BRANCH  92 112
ATOM    112  C   UNL A   1      44.352  29.277  27.382  1.00  0.00     0.064 A 
ATOM    113  C   UNL A   1      45.674  28.908  27.093  1.00  0.00     0.173 A 
ATOM    114  C   UNL A   1      43.328  28.697  26.618  1.00  0.00     0.173 A 
ATOM    115  F   UNL A   1      46.692  29.441  27.786  1.00  0.00    -0.203 F 
ATOM    116  C   UNL A   1      45.961  28.016  26.061  1.00  0.00     0.198 A 
ATOM    117  C   UNL A   1      43.616  27.781  25.608  1.00  0.00     0.198 A 
ATOM    118  F   UNL A   1      42.046  29.011  26.855  1.00  0.00    -0.203 F 
ATOM    119  F   UNL A   1      47.235  27.718  25.772  1.00  0.00    -0.200 F 
ATOM    120  C   UNL A   1      44.932  27.448  25.326  1.00  0.00     0.200 A 
ATOM    121  F   UNL A   1      42.619  27.223  24.909  1.00  0.00    -0.200 F 
ATOM    122  F   UNL A   1      45.209  26.583  24.341  1.00  0.00    -0.200 F 
ENDBRANCH  92 112
BRANCH  95 123
ATOM    123  C   UNL A   1      42.477  35.268  35.160  1.00  0.00     0.064 A 
ATOM    124  C   UNL A   1      43.549  35.808  35.883  1.00  0.00     0.173 A 
ATOM    125  C   UNL A   1      41.178  35.598  35.576  1.00  0.00     0.173 A 
ATOM    126  F   UNL A   1      44.809  35.508  35.535  1.00  0.00    -0.203 F 
ATOM    127  C   UNL A   1      43.333  36.625  36.990  1.00  0.00     0.198 A 
ATOM    128  C   UNL A   1      40.963  36.442  36.665  1.00  0.00     0.198 A 
ATOM    129  F   UNL A   1      40.116  35.114  34.916  1.00  0.00    -0.203 F 
ATOM    130  F   UNL A   1      44.376  37.090  37.691  1.00  0.00    -0.200 F 
ATOM    131  C   UNL A   1      42.040  36.946  37.377  1.00  0.00     0.200 A 
ATOM    132  F   UNL A   1      39.713  36.763  37.024  1.00  0.00    -0.200 F 
ATOM    133  F   UNL A   1      41.833  37.736  38.439  1.00  0.00    -0.200 F 
ENDBRANCH  95 123
BRANCH 110 134
ATOM    134  C   UNL A   1      43.872  36.398  28.426  1.00  0.00     0.064 A 
ATOM    135  C   UNL A   1      45.118  36.997  28.187  1.00  0.00     0.173 A 
ATOM    136  C   UNL A   1      42.737  36.992  27.855  1.00  0.00     0.173 A 
ATOM    137  F   UNL A   1      46.232  36.478  28.724  1.00  0.00    -0.203 F 
ATOM    138  C   UNL A   1      45.218  38.161  27.430  1.00  0.00     0.198 A 
ATOM    139  C   UNL A   1      42.844  38.138  27.071  1.00  0.00     0.198 A 
ATOM    140  F   UNL A   1      41.522  36.456  28.048  1.00  0.00    -0.203 F 
ATOM    141  F   UNL A   1      46.411  38.747  27.260  1.00  0.00    -0.200 F 
ATOM    142  C   UNL A   1      44.082  38.726  26.867  1.00  0.00     0.200 A 
ATOM    143  F   UNL A   1      41.749  38.673  26.515  1.00  0.00    -0.200 F 
ATOM    144  F   UNL A   1      44.182  39.843  26.133  1.00  0.00    -0.200 F 
ENDBRANCH 110 134
ENDBRANCH  75  78
ENDBRANCH  65  68
ENDBRANCH  61  64
ENDBRANCH  58  61
ENDBRANCH  55  58
ENDBRANCH  52  55
ENDBRANCH   1  52
TORSDOF 22
ENDMDL
MODEL 6
REMARK VINA RESULT:      -9.9      4.449     10.142
REMARK SMILES COc1ccc(/C=C/c2cc(OC)cc(OC)c2/C=C/C(=O)NCCCCCCNC(=O)c2ccc(-c3c4nc(c(-c5c(F)c(F)c(F)c(F)c5F)c5ccc([nH]5)c(-c5c(F)c(F)c(F)c(F)c5F)c5nc(c(-c6c(F)c(F)c(F)c(F)c6F)c6ccc3[nH]6)C=C5)C=C4)cc2)cc1
REMARK SMILES IDX 25 1 24 4 23 7 21 8 22 9 20 11 19 12 18 15 9 16 10 17 11 18
REMARK SMILES IDX 15 20 14 21 8 23 7 24 6 27 3 28 4 29 97 30 5 31 96 33 2 37
REMARK SMILES IDX 1 38 12 42 13 43 16 47 17 48 26 52 27 55 28 58 29 61 30 64
REMARK SMILES IDX 31 65 32 67 33 68 34 69 95 70 35 71 94 73 36 75 37 78 38 79
REMARK SMILES IDX 88 80 39 81 93 82 87 83 89 84 40 85 92 86 86 88 85 90 41 92
REMARK SMILES IDX 73 95 53 96 72 97 54 98 57 99 71 100 90 101 55 102 56 104
REMARK SMILES IDX 70 106 91 107 58 110 42 112 43 113 51 114 44 115 45 116
REMARK SMILES IDX 49 117 52 118 46 119 47 120 50 121 48 122 74 123 75 124
REMARK SMILES IDX 83 125 76 126 77 127 81 128 84 129 78 130 79 131 82 132
REMARK SMILES IDX 80 133 59 134 60 135 68 136 61 137 62 138 66 139 69 140
REMARK SMILES IDX 63 141 64 142 67 143 65 144
REMARK H PARENT 25 2 25 3 24 5 24 6 23 10 19 13 20 14 10 19 14 22 7 25 8 26
REMARK H PARENT 4 32 97 34 5 35 96 36 1 39 1 40 1 41 13 44 13 45 13 46 17 49
REMARK H PARENT 17 50 17 51 26 53 26 54 27 56 27 57 28 59 28 60 29 62 29 63
REMARK H PARENT 30 66 34 72 95 74 35 76 94 77 93 87 87 89 89 91 92 93 86 94
REMARK H PARENT 54 103 57 105 90 108 55 109 91 111
REMARK Flexibility Score: inf
ROOT
ATOM      1  C   UNL A   1      44.971  21.219  24.147  1.00  0.00    -0.036 C 
ATOM      2  H   UNL A   1      44.329  20.837  23.381  1.00  0.00     0.028 H 
ATOM      3  H   UNL A   1      45.964  20.824  24.082  1.00  0.00     0.028 H 
ENDROOT
BRANCH   1   4
ATOM      4  C   UNL A   1      44.412  20.796  25.499  1.00  0.00     0.018 C 
ATOM      5  H   UNL A   1      45.209  20.419  26.104  1.00  0.00     0.049 H 
ATOM      6  H   UNL A   1      43.960  21.651  25.959  1.00  0.00     0.049 H 
BRANCH   4   7
ATOM      7  N   UNL A   1      43.404  19.771  25.355  1.00  0.00    -0.353 N 
ATOM      8  C   UNL A   1      42.148  19.741  25.872  1.00  0.00     0.244 C 
ATOM      9  O   UNL A   1      41.379  18.823  25.611  1.00  0.00    -0.270 OA
ATOM     10  H   UNL A   1      43.661  18.991  24.811  1.00  0.00     0.163 HD
BRANCH   8  11
ATOM     11  C   UNL A   1      41.696  20.860  26.721  1.00  0.00     0.004 C 
ATOM     12  C   UNL A   1      41.180  21.970  26.172  1.00  0.00    -0.045 C 
ATOM     13  H   UNL A   1      40.980  21.976  25.160  1.00  0.00     0.063 H 
ATOM     14  H   UNL A   1      41.776  20.788  27.748  1.00  0.00     0.068 H 
BRANCH  12  15
ATOM     15  C   UNL A   1      40.890  23.178  26.961  1.00  0.00     0.024 A 
ATOM     16  C   UNL A   1      39.563  23.699  26.941  1.00  0.00    -0.011 A 
ATOM     17  C   UNL A   1      39.265  24.890  27.625  1.00  0.00    -0.012 A 
ATOM     18  C   UNL A   1      40.249  25.586  28.318  1.00  0.00     0.123 A 
ATOM     19  H   UNL A   1      38.299  25.254  27.615  1.00  0.00     0.067 H 
ATOM     20  C   UNL A   1      41.881  23.878  27.683  1.00  0.00     0.130 A 
ATOM     21  C   UNL A   1      41.536  25.064  28.359  1.00  0.00     0.023 A 
ATOM     22  H   UNL A   1      42.261  25.560  28.901  1.00  0.00     0.070 H 
BRANCH  16  23
ATOM     23  C   UNL A   1      38.435  23.107  26.187  1.00  0.00    -0.054 C 
ATOM     24  C   UNL A   1      37.221  23.677  26.120  1.00  0.00    -0.054 C 
ATOM     25  H   UNL A   1      37.095  24.565  26.629  1.00  0.00     0.063 H 
ATOM     26  H   UNL A   1      38.589  22.215  25.691  1.00  0.00     0.063 H 
BRANCH  24  27
ATOM     27  C   UNL A   1      36.047  23.155  25.387  1.00  0.00    -0.025 A 
ATOM     28  C   UNL A   1      33.813  22.011  24.065  1.00  0.00     0.118 A 
ATOM     29  C   UNL A   1      34.415  23.170  23.576  1.00  0.00    -0.019 A 
ATOM     30  C   UNL A   1      34.312  21.435  25.231  1.00  0.00    -0.019 A 
ATOM     31  C   UNL A   1      35.517  23.742  24.231  1.00  0.00    -0.051 A 
ATOM     32  H   UNL A   1      34.046  23.613  22.719  1.00  0.00     0.066 H 
ATOM     33  C   UNL A   1      35.419  22.001  25.879  1.00  0.00    -0.051 A 
ATOM     34  H   UNL A   1      33.866  20.590  25.618  1.00  0.00     0.066 H 
ATOM     35  H   UNL A   1      35.942  24.604  23.857  1.00  0.00     0.063 H 
ATOM     36  H   UNL A   1      35.780  21.558  26.738  1.00  0.00     0.063 H 
BRANCH  28  37
ATOM     37  O   UNL A   1      32.785  21.521  23.306  1.00  0.00    -0.497 OA
BRANCH  37  38
ATOM     38  C   UNL A   1      31.721  22.420  23.014  1.00  0.00     0.078 C 
ATOM     39  H   UNL A   1      32.125  23.376  22.749  1.00  0.00     0.067 H 
ATOM     40  H   UNL A   1      31.096  22.524  23.876  1.00  0.00     0.067 H 
ATOM     41  H   UNL A   1      31.145  22.038  22.198  1.00  0.00     0.067 H 
ENDBRANCH  37  38
ENDBRANCH  28  37
ENDBRANCH  24  27
ENDBRANCH  16  23
BRANCH  18  42
ATOM     42  O   UNL A   1      39.848  26.756  28.901  1.00  0.00    -0.497 OA
BRANCH  42  43
ATOM     43  C   UNL A   1      39.023  26.628  30.057  1.00  0.00     0.078 C 
ATOM     44  H   UNL A   1      38.179  26.011  29.826  1.00  0.00     0.067 H 
ATOM     45  H   UNL A   1      38.685  27.595  30.364  1.00  0.00     0.067 H 
ATOM     46  H   UNL A   1      39.586  26.179  30.849  1.00  0.00     0.067 H 
ENDBRANCH  42  43
ENDBRANCH  18  42
BRANCH  20  47
ATOM     47  O   UNL A   1      43.222  23.647  27.834  1.00  0.00    -0.496 OA
BRANCH  47  48
ATOM     48  C   UNL A   1      43.775  23.006  28.966  1.00  0.00     0.078 C 
ATOM     49  H   UNL A   1      43.536  21.964  28.938  1.00  0.00     0.067 H 
ATOM     50  H   UNL A   1      43.369  23.441  29.856  1.00  0.00     0.067 H 
ATOM     51  H   UNL A   1      44.838  23.128  28.963  1.00  0.00     0.067 H 
ENDBRANCH  47  48
ENDBRANCH  20  47
ENDBRANCH  12  15
ENDBRANCH   8  11
ENDBRANCH   4   7
ENDBRANCH   1   4
BRANCH   1  52
ATOM     52  C   UNL A   1      45.082  22.737  23.971  1.00  0.00    -0.052 C 
ATOM     53  H   UNL A   1      44.266  23.192  24.491  1.00  0.00     0.027 H 
ATOM     54  H   UNL A   1      45.069  22.918  22.917  1.00  0.00     0.027 H 
BRANCH  52  55
ATOM     55  C   UNL A   1      46.384  23.358  24.495  1.00  0.00    -0.052 C 
ATOM     56  H   UNL A   1      46.675  24.139  23.825  1.00  0.00     0.027 H 
ATOM     57  H   UNL A   1      47.097  22.561  24.549  1.00  0.00     0.027 H 
BRANCH  55  58
ATOM     58  C   UNL A   1      46.290  23.947  25.903  1.00  0.00    -0.036 C 
ATOM     59  H   UNL A   1      46.530  23.175  26.605  1.00  0.00     0.028 H 
ATOM     60  H   UNL A   1      45.293  24.316  26.013  1.00  0.00     0.028 H 
BRANCH  58  61
ATOM     61  C   UNL A   1      47.219  25.127  26.157  1.00  0.00     0.018 C 
ATOM     62  H   UNL A   1      48.223  24.768  26.246  1.00  0.00     0.049 H 
ATOM     63  H   UNL A   1      46.909  25.613  27.059  1.00  0.00     0.049 H 
BRANCH  61  64
ATOM     64  N   UNL A   1      47.157  26.090  25.072  1.00  0.00    -0.352 N 
ATOM     65  C   UNL A   1      46.350  27.190  24.935  1.00  0.00     0.251 C 
ATOM     66  H   UNL A   1      47.782  25.930  24.329  1.00  0.00     0.163 HD
ATOM     67  O   UNL A   1      46.237  27.733  23.840  1.00  0.00    -0.269 OA
BRANCH  65  68
ATOM     68  C   UNL A   1      45.607  27.725  26.099  1.00  0.00     0.039 A 
ATOM     69  C   UNL A   1      44.654  26.911  26.718  1.00  0.00    -0.049 A 
ATOM     70  C   UNL A   1      45.804  29.034  26.548  1.00  0.00    -0.049 A 
ATOM     71  C   UNL A   1      43.927  27.396  27.806  1.00  0.00    -0.053 A 
ATOM     72  H   UNL A   1      44.489  25.953  26.371  1.00  0.00     0.063 H 
ATOM     73  C   UNL A   1      45.132  29.491  27.680  1.00  0.00    -0.053 A 
ATOM     74  H   UNL A   1      46.445  29.663  26.040  1.00  0.00     0.063 H 
ATOM     75  C   UNL A   1      44.175  28.683  28.312  1.00  0.00    -0.014 A 
ATOM     76  H   UNL A   1      43.202  26.806  28.243  1.00  0.00     0.063 H 
ATOM     77  H   UNL A   1      45.340  30.429  28.056  1.00  0.00     0.063 H 
BRANCH  75  78
ATOM     78  C   UNL A   1      43.431  29.200  29.489  1.00  0.00     0.031 A 
ATOM     79  C   UNL A   1      44.079  29.226  30.844  1.00  0.00     0.074 A 
ATOM     80  C   UNL A   1      42.153  29.601  29.348  1.00  0.00     0.049 A 
ATOM     81  N   UNL A   1      43.576  29.602  31.994  1.00  0.00    -0.248 NA
ATOM     82  C   UNL A   1      45.466  28.745  30.926  1.00  0.00    -0.034 C 
ATOM     83  C   UNL A   1      41.404  29.574  28.095  1.00  0.00    -0.036 A 
ATOM     84  N   UNL A   1      41.254  30.095  30.258  1.00  0.00    -0.354 N 
ATOM     85  C   UNL A   1      44.577  29.393  32.930  1.00  0.00     0.074 A 
ATOM     86  C   UNL A   1      45.698  28.807  32.228  1.00  0.00    -0.034 C 
ATOM     87  H   UNL A   1      46.095  28.441  30.166  1.00  0.00     0.065 H 
ATOM     88  C   UNL A   1      40.166  30.044  28.304  1.00  0.00    -0.036 A 
ATOM     89  H   UNL A   1      41.771  29.245  27.187  1.00  0.00     0.065 H 
ATOM     90  C   UNL A   1      40.021  30.373  29.718  1.00  0.00     0.049 A 
ATOM     91  H   UNL A   1      41.470  30.238  31.207  1.00  0.00     0.167 HD
ATOM     92  C   UNL A   1      44.569  29.686  34.253  1.00  0.00     0.037 A 
ATOM     93  H   UNL A   1      46.565  28.479  32.683  1.00  0.00     0.065 H 
ATOM     94  H   UNL A   1      39.435  30.156  27.584  1.00  0.00     0.065 H 
ATOM     95  C   UNL A   1      38.896  30.832  30.298  1.00  0.00     0.037 A 
ATOM     96  C   UNL A   1      43.457  30.290  34.939  1.00  0.00     0.049 A 
ATOM     97  C   UNL A   1      38.913  31.144  31.768  1.00  0.00     0.074 A 
ATOM     98  C   UNL A   1      43.374  30.689  36.262  1.00  0.00    -0.036 A 
ATOM     99  N   UNL A   1      42.229  30.574  34.357  1.00  0.00    -0.354 N 
ATOM    100  N   UNL A   1      39.894  31.018  32.629  1.00  0.00    -0.248 NA
ATOM    101  C   UNL A   1      37.670  31.672  32.348  1.00  0.00    -0.034 C 
ATOM    102  C   UNL A   1      42.079  31.164  36.494  1.00  0.00    -0.036 A 
ATOM    103  H   UNL A   1      44.136  30.644  36.956  1.00  0.00     0.065 H 
ATOM    104  C   UNL A   1      41.373  31.118  35.302  1.00  0.00     0.049 A 
ATOM    105  H   UNL A   1      42.001  30.413  33.413  1.00  0.00     0.167 HD
ATOM    106  C   UNL A   1      39.399  31.475  33.842  1.00  0.00     0.074 A 
ATOM    107  C   UNL A   1      38.034  31.899  33.602  1.00  0.00    -0.034 C 
ATOM    108  H   UNL A   1      36.755  31.826  31.896  1.00  0.00     0.065 H 
ATOM    109  H   UNL A   1      41.711  31.495  37.400  1.00  0.00     0.065 H 
ATOM    110  C   UNL A   1      40.017  31.537  35.047  1.00  0.00     0.037 A 
ATOM    111  H   UNL A   1      37.424  32.324  34.317  1.00  0.00     0.065 H 
BRANCH  92 112
ATOM    112  C   UNL A   1      45.801  29.358  35.046  1.00  0.00     0.064 A 
ATOM    113  C   UNL A   1      46.847  30.281  35.202  1.00  0.00     0.173 A 
ATOM    114  C   UNL A   1      45.921  28.118  35.692  1.00  0.00     0.173 A 
ATOM    115  F   UNL A   1      46.788  31.477  34.597  1.00  0.00    -0.203 F 
ATOM    116  C   UNL A   1      47.978  29.964  35.951  1.00  0.00     0.198 A 
ATOM    117  C   UNL A   1      47.040  27.817  36.466  1.00  0.00     0.198 A 
ATOM    118  F   UNL A   1      44.949  27.200  35.581  1.00  0.00    -0.203 F 
ATOM    119  F   UNL A   1      48.985  30.844  36.043  1.00  0.00    -0.200 F 
ATOM    120  C   UNL A   1      48.070  28.736  36.588  1.00  0.00     0.200 A 
ATOM    121  F   UNL A   1      47.120  26.635  37.093  1.00  0.00    -0.200 F 
ATOM    122  F   UNL A   1      49.154  28.438  37.316  1.00  0.00    -0.200 F 
ENDBRANCH  92 112
BRANCH  95 123
ATOM    123  C   UNL A   1      37.670  31.042  29.483  1.00  0.00     0.064 A 
ATOM    124  C   UNL A   1      37.351  32.306  28.971  1.00  0.00     0.173 A 
ATOM    125  C   UNL A   1      36.793  29.985  29.202  1.00  0.00     0.173 A 
ATOM    126  F   UNL A   1      38.150  33.353  29.227  1.00  0.00    -0.203 F 
ATOM    127  C   UNL A   1      36.190  32.512  28.229  1.00  0.00     0.198 A 
ATOM    128  C   UNL A   1      35.647  30.184  28.432  1.00  0.00     0.198 A 
ATOM    129  F   UNL A   1      37.054  28.752  29.662  1.00  0.00    -0.203 F 
ATOM    130  F   UNL A   1      35.885  33.741  27.791  1.00  0.00    -0.200 F 
ATOM    131  C   UNL A   1      35.342  31.449  27.955  1.00  0.00     0.200 A 
ATOM    132  F   UNL A   1      34.840  29.151  28.155  1.00  0.00    -0.200 F 
ATOM    133  F   UNL A   1      34.229  31.646  27.237  1.00  0.00    -0.200 F 
ENDBRANCH  95 123
BRANCH 110 134
ATOM    134  C   UNL A   1      39.234  32.114  36.189  1.00  0.00     0.064 A 
ATOM    135  C   UNL A   1      39.340  33.466  36.547  1.00  0.00     0.173 A 
ATOM    136  C   UNL A   1      38.343  31.309  36.915  1.00  0.00     0.173 A 
ATOM    137  F   UNL A   1      40.190  34.273  35.894  1.00  0.00    -0.203 F 
ATOM    138  C   UNL A   1      38.603  33.985  37.608  1.00  0.00     0.198 A 
ATOM    139  C   UNL A   1      37.583  31.839  37.955  1.00  0.00     0.198 A 
ATOM    140  F   UNL A   1      38.200  30.011  36.610  1.00  0.00    -0.203 F 
ATOM    141  F   UNL A   1      38.760  35.266  37.967  1.00  0.00    -0.200 F 
ATOM    142  C   UNL A   1      37.720  33.173  38.306  1.00  0.00     0.200 A 
ATOM    143  F   UNL A   1      36.720  31.057  38.618  1.00  0.00    -0.200 F 
ATOM    144  F   UNL A   1      37.007  33.676  39.323  1.00  0.00    -0.200 F 
ENDBRANCH 110 134
ENDBRANCH  75  78
ENDBRANCH  65  68
ENDBRANCH  61  64
ENDBRANCH  58  61
ENDBRANCH  55  58
ENDBRANCH  52  55
ENDBRANCH   1  52
TORSDOF 22
ENDMDL
MODEL 7
REMARK VINA RESULT:      -9.9      3.355      6.601
REMARK SMILES COc1ccc(/C=C/c2cc(OC)cc(OC)c2/C=C/C(=O)NCCCCCCNC(=O)c2ccc(-c3c4nc(c(-c5c(F)c(F)c(F)c(F)c5F)c5ccc([nH]5)c(-c5c(F)c(F)c(F)c(F)c5F)c5nc(c(-c6c(F)c(F)c(F)c(F)c6F)c6ccc3[nH]6)C=C5)C=C4)cc2)cc1
REMARK SMILES IDX 25 1 24 4 23 7 21 8 22 9 20 11 19 12 18 15 9 16 10 17 11 18
REMARK SMILES IDX 15 20 14 21 8 23 7 24 6 27 3 28 4 29 97 30 5 31 96 33 2 37
REMARK SMILES IDX 1 38 12 42 13 43 16 47 17 48 26 52 27 55 28 58 29 61 30 64
REMARK SMILES IDX 31 65 32 67 33 68 34 69 95 70 35 71 94 73 36 75 37 78 38 79
REMARK SMILES IDX 88 80 39 81 93 82 87 83 89 84 40 85 92 86 86 88 85 90 41 92
REMARK SMILES IDX 73 95 53 96 72 97 54 98 57 99 71 100 90 101 55 102 56 104
REMARK SMILES IDX 70 106 91 107 58 110 42 112 43 113 51 114 44 115 45 116
REMARK SMILES IDX 49 117 52 118 46 119 47 120 50 121 48 122 74 123 75 124
REMARK SMILES IDX 83 125 76 126 77 127 81 128 84 129 78 130 79 131 82 132
REMARK SMILES IDX 80 133 59 134 60 135 68 136 61 137 62 138 66 139 69 140
REMARK SMILES IDX 63 141 64 142 67 143 65 144
REMARK H PARENT 25 2 25 3 24 5 24 6 23 10 19 13 20 14 10 19 14 22 7 25 8 26
REMARK H PARENT 4 32 97 34 5 35 96 36 1 39 1 40 1 41 13 44 13 45 13 46 17 49
REMARK H PARENT 17 50 17 51 26 53 26 54 27 56 27 57 28 59 28 60 29 62 29 63
REMARK H PARENT 30 66 34 72 95 74 35 76 94 77 93 87 87 89 89 91 92 93 86 94
REMARK H PARENT 54 103 57 105 90 108 55 109 91 111
REMARK Flexibility Score: inf
ROOT
ATOM      1  C   UNL A   1      38.823  23.512  26.723  1.00  0.00    -0.036 C 
ATOM      2  H   UNL A   1      39.408  22.913  26.056  1.00  0.00     0.028 H 
ATOM      3  H   UNL A   1      38.677  23.041  27.673  1.00  0.00     0.028 H 
ENDROOT
BRANCH   1   4
ATOM      4  C   UNL A   1      37.445  23.709  26.107  1.00  0.00     0.018 C 
ATOM      5  H   UNL A   1      36.780  22.966  26.494  1.00  0.00     0.049 H 
ATOM      6  H   UNL A   1      37.101  24.692  26.359  1.00  0.00     0.049 H 
BRANCH   4   7
ATOM      7  N   UNL A   1      37.489  23.597  24.667  1.00  0.00    -0.353 N 
ATOM      8  C   UNL A   1      36.481  23.288  23.811  1.00  0.00     0.244 C 
ATOM      9  O   UNL A   1      36.658  23.291  22.598  1.00  0.00    -0.270 OA
ATOM     10  H   UNL A   1      38.366  23.767  24.251  1.00  0.00     0.163 HD
BRANCH   8  11
ATOM     11  C   UNL A   1      35.142  22.994  24.357  1.00  0.00     0.004 C 
ATOM     12  C   UNL A   1      34.188  23.936  24.374  1.00  0.00    -0.045 C 
ATOM     13  H   UNL A   1      34.359  24.825  23.879  1.00  0.00     0.063 H 
ATOM     14  H   UNL A   1      34.937  22.053  24.729  1.00  0.00     0.068 H 
BRANCH  12  15
ATOM     15  C   UNL A   1      32.907  23.748  25.072  1.00  0.00     0.024 A 
ATOM     16  C   UNL A   1      32.425  24.801  25.904  1.00  0.00    -0.011 A 
ATOM     17  C   UNL A   1      31.241  24.630  26.641  1.00  0.00    -0.012 A 
ATOM     18  C   UNL A   1      30.527  23.438  26.587  1.00  0.00     0.123 A 
ATOM     19  H   UNL A   1      30.894  25.403  27.232  1.00  0.00     0.067 H 
ATOM     20  C   UNL A   1      32.166  22.547  25.005  1.00  0.00     0.130 A 
ATOM     21  C   UNL A   1      30.981  22.422  25.756  1.00  0.00     0.023 A 
ATOM     22  H   UNL A   1      30.435  21.549  25.686  1.00  0.00     0.070 H 
BRANCH  16  23
ATOM     23  C   UNL A   1      33.118  26.092  26.116  1.00  0.00    -0.054 C 
ATOM     24  C   UNL A   1      32.533  27.147  26.706  1.00  0.00    -0.054 C 
ATOM     25  H   UNL A   1      31.555  27.028  27.011  1.00  0.00     0.063 H 
ATOM     26  H   UNL A   1      34.094  26.185  25.796  1.00  0.00     0.063 H 
BRANCH  24  27
ATOM     27  C   UNL A   1      33.154  28.465  26.959  1.00  0.00    -0.025 A 
ATOM     28  C   UNL A   1      34.203  31.065  27.394  1.00  0.00     0.118 A 
ATOM     29  C   UNL A   1      35.046  29.954  27.344  1.00  0.00    -0.019 A 
ATOM     30  C   UNL A   1      32.831  30.875  27.251  1.00  0.00    -0.019 A 
ATOM     31  C   UNL A   1      34.529  28.666  27.135  1.00  0.00    -0.051 A 
ATOM     32  H   UNL A   1      36.064  30.081  27.461  1.00  0.00     0.066 H 
ATOM     33  C   UNL A   1      32.317  29.589  27.032  1.00  0.00    -0.051 A 
ATOM     34  H   UNL A   1      32.192  31.682  27.306  1.00  0.00     0.066 H 
ATOM     35  H   UNL A   1      35.169  27.858  27.110  1.00  0.00     0.063 H 
ATOM     36  H   UNL A   1      31.298  29.467  26.922  1.00  0.00     0.063 H 
BRANCH  28  37
ATOM     37  O   UNL A   1      34.834  32.270  27.547  1.00  0.00    -0.497 OA
BRANCH  37  38
ATOM     38  C   UNL A   1      34.101  33.296  28.206  1.00  0.00     0.078 C 
ATOM     39  H   UNL A   1      33.448  32.857  28.933  1.00  0.00     0.067 H 
ATOM     40  H   UNL A   1      33.523  33.839  27.489  1.00  0.00     0.067 H 
ATOM     41  H   UNL A   1      34.781  33.962  28.696  1.00  0.00     0.067 H 
ENDBRANCH  37  38
ENDBRANCH  28  37
ENDBRANCH  24  27
ENDBRANCH  16  23
BRANCH  18  42
ATOM     42  O   UNL A   1      29.419  23.374  27.386  1.00  0.00    -0.497 OA
BRANCH  42  43
ATOM     43  C   UNL A   1      28.619  22.202  27.253  1.00  0.00     0.078 C 
ATOM     44  H   UNL A   1      27.847  22.211  27.995  1.00  0.00     0.067 H 
ATOM     45  H   UNL A   1      29.232  21.335  27.387  1.00  0.00     0.067 H 
ATOM     46  H   UNL A   1      28.178  22.179  26.279  1.00  0.00     0.067 H 
ENDBRANCH  42  43
ENDBRANCH  18  42
BRANCH  20  47
ATOM     47  O   UNL A   1      32.408  21.373  24.344  1.00  0.00    -0.496 OA
BRANCH  47  48
ATOM     48  C   UNL A   1      32.545  20.129  25.001  1.00  0.00     0.078 C 
ATOM     49  H   UNL A   1      32.648  19.351  24.274  1.00  0.00     0.067 H 
ATOM     50  H   UNL A   1      31.678  19.944  25.601  1.00  0.00     0.067 H 
ATOM     51  H   UNL A   1      33.414  20.149  25.626  1.00  0.00     0.067 H 
ENDBRANCH  47  48
ENDBRANCH  20  47
ENDBRANCH  12  15
ENDBRANCH   8  11
ENDBRANCH   4   7
ENDBRANCH   1   4
BRANCH   1  52
ATOM     52  C   UNL A   1      39.577  24.820  26.984  1.00  0.00    -0.052 C 
ATOM     53  H   UNL A   1      39.193  25.250  27.886  1.00  0.00     0.027 H 
ATOM     54  H   UNL A   1      39.422  25.432  26.121  1.00  0.00     0.027 H 
BRANCH  52  55
ATOM     55  C   UNL A   1      41.097  24.674  27.137  1.00  0.00    -0.052 C 
ATOM     56  H   UNL A   1      41.337  24.761  28.176  1.00  0.00     0.027 H 
ATOM     57  H   UNL A   1      41.536  25.443  26.537  1.00  0.00     0.027 H 
BRANCH  55  58
ATOM     58  C   UNL A   1      41.667  23.351  26.626  1.00  0.00    -0.036 C 
ATOM     59  H   UNL A   1      41.661  23.375  25.556  1.00  0.00     0.028 H 
ATOM     60  H   UNL A   1      41.050  22.576  27.029  1.00  0.00     0.028 H 
BRANCH  58  61
ATOM     61  C   UNL A   1      43.089  23.055  27.086  1.00  0.00     0.018 C 
ATOM     62  H   UNL A   1      43.116  22.084  27.534  1.00  0.00     0.049 H 
ATOM     63  H   UNL A   1      43.379  23.806  27.791  1.00  0.00     0.049 H 
BRANCH  61  64
ATOM     64  N   UNL A   1      44.020  23.088  25.972  1.00  0.00    -0.352 N 
ATOM     65  C   UNL A   1      44.577  24.170  25.340  1.00  0.00     0.251 C 
ATOM     66  H   UNL A   1      44.289  22.209  25.621  1.00  0.00     0.163 HD
ATOM     67  O   UNL A   1      45.125  24.027  24.251  1.00  0.00    -0.269 OA
BRANCH  65  68
ATOM     68  C   UNL A   1      44.518  25.513  25.960  1.00  0.00     0.039 A 
ATOM     69  C   UNL A   1      45.178  25.721  27.174  1.00  0.00    -0.049 A 
ATOM     70  C   UNL A   1      43.776  26.548  25.383  1.00  0.00    -0.049 A 
ATOM     71  C   UNL A   1      45.124  26.973  27.790  1.00  0.00    -0.053 A 
ATOM     72  H   UNL A   1      45.705  24.950  27.614  1.00  0.00     0.063 H 
ATOM     73  C   UNL A   1      43.784  27.817  25.959  1.00  0.00    -0.053 A 
ATOM     74  H   UNL A   1      43.220  26.372  24.532  1.00  0.00     0.063 H 
ATOM     75  C   UNL A   1      44.445  28.039  27.177  1.00  0.00    -0.014 A 
ATOM     76  H   UNL A   1      45.585  27.116  28.702  1.00  0.00     0.063 H 
ATOM     77  H   UNL A   1      43.302  28.597  25.488  1.00  0.00     0.063 H 
BRANCH  75  78
ATOM     78  C   UNL A   1      44.406  29.385  27.806  1.00  0.00     0.031 A 
ATOM     79  C   UNL A   1      43.218  29.806  28.622  1.00  0.00     0.074 A 
ATOM     80  C   UNL A   1      45.421  30.246  27.601  1.00  0.00     0.049 A 
ATOM     81  N   UNL A   1      42.986  30.952  29.213  1.00  0.00    -0.248 NA
ATOM     82  C   UNL A   1      42.136  28.823  28.776  1.00  0.00    -0.034 C 
ATOM     83  C   UNL A   1      46.602  29.968  26.788  1.00  0.00    -0.036 A 
ATOM     84  N   UNL A   1      45.622  31.528  28.045  1.00  0.00    -0.354 N 
ATOM     85  C   UNL A   1      41.734  30.829  29.796  1.00  0.00     0.074 A 
ATOM     86  C   UNL A   1      41.229  29.520  29.444  1.00  0.00    -0.034 C 
ATOM     87  H   UNL A   1      42.095  27.844  28.451  1.00  0.00     0.065 H 
ATOM     88  C   UNL A   1      47.414  31.034  26.799  1.00  0.00    -0.036 A 
ATOM     89  H   UNL A   1      46.783  29.085  26.283  1.00  0.00     0.065 H 
ATOM     90  C   UNL A   1      46.793  32.089  27.593  1.00  0.00     0.049 A 
ATOM     91  H   UNL A   1      44.989  32.002  28.631  1.00  0.00     0.167 HD
ATOM     92  C   UNL A   1      41.075  31.720  30.575  1.00  0.00     0.037 A 
ATOM     93  H   UNL A   1      40.286  29.174  29.683  1.00  0.00     0.065 H 
ATOM     94  H   UNL A   1      48.327  31.099  26.324  1.00  0.00     0.065 H 
ATOM     95  C   UNL A   1      47.305  33.319  27.788  1.00  0.00     0.037 A 
ATOM     96  C   UNL A   1      41.594  33.013  30.938  1.00  0.00     0.049 A 
ATOM     97  C   UNL A   1      46.551  34.291  28.651  1.00  0.00     0.074 A 
ATOM     98  C   UNL A   1      41.036  33.962  31.777  1.00  0.00    -0.036 A 
ATOM     99  N   UNL A   1      42.792  33.543  30.477  1.00  0.00    -0.354 N 
ATOM    100  N   UNL A   1      45.404  34.133  29.265  1.00  0.00    -0.248 NA
ATOM    101  C   UNL A   1      47.167  35.609  28.859  1.00  0.00    -0.034 C 
ATOM    102  C   UNL A   1      41.867  35.086  31.780  1.00  0.00    -0.036 A 
ATOM    103  H   UNL A   1      40.157  33.857  32.308  1.00  0.00     0.065 H 
ATOM    104  C   UNL A   1      42.975  34.817  30.991  1.00  0.00     0.049 A 
ATOM    105  H   UNL A   1      43.417  33.081  29.873  1.00  0.00     0.167 HD
ATOM    106  C   UNL A   1      45.172  35.316  29.952  1.00  0.00     0.074 A 
ATOM    107  C   UNL A   1      46.309  36.176  29.694  1.00  0.00    -0.034 C 
ATOM    108  H   UNL A   1      48.038  35.991  28.459  1.00  0.00     0.065 H 
ATOM    109  H   UNL A   1      41.688  35.968  32.285  1.00  0.00     0.065 H 
ATOM    110  C   UNL A   1      44.113  35.660  30.726  1.00  0.00     0.037 A 
ATOM    111  H   UNL A   1      46.435  37.112  30.110  1.00  0.00     0.065 H 
BRANCH  92 112
ATOM    112  C   UNL A   1      39.719  31.329  31.087  1.00  0.00     0.064 A 
ATOM    113  C   UNL A   1      39.552  30.707  32.334  1.00  0.00     0.173 A 
ATOM    114  C   UNL A   1      38.567  31.615  30.339  1.00  0.00     0.173 A 
ATOM    115  F   UNL A   1      40.621  30.401  33.085  1.00  0.00    -0.203 F 
ATOM    116  C   UNL A   1      38.286  30.360  32.799  1.00  0.00     0.198 A 
ATOM    117  C   UNL A   1      37.299  31.296  30.822  1.00  0.00     0.198 A 
ATOM    118  F   UNL A   1      38.668  32.213  29.143  1.00  0.00    -0.203 F 
ATOM    119  F   UNL A   1      38.157  29.721  33.971  1.00  0.00    -0.200 F 
ATOM    120  C   UNL A   1      37.161  30.661  32.047  1.00  0.00     0.200 A 
ATOM    121  F   UNL A   1      36.213  31.601  30.100  1.00  0.00    -0.200 F 
ATOM    122  F   UNL A   1      35.943  30.336  32.501  1.00  0.00    -0.200 F 
ENDBRANCH  92 112
BRANCH  95 123
ATOM    123  C   UNL A   1      48.606  33.690  27.170  1.00  0.00     0.064 A 
ATOM    124  C   UNL A   1      48.656  34.452  25.995  1.00  0.00     0.173 A 
ATOM    125  C   UNL A   1      49.824  33.289  27.739  1.00  0.00     0.173 A 
ATOM    126  F   UNL A   1      47.518  34.844  25.403  1.00  0.00    -0.203 F 
ATOM    127  C   UNL A   1      49.872  34.780  25.400  1.00  0.00     0.198 A 
ATOM    128  C   UNL A   1      51.041  33.645  27.160  1.00  0.00     0.198 A 
ATOM    129  F   UNL A   1      49.833  32.565  28.867  1.00  0.00    -0.203 F 
ATOM    130  F   UNL A   1      49.889  35.469  24.251  1.00  0.00    -0.200 F 
ATOM    131  C   UNL A   1      51.064  34.381  25.986  1.00  0.00     0.200 A 
ATOM    132  F   UNL A   1      52.191  33.272  27.740  1.00  0.00    -0.200 F 
ATOM    133  F   UNL A   1      52.233  34.700  25.416  1.00  0.00    -0.200 F 
ENDBRANCH  95 123
BRANCH 110 134
ATOM    134  C   UNL A   1      44.151  37.012  31.377  1.00  0.00     0.064 A 
ATOM    135  C   UNL A   1      43.744  38.169  30.696  1.00  0.00     0.173 A 
ATOM    136  C   UNL A   1      44.570  37.146  32.709  1.00  0.00     0.173 A 
ATOM    137  F   UNL A   1      43.350  38.097  29.416  1.00  0.00    -0.203 F 
ATOM    138  C   UNL A   1      43.784  39.414  31.317  1.00  0.00     0.198 A 
ATOM    139  C   UNL A   1      44.577  38.388  33.337  1.00  0.00     0.198 A 
ATOM    140  F   UNL A   1      44.964  36.070  33.407  1.00  0.00    -0.203 F 
ATOM    141  F   UNL A   1      43.442  40.514  30.630  1.00  0.00    -0.200 F 
ATOM    142  C   UNL A   1      44.193  39.522  32.638  1.00  0.00     0.200 A 
ATOM    143  F   UNL A   1      44.957  38.488  34.618  1.00  0.00    -0.200 F 
ATOM    144  F   UNL A   1      44.223  40.721  33.236  1.00  0.00    -0.200 F 
ENDBRANCH 110 134
ENDBRANCH  75  78
ENDBRANCH  65  68
ENDBRANCH  61  64
ENDBRANCH  58  61
ENDBRANCH  55  58
ENDBRANCH  52  55
ENDBRANCH   1  52
TORSDOF 22
ENDMDL
MODEL 8
REMARK VINA RESULT:      -9.8      5.433     14.182
REMARK SMILES COc1ccc(/C=C/c2cc(OC)cc(OC)c2/C=C/C(=O)NCCCCCCNC(=O)c2ccc(-c3c4nc(c(-c5c(F)c(F)c(F)c(F)c5F)c5ccc([nH]5)c(-c5c(F)c(F)c(F)c(F)c5F)c5nc(c(-c6c(F)c(F)c(F)c(F)c6F)c6ccc3[nH]6)C=C5)C=C4)cc2)cc1
REMARK SMILES IDX 25 1 24 4 23 7 21 8 22 9 20 11 19 12 18 15 9 16 10 17 11 18
REMARK SMILES IDX 15 20 14 21 8 23 7 24 6 27 3 28 4 29 97 30 5 31 96 33 2 37
REMARK SMILES IDX 1 38 12 42 13 43 16 47 17 48 26 52 27 55 28 58 29 61 30 64
REMARK SMILES IDX 31 65 32 67 33 68 34 69 95 70 35 71 94 73 36 75 37 78 38 79
REMARK SMILES IDX 88 80 39 81 93 82 87 83 89 84 40 85 92 86 86 88 85 90 41 92
REMARK SMILES IDX 73 95 53 96 72 97 54 98 57 99 71 100 90 101 55 102 56 104
REMARK SMILES IDX 70 106 91 107 58 110 42 112 43 113 51 114 44 115 45 116
REMARK SMILES IDX 49 117 52 118 46 119 47 120 50 121 48 122 74 123 75 124
REMARK SMILES IDX 83 125 76 126 77 127 81 128 84 129 78 130 79 131 82 132
REMARK SMILES IDX 80 133 59 134 60 135 68 136 61 137 62 138 66 139 69 140
REMARK SMILES IDX 63 141 64 142 67 143 65 144
REMARK H PARENT 25 2 25 3 24 5 24 6 23 10 19 13 20 14 10 19 14 22 7 25 8 26
REMARK H PARENT 4 32 97 34 5 35 96 36 1 39 1 40 1 41 13 44 13 45 13 46 17 49
REMARK H PARENT 17 50 17 51 26 53 26 54 27 56 27 57 28 59 28 60 29 62 29 63
REMARK H PARENT 30 66 34 72 95 74 35 76 94 77 93 87 87 89 89 91 92 93 86 94
REMARK H PARENT 54 103 57 105 90 108 55 109 91 111
REMARK Flexibility Score: inf
ROOT
ATOM      1  C   UNL A   1      50.367  33.188  26.524  1.00  0.00    -0.036 C 
ATOM      2  H   UNL A   1      50.515  32.791  25.541  1.00  0.00     0.028 H 
ATOM      3  H   UNL A   1      51.025  34.004  26.738  1.00  0.00     0.028 H 
ENDROOT
BRANCH   1   4
ATOM      4  C   UNL A   1      50.673  32.091  27.535  1.00  0.00     0.018 C 
ATOM      5  H   UNL A   1      50.010  31.268  27.369  1.00  0.00     0.049 H 
ATOM      6  H   UNL A   1      51.692  31.789  27.407  1.00  0.00     0.049 H 
BRANCH   4   7
ATOM      7  N   UNL A   1      50.505  32.563  28.891  1.00  0.00    -0.353 N 
ATOM      8  C   UNL A   1      49.625  32.136  29.833  1.00  0.00     0.244 C 
ATOM      9  O   UNL A   1      49.642  32.595  30.969  1.00  0.00    -0.270 OA
ATOM     10  H   UNL A   1      51.109  33.290  29.169  1.00  0.00     0.163 HD
BRANCH   8  11
ATOM     11  C   UNL A   1      48.667  31.067  29.486  1.00  0.00     0.004 C 
ATOM     12  C   UNL A   1      48.158  30.270  30.437  1.00  0.00    -0.045 C 
ATOM     13  H   UNL A   1      48.339  30.499  31.427  1.00  0.00     0.063 H 
ATOM     14  H   UNL A   1      48.386  30.932  28.502  1.00  0.00     0.068 H 
BRANCH  12  15
ATOM     15  C   UNL A   1      47.351  29.081  30.121  1.00  0.00     0.024 A 
ATOM     16  C   UNL A   1      46.015  29.017  30.614  1.00  0.00    -0.011 A 
ATOM     17  C   UNL A   1      45.238  27.866  30.391  1.00  0.00    -0.012 A 
ATOM     18  C   UNL A   1      45.754  26.773  29.704  1.00  0.00     0.123 A 
ATOM     19  H   UNL A   1      44.268  27.834  30.741  1.00  0.00     0.067 H 
ATOM     20  C   UNL A   1      47.863  27.975  29.406  1.00  0.00     0.130 A 
ATOM     21  C   UNL A   1      47.047  26.846  29.201  1.00  0.00     0.023 A 
ATOM     22  H   UNL A   1      47.420  26.050  28.661  1.00  0.00     0.070 H 
BRANCH  16  23
ATOM     23  C   UNL A   1      45.362  30.071  31.422  1.00  0.00    -0.054 C 
ATOM     24  C   UNL A   1      44.198  29.884  32.063  1.00  0.00    -0.054 C 
ATOM     25  H   UNL A   1      43.757  28.956  31.969  1.00  0.00     0.063 H 
ATOM     26  H   UNL A   1      45.823  30.991  31.495  1.00  0.00     0.063 H 
BRANCH  24  27
ATOM     27  C   UNL A   1      43.484  30.880  32.892  1.00  0.00    -0.025 A 
ATOM     28  C   UNL A   1      41.974  32.705  34.454  1.00  0.00     0.118 A 
ATOM     29  C   UNL A   1      43.260  33.029  34.021  1.00  0.00    -0.019 A 
ATOM     30  C   UNL A   1      41.450  31.457  34.126  1.00  0.00    -0.019 A 
ATOM     31  C   UNL A   1      44.012  32.125  33.254  1.00  0.00    -0.051 A 
ATOM     32  H   UNL A   1      43.665  33.947  34.268  1.00  0.00     0.066 H 
ATOM     33  C   UNL A   1      42.197  30.559  33.351  1.00  0.00    -0.051 A 
ATOM     34  H   UNL A   1      40.509  31.194  34.455  1.00  0.00     0.066 H 
ATOM     35  H   UNL A   1      44.964  32.382  32.951  1.00  0.00     0.063 H 
ATOM     36  H   UNL A   1      41.791  29.641  33.112  1.00  0.00     0.063 H 
BRANCH  28  37
ATOM     37  O   UNL A   1      41.325  33.692  35.145  1.00  0.00    -0.497 OA
BRANCH  37  38
ATOM     38  C   UNL A   1      41.740  33.911  36.488  1.00  0.00     0.078 C 
ATOM     39  H   UNL A   1      41.133  34.676  36.928  1.00  0.00     0.067 H 
ATOM     40  H   UNL A   1      42.765  34.218  36.498  1.00  0.00     0.067 H 
ATOM     41  H   UNL A   1      41.632  33.006  37.047  1.00  0.00     0.067 H 
ENDBRANCH  37  38
ENDBRANCH  28  37
ENDBRANCH  24  27
ENDBRANCH  16  23
BRANCH  18  42
ATOM     42  O   UNL A   1      44.919  25.696  29.594  1.00  0.00    -0.497 OA
BRANCH  42  43
ATOM     43  C   UNL A   1      44.157  25.374  30.755  1.00  0.00     0.078 C 
ATOM     44  H   UNL A   1      44.114  26.226  31.401  1.00  0.00     0.067 H 
ATOM     45  H   UNL A   1      44.618  24.558  31.271  1.00  0.00     0.067 H 
ATOM     46  H   UNL A   1      43.165  25.096  30.465  1.00  0.00     0.067 H 
ENDBRANCH  42  43
ENDBRANCH  18  42
BRANCH  20  47
ATOM     47  O   UNL A   1      49.101  27.740  28.871  1.00  0.00    -0.496 OA
BRANCH  47  48
ATOM     48  C   UNL A   1      50.015  26.809  29.415  1.00  0.00     0.078 C 
ATOM     49  H   UNL A   1      50.312  26.116  28.656  1.00  0.00     0.067 H 
ATOM     50  H   UNL A   1      49.548  26.279  30.219  1.00  0.00     0.067 H 
ATOM     51  H   UNL A   1      50.877  27.326  29.781  1.00  0.00     0.067 H 
ENDBRANCH  47  48
ENDBRANCH  20  47
ENDBRANCH  12  15
ENDBRANCH   8  11
ENDBRANCH   4   7
ENDBRANCH   1   4
BRANCH   1  52
ATOM     52  C   UNL A   1      48.937  33.731  26.615  1.00  0.00    -0.052 C 
ATOM     53  H   UNL A   1      48.761  34.035  27.626  1.00  0.00     0.027 H 
ATOM     54  H   UNL A   1      48.295  32.940  26.289  1.00  0.00     0.027 H 
BRANCH  52  55
ATOM     55  C   UNL A   1      48.639  34.928  25.702  1.00  0.00    -0.052 C 
ATOM     56  H   UNL A   1      47.641  34.824  25.331  1.00  0.00     0.027 H 
ATOM     57  H   UNL A   1      49.379  34.909  24.929  1.00  0.00     0.027 H 
BRANCH  55  58
ATOM     58  C   UNL A   1      48.756  36.294  26.378  1.00  0.00    -0.036 C 
ATOM     59  H   UNL A   1      47.844  36.829  26.211  1.00  0.00     0.028 H 
ATOM     60  H   UNL A   1      49.607  36.776  25.945  1.00  0.00     0.028 H 
BRANCH  58  61
ATOM     61  C   UNL A   1      49.006  36.237  27.879  1.00  0.00     0.018 C 
ATOM     62  H   UNL A   1      49.991  36.602  28.082  1.00  0.00     0.049 H 
ATOM     63  H   UNL A   1      48.904  35.221  28.200  1.00  0.00     0.049 H 
BRANCH  61  64
ATOM     64  N   UNL A   1      48.044  37.047  28.604  1.00  0.00    -0.352 N 
ATOM     65  C   UNL A   1      46.726  36.786  28.883  1.00  0.00     0.251 C 
ATOM     66  H   UNL A   1      48.385  37.905  28.943  1.00  0.00     0.163 HD
ATOM     67  O   UNL A   1      45.991  37.691  29.265  1.00  0.00    -0.269 OA
BRANCH  65  68
ATOM     68  C   UNL A   1      46.183  35.419  28.720  1.00  0.00     0.039 A 
ATOM     69  C   UNL A   1      45.407  35.134  27.593  1.00  0.00    -0.049 A 
ATOM     70  C   UNL A   1      46.385  34.435  29.693  1.00  0.00    -0.049 A 
ATOM     71  C   UNL A   1      44.867  33.858  27.423  1.00  0.00    -0.053 A 
ATOM     72  H   UNL A   1      45.235  35.867  26.886  1.00  0.00     0.063 H 
ATOM     73  C   UNL A   1      45.909  33.142  29.487  1.00  0.00    -0.053 A 
ATOM     74  H   UNL A   1      46.886  34.667  30.565  1.00  0.00     0.063 H 
ATOM     75  C   UNL A   1      45.132  32.843  28.358  1.00  0.00    -0.014 A 
ATOM     76  H   UNL A   1      44.269  33.659  26.606  1.00  0.00     0.063 H 
ATOM     77  H   UNL A   1      46.131  32.399  30.168  1.00  0.00     0.063 H 
BRANCH  75  78
ATOM     78  C   UNL A   1      44.590  31.472  28.173  1.00  0.00     0.031 A 
ATOM     79  C   UNL A   1      45.337  30.467  27.343  1.00  0.00     0.074 A 
ATOM     80  C   UNL A   1      43.400  31.147  28.713  1.00  0.00     0.049 A 
ATOM     81  N   UNL A   1      45.004  29.238  27.036  1.00  0.00    -0.248 NA
ATOM     82  C   UNL A   1      46.615  30.904  26.762  1.00  0.00    -0.034 C 
ATOM     83  C   UNL A   1      42.562  32.052  29.494  1.00  0.00    -0.036 A 
ATOM     84  N   UNL A   1      42.681  29.979  28.680  1.00  0.00    -0.354 N 
ATOM     85  C   UNL A   1      46.021  28.764  26.221  1.00  0.00     0.074 A 
ATOM     86  C   UNL A   1      46.957  29.851  26.035  1.00  0.00    -0.034 C 
ATOM     87  H   UNL A   1      47.116  31.798  26.889  1.00  0.00     0.065 H 
ATOM     88  C   UNL A   1      41.452  31.410  29.883  1.00  0.00    -0.036 A 
ATOM     89  H   UNL A   1      42.790  33.035  29.714  1.00  0.00     0.065 H 
ATOM     90  C   UNL A   1      41.481  30.053  29.346  1.00  0.00     0.049 A 
ATOM     91  H   UNL A   1      42.995  29.165  28.224  1.00  0.00     0.167 HD
ATOM     92  C   UNL A   1      46.171  27.525  25.694  1.00  0.00     0.037 A 
ATOM     93  H   UNL A   1      47.783  29.812  25.416  1.00  0.00     0.065 H 
ATOM     94  H   UNL A   1      40.699  31.809  30.465  1.00  0.00     0.065 H 
ATOM     95  C   UNL A   1      40.509  29.135  29.500  1.00  0.00     0.037 A 
ATOM     96  C   UNL A   1      45.246  26.442  25.902  1.00  0.00     0.049 A 
ATOM     97  C   UNL A   1      40.698  27.770  28.900  1.00  0.00     0.074 A 
ATOM     98  C   UNL A   1      45.341  25.130  25.470  1.00  0.00    -0.036 A 
ATOM     99  N   UNL A   1      44.048  26.547  26.597  1.00  0.00    -0.354 N 
ATOM    100  N   UNL A   1      41.704  27.308  28.199  1.00  0.00    -0.248 NA
ATOM    101  C   UNL A   1      39.623  26.794  29.123  1.00  0.00    -0.034 C 
ATOM    102  C   UNL A   1      44.178  24.457  25.855  1.00  0.00    -0.036 A 
ATOM    103  H   UNL A   1      46.135  24.721  24.953  1.00  0.00     0.065 H 
ATOM    104  C   UNL A   1      43.383  25.331  26.580  1.00  0.00     0.049 A 
ATOM    105  H   UNL A   1      43.721  27.365  27.036  1.00  0.00     0.167 HD
ATOM    106  C   UNL A   1      41.399  25.984  27.919  1.00  0.00     0.074 A 
ATOM    107  C   UNL A   1      40.120  25.710  28.544  1.00  0.00    -0.034 C 
ATOM    108  H   UNL A   1      38.718  26.919  29.604  1.00  0.00     0.065 H 
ATOM    109  H   UNL A   1      43.950  23.474  25.638  1.00  0.00     0.065 H 
ATOM    110  C   UNL A   1      42.111  25.075  27.209  1.00  0.00     0.037 A 
ATOM    111  H   UNL A   1      39.657  24.789  28.539  1.00  0.00     0.065 H 
BRANCH  92 112
ATOM    112  C   UNL A   1      47.381  27.273  24.842  1.00  0.00     0.064 A 
ATOM    113  C   UNL A   1      48.479  26.539  25.316  1.00  0.00     0.173 A 
ATOM    114  C   UNL A   1      47.427  27.737  23.518  1.00  0.00     0.173 A 
ATOM    115  F   UNL A   1      48.491  26.081  26.577  1.00  0.00    -0.203 F 
ATOM    116  C   UNL A   1      49.589  26.305  24.508  1.00  0.00     0.198 A 
ATOM    117  C   UNL A   1      48.526  27.474  22.702  1.00  0.00     0.198 A 
ATOM    118  F   UNL A   1      46.403  28.440  23.012  1.00  0.00    -0.203 F 
ATOM    119  F   UNL A   1      50.646  25.644  25.001  1.00  0.00    -0.200 F 
ATOM    120  C   UNL A   1      49.608  26.765  23.200  1.00  0.00     0.200 A 
ATOM    121  F   UNL A   1      48.535  27.907  21.435  1.00  0.00    -0.200 F 
ATOM    122  F   UNL A   1      50.672  26.530  22.421  1.00  0.00    -0.200 F 
ENDBRANCH  92 112
BRANCH  95 123
ATOM    123  C   UNL A   1      39.281  29.472  30.269  1.00  0.00     0.064 A 
ATOM    124  C   UNL A   1      38.209  30.139  29.662  1.00  0.00     0.173 A 
ATOM    125  C   UNL A   1      39.156  29.137  31.625  1.00  0.00     0.173 A 
ATOM    126  F   UNL A   1      38.288  30.497  28.372  1.00  0.00    -0.203 F 
ATOM    127  C   UNL A   1      37.069  30.479  30.385  1.00  0.00     0.198 A 
ATOM    128  C   UNL A   1      38.001  29.449  32.341  1.00  0.00     0.198 A 
ATOM    129  F   UNL A   1      40.149  28.491  32.254  1.00  0.00    -0.203 F 
ATOM    130  F   UNL A   1      36.079  31.160  29.792  1.00  0.00    -0.200 F 
ATOM    131  C   UNL A   1      36.963  30.129  31.723  1.00  0.00     0.200 A 
ATOM    132  F   UNL A   1      37.896  29.093  33.628  1.00  0.00    -0.200 F 
ATOM    133  F   UNL A   1      35.864  30.452  32.418  1.00  0.00    -0.200 F 
ENDBRANCH  95 123
BRANCH 110 134
ATOM    134  C   UNL A   1      41.540  23.692  27.097  1.00  0.00     0.064 A 
ATOM    135  C   UNL A   1      40.381  23.432  26.351  1.00  0.00     0.173 A 
ATOM    136  C   UNL A   1      42.179  22.609  27.718  1.00  0.00     0.173 A 
ATOM    137  F   UNL A   1      39.724  24.435  25.751  1.00  0.00    -0.203 F 
ATOM    138  C   UNL A   1      39.867  22.141  26.256  1.00  0.00     0.198 A 
ATOM    139  C   UNL A   1      41.681  21.315  27.594  1.00  0.00     0.198 A 
ATOM    140  F   UNL A   1      43.294  22.802  28.438  1.00  0.00    -0.203 F 
ATOM    141  F   UNL A   1      38.728  21.924  25.583  1.00  0.00    -0.200 F 
ATOM    142  C   UNL A   1      40.521  21.083  26.871  1.00  0.00     0.200 A 
ATOM    143  F   UNL A   1      42.322  20.292  28.176  1.00  0.00    -0.200 F 
ATOM    144  F   UNL A   1      40.028  19.841  26.773  1.00  0.00    -0.200 F 
ENDBRANCH 110 134
ENDBRANCH  75  78
ENDBRANCH  65  68
ENDBRANCH  61  64
ENDBRANCH  58  61
ENDBRANCH  55  58
ENDBRANCH  52  55
ENDBRANCH   1  52
TORSDOF 22
ENDMDL
MODEL 9
REMARK VINA RESULT:      -9.8      4.680      9.372
REMARK SMILES COc1ccc(/C=C/c2cc(OC)cc(OC)c2/C=C/C(=O)NCCCCCCNC(=O)c2ccc(-c3c4nc(c(-c5c(F)c(F)c(F)c(F)c5F)c5ccc([nH]5)c(-c5c(F)c(F)c(F)c(F)c5F)c5nc(c(-c6c(F)c(F)c(F)c(F)c6F)c6ccc3[nH]6)C=C5)C=C4)cc2)cc1
REMARK SMILES IDX 25 1 24 4 23 7 21 8 22 9 20 11 19 12 18 15 9 16 10 17 11 18
REMARK SMILES IDX 15 20 14 21 8 23 7 24 6 27 3 28 4 29 97 30 5 31 96 33 2 37
REMARK SMILES IDX 1 38 12 42 13 43 16 47 17 48 26 52 27 55 28 58 29 61 30 64
REMARK SMILES IDX 31 65 32 67 33 68 34 69 95 70 35 71 94 73 36 75 37 78 38 79
REMARK SMILES IDX 88 80 39 81 93 82 87 83 89 84 40 85 92 86 86 88 85 90 41 92
REMARK SMILES IDX 73 95 53 96 72 97 54 98 57 99 71 100 90 101 55 102 56 104
REMARK SMILES IDX 70 106 91 107 58 110 42 112 43 113 51 114 44 115 45 116
REMARK SMILES IDX 49 117 52 118 46 119 47 120 50 121 48 122 74 123 75 124
REMARK SMILES IDX 83 125 76 126 77 127 81 128 84 129 78 130 79 131 82 132
REMARK SMILES IDX 80 133 59 134 60 135 68 136 61 137 62 138 66 139 69 140
REMARK SMILES IDX 63 141 64 142 67 143 65 144
REMARK H PARENT 25 2 25 3 24 5 24 6 23 10 19 13 20 14 10 19 14 22 7 25 8 26
REMARK H PARENT 4 32 97 34 5 35 96 36 1 39 1 40 1 41 13 44 13 45 13 46 17 49
REMARK H PARENT 17 50 17 51 26 53 26 54 27 56 27 57 28 59 28 60 29 62 29 63
REMARK H PARENT 30 66 34 72 95 74 35 76 94 77 93 87 87 89 89 91 92 93 86 94
REMARK H PARENT 54 103 57 105 90 108 55 109 91 111
REMARK Flexibility Score: inf
ROOT
ATOM      1  C   UNL A   1      43.665  23.867  29.328  1.00  0.00    -0.036 C 
ATOM      2  H   UNL A   1      44.390  23.289  29.861  1.00  0.00     0.028 H 
ATOM      3  H   UNL A   1      43.260  24.661  29.920  1.00  0.00     0.028 H 
ENDROOT
BRANCH   1   4
ATOM      4  C   UNL A   1      42.504  22.954  28.954  1.00  0.00     0.018 C 
ATOM      5  H   UNL A   1      42.035  22.602  29.848  1.00  0.00     0.049 H 
ATOM      6  H   UNL A   1      41.813  23.515  28.358  1.00  0.00     0.049 H 
BRANCH   4   7
ATOM      7  N   UNL A   1      42.955  21.819  28.181  1.00  0.00    -0.353 N 
ATOM      8  C   UNL A   1      42.461  21.345  27.008  1.00  0.00     0.244 C 
ATOM      9  O   UNL A   1      42.991  20.400  26.435  1.00  0.00    -0.270 OA
ATOM     10  H   UNL A   1      43.721  21.323  28.554  1.00  0.00     0.163 HD
BRANCH   8  11
ATOM     11  C   UNL A   1      41.297  22.016  26.396  1.00  0.00     0.004 C 
ATOM     12  C   UNL A   1      40.055  21.768  26.838  1.00  0.00    -0.045 C 
ATOM     13  H   UNL A   1      39.936  21.208  27.696  1.00  0.00     0.063 H 
ATOM     14  H   UNL A   1      41.440  22.684  25.622  1.00  0.00     0.068 H 
BRANCH  12  15
ATOM     15  C   UNL A   1      38.858  22.267  26.145  1.00  0.00     0.024 A 
ATOM     16  C   UNL A   1      38.415  23.594  26.422  1.00  0.00    -0.011 A 
ATOM     17  C   UNL A   1      37.235  24.080  25.832  1.00  0.00    -0.012 A 
ATOM     18  C   UNL A   1      36.476  23.282  24.984  1.00  0.00     0.123 A 
ATOM     19  H   UNL A   1      36.929  25.045  26.030  1.00  0.00     0.067 H 
ATOM     20  C   UNL A   1      38.092  21.469  25.265  1.00  0.00     0.130 A 
ATOM     21  C   UNL A   1      36.921  21.999  24.692  1.00  0.00     0.023 A 
ATOM     22  H   UNL A   1      36.378  21.417  24.036  1.00  0.00     0.070 H 
BRANCH  16  23
ATOM     23  C   UNL A   1      39.080  24.526  27.360  1.00  0.00    -0.054 C 
ATOM     24  C   UNL A   1      38.907  25.857  27.313  1.00  0.00    -0.054 C 
ATOM     25  H   UNL A   1      38.282  26.220  26.578  1.00  0.00     0.063 H 
ATOM     26  H   UNL A   1      39.705  24.135  28.082  1.00  0.00     0.063 H 
BRANCH  24  27
ATOM     27  C   UNL A   1      39.529  26.853  28.212  1.00  0.00    -0.025 A 
ATOM     28  C   UNL A   1      40.596  28.738  30.044  1.00  0.00     0.118 A 
ATOM     29  C   UNL A   1      41.035  28.702  28.720  1.00  0.00    -0.019 A 
ATOM     30  C   UNL A   1      39.640  27.815  30.460  1.00  0.00    -0.019 A 
ATOM     31  C   UNL A   1      40.513  27.766  27.813  1.00  0.00    -0.051 A 
ATOM     32  H   UNL A   1      41.753  29.373  28.403  1.00  0.00     0.066 H 
ATOM     33  C   UNL A   1      39.111  26.888  29.551  1.00  0.00    -0.051 A 
ATOM     34  H   UNL A   1      39.319  27.815  31.441  1.00  0.00     0.066 H 
ATOM     35  H   UNL A   1      40.858  27.752  26.841  1.00  0.00     0.063 H 
ATOM     36  H   UNL A   1      38.399  26.216  29.874  1.00  0.00     0.063 H 
BRANCH  28  37
ATOM     37  O   UNL A   1      41.140  29.731  30.813  1.00  0.00    -0.497 OA
BRANCH  37  38
ATOM     38  C   UNL A   1      40.429  30.963  30.863  1.00  0.00     0.078 C 
ATOM     39  H   UNL A   1      39.773  31.030  30.019  1.00  0.00     0.067 H 
ATOM     40  H   UNL A   1      41.123  31.776  30.841  1.00  0.00     0.067 H 
ATOM     41  H   UNL A   1      39.854  31.007  31.764  1.00  0.00     0.067 H 
ENDBRANCH  37  38
ENDBRANCH  28  37
ENDBRANCH  24  27
ENDBRANCH  16  23
BRANCH  18  42
ATOM     42  O   UNL A   1      35.324  23.849  24.511  1.00  0.00    -0.497 OA
BRANCH  42  43
ATOM     43  C   UNL A   1      34.118  23.443  25.152  1.00  0.00     0.078 C 
ATOM     44  H   UNL A   1      33.673  24.284  25.642  1.00  0.00     0.067 H 
ATOM     45  H   UNL A   1      34.335  22.683  25.873  1.00  0.00     0.067 H 
ATOM     46  H   UNL A   1      33.438  23.057  24.421  1.00  0.00     0.067 H 
ENDBRANCH  42  43
ENDBRANCH  18  42
BRANCH  20  47
ATOM     47  O   UNL A   1      38.244  20.169  24.863  1.00  0.00    -0.496 OA
BRANCH  47  48
ATOM     48  C   UNL A   1      37.228  19.195  24.995  1.00  0.00     0.078 C 
ATOM     49  H   UNL A   1      36.514  19.521  25.721  1.00  0.00     0.067 H 
ATOM     50  H   UNL A   1      37.661  18.268  25.312  1.00  0.00     0.067 H 
ATOM     51  H   UNL A   1      36.740  19.057  24.053  1.00  0.00     0.067 H 
ENDBRANCH  47  48
ENDBRANCH  20  47
ENDBRANCH  12  15
ENDBRANCH   8  11
ENDBRANCH   4   7
ENDBRANCH   1   4
BRANCH   1  52
ATOM     52  C   UNL A   1      44.355  24.515  28.123  1.00  0.00    -0.052 C 
ATOM     53  H   UNL A   1      44.370  25.574  28.280  1.00  0.00     0.027 H 
ATOM     54  H   UNL A   1      43.793  24.220  27.262  1.00  0.00     0.027 H 
BRANCH  52  55
ATOM     55  C   UNL A   1      45.796  24.052  27.874  1.00  0.00    -0.052 C 
ATOM     56  H   UNL A   1      46.057  23.349  28.638  1.00  0.00     0.027 H 
ATOM     57  H   UNL A   1      46.403  24.933  27.887  1.00  0.00     0.027 H 
BRANCH  55  58
ATOM     58  C   UNL A   1      46.029  23.389  26.517  1.00  0.00    -0.036 C 
ATOM     59  H   UNL A   1      45.636  22.393  26.559  1.00  0.00     0.028 H 
ATOM     60  H   UNL A   1      47.084  23.413  26.342  1.00  0.00     0.028 H 
BRANCH  58  61
ATOM     61  C   UNL A   1      45.379  24.107  25.342  1.00  0.00     0.018 C 
ATOM     62  H   UNL A   1      44.593  24.734  25.708  1.00  0.00     0.049 H 
ATOM     63  H   UNL A   1      44.994  23.371  24.666  1.00  0.00     0.049 H 
BRANCH  61  64
ATOM     64  N   UNL A   1      46.342  24.926  24.627  1.00  0.00    -0.352 N 
ATOM     65  C   UNL A   1      46.577  26.274  24.727  1.00  0.00     0.251 C 
ATOM     66  H   UNL A   1      46.907  24.446  23.980  1.00  0.00     0.163 HD
ATOM     67  O   UNL A   1      47.232  26.846  23.862  1.00  0.00    -0.269 OA
BRANCH  65  68
ATOM     68  C   UNL A   1      46.040  27.046  25.871  1.00  0.00     0.039 A 
ATOM     69  C   UNL A   1      46.913  27.424  26.894  1.00  0.00    -0.049 A 
ATOM     70  C   UNL A   1      44.679  27.351  25.967  1.00  0.00    -0.049 A 
ATOM     71  C   UNL A   1      46.430  28.137  27.993  1.00  0.00    -0.053 A 
ATOM     72  H   UNL A   1      47.914  27.177  26.838  1.00  0.00     0.063 H 
ATOM     73  C   UNL A   1      44.211  28.127  27.026  1.00  0.00    -0.053 A 
ATOM     74  H   UNL A   1      44.020  27.001  25.254  1.00  0.00     0.063 H 
ATOM     75  C   UNL A   1      45.078  28.515  28.058  1.00  0.00    -0.014 A 
ATOM     76  H   UNL A   1      47.069  28.388  28.763  1.00  0.00     0.063 H 
ATOM     77  H   UNL A   1      43.222  28.418  27.050  1.00  0.00     0.063 H 
BRANCH  75  78
ATOM     78  C   UNL A   1      44.558  29.301  29.206  1.00  0.00     0.031 A 
ATOM     79  C   UNL A   1      44.332  30.781  29.072  1.00  0.00     0.074 A 
ATOM     80  C   UNL A   1      44.334  28.692  30.386  1.00  0.00     0.049 A 
ATOM     81  N   UNL A   1      43.922  31.639  29.972  1.00  0.00    -0.248 NA
ATOM     82  C   UNL A   1      44.626  31.381  27.762  1.00  0.00    -0.034 C 
ATOM     83  C   UNL A   1      44.563  27.274  30.650  1.00  0.00    -0.036 A 
ATOM     84  N   UNL A   1      43.878  29.180  31.584  1.00  0.00    -0.354 N 
ATOM     85  C   UNL A   1      43.921  32.875  29.342  1.00  0.00     0.074 A 
ATOM     86  C   UNL A   1      44.422  32.667  28.001  1.00  0.00    -0.034 C 
ATOM     87  H   UNL A   1      44.915  30.919  26.885  1.00  0.00     0.065 H 
ATOM     88  C   UNL A   1      44.236  26.997  31.920  1.00  0.00    -0.036 A 
ATOM     89  H   UNL A   1      44.922  26.590  29.964  1.00  0.00     0.065 H 
ATOM     90  C   UNL A   1      43.805  28.229  32.573  1.00  0.00     0.049 A 
ATOM     91  H   UNL A   1      43.627  30.121  31.723  1.00  0.00     0.167 HD
ATOM     92  C   UNL A   1      43.517  34.071  29.833  1.00  0.00     0.037 A 
ATOM     93  H   UNL A   1      44.597  33.423  27.320  1.00  0.00     0.065 H 
ATOM     94  H   UNL A   1      44.280  26.066  32.363  1.00  0.00     0.065 H 
ATOM     95  C   UNL A   1      43.441  28.337  33.865  1.00  0.00     0.037 A 
ATOM     96  C   UNL A   1      42.999  34.264  31.163  1.00  0.00     0.049 A 
ATOM     97  C   UNL A   1      43.003  29.677  34.385  1.00  0.00     0.074 A 
ATOM     98  C   UNL A   1      42.499  35.422  31.733  1.00  0.00    -0.036 A 
ATOM     99  N   UNL A   1      42.923  33.275  32.133  1.00  0.00    -0.354 N 
ATOM    100  N   UNL A   1      42.928  30.824  33.756  1.00  0.00    -0.248 NA
ATOM    101  C   UNL A   1      42.585  29.737  35.793  1.00  0.00    -0.034 C 
ATOM    102  C   UNL A   1      42.171  35.147  33.064  1.00  0.00    -0.036 A 
ATOM    103  H   UNL A   1      42.387  36.331  31.257  1.00  0.00     0.065 H 
ATOM    104  C   UNL A   1      42.410  33.803  33.308  1.00  0.00     0.049 A 
ATOM    105  H   UNL A   1      43.193  32.337  32.006  1.00  0.00     0.167 HD
ATOM    106  C   UNL A   1      42.433  31.735  34.678  1.00  0.00     0.074 A 
ATOM    107  C   UNL A   1      42.205  31.001  35.906  1.00  0.00    -0.034 C 
ATOM    108  H   UNL A   1      42.587  28.990  36.505  1.00  0.00     0.065 H 
ATOM    109  H   UNL A   1      41.811  35.829  33.750  1.00  0.00     0.065 H 
ATOM    110  C   UNL A   1      42.188  33.059  34.522  1.00  0.00     0.037 A 
ATOM    111  H   UNL A   1      41.798  31.412  36.761  1.00  0.00     0.065 H 
BRANCH  92 112
ATOM    112  C   UNL A   1      43.617  35.264  28.928  1.00  0.00     0.064 A 
ATOM    113  C   UNL A   1      42.495  35.788  28.268  1.00  0.00     0.173 A 
ATOM    114  C   UNL A   1      44.845  35.919  28.749  1.00  0.00     0.173 A 
ATOM    115  F   UNL A   1      41.299  35.193  28.396  1.00  0.00    -0.203 F 
ATOM    116  C   UNL A   1      42.604  36.902  27.440  1.00  0.00     0.198 A 
ATOM    117  C   UNL A   1      44.945  37.053  27.946  1.00  0.00     0.198 A 
ATOM    118  F   UNL A   1      45.950  35.465  29.360  1.00  0.00    -0.203 F 
ATOM    119  F   UNL A   1      41.527  37.352  26.781  1.00  0.00    -0.200 F 
ATOM    120  C   UNL A   1      43.826  37.539  27.286  1.00  0.00     0.200 A 
ATOM    121  F   UNL A   1      46.124  37.675  27.810  1.00  0.00    -0.200 F 
ATOM    122  F   UNL A   1      43.927  38.617  26.498  1.00  0.00    -0.200 F 
ENDBRANCH  92 112
BRANCH  95 123
ATOM    123  C   UNL A   1      43.459  27.139  34.747  1.00  0.00     0.064 A 
ATOM    124  C   UNL A   1      44.629  26.749  35.411  1.00  0.00     0.173 A 
ATOM    125  C   UNL A   1      42.309  26.360  34.941  1.00  0.00     0.173 A 
ATOM    126  F   UNL A   1      45.760  27.451  35.243  1.00  0.00    -0.203 F 
ATOM    127  C   UNL A   1      44.656  25.613  36.217  1.00  0.00     0.198 A 
ATOM    128  C   UNL A   1      42.328  25.242  35.773  1.00  0.00     0.198 A 
ATOM    129  F   UNL A   1      41.160  26.693  34.334  1.00  0.00    -0.203 F 
ATOM    130  F   UNL A   1      45.800  25.236  36.802  1.00  0.00    -0.200 F 
ATOM    131  C   UNL A   1      43.503  24.864  36.402  1.00  0.00     0.200 A 
ATOM    132  F   UNL A   1      41.208  24.531  35.963  1.00  0.00    -0.200 F 
ATOM    133  F   UNL A   1      43.528  23.775  37.181  1.00  0.00    -0.200 F 
ENDBRANCH  95 123
BRANCH 110 134
ATOM    134  C   UNL A   1      41.616  33.793  35.700  1.00  0.00     0.064 A 
ATOM    135  C   UNL A   1      42.430  34.514  36.586  1.00  0.00     0.173 A 
ATOM    136  C   UNL A   1      40.231  33.800  35.925  1.00  0.00     0.173 A 
ATOM    137  F   UNL A   1      43.761  34.525  36.423  1.00  0.00    -0.203 F 
ATOM    138  C   UNL A   1      41.880  35.191  37.671  1.00  0.00     0.198 A 
ATOM    139  C   UNL A   1      39.682  34.506  36.992  1.00  0.00     0.198 A 
ATOM    140  F   UNL A   1      39.407  33.132  35.104  1.00  0.00    -0.203 F 
ATOM    141  F   UNL A   1      42.682  35.828  38.535  1.00  0.00    -0.200 F 
ATOM    142  C   UNL A   1      40.507  35.192  37.869  1.00  0.00     0.200 A 
ATOM    143  F   UNL A   1      38.354  34.518  37.173  1.00  0.00    -0.200 F 
ATOM    144  F   UNL A   1      39.980  35.850  38.910  1.00  0.00    -0.200 F 
ENDBRANCH 110 134
ENDBRANCH  75  78
ENDBRANCH  65  68
ENDBRANCH  61  64
ENDBRANCH  58  61
ENDBRANCH  55  58
ENDBRANCH  52  55
ENDBRANCH   1  52
TORSDOF 22
ENDMDL
MODEL 10
REMARK VINA RESULT:      -9.8      4.561      9.247
REMARK SMILES COc1ccc(/C=C/c2cc(OC)cc(OC)c2/C=C/C(=O)NCCCCCCNC(=O)c2ccc(-c3c4nc(c(-c5c(F)c(F)c(F)c(F)c5F)c5ccc([nH]5)c(-c5c(F)c(F)c(F)c(F)c5F)c5nc(c(-c6c(F)c(F)c(F)c(F)c6F)c6ccc3[nH]6)C=C5)C=C4)cc2)cc1
REMARK SMILES IDX 25 1 24 4 23 7 21 8 22 9 20 11 19 12 18 15 9 16 10 17 11 18
REMARK SMILES IDX 15 20 14 21 8 23 7 24 6 27 3 28 4 29 97 30 5 31 96 33 2 37
REMARK SMILES IDX 1 38 12 42 13 43 16 47 17 48 26 52 27 55 28 58 29 61 30 64
REMARK SMILES IDX 31 65 32 67 33 68 34 69 95 70 35 71 94 73 36 75 37 78 38 79
REMARK SMILES IDX 88 80 39 81 93 82 87 83 89 84 40 85 92 86 86 88 85 90 41 92
REMARK SMILES IDX 73 95 53 96 72 97 54 98 57 99 71 100 90 101 55 102 56 104
REMARK SMILES IDX 70 106 91 107 58 110 42 112 43 113 51 114 44 115 45 116
REMARK SMILES IDX 49 117 52 118 46 119 47 120 50 121 48 122 74 123 75 124
REMARK SMILES IDX 83 125 76 126 77 127 81 128 84 129 78 130 79 131 82 132
REMARK SMILES IDX 80 133 59 134 60 135 68 136 61 137 62 138 66 139 69 140
REMARK SMILES IDX 63 141 64 142 67 143 65 144
REMARK H PARENT 25 2 25 3 24 5 24 6 23 10 19 13 20 14 10 19 14 22 7 25 8 26
REMARK H PARENT 4 32 97 34 5 35 96 36 1 39 1 40 1 41 13 44 13 45 13 46 17 49
REMARK H PARENT 17 50 17 51 26 53 26 54 27 56 27 57 28 59 28 60 29 62 29 63
REMARK H PARENT 30 66 34 72 95 74 35 76 94 77 93 87 87 89 89 91 92 93 86 94
REMARK H PARENT 54 103 57 105 90 108 55 109 91 111
REMARK Flexibility Score: inf
ROOT
ATOM      1  C   UNL A   1      43.411  24.178  29.313  1.00  0.00    -0.036 C 
ATOM      2  H   UNL A   1      44.048  23.759  30.062  1.00  0.00     0.028 H 
ATOM      3  H   UNL A   1      42.777  24.948  29.700  1.00  0.00     0.028 H 
ENDROOT
BRANCH   1   4
ATOM      4  C   UNL A   1      42.501  23.077  28.784  1.00  0.00     0.018 C 
ATOM      5  H   UNL A   1      42.137  22.500  29.608  1.00  0.00     0.049 H 
ATOM      6  H   UNL A   1      41.691  23.534  28.254  1.00  0.00     0.049 H 
BRANCH   4   7
ATOM      7  N   UNL A   1      43.206  22.203  27.873  1.00  0.00    -0.353 N 
ATOM      8  C   UNL A   1      42.831  21.795  26.633  1.00  0.00     0.244 C 
ATOM      9  O   UNL A   1      43.569  21.096  25.948  1.00  0.00    -0.270 OA
ATOM     10  H   UNL A   1      44.072  21.859  28.193  1.00  0.00     0.163 HD
BRANCH   8  11
ATOM     11  C   UNL A   1      41.534  22.247  26.091  1.00  0.00     0.004 C 
ATOM     12  C   UNL A   1      40.383  21.845  26.649  1.00  0.00    -0.045 C 
ATOM     13  H   UNL A   1      40.417  21.327  27.541  1.00  0.00     0.063 H 
ATOM     14  H   UNL A   1      41.514  22.879  25.275  1.00  0.00     0.068 H 
BRANCH  12  15
ATOM     15  C   UNL A   1      39.074  22.116  26.036  1.00  0.00     0.024 A 
ATOM     16  C   UNL A   1      38.543  23.437  26.123  1.00  0.00    -0.011 A 
ATOM     17  C   UNL A   1      37.264  23.717  25.611  1.00  0.00    -0.012 A 
ATOM     18  C   UNL A   1      36.491  22.720  25.027  1.00  0.00     0.123 A 
ATOM     19  H   UNL A   1      36.894  24.679  25.668  1.00  0.00     0.067 H 
ATOM     20  C   UNL A   1      38.291  21.112  25.423  1.00  0.00     0.130 A 
ATOM     21  C   UNL A   1      37.018  21.439  24.919  1.00  0.00     0.023 A 
ATOM     22  H   UNL A   1      36.460  20.705  24.455  1.00  0.00     0.070 H 
BRANCH  16  23
ATOM     23  C   UNL A   1      39.221  24.576  26.782  1.00  0.00    -0.054 C 
ATOM     24  C   UNL A   1      38.894  25.009  28.010  1.00  0.00    -0.054 C 
ATOM     25  H   UNL A   1      38.130  24.512  28.492  1.00  0.00     0.063 H 
ATOM     26  H   UNL A   1      39.978  25.059  26.274  1.00  0.00     0.063 H 
BRANCH  24  27
ATOM     27  C   UNL A   1      39.523  26.133  28.739  1.00  0.00    -0.025 A 
ATOM     28  C   UNL A   1      40.578  28.325  30.198  1.00  0.00     0.118 A 
ATOM     29  C   UNL A   1      41.314  27.729  29.173  1.00  0.00    -0.019 A 
ATOM     30  C   UNL A   1      39.323  27.810  30.511  1.00  0.00    -0.019 A 
ATOM     31  C   UNL A   1      40.796  26.641  28.454  1.00  0.00    -0.051 A 
ATOM     32  H   UNL A   1      42.251  28.094  28.940  1.00  0.00     0.066 H 
ATOM     33  C   UNL A   1      38.803  26.729  29.785  1.00  0.00    -0.051 A 
ATOM     34  H   UNL A   1      38.774  28.225  31.280  1.00  0.00     0.066 H 
ATOM     35  H   UNL A   1      41.361  26.210  27.706  1.00  0.00     0.063 H 
ATOM     36  H   UNL A   1      37.868  26.364  30.026  1.00  0.00     0.063 H 
BRANCH  28  37
ATOM     37  O   UNL A   1      41.167  29.412  30.785  1.00  0.00    -0.497 OA
BRANCH  37  38
ATOM     38  C   UNL A   1      40.454  30.030  31.849  1.00  0.00     0.078 C 
ATOM     39  H   UNL A   1      40.761  31.052  31.938  1.00  0.00     0.067 H 
ATOM     40  H   UNL A   1      40.661  29.514  32.764  1.00  0.00     0.067 H 
ATOM     41  H   UNL A   1      39.404  29.990  31.646  1.00  0.00     0.067 H 
ENDBRANCH  37  38
ENDBRANCH  28  37
ENDBRANCH  24  27
ENDBRANCH  16  23
BRANCH  18  42
ATOM     42  O   UNL A   1      35.246  23.104  24.611  1.00  0.00    -0.497 OA
BRANCH  42  43
ATOM     43  C   UNL A   1      34.729  24.295  25.200  1.00  0.00     0.078 C 
ATOM     44  H   UNL A   1      33.753  24.103  25.596  1.00  0.00     0.067 H 
ATOM     45  H   UNL A   1      34.669  25.063  24.458  1.00  0.00     0.067 H 
ATOM     46  H   UNL A   1      35.378  24.612  25.990  1.00  0.00     0.067 H 
ENDBRANCH  42  43
ENDBRANCH  18  42
BRANCH  20  47
ATOM     47  O   UNL A   1      38.516  19.773  25.247  1.00  0.00    -0.496 OA
BRANCH  47  48
ATOM     48  C   UNL A   1      37.483  18.841  25.001  1.00  0.00     0.078 C 
ATOM     49  H   UNL A   1      36.544  19.352  24.956  1.00  0.00     0.067 H 
ATOM     50  H   UNL A   1      37.458  18.118  25.790  1.00  0.00     0.067 H 
ATOM     51  H   UNL A   1      37.663  18.346  24.069  1.00  0.00     0.067 H 
ENDBRANCH  47  48
ENDBRANCH  20  47
ENDBRANCH  12  15
ENDBRANCH   8  11
ENDBRANCH   4   7
ENDBRANCH   1   4
BRANCH   1  52
ATOM     52  C   UNL A   1      44.291  24.823  28.237  1.00  0.00    -0.052 C 
ATOM     53  H   UNL A   1      44.143  25.882  28.278  1.00  0.00     0.027 H 
ATOM     54  H   UNL A   1      43.993  24.387  27.306  1.00  0.00     0.027 H 
BRANCH  52  55
ATOM     55  C   UNL A   1      45.794  24.547  28.377  1.00  0.00    -0.052 C 
ATOM     56  H   UNL A   1      45.936  23.888  29.207  1.00  0.00     0.027 H 
ATOM     57  H   UNL A   1      46.264  25.500  28.510  1.00  0.00     0.027 H 
BRANCH  55  58
ATOM     58  C   UNL A   1      46.446  23.914  27.148  1.00  0.00    -0.036 C 
ATOM     59  H   UNL A   1      46.503  22.856  27.308  1.00  0.00     0.028 H 
ATOM     60  H   UNL A   1      47.406  24.372  27.041  1.00  0.00     0.028 H 
BRANCH  58  61
ATOM     61  C   UNL A   1      45.702  24.157  25.842  1.00  0.00     0.018 C 
ATOM     62  H   UNL A   1      44.805  24.703  26.047  1.00  0.00     0.049 H 
ATOM     63  H   UNL A   1      45.475  23.209  25.400  1.00  0.00     0.049 H 
BRANCH  61  64
ATOM     64  N   UNL A   1      46.514  24.916  24.907  1.00  0.00    -0.352 N 
ATOM     65  C   UNL A   1      46.681  26.273  24.808  1.00  0.00     0.251 C 
ATOM     66  H   UNL A   1      47.015  24.380  24.252  1.00  0.00     0.163 HD
ATOM     67  O   UNL A   1      47.182  26.755  23.797  1.00  0.00    -0.269 OA
BRANCH  65  68
ATOM     68  C   UNL A   1      46.254  27.164  25.910  1.00  0.00     0.039 A 
ATOM     69  C   UNL A   1      44.912  27.548  25.982  1.00  0.00    -0.049 A 
ATOM     70  C   UNL A   1      47.172  27.664  26.838  1.00  0.00    -0.049 A 
ATOM     71  C   UNL A   1      44.485  28.401  27.001  1.00  0.00    -0.053 A 
ATOM     72  H   UNL A   1      44.237  27.200  25.282  1.00  0.00     0.063 H 
ATOM     73  C   UNL A   1      46.732  28.455  27.898  1.00  0.00    -0.053 A 
ATOM     74  H   UNL A   1      48.176  27.449  26.738  1.00  0.00     0.063 H 
ATOM     75  C   UNL A   1      45.387  28.844  27.982  1.00  0.00    -0.014 A 
ATOM     76  H   UNL A   1      43.500  28.708  27.034  1.00  0.00     0.063 H 
ATOM     77  H   UNL A   1      47.399  28.754  28.626  1.00  0.00     0.063 H 
BRANCH  75  78
ATOM     78  C   UNL A   1      44.939  29.727  29.090  1.00  0.00     0.031 A 
ATOM     79  C   UNL A   1      44.581  29.143  30.428  1.00  0.00     0.074 A 
ATOM     80  C   UNL A   1      44.809  31.051  28.878  1.00  0.00     0.049 A 
ATOM     81  N   UNL A   1      44.133  29.747  31.500  1.00  0.00    -0.248 NA
ATOM     82  C   UNL A   1      44.721  27.687  30.575  1.00  0.00    -0.034 C 
ATOM     83  C   UNL A   1      45.078  31.724  27.611  1.00  0.00    -0.036 A 
ATOM     84  N   UNL A   1      44.408  32.064  29.711  1.00  0.00    -0.354 N 
ATOM     85  C   UNL A   1      43.929  28.747  32.439  1.00  0.00     0.074 A 
ATOM     86  C   UNL A   1      44.249  27.491  31.796  1.00  0.00    -0.034 C 
ATOM     87  H   UNL A   1      45.092  26.997  29.902  1.00  0.00     0.065 H 
ATOM     88  C   UNL A   1      44.853  33.038  27.746  1.00  0.00    -0.036 A 
ATOM     89  H   UNL A   1      45.395  31.259  26.745  1.00  0.00     0.065 H 
ATOM     90  C   UNL A   1      44.387  33.298  29.104  1.00  0.00     0.049 A 
ATOM     91  H   UNL A   1      44.159  31.923  30.652  1.00  0.00     0.167 HD
ATOM     92  C   UNL A   1      43.533  28.869  33.728  1.00  0.00     0.037 A 
ATOM     93  H   UNL A   1      44.124  26.564  32.233  1.00  0.00     0.065 H 
ATOM     94  H   UNL A   1      44.986  33.750  27.011  1.00  0.00     0.065 H 
ATOM     95  C   UNL A   1      44.023  34.502  29.584  1.00  0.00     0.037 A 
ATOM     96  C   UNL A   1      43.237  30.126  34.366  1.00  0.00     0.049 A 
ATOM     97  C   UNL A   1      43.581  34.609  31.017  1.00  0.00     0.074 A 
ATOM     98  C   UNL A   1      42.894  30.363  35.686  1.00  0.00    -0.036 A 
ATOM     99  N   UNL A   1      43.243  31.358  33.726  1.00  0.00    -0.354 N 
ATOM    100  N   UNL A   1      43.470  33.665  31.920  1.00  0.00    -0.248 NA
ATOM    101  C   UNL A   1      43.224  35.949  31.502  1.00  0.00    -0.034 C 
ATOM    102  C   UNL A   1      42.639  31.730  35.832  1.00  0.00    -0.036 A 
ATOM    103  H   UNL A   1      42.837  29.654  36.433  1.00  0.00     0.065 H 
ATOM    104  C   UNL A   1      42.881  32.355  34.619  1.00  0.00     0.049 A 
ATOM    105  H   UNL A   1      43.470  31.501  32.779  1.00  0.00     0.167 HD
ATOM    106  C   UNL A   1      43.058  34.297  33.084  1.00  0.00     0.074 A 
ATOM    107  C   UNL A   1      42.958  35.710  32.778  1.00  0.00    -0.034 C 
ATOM    108  H   UNL A   1      43.191  36.841  30.985  1.00  0.00     0.065 H 
ATOM    109  H   UNL A   1      42.325  32.197  36.697  1.00  0.00     0.065 H 
ATOM    110  C   UNL A   1      42.788  33.758  34.298  1.00  0.00     0.037 A 
ATOM    111  H   UNL A   1      42.711  36.437  33.466  1.00  0.00     0.065 H 
BRANCH  92 112
ATOM    112  C   UNL A   1      43.395  27.611  34.537  1.00  0.00     0.064 A 
ATOM    113  C   UNL A   1      42.174  26.927  34.636  1.00  0.00     0.173 A 
ATOM    114  C   UNL A   1      44.509  27.060  35.188  1.00  0.00     0.173 A 
ATOM    115  F   UNL A   1      41.075  27.417  34.041  1.00  0.00    -0.203 F 
ATOM    116  C   UNL A   1      42.066  25.756  35.381  1.00  0.00     0.198 A 
ATOM    117  C   UNL A   1      44.405  25.870  35.906  1.00  0.00     0.198 A 
ATOM    118  F   UNL A   1      45.702  27.669  35.122  1.00  0.00    -0.203 F 
ATOM    119  F   UNL A   1      40.877  25.148  35.502  1.00  0.00    -0.200 F 
ATOM    120  C   UNL A   1      43.182  25.224  36.009  1.00  0.00     0.200 A 
ATOM    121  F   UNL A   1      45.488  25.351  36.499  1.00  0.00    -0.200 F 
ATOM    122  F   UNL A   1      43.079  24.091  36.716  1.00  0.00    -0.200 F 
ENDBRANCH  92 112
BRANCH  95 123
ATOM    123  C   UNL A   1      44.080  35.701  28.707  1.00  0.00     0.064 A 
ATOM    124  C   UNL A   1      45.268  36.428  28.555  1.00  0.00     0.173 A 
ATOM    125  C   UNL A   1      42.950  36.146  28.006  1.00  0.00     0.173 A 
ATOM    126  F   UNL A   1      46.372  36.053  29.218  1.00  0.00    -0.203 F 
ATOM    127  C   UNL A   1      45.319  37.567  27.755  1.00  0.00     0.198 A 
ATOM    128  C   UNL A   1      43.009  37.268  27.180  1.00  0.00     0.198 A 
ATOM    129  F   UNL A   1      41.789  35.483  28.110  1.00  0.00    -0.203 F 
ATOM    130  F   UNL A   1      46.456  38.271  27.664  1.00  0.00    -0.200 F 
ATOM    131  C   UNL A   1      44.191  37.983  27.063  1.00  0.00     0.200 A 
ATOM    132  F   UNL A   1      41.922  37.655  26.500  1.00  0.00    -0.200 F 
ATOM    133  F   UNL A   1      44.241  39.075  26.289  1.00  0.00    -0.200 F 
ENDBRANCH  95 123
BRANCH 110 134
ATOM    134  C   UNL A   1      42.388  34.702  35.394  1.00  0.00     0.064 A 
ATOM    135  C   UNL A   1      41.045  35.026  35.635  1.00  0.00     0.173 A 
ATOM    136  C   UNL A   1      43.361  35.265  36.233  1.00  0.00     0.173 A 
ATOM    137  F   UNL A   1      40.078  34.526  34.851  1.00  0.00    -0.203 F 
ATOM    138  C   UNL A   1      40.693  35.902  36.658  1.00  0.00     0.198 A 
ATOM    139  C   UNL A   1      43.003  36.115  37.276  1.00  0.00     0.198 A 
ATOM    140  F   UNL A   1      44.660  34.984  36.050  1.00  0.00    -0.203 F 
ATOM    141  F   UNL A   1      39.408  36.239  36.836  1.00  0.00    -0.200 F 
ATOM    142  C   UNL A   1      41.671  36.440  37.482  1.00  0.00     0.200 A 
ATOM    143  F   UNL A   1      43.948  36.622  38.081  1.00  0.00    -0.200 F 
ATOM    144  F   UNL A   1      41.330  37.278  38.470  1.00  0.00    -0.200 F 
ENDBRANCH 110 134
ENDBRANCH  75  78
ENDBRANCH  65  68
ENDBRANCH  61  64
ENDBRANCH  58  61
ENDBRANCH  55  58
ENDBRANCH  52  55
ENDBRANCH   1  52
TORSDOF 22
ENDMDL
