MODEL 1
REMARK VINA RESULT:     -11.1      0.000      0.000
REMARK SMILES C/C(=N\Nc1nc(-c2ccc(Cl)cc2)cs1)c1nnn(-c2ccc(C(=O)NCCCCCCNC(=O)c3ccc(-c4c5nc(c(-c6c(F)c(F)c(F)c(F)c6F)c6ccc([nH]6)c(-c6c(F)c(F)c(F)c(F)c6F)c6nc(c(-c7c(F)c(F)c(F)c(F)c7F)c7ccc4[nH]7)C=C6)C=C5)cc3)cc2)c1C
REMARK SMILES IDX 29 1 28 4 27 7 25 8 26 9 24 11 21 12 22 13 101 14 23 15
REMARK SMILES IDX 100 17 20 21 17 22 18 23 102 24 19 25 2 26 3 27 1 28 4 32
REMARK SMILES IDX 5 34 6 35 16 36 7 37 15 38 8 40 9 41 14 42 10 43 13 45 11 47
REMARK SMILES IDX 12 50 103 51 30 55 31 58 32 61 33 64 34 67 35 68 36 70 37 71
REMARK SMILES IDX 38 72 99 73 39 74 98 76 40 78 41 81 42 82 92 83 43 84 97 85
REMARK SMILES IDX 91 86 93 87 44 88 96 89 90 91 89 93 45 95 77 98 57 99 76 100
REMARK SMILES IDX 58 101 61 102 75 103 94 104 59 105 60 107 74 109 95 110
REMARK SMILES IDX 62 113 46 115 47 116 55 117 48 118 49 119 53 120 56 121
REMARK SMILES IDX 50 122 51 123 54 124 52 125 78 126 79 127 87 128 80 129
REMARK SMILES IDX 81 130 85 131 88 132 82 133 83 134 86 135 84 136 63 137
REMARK SMILES IDX 64 138 72 139 65 140 66 141 70 142 73 143 67 144 68 145
REMARK SMILES IDX 71 146 69 147
REMARK H PARENT 29 2 29 3 28 5 28 6 27 10 22 16 101 18 23 19 100 20 1 29 1 30
REMARK H PARENT 1 31 4 33 15 39 9 44 14 46 10 48 13 49 103 52 103 53 103 54
REMARK H PARENT 30 56 30 57 31 59 31 60 32 62 32 63 33 65 33 66 34 69 38 75
REMARK H PARENT 99 77 39 79 98 80 97 90 91 92 93 94 96 96 90 97 58 106 61 108
REMARK H PARENT 94 111 59 112 95 114
REMARK Flexibility Score: inf
ROOT
ATOM      1  C   UNL A   1      35.774  34.187  35.195  1.00  0.00    -0.036 C 
ATOM      2  H   UNL A   1      35.702  35.084  35.773  1.00  0.00     0.028 H 
ATOM      3  H   UNL A   1      35.203  33.386  35.615  1.00  0.00     0.028 H 
ENDROOT
BRANCH   1   4
ATOM      4  C   UNL A   1      37.238  33.738  35.179  1.00  0.00     0.018 C 
ATOM      5  H   UNL A   1      37.787  34.354  34.498  1.00  0.00     0.049 H 
ATOM      6  H   UNL A   1      37.639  33.831  36.167  1.00  0.00     0.049 H 
BRANCH   4   7
ATOM      7  N   UNL A   1      37.339  32.352  34.759  1.00  0.00    -0.352 N 
ATOM      8  C   UNL A   1      37.944  31.737  33.691  1.00  0.00     0.251 C 
ATOM      9  O   UNL A   1      37.876  30.510  33.621  1.00  0.00    -0.269 OA
ATOM     10  H   UNL A   1      36.878  31.724  35.363  1.00  0.00     0.163 HD
BRANCH   8  11
ATOM     11  C   UNL A   1      38.744  32.476  32.674  1.00  0.00     0.039 A 
ATOM     12  C   UNL A   1      40.538  33.872  31.065  1.00  0.00     0.067 A 
ATOM     13  C   UNL A   1      40.788  32.529  31.336  1.00  0.00    -0.036 A 
ATOM     14  C   UNL A   1      39.347  34.480  31.469  1.00  0.00    -0.036 A 
ATOM     15  C   UNL A   1      39.895  31.842  32.166  1.00  0.00    -0.047 A 
ATOM     16  H   UNL A   1      41.610  32.052  30.935  1.00  0.00     0.065 H 
ATOM     17  C   UNL A   1      38.429  33.760  32.229  1.00  0.00    -0.047 A 
ATOM     18  H   UNL A   1      39.148  35.459  31.207  1.00  0.00     0.065 H 
ATOM     19  H   UNL A   1      40.082  30.856  32.408  1.00  0.00     0.063 H 
ATOM     20  H   UNL A   1      37.514  34.176  32.463  1.00  0.00     0.063 H 
BRANCH  12  21
ATOM     21  N   UNL A   1      41.558  34.684  30.541  1.00  0.00    -0.217 N 
ATOM     22  C   UNL A   1      42.780  35.939  29.254  1.00  0.00     0.132 A 
ATOM     23  N   UNL A   1      43.418  35.784  30.457  1.00  0.00    -0.128 NA
ATOM     24  C   UNL A   1      41.578  35.250  29.283  1.00  0.00     0.071 A 
ATOM     25  N   UNL A   1      42.614  35.097  31.265  1.00  0.00    -0.061 NA
BRANCH  22  26
ATOM     26  C   UNL A   1      43.256  36.793  28.173  1.00  0.00     0.087 C 
ATOM     27  N   UNL A   1      43.244  38.076  28.408  1.00  0.00    -0.176 NA
BRANCH  26  28
ATOM     28  C   UNL A   1      43.771  36.060  26.961  1.00  0.00    -0.018 C 
ATOM     29  H   UNL A   1      44.719  35.616  27.188  1.00  0.00     0.030 H 
ATOM     30  H   UNL A   1      43.885  36.747  26.149  1.00  0.00     0.030 H 
ATOM     31  H   UNL A   1      43.077  35.293  26.685  1.00  0.00     0.030 H 
ENDBRANCH  26  28
BRANCH  27  32
ATOM     32  N   UNL A   1      43.801  39.029  27.582  1.00  0.00    -0.252 N 
ATOM     33  H   UNL A   1      44.763  39.181  27.727  1.00  0.00     0.193 HD
BRANCH  32  34
ATOM     34  C   UNL A   1      43.253  39.792  26.603  1.00  0.00     0.203 A 
ATOM     35  N   UNL A   1      43.909  40.518  25.729  1.00  0.00    -0.219 NA
ATOM     36  S   UNL A   1      41.534  39.949  26.479  1.00  0.00    -0.103 S 
ATOM     37  C   UNL A   1      43.082  41.470  25.171  1.00  0.00     0.084 A 
ATOM     38  C   UNL A   1      41.743  41.322  25.465  1.00  0.00     0.021 A 
ATOM     39  H   UNL A   1      40.986  41.938  25.129  1.00  0.00     0.076 H 
BRANCH  37  40
ATOM     40  C   UNL A   1      43.659  42.574  24.425  1.00  0.00     0.001 A 
ATOM     41  C   UNL A   1      44.298  43.613  25.114  1.00  0.00    -0.051 A 
ATOM     42  C   UNL A   1      43.487  42.675  23.037  1.00  0.00    -0.051 A 
ATOM     43  C   UNL A   1      44.791  44.723  24.424  1.00  0.00    -0.043 A 
ATOM     44  H   UNL A   1      44.404  43.559  26.140  1.00  0.00     0.063 H 
ATOM     45  C   UNL A   1      43.969  43.793  22.347  1.00  0.00    -0.043 A 
ATOM     46  H   UNL A   1      43.002  41.923  22.522  1.00  0.00     0.063 H 
ATOM     47  C   UNL A   1      44.627  44.807  23.043  1.00  0.00     0.041 A 
ATOM     48  H   UNL A   1      45.275  45.479  24.935  1.00  0.00     0.064 H 
ATOM     49  H   UNL A   1      43.841  43.866  21.326  1.00  0.00     0.064 H 
ATOM     50  Cl  UNL A   1      45.224  46.177  22.192  1.00  0.00    -0.084 Cl
ENDBRANCH  37  40
ENDBRANCH  32  34
ENDBRANCH  27  32
ENDBRANCH  22  26
BRANCH  24  51
ATOM     51  C   UNL A   1      40.444  35.188  28.322  1.00  0.00    -0.020 C 
ATOM     52  H   UNL A   1      39.681  35.873  28.626  1.00  0.00     0.030 H 
ATOM     53  H   UNL A   1      40.046  34.195  28.304  1.00  0.00     0.030 H 
ATOM     54  H   UNL A   1      40.791  35.452  27.344  1.00  0.00     0.030 H 
ENDBRANCH  24  51
ENDBRANCH  12  21
ENDBRANCH   8  11
ENDBRANCH   4   7
ENDBRANCH   1   4
BRANCH   1  55
ATOM     55  C   UNL A   1      35.202  34.464  33.797  1.00  0.00    -0.052 C 
ATOM     56  H   UNL A   1      36.022  34.524  33.113  1.00  0.00     0.027 H 
ATOM     57  H   UNL A   1      34.643  35.372  33.886  1.00  0.00     0.027 H 
BRANCH  55  58
ATOM     58  C   UNL A   1      34.213  33.414  33.261  1.00  0.00    -0.052 C 
ATOM     59  H   UNL A   1      33.416  33.938  32.775  1.00  0.00     0.027 H 
ATOM     60  H   UNL A   1      33.914  32.844  34.115  1.00  0.00     0.027 H 
BRANCH  58  61
ATOM     61  C   UNL A   1      34.774  32.389  32.264  1.00  0.00    -0.036 C 
ATOM     62  H   UNL A   1      34.005  31.679  32.041  1.00  0.00     0.028 H 
ATOM     63  H   UNL A   1      35.625  31.935  32.727  1.00  0.00     0.028 H 
BRANCH  61  64
ATOM     64  C   UNL A   1      35.253  33.003  30.960  1.00  0.00     0.018 C 
ATOM     65  H   UNL A   1      36.317  32.902  30.904  1.00  0.00     0.049 H 
ATOM     66  H   UNL A   1      34.954  34.031  30.956  1.00  0.00     0.049 H 
BRANCH  64  67
ATOM     67  N   UNL A   1      34.657  32.362  29.781  1.00  0.00    -0.352 N 
ATOM     68  C   UNL A   1      35.249  31.513  28.868  1.00  0.00     0.251 C 
ATOM     69  H   UNL A   1      33.707  32.565  29.621  1.00  0.00     0.163 HD
ATOM     70  O   UNL A   1      34.767  31.353  27.743  1.00  0.00    -0.269 OA
BRANCH  68  71
ATOM     71  C   UNL A   1      36.461  30.783  29.261  1.00  0.00     0.039 A 
ATOM     72  C   UNL A   1      36.430  29.562  29.941  1.00  0.00    -0.049 A 
ATOM     73  C   UNL A   1      37.670  31.354  28.889  1.00  0.00    -0.049 A 
ATOM     74  C   UNL A   1      37.636  28.908  30.184  1.00  0.00    -0.053 A 
ATOM     75  H   UNL A   1      35.535  29.155  30.255  1.00  0.00     0.063 H 
ATOM     76  C   UNL A   1      38.799  30.594  28.882  1.00  0.00    -0.053 A 
ATOM     77  H   UNL A   1      37.713  32.349  28.617  1.00  0.00     0.063 H 
ATOM     78  C   UNL A   1      38.816  29.436  29.639  1.00  0.00    -0.014 A 
ATOM     79  H   UNL A   1      37.661  28.049  30.756  1.00  0.00     0.063 H 
ATOM     80  H   UNL A   1      39.621  30.874  28.325  1.00  0.00     0.063 H 
BRANCH  78  81
ATOM     81  C   UNL A   1      40.105  28.774  29.761  1.00  0.00     0.031 A 
ATOM     82  C   UNL A   1      40.555  28.599  31.161  1.00  0.00     0.074 A 
ATOM     83  C   UNL A   1      40.694  28.155  28.711  1.00  0.00     0.049 A 
ATOM     84  N   UNL A   1      41.551  29.177  31.741  1.00  0.00    -0.248 NA
ATOM     85  C   UNL A   1      39.705  27.816  32.074  1.00  0.00    -0.034 C 
ATOM     86  C   UNL A   1      40.183  27.976  27.344  1.00  0.00    -0.036 A 
ATOM     87  N   UNL A   1      41.856  27.449  28.677  1.00  0.00    -0.354 N 
ATOM     88  C   UNL A   1      41.590  28.658  33.030  1.00  0.00     0.074 A 
ATOM     89  C   UNL A   1      40.325  28.006  33.240  1.00  0.00    -0.034 C 
ATOM     90  H   UNL A   1      38.857  27.265  31.867  1.00  0.00     0.065 H 
ATOM     91  C   UNL A   1      40.904  27.030  26.703  1.00  0.00    -0.036 A 
ATOM     92  H   UNL A   1      39.390  28.495  26.935  1.00  0.00     0.065 H 
ATOM     93  C   UNL A   1      42.030  26.666  27.539  1.00  0.00     0.049 A 
ATOM     94  H   UNL A   1      42.522  27.488  29.402  1.00  0.00     0.167 HD
ATOM     95  C   UNL A   1      42.772  28.568  33.699  1.00  0.00     0.037 A 
ATOM     96  H   UNL A   1      39.951  27.725  34.160  1.00  0.00     0.065 H 
ATOM     97  H   UNL A   1      40.690  26.634  25.774  1.00  0.00     0.065 H 
ATOM     98  C   UNL A   1      43.024  25.767  27.325  1.00  0.00     0.037 A 
ATOM     99  C   UNL A   1      43.777  29.398  33.077  1.00  0.00     0.049 A 
ATOM    100  C   UNL A   1      44.118  26.099  28.272  1.00  0.00     0.074 A 
ATOM    101  C   UNL A   1      43.888  30.749  32.803  1.00  0.00    -0.036 A 
ATOM    102  N   UNL A   1      44.700  28.781  32.267  1.00  0.00    -0.354 N 
ATOM    103  N   UNL A   1      44.825  27.194  28.203  1.00  0.00    -0.248 NA
ATOM    104  C   UNL A   1      44.091  25.453  29.576  1.00  0.00    -0.034 C 
ATOM    105  C   UNL A   1      44.499  30.815  31.515  1.00  0.00    -0.036 A 
ATOM    106  H   UNL A   1      43.593  31.537  33.401  1.00  0.00     0.065 H 
ATOM    107  C   UNL A   1      44.802  29.514  31.114  1.00  0.00     0.049 A 
ATOM    108  H   UNL A   1      45.199  27.959  32.478  1.00  0.00     0.167 HD
ATOM    109  C   UNL A   1      44.959  27.609  29.519  1.00  0.00     0.074 A 
ATOM    110  C   UNL A   1      44.551  26.459  30.325  1.00  0.00    -0.034 C 
ATOM    111  H   UNL A   1      43.801  24.499  29.843  1.00  0.00     0.065 H 
ATOM    112  H   UNL A   1      44.683  31.675  30.976  1.00  0.00     0.065 H 
ATOM    113  C   UNL A   1      45.094  28.933  29.824  1.00  0.00     0.037 A 
ATOM    114  H   UNL A   1      44.611  26.428  31.354  1.00  0.00     0.065 H 
BRANCH  95 115
ATOM    115  C   UNL A   1      43.138  27.436  34.630  1.00  0.00     0.064 A 
ATOM    116  C   UNL A   1      43.390  27.732  35.985  1.00  0.00     0.173 A 
ATOM    117  C   UNL A   1      43.557  26.157  34.201  1.00  0.00     0.173 A 
ATOM    118  F   UNL A   1      43.046  28.922  36.499  1.00  0.00    -0.203 F 
ATOM    119  C   UNL A   1      44.094  26.854  36.814  1.00  0.00     0.198 A 
ATOM    120  C   UNL A   1      44.209  25.262  35.047  1.00  0.00     0.198 A 
ATOM    121  F   UNL A   1      43.461  25.757  32.929  1.00  0.00    -0.203 F 
ATOM    122  F   UNL A   1      44.432  27.239  38.052  1.00  0.00    -0.200 F 
ATOM    123  C   UNL A   1      44.511  25.624  36.341  1.00  0.00     0.200 A 
ATOM    124  F   UNL A   1      44.619  24.081  34.563  1.00  0.00    -0.200 F 
ATOM    125  F   UNL A   1      45.245  24.811  37.111  1.00  0.00    -0.200 F 
ENDBRANCH  95 115
BRANCH  98 126
ATOM    126  C   UNL A   1      42.964  24.465  26.615  1.00  0.00     0.064 A 
ATOM    127  C   UNL A   1      43.619  24.278  25.388  1.00  0.00     0.173 A 
ATOM    128  C   UNL A   1      42.519  23.298  27.269  1.00  0.00     0.173 A 
ATOM    129  F   UNL A   1      44.115  25.331  24.721  1.00  0.00    -0.203 F 
ATOM    130  C   UNL A   1      43.847  23.000  24.861  1.00  0.00     0.198 A 
ATOM    131  C   UNL A   1      42.743  22.025  26.740  1.00  0.00     0.198 A 
ATOM    132  F   UNL A   1      41.948  23.365  28.481  1.00  0.00    -0.203 F 
ATOM    133  F   UNL A   1      44.538  22.860  23.719  1.00  0.00    -0.200 F 
ATOM    134  C   UNL A   1      43.420  21.874  25.545  1.00  0.00     0.200 A 
ATOM    135  F   UNL A   1      42.361  20.942  27.434  1.00  0.00    -0.200 F 
ATOM    136  F   UNL A   1      43.698  20.650  25.078  1.00  0.00    -0.200 F 
ENDBRANCH  98 126
BRANCH 113 137
ATOM    137  C   UNL A   1      45.362  29.889  28.693  1.00  0.00     0.064 A 
ATOM    138  C   UNL A   1      44.363  30.557  27.962  1.00  0.00     0.173 A 
ATOM    139  C   UNL A   1      46.691  30.245  28.434  1.00  0.00     0.173 A 
ATOM    140  F   UNL A   1      43.065  30.347  28.214  1.00  0.00    -0.203 F 
ATOM    141  C   UNL A   1      44.686  31.504  26.990  1.00  0.00     0.198 A 
ATOM    142  C   UNL A   1      47.011  31.216  27.489  1.00  0.00     0.198 A 
ATOM    143  F   UNL A   1      47.685  29.680  29.138  1.00  0.00    -0.203 F 
ATOM    144  F   UNL A   1      43.714  32.118  26.299  1.00  0.00    -0.200 F 
ATOM    145  C   UNL A   1      46.010  31.837  26.760  1.00  0.00     0.200 A 
ATOM    146  F   UNL A   1      48.291  31.570  27.306  1.00  0.00    -0.200 F 
ATOM    147  F   UNL A   1      46.321  32.775  25.854  1.00  0.00    -0.200 F 
ENDBRANCH 113 137
ENDBRANCH  78  81
ENDBRANCH  68  71
ENDBRANCH  64  67
ENDBRANCH  61  64
ENDBRANCH  58  61
ENDBRANCH  55  58
ENDBRANCH   1  55
TORSDOF 20
ENDMDL
MODEL 2
REMARK VINA RESULT:     -10.8      7.034     15.166
REMARK SMILES C/C(=N\Nc1nc(-c2ccc(Cl)cc2)cs1)c1nnn(-c2ccc(C(=O)NCCCCCCNC(=O)c3ccc(-c4c5nc(c(-c6c(F)c(F)c(F)c(F)c6F)c6ccc([nH]6)c(-c6c(F)c(F)c(F)c(F)c6F)c6nc(c(-c7c(F)c(F)c(F)c(F)c7F)c7ccc4[nH]7)C=C6)C=C5)cc3)cc2)c1C
REMARK SMILES IDX 29 1 28 4 27 7 25 8 26 9 24 11 21 12 22 13 101 14 23 15
REMARK SMILES IDX 100 17 20 21 17 22 18 23 102 24 19 25 2 26 3 27 1 28 4 32
REMARK SMILES IDX 5 34 6 35 16 36 7 37 15 38 8 40 9 41 14 42 10 43 13 45 11 47
REMARK SMILES IDX 12 50 103 51 30 55 31 58 32 61 33 64 34 67 35 68 36 70 37 71
REMARK SMILES IDX 38 72 99 73 39 74 98 76 40 78 41 81 42 82 92 83 43 84 97 85
REMARK SMILES IDX 91 86 93 87 44 88 96 89 90 91 89 93 45 95 77 98 57 99 76 100
REMARK SMILES IDX 58 101 61 102 75 103 94 104 59 105 60 107 74 109 95 110
REMARK SMILES IDX 62 113 46 115 47 116 55 117 48 118 49 119 53 120 56 121
REMARK SMILES IDX 50 122 51 123 54 124 52 125 78 126 79 127 87 128 80 129
REMARK SMILES IDX 81 130 85 131 88 132 82 133 83 134 86 135 84 136 63 137
REMARK SMILES IDX 64 138 72 139 65 140 66 141 70 142 73 143 67 144 68 145
REMARK SMILES IDX 71 146 69 147
REMARK H PARENT 29 2 29 3 28 5 28 6 27 10 22 16 101 18 23 19 100 20 1 29 1 30
REMARK H PARENT 1 31 4 33 15 39 9 44 14 46 10 48 13 49 103 52 103 53 103 54
REMARK H PARENT 30 56 30 57 31 59 31 60 32 62 32 63 33 65 33 66 34 69 38 75
REMARK H PARENT 99 77 39 79 98 80 97 90 91 92 93 94 96 96 90 97 58 106 61 108
REMARK H PARENT 94 111 59 112 95 114
REMARK Flexibility Score: inf
ROOT
ATOM      1  C   UNL A   1      46.431  25.331  28.137  1.00  0.00    -0.036 C 
ATOM      2  H   UNL A   1      47.435  25.128  27.830  1.00  0.00     0.028 H 
ATOM      3  H   UNL A   1      46.138  26.338  27.928  1.00  0.00     0.028 H 
ENDROOT
BRANCH   1   4
ATOM      4  C   UNL A   1      46.341  25.140  29.653  1.00  0.00     0.018 C 
ATOM      5  H   UNL A   1      46.256  24.097  29.873  1.00  0.00     0.049 H 
ATOM      6  H   UNL A   1      47.224  25.542  30.105  1.00  0.00     0.049 H 
BRANCH   4   7
ATOM      7  N   UNL A   1      45.183  25.837  30.185  1.00  0.00    -0.352 N 
ATOM      8  C   UNL A   1      44.496  25.747  31.370  1.00  0.00     0.251 C 
ATOM      9  O   UNL A   1      43.547  26.511  31.543  1.00  0.00    -0.269 OA
ATOM     10  H   UNL A   1      44.814  26.512  29.569  1.00  0.00     0.163 HD
BRANCH   8  11
ATOM     11  C   UNL A   1      44.900  24.834  32.476  1.00  0.00     0.039 A 
ATOM     12  C   UNL A   1      45.992  23.045  34.311  1.00  0.00     0.067 A 
ATOM     13  C   UNL A   1      46.587  24.296  34.160  1.00  0.00    -0.036 A 
ATOM     14  C   UNL A   1      44.793  22.735  33.665  1.00  0.00    -0.036 A 
ATOM     15  C   UNL A   1      46.047  25.178  33.218  1.00  0.00    -0.047 A 
ATOM     16  H   UNL A   1      47.405  24.565  34.728  1.00  0.00     0.065 H 
ATOM     17  C   UNL A   1      44.223  23.655  32.789  1.00  0.00    -0.047 A 
ATOM     18  H   UNL A   1      44.330  21.828  33.836  1.00  0.00     0.065 H 
ATOM     19  H   UNL A   1      46.496  26.096  33.065  1.00  0.00     0.063 H 
ATOM     20  H   UNL A   1      43.299  23.465  32.372  1.00  0.00     0.063 H 
BRANCH  12  21
ATOM     21  N   UNL A   1      46.683  22.015  34.969  1.00  0.00    -0.217 N 
ATOM     22  C   UNL A   1      47.502  20.669  36.467  1.00  0.00     0.132 A 
ATOM     23  N   UNL A   1      47.956  20.287  35.231  1.00  0.00    -0.128 NA
ATOM     24  C   UNL A   1      46.674  21.771  36.327  1.00  0.00     0.071 A 
ATOM     25  N   UNL A   1      47.370  21.058  34.319  1.00  0.00    -0.061 NA
BRANCH  22  26
ATOM     26  C   UNL A   1      47.768  19.944  37.703  1.00  0.00     0.087 C 
ATOM     27  N   UNL A   1      46.840  19.114  38.092  1.00  0.00    -0.176 NA
BRANCH  26  28
ATOM     28  C   UNL A   1      49.121  20.201  38.315  1.00  0.00    -0.018 C 
ATOM     29  H   UNL A   1      49.884  19.833  37.660  1.00  0.00     0.030 H 
ATOM     30  H   UNL A   1      49.189  19.700  39.258  1.00  0.00     0.030 H 
ATOM     31  H   UNL A   1      49.254  21.254  38.459  1.00  0.00     0.030 H 
ENDBRANCH  26  28
BRANCH  27  32
ATOM     32  N   UNL A   1      46.972  18.224  39.137  1.00  0.00    -0.252 N 
ATOM     33  H   UNL A   1      47.794  17.683  39.109  1.00  0.00     0.193 HD
BRANCH  32  34
ATOM     34  C   UNL A   1      46.166  17.967  40.198  1.00  0.00     0.203 A 
ATOM     35  N   UNL A   1      45.596  16.818  40.476  1.00  0.00    -0.219 NA
ATOM     36  S   UNL A   1      45.727  19.237  41.287  1.00  0.00    -0.103 S 
ATOM     37  C   UNL A   1      44.540  16.998  41.344  1.00  0.00     0.084 A 
ATOM     38  C   UNL A   1      44.448  18.259  41.894  1.00  0.00     0.021 A 
ATOM     39  H   UNL A   1      43.727  18.567  42.565  1.00  0.00     0.076 H 
BRANCH  37  40
ATOM     40  C   UNL A   1      43.579  15.927  41.538  1.00  0.00     0.001 A 
ATOM     41  C   UNL A   1      43.517  15.272  42.775  1.00  0.00    -0.051 A 
ATOM     42  C   UNL A   1      42.794  15.460  40.474  1.00  0.00    -0.051 A 
ATOM     43  C   UNL A   1      42.657  14.188  42.960  1.00  0.00    -0.043 A 
ATOM     44  H   UNL A   1      44.113  15.593  43.555  1.00  0.00     0.063 H 
ATOM     45  C   UNL A   1      41.942  14.366  40.656  1.00  0.00    -0.043 A 
ATOM     46  H   UNL A   1      42.846  15.925  39.554  1.00  0.00     0.063 H 
ATOM     47  C   UNL A   1      41.871  13.741  41.900  1.00  0.00     0.041 A 
ATOM     48  H   UNL A   1      42.603  13.718  43.878  1.00  0.00     0.064 H 
ATOM     49  H   UNL A   1      41.365  14.023  39.871  1.00  0.00     0.064 H 
ATOM     50  Cl  UNL A   1      40.818  12.399  42.122  1.00  0.00    -0.084 Cl
ENDBRANCH  37  40
ENDBRANCH  32  34
ENDBRANCH  27  32
ENDBRANCH  22  26
BRANCH  24  51
ATOM     51  C   UNL A   1      45.816  22.500  37.300  1.00  0.00    -0.020 C 
ATOM     52  H   UNL A   1      45.766  23.533  37.027  1.00  0.00     0.030 H 
ATOM     53  H   UNL A   1      46.233  22.409  38.281  1.00  0.00     0.030 H 
ATOM     54  H   UNL A   1      44.831  22.081  37.290  1.00  0.00     0.030 H 
ENDBRANCH  24  51
ENDBRANCH  12  21
ENDBRANCH   8  11
ENDBRANCH   4   7
ENDBRANCH   1   4
BRANCH   1  55
ATOM     55  C   UNL A   1      45.487  24.414  27.347  1.00  0.00    -0.052 C 
ATOM     56  H   UNL A   1      44.698  24.111  28.003  1.00  0.00     0.027 H 
ATOM     57  H   UNL A   1      46.094  23.605  26.995  1.00  0.00     0.027 H 
BRANCH  55  58
ATOM     58  C   UNL A   1      44.848  25.033  26.092  1.00  0.00    -0.052 C 
ATOM     59  H   UNL A   1      45.598  25.622  25.604  1.00  0.00     0.027 H 
ATOM     60  H   UNL A   1      44.007  25.591  26.448  1.00  0.00     0.027 H 
BRANCH  58  61
ATOM     61  C   UNL A   1      44.277  24.053  25.057  1.00  0.00    -0.036 C 
ATOM     62  H   UNL A   1      44.934  24.032  24.212  1.00  0.00     0.028 H 
ATOM     63  H   UNL A   1      43.298  24.401  24.802  1.00  0.00     0.028 H 
BRANCH  61  64
ATOM     64  C   UNL A   1      44.123  22.635  25.579  1.00  0.00     0.018 C 
ATOM     65  H   UNL A   1      44.338  22.631  26.628  1.00  0.00     0.049 H 
ATOM     66  H   UNL A   1      44.801  22.012  25.035  1.00  0.00     0.049 H 
BRANCH  64  67
ATOM     67  N   UNL A   1      42.769  22.102  25.376  1.00  0.00    -0.352 N 
ATOM     68  C   UNL A   1      41.632  22.327  26.125  1.00  0.00     0.251 C 
ATOM     69  H   UNL A   1      42.658  21.505  24.602  1.00  0.00     0.163 HD
ATOM     70  O   UNL A   1      40.677  21.544  26.082  1.00  0.00    -0.269 OA
BRANCH  68  71
ATOM     71  C   UNL A   1      41.563  23.527  26.968  1.00  0.00     0.039 A 
ATOM     72  C   UNL A   1      42.154  23.607  28.232  1.00  0.00    -0.049 A 
ATOM     73  C   UNL A   1      40.897  24.619  26.429  1.00  0.00    -0.049 A 
ATOM     74  C   UNL A   1      42.108  24.824  28.909  1.00  0.00    -0.053 A 
ATOM     75  H   UNL A   1      42.615  22.785  28.653  1.00  0.00     0.063 H 
ATOM     76  C   UNL A   1      41.092  25.856  26.962  1.00  0.00    -0.053 A 
ATOM     77  H   UNL A   1      40.258  24.495  25.628  1.00  0.00     0.063 H 
ATOM     78  C   UNL A   1      41.577  25.946  28.254  1.00  0.00    -0.014 A 
ATOM     79  H   UNL A   1      42.458  24.899  29.877  1.00  0.00     0.063 H 
ATOM     80  H   UNL A   1      40.885  26.706  26.415  1.00  0.00     0.063 H 
BRANCH  78  81
ATOM     81  C   UNL A   1      41.573  27.274  28.845  1.00  0.00     0.031 A 
ATOM     82  C   UNL A   1      42.683  28.137  28.380  1.00  0.00     0.074 A 
ATOM     83  C   UNL A   1      40.513  27.744  29.543  1.00  0.00     0.049 A 
ATOM     84  N   UNL A   1      43.685  28.565  29.071  1.00  0.00    -0.248 NA
ATOM     85  C   UNL A   1      42.783  28.428  26.939  1.00  0.00    -0.034 C 
ATOM     86  C   UNL A   1      39.215  27.098  29.790  1.00  0.00    -0.036 A 
ATOM     87  N   UNL A   1      40.333  28.970  30.101  1.00  0.00    -0.354 N 
ATOM     88  C   UNL A   1      44.424  29.365  28.207  1.00  0.00     0.074 A 
ATOM     89  C   UNL A   1      43.951  29.071  26.881  1.00  0.00    -0.034 C 
ATOM     90  H   UNL A   1      42.125  28.197  26.178  1.00  0.00     0.065 H 
ATOM     91  C   UNL A   1      38.322  28.012  30.230  1.00  0.00    -0.036 A 
ATOM     92  H   UNL A   1      39.015  26.095  29.647  1.00  0.00     0.065 H 
ATOM     93  C   UNL A   1      39.021  29.259  30.467  1.00  0.00     0.049 A 
ATOM     94  H   UNL A   1      41.074  29.606  30.237  1.00  0.00     0.167 HD
ATOM     95  C   UNL A   1      45.157  30.405  28.693  1.00  0.00     0.037 A 
ATOM     96  H   UNL A   1      44.443  29.323  26.009  1.00  0.00     0.065 H 
ATOM     97  H   UNL A   1      37.313  27.849  30.374  1.00  0.00     0.065 H 
ATOM     98  C   UNL A   1      38.552  30.454  30.909  1.00  0.00     0.037 A 
ATOM     99  C   UNL A   1      45.348  30.275  30.119  1.00  0.00     0.049 A 
ATOM    100  C   UNL A   1      39.727  31.233  31.374  1.00  0.00     0.074 A 
ATOM    101  C   UNL A   1      45.920  29.321  30.939  1.00  0.00    -0.036 A 
ATOM    102  N   UNL A   1      44.550  31.036  30.939  1.00  0.00    -0.354 N 
ATOM    103  N   UNL A   1      40.444  30.906  32.415  1.00  0.00    -0.248 NA
ATOM    104  C   UNL A   1      40.392  32.084  30.399  1.00  0.00    -0.034 C 
ATOM    105  C   UNL A   1      45.064  29.252  32.079  1.00  0.00    -0.036 A 
ATOM    106  H   UNL A   1      46.780  28.776  30.764  1.00  0.00     0.065 H 
ATOM    107  C   UNL A   1      44.071  30.220  31.931  1.00  0.00     0.049 A 
ATOM    108  H   UNL A   1      44.358  31.996  30.834  1.00  0.00     0.167 HD
ATOM    109  C   UNL A   1      41.755  31.129  32.021  1.00  0.00     0.074 A 
ATOM    110  C   UNL A   1      41.656  31.924  30.798  1.00  0.00    -0.034 C 
ATOM    111  H   UNL A   1      40.000  32.646  29.626  1.00  0.00     0.065 H 
ATOM    112  H   UNL A   1      45.163  28.599  32.872  1.00  0.00     0.065 H 
ATOM    113  C   UNL A   1      42.778  30.395  32.551  1.00  0.00     0.037 A 
ATOM    114  H   UNL A   1      42.470  32.317  30.300  1.00  0.00     0.065 H 
BRANCH  95 115
ATOM    115  C   UNL A   1      45.333  31.726  27.982  1.00  0.00     0.064 A 
ATOM    116  C   UNL A   1      46.637  32.235  27.817  1.00  0.00     0.173 A 
ATOM    117  C   UNL A   1      44.288  32.648  27.747  1.00  0.00     0.173 A 
ATOM    118  F   UNL A   1      47.706  31.453  28.026  1.00  0.00    -0.203 F 
ATOM    119  C   UNL A   1      46.873  33.583  27.537  1.00  0.00     0.198 A 
ATOM    120  C   UNL A   1      44.529  33.979  27.412  1.00  0.00     0.198 A 
ATOM    121  F   UNL A   1      43.001  32.342  27.938  1.00  0.00    -0.203 F 
ATOM    122  F   UNL A   1      48.130  34.048  27.529  1.00  0.00    -0.200 F 
ATOM    123  C   UNL A   1      45.819  34.456  27.343  1.00  0.00     0.200 A 
ATOM    124  F   UNL A   1      43.491  34.812  27.246  1.00  0.00    -0.200 F 
ATOM    125  F   UNL A   1      46.042  35.761  27.144  1.00  0.00    -0.200 F 
ENDBRANCH  95 115
BRANCH  98 126
ATOM    126  C   UNL A   1      37.236  31.090  30.652  1.00  0.00     0.064 A 
ATOM    127  C   UNL A   1      36.370  31.416  31.709  1.00  0.00     0.173 A 
ATOM    128  C   UNL A   1      36.934  31.661  29.400  1.00  0.00     0.173 A 
ATOM    129  F   UNL A   1      36.610  30.951  32.945  1.00  0.00    -0.203 F 
ATOM    130  C   UNL A   1      35.288  32.287  31.534  1.00  0.00     0.198 A 
ATOM    131  C   UNL A   1      35.852  32.527  29.225  1.00  0.00     0.198 A 
ATOM    132  F   UNL A   1      37.741  31.471  28.346  1.00  0.00    -0.203 F 
ATOM    133  F   UNL A   1      34.525  32.628  32.583  1.00  0.00    -0.200 F 
ATOM    134  C   UNL A   1      35.038  32.853  30.294  1.00  0.00     0.200 A 
ATOM    135  F   UNL A   1      35.647  33.099  28.030  1.00  0.00    -0.200 F 
ATOM    136  F   UNL A   1      34.047  33.740  30.140  1.00  0.00    -0.200 F 
ENDBRANCH  98 126
BRANCH 113 137
ATOM    137  C   UNL A   1      42.478  29.539  33.751  1.00  0.00     0.064 A 
ATOM    138  C   UNL A   1      41.826  28.294  33.698  1.00  0.00     0.173 A 
ATOM    139  C   UNL A   1      42.999  29.937  34.989  1.00  0.00     0.173 A 
ATOM    140  F   UNL A   1      41.383  27.795  32.538  1.00  0.00    -0.203 F 
ATOM    141  C   UNL A   1      41.667  27.510  34.841  1.00  0.00     0.198 A 
ATOM    142  C   UNL A   1      42.872  29.136  36.120  1.00  0.00     0.198 A 
ATOM    143  F   UNL A   1      43.679  31.090  35.090  1.00  0.00    -0.203 F 
ATOM    144  F   UNL A   1      41.029  26.331  34.764  1.00  0.00    -0.200 F 
ATOM    145  C   UNL A   1      42.197  27.929  36.049  1.00  0.00     0.200 A 
ATOM    146  F   UNL A   1      43.430  29.524  37.276  1.00  0.00    -0.200 F 
ATOM    147  F   UNL A   1      42.080  27.158  37.139  1.00  0.00    -0.200 F 
ENDBRANCH 113 137
ENDBRANCH  78  81
ENDBRANCH  68  71
ENDBRANCH  64  67
ENDBRANCH  61  64
ENDBRANCH  58  61
ENDBRANCH  55  58
ENDBRANCH   1  55
TORSDOF 20
ENDMDL
MODEL 3
REMARK VINA RESULT:     -10.6      1.328      2.101
REMARK SMILES C/C(=N\Nc1nc(-c2ccc(Cl)cc2)cs1)c1nnn(-c2ccc(C(=O)NCCCCCCNC(=O)c3ccc(-c4c5nc(c(-c6c(F)c(F)c(F)c(F)c6F)c6ccc([nH]6)c(-c6c(F)c(F)c(F)c(F)c6F)c6nc(c(-c7c(F)c(F)c(F)c(F)c7F)c7ccc4[nH]7)C=C6)C=C5)cc3)cc2)c1C
REMARK SMILES IDX 29 1 28 4 27 7 25 8 26 9 24 11 21 12 22 13 101 14 23 15
REMARK SMILES IDX 100 17 20 21 17 22 18 23 102 24 19 25 2 26 3 27 1 28 4 32
REMARK SMILES IDX 5 34 6 35 16 36 7 37 15 38 8 40 9 41 14 42 10 43 13 45 11 47
REMARK SMILES IDX 12 50 103 51 30 55 31 58 32 61 33 64 34 67 35 68 36 70 37 71
REMARK SMILES IDX 38 72 99 73 39 74 98 76 40 78 41 81 42 82 92 83 43 84 97 85
REMARK SMILES IDX 91 86 93 87 44 88 96 89 90 91 89 93 45 95 77 98 57 99 76 100
REMARK SMILES IDX 58 101 61 102 75 103 94 104 59 105 60 107 74 109 95 110
REMARK SMILES IDX 62 113 46 115 47 116 55 117 48 118 49 119 53 120 56 121
REMARK SMILES IDX 50 122 51 123 54 124 52 125 78 126 79 127 87 128 80 129
REMARK SMILES IDX 81 130 85 131 88 132 82 133 83 134 86 135 84 136 63 137
REMARK SMILES IDX 64 138 72 139 65 140 66 141 70 142 73 143 67 144 68 145
REMARK SMILES IDX 71 146 69 147
REMARK H PARENT 29 2 29 3 28 5 28 6 27 10 22 16 101 18 23 19 100 20 1 29 1 30
REMARK H PARENT 1 31 4 33 15 39 9 44 14 46 10 48 13 49 103 52 103 53 103 54
REMARK H PARENT 30 56 30 57 31 59 31 60 32 62 32 63 33 65 33 66 34 69 38 75
REMARK H PARENT 99 77 39 79 98 80 97 90 91 92 93 94 96 96 90 97 58 106 61 108
REMARK H PARENT 94 111 59 112 95 114
REMARK Flexibility Score: inf
ROOT
ATOM      1  C   UNL A   1      36.281  33.661  35.532  1.00  0.00    -0.036 C 
ATOM      2  H   UNL A   1      35.684  34.415  36.002  1.00  0.00     0.028 H 
ATOM      3  H   UNL A   1      35.773  32.722  35.468  1.00  0.00     0.028 H 
ENDROOT
BRANCH   1   4
ATOM      4  C   UNL A   1      37.536  33.439  36.380  1.00  0.00     0.018 C 
ATOM      5  H   UNL A   1      38.345  34.001  35.964  1.00  0.00     0.049 H 
ATOM      6  H   UNL A   1      37.339  33.762  37.381  1.00  0.00     0.049 H 
BRANCH   4   7
ATOM      7  N   UNL A   1      37.892  32.032  36.401  1.00  0.00    -0.352 N 
ATOM      8  C   UNL A   1      38.840  31.294  35.737  1.00  0.00     0.251 C 
ATOM      9  O   UNL A   1      38.917  30.093  35.994  1.00  0.00    -0.269 OA
ATOM     10  H   UNL A   1      37.340  31.497  37.017  1.00  0.00     0.163 HD
BRANCH   8  11
ATOM     11  C   UNL A   1      39.825  31.895  34.794  1.00  0.00     0.039 A 
ATOM     12  C   UNL A   1      41.585  33.379  33.227  1.00  0.00     0.067 A 
ATOM     13  C   UNL A   1      41.932  33.108  34.549  1.00  0.00    -0.036 A 
ATOM     14  C   UNL A   1      40.449  32.809  32.647  1.00  0.00    -0.036 A 
ATOM     15  C   UNL A   1      41.030  32.383  35.335  1.00  0.00    -0.047 A 
ATOM     16  H   UNL A   1      42.830  33.432  34.937  1.00  0.00     0.065 H 
ATOM     17  C   UNL A   1      39.600  32.023  33.423  1.00  0.00    -0.047 A 
ATOM     18  H   UNL A   1      40.239  32.969  31.649  1.00  0.00     0.065 H 
ATOM     19  H   UNL A   1      41.252  32.203  36.327  1.00  0.00     0.063 H 
ATOM     20  H   UNL A   1      38.805  31.535  32.983  1.00  0.00     0.063 H 
BRANCH  12  21
ATOM     21  N   UNL A   1      42.271  34.376  32.512  1.00  0.00    -0.217 N 
ATOM     22  C   UNL A   1      43.214  35.555  30.948  1.00  0.00     0.132 A 
ATOM     23  N   UNL A   1      43.364  36.205  32.146  1.00  0.00    -0.128 NA
ATOM     24  C   UNL A   1      42.507  34.381  31.152  1.00  0.00     0.071 A 
ATOM     25  N   UNL A   1      42.699  35.521  33.074  1.00  0.00    -0.061 NA
BRANCH  22  26
ATOM     26  C   UNL A   1      43.637  36.092  29.661  1.00  0.00     0.087 C 
ATOM     27  N   UNL A   1      42.775  36.852  29.044  1.00  0.00    -0.176 NA
BRANCH  26  28
ATOM     28  C   UNL A   1      45.051  35.752  29.263  1.00  0.00    -0.018 C 
ATOM     29  H   UNL A   1      45.051  34.854  28.679  1.00  0.00     0.030 H 
ATOM     30  H   UNL A   1      45.644  35.605  30.142  1.00  0.00     0.030 H 
ATOM     31  H   UNL A   1      45.462  36.553  28.684  1.00  0.00     0.030 H 
ENDBRANCH  26  28
BRANCH  27  32
ATOM     32  N   UNL A   1      43.046  37.578  27.904  1.00  0.00    -0.252 N 
ATOM     33  H   UNL A   1      43.246  37.031  27.111  1.00  0.00     0.193 HD
BRANCH  32  34
ATOM     34  C   UNL A   1      43.083  38.917  27.687  1.00  0.00     0.203 A 
ATOM     35  N   UNL A   1      42.931  39.518  26.531  1.00  0.00    -0.219 NA
ATOM     36  S   UNL A   1      43.445  40.001  28.985  1.00  0.00    -0.103 S 
ATOM     37  C   UNL A   1      43.433  40.801  26.581  1.00  0.00     0.084 A 
ATOM     38  C   UNL A   1      43.767  41.245  27.842  1.00  0.00     0.021 A 
ATOM     39  H   UNL A   1      44.150  42.178  28.066  1.00  0.00     0.076 H 
BRANCH  37  40
ATOM     40  C   UNL A   1      43.658  41.533  25.347  1.00  0.00     0.001 A 
ATOM     41  C   UNL A   1      44.964  41.889  24.986  1.00  0.00    -0.051 A 
ATOM     42  C   UNL A   1      42.582  41.989  24.572  1.00  0.00    -0.051 A 
ATOM     43  C   UNL A   1      45.197  42.661  23.845  1.00  0.00    -0.043 A 
ATOM     44  H   UNL A   1      45.759  41.581  25.567  1.00  0.00     0.063 H 
ATOM     45  C   UNL A   1      42.815  42.772  23.436  1.00  0.00    -0.043 A 
ATOM     46  H   UNL A   1      41.616  41.746  24.839  1.00  0.00     0.063 H 
ATOM     47  C   UNL A   1      44.122  43.097  23.074  1.00  0.00     0.041 A 
ATOM     48  H   UNL A   1      46.163  42.908  23.574  1.00  0.00     0.064 H 
ATOM     49  H   UNL A   1      42.022  43.107  22.867  1.00  0.00     0.064 H 
ATOM     50  Cl  UNL A   1      44.406  44.055  21.674  1.00  0.00    -0.084 Cl
ENDBRANCH  37  40
ENDBRANCH  32  34
ENDBRANCH  27  32
ENDBRANCH  22  26
BRANCH  24  51
ATOM     51  C   UNL A   1      41.952  33.377  30.205  1.00  0.00    -0.020 C 
ATOM     52  H   UNL A   1      42.280  33.604  29.212  1.00  0.00     0.030 H 
ATOM     53  H   UNL A   1      40.883  33.405  30.242  1.00  0.00     0.030 H 
ATOM     54  H   UNL A   1      42.294  32.401  30.479  1.00  0.00     0.030 H 
ENDBRANCH  24  51
ENDBRANCH  12  21
ENDBRANCH   8  11
ENDBRANCH   4   7
ENDBRANCH   1   4
BRANCH   1  55
ATOM     55  C   UNL A   1      36.583  34.108  34.095  1.00  0.00    -0.052 C 
ATOM     56  H   UNL A   1      37.624  34.346  34.036  1.00  0.00     0.027 H 
ATOM     57  H   UNL A   1      35.936  34.940  33.907  1.00  0.00     0.027 H 
BRANCH  55  58
ATOM     58  C   UNL A   1      36.269  33.078  32.995  1.00  0.00    -0.052 C 
ATOM     59  H   UNL A   1      35.821  32.228  33.465  1.00  0.00     0.027 H 
ATOM     60  H   UNL A   1      37.207  32.880  32.518  1.00  0.00     0.027 H 
BRANCH  58  61
ATOM     61  C   UNL A   1      35.331  33.539  31.870  1.00  0.00    -0.036 C 
ATOM     62  H   UNL A   1      35.892  34.143  31.188  1.00  0.00     0.028 H 
ATOM     63  H   UNL A   1      34.532  34.082  32.330  1.00  0.00     0.028 H 
BRANCH  61  64
ATOM     64  C   UNL A   1      34.701  32.396  31.093  1.00  0.00     0.018 C 
ATOM     65  H   UNL A   1      33.707  32.239  31.459  1.00  0.00     0.049 H 
ATOM     66  H   UNL A   1      35.315  31.530  31.234  1.00  0.00     0.049 H 
BRANCH  64  67
ATOM     67  N   UNL A   1      34.634  32.662  29.650  1.00  0.00    -0.352 N 
ATOM     68  C   UNL A   1      35.617  32.499  28.696  1.00  0.00     0.251 C 
ATOM     69  H   UNL A   1      33.772  33.004  29.320  1.00  0.00     0.163 HD
ATOM     70  O   UNL A   1      35.566  33.102  27.620  1.00  0.00    -0.269 OA
BRANCH  68  71
ATOM     71  C   UNL A   1      36.727  31.578  28.971  1.00  0.00     0.039 A 
ATOM     72  C   UNL A   1      36.681  30.214  28.665  1.00  0.00    -0.049 A 
ATOM     73  C   UNL A   1      37.867  32.139  29.531  1.00  0.00    -0.049 A 
ATOM     74  C   UNL A   1      37.824  29.448  28.883  1.00  0.00    -0.053 A 
ATOM     75  H   UNL A   1      35.821  29.786  28.287  1.00  0.00     0.063 H 
ATOM     76  C   UNL A   1      39.045  31.458  29.482  1.00  0.00    -0.053 A 
ATOM     77  H   UNL A   1      37.822  33.067  29.980  1.00  0.00     0.063 H 
ATOM     78  C   UNL A   1      39.005  30.089  29.287  1.00  0.00    -0.014 A 
ATOM     79  H   UNL A   1      37.803  28.425  28.750  1.00  0.00     0.063 H 
ATOM     80  H   UNL A   1      39.945  31.952  29.587  1.00  0.00     0.063 H 
BRANCH  78  81
ATOM     81  C   UNL A   1      40.268  29.387  29.448  1.00  0.00     0.031 A 
ATOM     82  C   UNL A   1      40.610  29.092  30.859  1.00  0.00     0.074 A 
ATOM     83  C   UNL A   1      40.920  28.835  28.398  1.00  0.00     0.049 A 
ATOM     84  N   UNL A   1      41.573  29.598  31.552  1.00  0.00    -0.248 NA
ATOM     85  C   UNL A   1      39.680  28.263  31.644  1.00  0.00    -0.034 C 
ATOM     86  C   UNL A   1      40.506  28.775  26.988  1.00  0.00    -0.036 A 
ATOM     87  N   UNL A   1      42.066  28.104  28.392  1.00  0.00    -0.354 N 
ATOM     88  C   UNL A   1      41.506  28.981  32.796  1.00  0.00     0.074 A 
ATOM     89  C   UNL A   1      40.216  28.347  32.863  1.00  0.00    -0.034 C 
ATOM     90  H   UNL A   1      38.838  27.753  31.335  1.00  0.00     0.065 H 
ATOM     91  C   UNL A   1      41.254  27.863  26.327  1.00  0.00    -0.036 A 
ATOM     92  H   UNL A   1      39.757  29.345  26.565  1.00  0.00     0.065 H 
ATOM     93  C   UNL A   1      42.307  27.407  27.211  1.00  0.00     0.049 A 
ATOM     94  H   UNL A   1      42.678  28.070  29.163  1.00  0.00     0.167 HD
ATOM     95  C   UNL A   1      42.634  28.808  33.539  1.00  0.00     0.037 A 
ATOM     96  H   UNL A   1      39.771  28.006  33.729  1.00  0.00     0.065 H 
ATOM     97  H   UNL A   1      41.100  27.546  25.358  1.00  0.00     0.065 H 
ATOM     98  C   UNL A   1      43.296  26.501  26.999  1.00  0.00     0.037 A 
ATOM     99  C   UNL A   1      43.699  29.657  33.057  1.00  0.00     0.049 A 
ATOM    100  C   UNL A   1      44.324  26.730  28.045  1.00  0.00     0.074 A 
ATOM    101  C   UNL A   1      43.857  31.022  32.900  1.00  0.00    -0.036 A 
ATOM    102  N   UNL A   1      44.666  29.081  32.270  1.00  0.00    -0.354 N 
ATOM    103  N   UNL A   1      45.056  27.809  28.112  1.00  0.00    -0.248 NA
ATOM    104  C   UNL A   1      44.188  25.987  29.288  1.00  0.00    -0.034 C 
ATOM    105  C   UNL A   1      44.562  31.171  31.668  1.00  0.00    -0.036 A 
ATOM    106  H   UNL A   1      43.535  31.769  33.535  1.00  0.00     0.065 H 
ATOM    107  C   UNL A   1      44.868  29.898  31.188  1.00  0.00     0.049 A 
ATOM    108  H   UNL A   1      45.131  28.232  32.450  1.00  0.00     0.167 HD
ATOM    109  C   UNL A   1      45.101  28.117  29.464  1.00  0.00     0.074 A 
ATOM    110  C   UNL A   1      44.612  26.920  30.145  1.00  0.00    -0.034 C 
ATOM    111  H   UNL A   1      43.860  25.023  29.458  1.00  0.00     0.065 H 
ATOM    112  H   UNL A   1      44.803  32.066  31.212  1.00  0.00     0.065 H 
ATOM    113  C   UNL A   1      45.241  29.411  29.881  1.00  0.00     0.037 A 
ATOM    114  H   UNL A   1      44.596  26.808  31.171  1.00  0.00     0.065 H 
BRANCH  95 115
ATOM    115  C   UNL A   1      42.908  27.599  34.402  1.00  0.00     0.064 A 
ATOM    116  C   UNL A   1      43.332  26.407  33.779  1.00  0.00     0.173 A 
ATOM    117  C   UNL A   1      42.476  27.462  35.740  1.00  0.00     0.173 A 
ATOM    118  F   UNL A   1      43.753  26.416  32.506  1.00  0.00    -0.203 F 
ATOM    119  C   UNL A   1      43.237  25.168  34.415  1.00  0.00     0.198 A 
ATOM    120  C   UNL A   1      42.434  26.230  36.389  1.00  0.00     0.198 A 
ATOM    121  F   UNL A   1      41.969  28.482  36.441  1.00  0.00    -0.203 F 
ATOM    122  F   UNL A   1      43.519  24.049  33.734  1.00  0.00    -0.200 F 
ATOM    123  C   UNL A   1      42.779  25.079  35.717  1.00  0.00     0.200 A 
ATOM    124  F   UNL A   1      41.971  26.165  37.646  1.00  0.00    -0.200 F 
ATOM    125  F   UNL A   1      42.620  23.886  36.304  1.00  0.00    -0.200 F 
ENDBRANCH  95 115
BRANCH  98 126
ATOM    126  C   UNL A   1      43.261  25.259  26.186  1.00  0.00     0.064 A 
ATOM    127  C   UNL A   1      44.270  24.977  25.251  1.00  0.00     0.173 A 
ATOM    128  C   UNL A   1      42.407  24.190  26.524  1.00  0.00     0.173 A 
ATOM    129  F   UNL A   1      45.156  25.925  24.907  1.00  0.00    -0.203 F 
ATOM    130  C   UNL A   1      44.438  23.696  24.712  1.00  0.00     0.198 A 
ATOM    131  C   UNL A   1      42.572  22.914  25.982  1.00  0.00     0.198 A 
ATOM    132  F   UNL A   1      41.460  24.338  27.462  1.00  0.00    -0.203 F 
ATOM    133  F   UNL A   1      45.456  23.449  23.874  1.00  0.00    -0.200 F 
ATOM    134  C   UNL A   1      43.597  22.662  25.088  1.00  0.00     0.200 A 
ATOM    135  F   UNL A   1      41.777  21.913  26.387  1.00  0.00    -0.200 F 
ATOM    136  F   UNL A   1      43.798  21.420  24.627  1.00  0.00    -0.200 F 
ENDBRANCH  98 126
BRANCH 113 137
ATOM    137  C   UNL A   1      45.610  30.443  28.850  1.00  0.00     0.064 A 
ATOM    138  C   UNL A   1      46.921  30.688  28.403  1.00  0.00     0.173 A 
ATOM    139  C   UNL A   1      44.573  31.114  28.190  1.00  0.00     0.173 A 
ATOM    140  F   UNL A   1      47.961  30.019  28.914  1.00  0.00    -0.203 F 
ATOM    141  C   UNL A   1      47.179  31.594  27.374  1.00  0.00     0.198 A 
ATOM    142  C   UNL A   1      44.829  31.990  27.139  1.00  0.00     0.198 A 
ATOM    143  F   UNL A   1      43.297  30.880  28.537  1.00  0.00    -0.203 F 
ATOM    144  F   UNL A   1      48.440  31.818  26.975  1.00  0.00    -0.200 F 
ATOM    145  C   UNL A   1      46.131  32.238  26.739  1.00  0.00     0.200 A 
ATOM    146  F   UNL A   1      43.807  32.572  26.496  1.00  0.00    -0.200 F 
ATOM    147  F   UNL A   1      46.374  33.079  25.724  1.00  0.00    -0.200 F 
ENDBRANCH 113 137
ENDBRANCH  78  81
ENDBRANCH  68  71
ENDBRANCH  64  67
ENDBRANCH  61  64
ENDBRANCH  58  61
ENDBRANCH  55  58
ENDBRANCH   1  55
TORSDOF 20
ENDMDL
MODEL 4
REMARK VINA RESULT:     -10.4      2.311      3.052
REMARK SMILES C/C(=N\Nc1nc(-c2ccc(Cl)cc2)cs1)c1nnn(-c2ccc(C(=O)NCCCCCCNC(=O)c3ccc(-c4c5nc(c(-c6c(F)c(F)c(F)c(F)c6F)c6ccc([nH]6)c(-c6c(F)c(F)c(F)c(F)c6F)c6nc(c(-c7c(F)c(F)c(F)c(F)c7F)c7ccc4[nH]7)C=C6)C=C5)cc3)cc2)c1C
REMARK SMILES IDX 29 1 28 4 27 7 25 8 26 9 24 11 21 12 22 13 101 14 23 15
REMARK SMILES IDX 100 17 20 21 17 22 18 23 102 24 19 25 2 26 3 27 1 28 4 32
REMARK SMILES IDX 5 34 6 35 16 36 7 37 15 38 8 40 9 41 14 42 10 43 13 45 11 47
REMARK SMILES IDX 12 50 103 51 30 55 31 58 32 61 33 64 34 67 35 68 36 70 37 71
REMARK SMILES IDX 38 72 99 73 39 74 98 76 40 78 41 81 42 82 92 83 43 84 97 85
REMARK SMILES IDX 91 86 93 87 44 88 96 89 90 91 89 93 45 95 77 98 57 99 76 100
REMARK SMILES IDX 58 101 61 102 75 103 94 104 59 105 60 107 74 109 95 110
REMARK SMILES IDX 62 113 46 115 47 116 55 117 48 118 49 119 53 120 56 121
REMARK SMILES IDX 50 122 51 123 54 124 52 125 78 126 79 127 87 128 80 129
REMARK SMILES IDX 81 130 85 131 88 132 82 133 83 134 86 135 84 136 63 137
REMARK SMILES IDX 64 138 72 139 65 140 66 141 70 142 73 143 67 144 68 145
REMARK SMILES IDX 71 146 69 147
REMARK H PARENT 29 2 29 3 28 5 28 6 27 10 22 16 101 18 23 19 100 20 1 29 1 30
REMARK H PARENT 1 31 4 33 15 39 9 44 14 46 10 48 13 49 103 52 103 53 103 54
REMARK H PARENT 30 56 30 57 31 59 31 60 32 62 32 63 33 65 33 66 34 69 38 75
REMARK H PARENT 99 77 39 79 98 80 97 90 91 92 93 94 96 96 90 97 58 106 61 108
REMARK H PARENT 94 111 59 112 95 114
REMARK Flexibility Score: inf
ROOT
ATOM      1  C   UNL A   1      37.937  31.245  33.373  1.00  0.00    -0.036 C 
ATOM      2  H   UNL A   1      37.996  30.623  32.504  1.00  0.00     0.028 H 
ATOM      3  H   UNL A   1      38.683  32.012  33.374  1.00  0.00     0.028 H 
ENDROOT
BRANCH   1   4
ATOM      4  C   UNL A   1      38.183  30.375  34.609  1.00  0.00     0.018 C 
ATOM      5  H   UNL A   1      37.543  29.519  34.570  1.00  0.00     0.049 H 
ATOM      6  H   UNL A   1      39.209  30.070  34.618  1.00  0.00     0.049 H 
BRANCH   4   7
ATOM      7  N   UNL A   1      37.905  31.126  35.821  1.00  0.00    -0.352 N 
ATOM      8  C   UNL A   1      38.442  32.269  36.359  1.00  0.00     0.251 C 
ATOM      9  O   UNL A   1      37.964  32.685  37.415  1.00  0.00    -0.269 OA
ATOM     10  H   UNL A   1      37.186  30.735  36.368  1.00  0.00     0.163 HD
BRANCH   8  11
ATOM     11  C   UNL A   1      39.505  33.065  35.684  1.00  0.00     0.039 A 
ATOM     12  C   UNL A   1      41.278  34.482  34.070  1.00  0.00     0.067 A 
ATOM     13  C   UNL A   1      40.031  35.040  34.344  1.00  0.00    -0.036 A 
ATOM     14  C   UNL A   1      41.696  33.306  34.697  1.00  0.00    -0.036 A 
ATOM     15  C   UNL A   1      39.138  34.309  35.135  1.00  0.00    -0.047 A 
ATOM     16  H   UNL A   1      39.773  35.967  33.974  1.00  0.00     0.065 H 
ATOM     17  C   UNL A   1      40.823  32.629  35.545  1.00  0.00    -0.047 A 
ATOM     18  H   UNL A   1      42.647  32.939  34.532  1.00  0.00     0.065 H 
ATOM     19  H   UNL A   1      38.195  34.688  35.320  1.00  0.00     0.063 H 
ATOM     20  H   UNL A   1      41.152  31.805  36.072  1.00  0.00     0.063 H 
BRANCH  12  21
ATOM     21  N   UNL A   1      42.061  34.996  33.023  1.00  0.00    -0.217 N 
ATOM     22  C   UNL A   1      42.952  35.402  31.082  1.00  0.00     0.132 A 
ATOM     23  N   UNL A   1      43.549  36.203  32.021  1.00  0.00    -0.128 NA
ATOM     24  C   UNL A   1      41.985  34.623  31.696  1.00  0.00     0.071 A 
ATOM     25  N   UNL A   1      42.927  36.013  33.182  1.00  0.00    -0.061 NA
BRANCH  22  26
ATOM     26  C   UNL A   1      43.227  35.464  29.652  1.00  0.00     0.087 C 
ATOM     27  N   UNL A   1      42.751  36.501  29.020  1.00  0.00    -0.176 NA
BRANCH  26  28
ATOM     28  C   UNL A   1      44.095  34.352  29.121  1.00  0.00    -0.018 C 
ATOM     29  H   UNL A   1      44.837  34.100  29.851  1.00  0.00     0.030 H 
ATOM     30  H   UNL A   1      44.575  34.672  28.220  1.00  0.00     0.030 H 
ATOM     31  H   UNL A   1      43.490  33.492  28.918  1.00  0.00     0.030 H 
ENDBRANCH  26  28
BRANCH  27  32
ATOM     32  N   UNL A   1      43.039  36.821  27.711  1.00  0.00    -0.252 N 
ATOM     33  H   UNL A   1      42.362  36.524  27.061  1.00  0.00     0.193 HD
BRANCH  32  34
ATOM     34  C   UNL A   1      44.094  37.476  27.163  1.00  0.00     0.203 A 
ATOM     35  N   UNL A   1      45.270  36.960  26.894  1.00  0.00    -0.219 NA
ATOM     36  S   UNL A   1      43.993  39.172  26.837  1.00  0.00    -0.103 S 
ATOM     37  C   UNL A   1      46.214  37.954  26.750  1.00  0.00     0.084 A 
ATOM     38  C   UNL A   1      45.706  39.235  26.694  1.00  0.00     0.021 A 
ATOM     39  H   UNL A   1      46.266  40.095  26.583  1.00  0.00     0.076 H 
BRANCH  37  40
ATOM     40  C   UNL A   1      47.625  37.612  26.765  1.00  0.00     0.001 A 
ATOM     41  C   UNL A   1      48.009  36.267  26.693  1.00  0.00    -0.051 A 
ATOM     42  C   UNL A   1      48.604  38.596  26.966  1.00  0.00    -0.051 A 
ATOM     43  C   UNL A   1      49.356  35.909  26.785  1.00  0.00    -0.043 A 
ATOM     44  H   UNL A   1      47.292  35.535  26.573  1.00  0.00     0.063 H 
ATOM     45  C   UNL A   1      49.952  38.237  27.071  1.00  0.00    -0.043 A 
ATOM     46  H   UNL A   1      48.330  39.588  27.038  1.00  0.00     0.063 H 
ATOM     47  C   UNL A   1      50.323  36.896  26.972  1.00  0.00     0.041 A 
ATOM     48  H   UNL A   1      49.636  34.918  26.716  1.00  0.00     0.064 H 
ATOM     49  H   UNL A   1      50.671  38.962  27.220  1.00  0.00     0.064 H 
ATOM     50  Cl  UNL A   1      51.981  36.458  27.095  1.00  0.00    -0.084 Cl
ENDBRANCH  37  40
ENDBRANCH  32  34
ENDBRANCH  27  32
ENDBRANCH  22  26
BRANCH  24  51
ATOM     51  C   UNL A   1      40.959  33.696  31.147  1.00  0.00    -0.020 C 
ATOM     52  H   UNL A   1      41.182  33.484  30.122  1.00  0.00     0.030 H 
ATOM     53  H   UNL A   1      39.993  34.152  31.214  1.00  0.00     0.030 H 
ATOM     54  H   UNL A   1      40.964  32.785  31.709  1.00  0.00     0.030 H 
ENDBRANCH  24  51
ENDBRANCH  12  21
ENDBRANCH   8  11
ENDBRANCH   4   7
ENDBRANCH   1   4
BRANCH   1  55
ATOM     55  C   UNL A   1      36.571  31.944  33.377  1.00  0.00    -0.052 C 
ATOM     56  H   UNL A   1      36.244  32.021  34.393  1.00  0.00     0.027 H 
ATOM     57  H   UNL A   1      35.935  31.343  32.760  1.00  0.00     0.027 H 
BRANCH  55  58
ATOM     58  C   UNL A   1      36.539  33.354  32.762  1.00  0.00    -0.052 C 
ATOM     59  H   UNL A   1      37.493  33.531  32.309  1.00  0.00     0.027 H 
ATOM     60  H   UNL A   1      36.302  34.012  33.572  1.00  0.00     0.027 H 
BRANCH  58  61
ATOM     61  C   UNL A   1      35.462  33.615  31.698  1.00  0.00    -0.036 C 
ATOM     62  H   UNL A   1      35.935  34.033  30.834  1.00  0.00     0.028 H 
ATOM     63  H   UNL A   1      34.747  34.282  32.133  1.00  0.00     0.028 H 
BRANCH  61  64
ATOM     64  C   UNL A   1      34.706  32.367  31.276  1.00  0.00     0.018 C 
ATOM     65  H   UNL A   1      33.765  32.347  31.788  1.00  0.00     0.049 H 
ATOM     66  H   UNL A   1      35.310  31.520  31.527  1.00  0.00     0.049 H 
BRANCH  64  67
ATOM     67  N   UNL A   1      34.455  32.321  29.830  1.00  0.00    -0.352 N 
ATOM     68  C   UNL A   1      35.327  31.989  28.813  1.00  0.00     0.251 C 
ATOM     69  H   UNL A   1      33.542  32.559  29.548  1.00  0.00     0.163 HD
ATOM     70  O   UNL A   1      35.115  32.350  27.651  1.00  0.00    -0.269 OA
BRANCH  68  71
ATOM     71  C   UNL A   1      36.511  31.181  29.129  1.00  0.00     0.039 A 
ATOM     72  C   UNL A   1      36.487  29.784  29.193  1.00  0.00    -0.049 A 
ATOM     73  C   UNL A   1      37.694  31.877  29.334  1.00  0.00    -0.049 A 
ATOM     74  C   UNL A   1      37.687  29.110  29.409  1.00  0.00    -0.053 A 
ATOM     75  H   UNL A   1      35.601  29.265  29.081  1.00  0.00     0.063 H 
ATOM     76  C   UNL A   1      38.882  31.218  29.269  1.00  0.00    -0.053 A 
ATOM     77  H   UNL A   1      37.673  32.890  29.533  1.00  0.00     0.063 H 
ATOM     78  C   UNL A   1      38.882  29.845  29.438  1.00  0.00    -0.014 A 
ATOM     79  H   UNL A   1      37.696  28.087  29.547  1.00  0.00     0.063 H 
ATOM     80  H   UNL A   1      39.762  31.729  29.097  1.00  0.00     0.063 H 
BRANCH  78  81
ATOM     81  C   UNL A   1      40.188  29.219  29.565  1.00  0.00     0.031 A 
ATOM     82  C   UNL A   1      40.637  29.055  30.967  1.00  0.00     0.074 A 
ATOM     83  C   UNL A   1      40.800  28.617  28.518  1.00  0.00     0.049 A 
ATOM     84  N   UNL A   1      41.614  29.659  31.553  1.00  0.00    -0.248 NA
ATOM     85  C   UNL A   1      39.805  28.247  31.876  1.00  0.00    -0.034 C 
ATOM     86  C   UNL A   1      40.299  28.425  27.148  1.00  0.00    -0.036 A 
ATOM     87  N   UNL A   1      41.980  27.944  28.489  1.00  0.00    -0.354 N 
ATOM     88  C   UNL A   1      41.661  29.141  32.841  1.00  0.00     0.074 A 
ATOM     89  C   UNL A   1      40.414  28.453  33.045  1.00  0.00    -0.034 C 
ATOM     90  H   UNL A   1      38.973  27.673  31.665  1.00  0.00     0.065 H 
ATOM     91  C   UNL A   1      41.050  27.500  26.509  1.00  0.00    -0.036 A 
ATOM     92  H   UNL A   1      39.494  28.923  26.736  1.00  0.00     0.065 H 
ATOM     93  C   UNL A   1      42.181  27.168  27.351  1.00  0.00     0.049 A 
ATOM     94  H   UNL A   1      42.642  28.001  29.216  1.00  0.00     0.167 HD
ATOM     95  C   UNL A   1      42.842  29.083  33.516  1.00  0.00     0.037 A 
ATOM     96  H   UNL A   1      40.044  28.161  33.963  1.00  0.00     0.065 H 
ATOM     97  H   UNL A   1      40.851  27.100  25.580  1.00  0.00     0.065 H 
ATOM     98  C   UNL A   1      43.201  26.296  27.140  1.00  0.00     0.037 A 
ATOM     99  C   UNL A   1      43.827  29.941  32.899  1.00  0.00     0.049 A 
ATOM    100  C   UNL A   1      44.281  26.658  28.093  1.00  0.00     0.074 A 
ATOM    101  C   UNL A   1      43.901  31.294  32.627  1.00  0.00    -0.036 A 
ATOM    102  N   UNL A   1      44.770  29.351  32.093  1.00  0.00    -0.354 N 
ATOM    103  N   UNL A   1      44.958  27.772  28.027  1.00  0.00    -0.248 NA
ATOM    104  C   UNL A   1      44.266  26.010  29.396  1.00  0.00    -0.034 C 
ATOM    105  C   UNL A   1      44.516  31.379  31.342  1.00  0.00    -0.036 A 
ATOM    106  H   UNL A   1      43.582  32.074  33.224  1.00  0.00     0.065 H 
ATOM    107  C   UNL A   1      44.857  30.087  30.940  1.00  0.00     0.049 A 
ATOM    108  H   UNL A   1      45.291  28.542  32.305  1.00  0.00     0.167 HD
ATOM    109  C   UNL A   1      45.074  28.189  29.345  1.00  0.00     0.074 A 
ATOM    110  C   UNL A   1      44.694  27.028  30.147  1.00  0.00    -0.034 C 
ATOM    111  H   UNL A   1      44.002  25.048  29.660  1.00  0.00     0.065 H 
ATOM    112  H   UNL A   1      44.679  32.245  30.804  1.00  0.00     0.065 H 
ATOM    113  C   UNL A   1      45.171  29.517  29.652  1.00  0.00     0.037 A 
ATOM    114  H   UNL A   1      44.751  26.997  31.178  1.00  0.00     0.065 H 
BRANCH  95 115
ATOM    115  C   UNL A   1      43.235  27.961  34.448  1.00  0.00     0.064 A 
ATOM    116  C   UNL A   1      43.598  28.279  35.772  1.00  0.00     0.173 A 
ATOM    117  C   UNL A   1      43.575  26.656  34.023  1.00  0.00     0.173 A 
ATOM    118  F   UNL A   1      43.335  29.493  36.278  1.00  0.00    -0.203 F 
ATOM    119  C   UNL A   1      44.328  27.396  36.570  1.00  0.00     0.198 A 
ATOM    120  C   UNL A   1      44.256  25.758  34.843  1.00  0.00     0.198 A 
ATOM    121  F   UNL A   1      43.372  26.230  32.772  1.00  0.00    -0.203 F 
ATOM    122  F   UNL A   1      44.771  27.797  37.770  1.00  0.00    -0.200 F 
ATOM    123  C   UNL A   1      44.665  26.139  36.102  1.00  0.00     0.200 A 
ATOM    124  F   UNL A   1      44.587  24.551  34.362  1.00  0.00    -0.200 F 
ATOM    125  F   UNL A   1      45.425  25.318  36.837  1.00  0.00    -0.200 F 
ENDBRANCH  95 115
BRANCH  98 126
ATOM    126  C   UNL A   1      43.180  24.994  26.429  1.00  0.00     0.064 A 
ATOM    127  C   UNL A   1      44.007  24.761  25.318  1.00  0.00     0.173 A 
ATOM    128  C   UNL A   1      42.576  23.858  27.005  1.00  0.00     0.173 A 
ATOM    129  F   UNL A   1      44.658  25.781  24.738  1.00  0.00    -0.203 F 
ATOM    130  C   UNL A   1      44.244  23.469  24.833  1.00  0.00     0.198 A 
ATOM    131  C   UNL A   1      42.808  22.570  26.517  1.00  0.00     0.198 A 
ATOM    132  F   UNL A   1      41.828  23.966  28.113  1.00  0.00    -0.203 F 
ATOM    133  F   UNL A   1      45.094  23.282  23.813  1.00  0.00    -0.200 F 
ATOM    134  C   UNL A   1      43.654  22.373  25.442  1.00  0.00     0.200 A 
ATOM    135  F   UNL A   1      42.264  21.516  27.142  1.00  0.00    -0.200 F 
ATOM    136  F   UNL A   1      43.933  21.132  25.023  1.00  0.00    -0.200 F 
ENDBRANCH  98 126
BRANCH 113 137
ATOM    137  C   UNL A   1      45.417  30.480  28.523  1.00  0.00     0.064 A 
ATOM    138  C   UNL A   1      44.412  30.999  27.686  1.00  0.00     0.173 A 
ATOM    139  C   UNL A   1      46.707  31.005  28.375  1.00  0.00     0.173 A 
ATOM    140  F   UNL A   1      43.136  30.624  27.825  1.00  0.00    -0.203 F 
ATOM    141  C   UNL A   1      44.700  31.964  26.720  1.00  0.00     0.198 A 
ATOM    142  C   UNL A   1      46.985  31.993  27.436  1.00  0.00     0.198 A 
ATOM    143  F   UNL A   1      47.696  30.587  29.181  1.00  0.00    -0.203 F 
ATOM    144  F   UNL A   1      43.725  32.433  25.927  1.00  0.00    -0.200 F 
ATOM    145  C   UNL A   1      45.985  32.465  26.602  1.00  0.00     0.200 A 
ATOM    146  F   UNL A   1      48.220  32.509  27.359  1.00  0.00    -0.200 F 
ATOM    147  F   UNL A   1      46.255  33.421  25.701  1.00  0.00    -0.200 F 
ENDBRANCH 113 137
ENDBRANCH  78  81
ENDBRANCH  68  71
ENDBRANCH  64  67
ENDBRANCH  61  64
ENDBRANCH  58  61
ENDBRANCH  55  58
ENDBRANCH   1  55
TORSDOF 20
ENDMDL
MODEL 5
REMARK VINA RESULT:     -10.4      2.142      2.925
REMARK SMILES C/C(=N\Nc1nc(-c2ccc(Cl)cc2)cs1)c1nnn(-c2ccc(C(=O)NCCCCCCNC(=O)c3ccc(-c4c5nc(c(-c6c(F)c(F)c(F)c(F)c6F)c6ccc([nH]6)c(-c6c(F)c(F)c(F)c(F)c6F)c6nc(c(-c7c(F)c(F)c(F)c(F)c7F)c7ccc4[nH]7)C=C6)C=C5)cc3)cc2)c1C
REMARK SMILES IDX 29 1 28 4 27 7 25 8 26 9 24 11 21 12 22 13 101 14 23 15
REMARK SMILES IDX 100 17 20 21 17 22 18 23 102 24 19 25 2 26 3 27 1 28 4 32
REMARK SMILES IDX 5 34 6 35 16 36 7 37 15 38 8 40 9 41 14 42 10 43 13 45 11 47
REMARK SMILES IDX 12 50 103 51 30 55 31 58 32 61 33 64 34 67 35 68 36 70 37 71
REMARK SMILES IDX 38 72 99 73 39 74 98 76 40 78 41 81 42 82 92 83 43 84 97 85
REMARK SMILES IDX 91 86 93 87 44 88 96 89 90 91 89 93 45 95 77 98 57 99 76 100
REMARK SMILES IDX 58 101 61 102 75 103 94 104 59 105 60 107 74 109 95 110
REMARK SMILES IDX 62 113 46 115 47 116 55 117 48 118 49 119 53 120 56 121
REMARK SMILES IDX 50 122 51 123 54 124 52 125 78 126 79 127 87 128 80 129
REMARK SMILES IDX 81 130 85 131 88 132 82 133 83 134 86 135 84 136 63 137
REMARK SMILES IDX 64 138 72 139 65 140 66 141 70 142 73 143 67 144 68 145
REMARK SMILES IDX 71 146 69 147
REMARK H PARENT 29 2 29 3 28 5 28 6 27 10 22 16 101 18 23 19 100 20 1 29 1 30
REMARK H PARENT 1 31 4 33 15 39 9 44 14 46 10 48 13 49 103 52 103 53 103 54
REMARK H PARENT 30 56 30 57 31 59 31 60 32 62 32 63 33 65 33 66 34 69 38 75
REMARK H PARENT 99 77 39 79 98 80 97 90 91 92 93 94 96 96 90 97 58 106 61 108
REMARK H PARENT 94 111 59 112 95 114
REMARK Flexibility Score: inf
ROOT
ATOM      1  C   UNL A   1      36.151  33.770  35.494  1.00  0.00    -0.036 C 
ATOM      2  H   UNL A   1      35.582  34.516  36.009  1.00  0.00     0.028 H 
ATOM      3  H   UNL A   1      35.606  32.858  35.368  1.00  0.00     0.028 H 
ENDROOT
BRANCH   1   4
ATOM      4  C   UNL A   1      37.390  33.443  36.332  1.00  0.00     0.018 C 
ATOM      5  H   UNL A   1      38.224  34.000  35.961  1.00  0.00     0.049 H 
ATOM      6  H   UNL A   1      37.196  33.704  37.352  1.00  0.00     0.049 H 
BRANCH   4   7
ATOM      7  N   UNL A   1      37.691  32.024  36.259  1.00  0.00    -0.352 N 
ATOM      8  C   UNL A   1      38.625  31.299  35.562  1.00  0.00     0.251 C 
ATOM      9  O   UNL A   1      38.651  30.080  35.734  1.00  0.00    -0.269 OA
ATOM     10  H   UNL A   1      37.106  31.469  36.824  1.00  0.00     0.163 HD
BRANCH   8  11
ATOM     11  C   UNL A   1      39.652  31.926  34.683  1.00  0.00     0.039 A 
ATOM     12  C   UNL A   1      41.525  33.438  33.282  1.00  0.00     0.067 A 
ATOM     13  C   UNL A   1      41.857  32.972  34.552  1.00  0.00    -0.036 A 
ATOM     14  C   UNL A   1      40.339  33.046  32.657  1.00  0.00    -0.036 A 
ATOM     15  C   UNL A   1      40.900  32.235  35.258  1.00  0.00    -0.047 A 
ATOM     16  H   UNL A   1      42.784  33.165  34.962  1.00  0.00     0.065 H 
ATOM     17  C   UNL A   1      39.430  32.246  33.344  1.00  0.00    -0.047 A 
ATOM     18  H   UNL A   1      40.136  33.349  31.691  1.00  0.00     0.065 H 
ATOM     19  H   UNL A   1      41.113  31.912  36.216  1.00  0.00     0.063 H 
ATOM     20  H   UNL A   1      38.591  31.888  32.860  1.00  0.00     0.063 H 
BRANCH  12  21
ATOM     21  N   UNL A   1      42.292  34.452  32.685  1.00  0.00    -0.217 N 
ATOM     22  C   UNL A   1      43.405  35.681  31.279  1.00  0.00     0.132 A 
ATOM     23  N   UNL A   1      43.433  36.281  32.511  1.00  0.00    -0.128 NA
ATOM     24  C   UNL A   1      42.670  34.509  31.359  1.00  0.00     0.071 A 
ATOM     25  N   UNL A   1      42.668  35.569  33.335  1.00  0.00    -0.061 NA
BRANCH  22  26
ATOM     26  C   UNL A   1      43.967  36.263  30.066  1.00  0.00     0.087 C 
ATOM     27  N   UNL A   1      43.144  36.954  29.327  1.00  0.00    -0.176 NA
BRANCH  26  28
ATOM     28  C   UNL A   1      45.447  36.046  29.882  1.00  0.00    -0.018 C 
ATOM     29  H   UNL A   1      45.621  35.543  28.953  1.00  0.00     0.030 H 
ATOM     30  H   UNL A   1      45.824  35.448  30.686  1.00  0.00     0.030 H 
ATOM     31  H   UNL A   1      45.949  36.992  29.874  1.00  0.00     0.030 H 
ENDBRANCH  26  28
BRANCH  27  32
ATOM     32  N   UNL A   1      43.518  37.712  28.237  1.00  0.00    -0.252 N 
ATOM     33  H   UNL A   1      43.578  37.208  27.394  1.00  0.00     0.193 HD
BRANCH  32  34
ATOM     34  C   UNL A   1      43.815  39.031  28.127  1.00  0.00     0.203 A 
ATOM     35  N   UNL A   1      44.036  39.860  29.119  1.00  0.00    -0.219 NA
ATOM     36  S   UNL A   1      43.839  39.792  26.574  1.00  0.00    -0.103 S 
ATOM     37  C   UNL A   1      43.891  41.166  28.702  1.00  0.00     0.084 A 
ATOM     38  C   UNL A   1      43.772  41.331  27.339  1.00  0.00     0.021 A 
ATOM     39  H   UNL A   1      43.662  42.235  26.853  1.00  0.00     0.076 H 
BRANCH  37  40
ATOM     40  C   UNL A   1      43.778  42.226  29.688  1.00  0.00     0.001 A 
ATOM     41  C   UNL A   1      44.733  43.251  29.711  1.00  0.00    -0.051 A 
ATOM     42  C   UNL A   1      42.796  42.180  30.688  1.00  0.00    -0.051 A 
ATOM     43  C   UNL A   1      44.689  44.237  30.699  1.00  0.00    -0.043 A 
ATOM     44  H   UNL A   1      45.475  43.276  28.995  1.00  0.00     0.063 H 
ATOM     45  C   UNL A   1      42.760  43.161  31.685  1.00  0.00    -0.043 A 
ATOM     46  H   UNL A   1      42.098  41.420  30.690  1.00  0.00     0.063 H 
ATOM     47  C   UNL A   1      43.701  44.189  31.681  1.00  0.00     0.041 A 
ATOM     48  H   UNL A   1      45.386  44.999  30.703  1.00  0.00     0.064 H 
ATOM     49  H   UNL A   1      42.037  43.124  32.421  1.00  0.00     0.064 H 
ATOM     50  Cl  UNL A   1      43.651  45.397  32.904  1.00  0.00    -0.084 Cl
ENDBRANCH  37  40
ENDBRANCH  32  34
ENDBRANCH  27  32
ENDBRANCH  22  26
BRANCH  24  51
ATOM     51  C   UNL A   1      42.209  33.551  30.318  1.00  0.00    -0.020 C 
ATOM     52  H   UNL A   1      43.056  33.161  29.793  1.00  0.00     0.030 H 
ATOM     53  H   UNL A   1      41.564  34.056  29.629  1.00  0.00     0.030 H 
ATOM     54  H   UNL A   1      41.677  32.748  30.783  1.00  0.00     0.030 H 
ENDBRANCH  24  51
ENDBRANCH  12  21
ENDBRANCH   8  11
ENDBRANCH   4   7
ENDBRANCH   1   4
BRANCH   1  55
ATOM     55  C   UNL A   1      36.482  34.295  34.090  1.00  0.00    -0.052 C 
ATOM     56  H   UNL A   1      37.526  34.529  34.064  1.00  0.00     0.027 H 
ATOM     57  H   UNL A   1      35.844  35.141  33.938  1.00  0.00     0.027 H 
BRANCH  55  58
ATOM     58  C   UNL A   1      36.182  33.332  32.929  1.00  0.00    -0.052 C 
ATOM     59  H   UNL A   1      35.749  32.446  33.345  1.00  0.00     0.027 H 
ATOM     60  H   UNL A   1      37.121  33.179  32.438  1.00  0.00     0.027 H 
BRANCH  58  61
ATOM     61  C   UNL A   1      35.233  33.847  31.836  1.00  0.00    -0.036 C 
ATOM     62  H   UNL A   1      35.792  34.470  31.170  1.00  0.00     0.028 H 
ATOM     63  H   UNL A   1      34.448  34.381  32.329  1.00  0.00     0.028 H 
BRANCH  61  64
ATOM     64  C   UNL A   1      34.579  32.742  31.025  1.00  0.00     0.018 C 
ATOM     65  H   UNL A   1      33.563  32.637  31.346  1.00  0.00     0.049 H 
ATOM     66  H   UNL A   1      35.139  31.845  31.187  1.00  0.00     0.049 H 
BRANCH  64  67
ATOM     67  N   UNL A   1      34.590  33.018  29.582  1.00  0.00    -0.352 N 
ATOM     68  C   UNL A   1      35.600  32.796  28.669  1.00  0.00     0.251 C 
ATOM     69  H   UNL A   1      33.766  33.415  29.219  1.00  0.00     0.163 HD
ATOM     70  O   UNL A   1      35.632  33.406  27.596  1.00  0.00    -0.269 OA
BRANCH  68  71
ATOM     71  C   UNL A   1      36.636  31.805  28.984  1.00  0.00     0.039 A 
ATOM     72  C   UNL A   1      36.499  30.442  28.706  1.00  0.00    -0.049 A 
ATOM     73  C   UNL A   1      37.803  32.296  29.554  1.00  0.00    -0.049 A 
ATOM     74  C   UNL A   1      37.581  29.602  28.961  1.00  0.00    -0.053 A 
ATOM     75  H   UNL A   1      35.618  30.068  28.320  1.00  0.00     0.063 H 
ATOM     76  C   UNL A   1      38.930  31.533  29.542  1.00  0.00    -0.053 A 
ATOM     77  H   UNL A   1      37.816  33.235  29.984  1.00  0.00     0.063 H 
ATOM     78  C   UNL A   1      38.797  30.167  29.374  1.00  0.00    -0.014 A 
ATOM     79  H   UNL A   1      37.489  28.580  28.848  1.00  0.00     0.063 H 
ATOM     80  H   UNL A   1      39.861  31.964  29.655  1.00  0.00     0.063 H 
BRANCH  78  81
ATOM     81  C   UNL A   1      40.003  29.381  29.574  1.00  0.00     0.031 A 
ATOM     82  C   UNL A   1      40.316  29.121  30.998  1.00  0.00     0.074 A 
ATOM     83  C   UNL A   1      40.618  28.740  28.553  1.00  0.00     0.049 A 
ATOM     84  N   UNL A   1      41.311  29.582  31.678  1.00  0.00    -0.248 NA
ATOM     85  C   UNL A   1      39.323  28.395  31.809  1.00  0.00    -0.034 C 
ATOM     86  C   UNL A   1      40.208  28.652  27.143  1.00  0.00    -0.036 A 
ATOM     87  N   UNL A   1      41.707  27.927  28.585  1.00  0.00    -0.354 N 
ATOM     88  C   UNL A   1      41.192  29.023  32.945  1.00  0.00     0.074 A 
ATOM     89  C   UNL A   1      39.859  28.490  33.028  1.00  0.00    -0.034 C 
ATOM     90  H   UNL A   1      38.448  27.936  31.514  1.00  0.00     0.065 H 
ATOM     91  C   UNL A   1      40.889  27.660  26.526  1.00  0.00    -0.036 A 
ATOM     92  H   UNL A   1      39.505  29.257  26.691  1.00  0.00     0.065 H 
ATOM     93  C   UNL A   1      41.902  27.165  27.436  1.00  0.00     0.049 A 
ATOM     94  H   UNL A   1      42.311  27.879  29.362  1.00  0.00     0.167 HD
ATOM     95  C   UNL A   1      42.301  28.800  33.703  1.00  0.00     0.037 A 
ATOM     96  H   UNL A   1      39.385  28.219  33.904  1.00  0.00     0.065 H 
ATOM     97  H   UNL A   1      40.717  27.316  25.569  1.00  0.00     0.065 H 
ATOM     98  C   UNL A   1      42.822  26.181  27.268  1.00  0.00     0.037 A 
ATOM     99  C   UNL A   1      43.428  29.547  33.196  1.00  0.00     0.049 A 
ATOM    100  C   UNL A   1      43.859  26.378  28.312  1.00  0.00     0.074 A 
ATOM    101  C   UNL A   1      43.687  30.889  32.984  1.00  0.00    -0.036 A 
ATOM    102  N   UNL A   1      44.353  28.869  32.440  1.00  0.00    -0.354 N 
ATOM    103  N   UNL A   1      44.669  27.401  28.341  1.00  0.00    -0.248 NA
ATOM    104  C   UNL A   1      43.663  25.698  29.584  1.00  0.00    -0.034 C 
ATOM    105  C   UNL A   1      44.407  30.935  31.753  1.00  0.00    -0.036 A 
ATOM    106  H   UNL A   1      43.418  31.683  33.586  1.00  0.00     0.065 H 
ATOM    107  C   UNL A   1      44.620  29.623  31.327  1.00  0.00     0.049 A 
ATOM    108  H   UNL A   1      44.754  27.997  32.659  1.00  0.00     0.167 HD
ATOM    109  C   UNL A   1      44.730  27.761  29.679  1.00  0.00     0.074 A 
ATOM    110  C   UNL A   1      44.151  26.632  30.405  1.00  0.00    -0.034 C 
ATOM    111  H   UNL A   1      43.264  24.769  29.790  1.00  0.00     0.065 H 
ATOM    112  H   UNL A   1      44.715  31.789  31.263  1.00  0.00     0.065 H 
ATOM    113  C   UNL A   1      44.963  29.057  30.044  1.00  0.00     0.037 A 
ATOM    114  H   UNL A   1      44.121  26.565  31.434  1.00  0.00     0.065 H 
BRANCH  95 115
ATOM    115  C   UNL A   1      42.480  27.610  34.617  1.00  0.00     0.064 A 
ATOM    116  C   UNL A   1      42.958  26.403  34.068  1.00  0.00     0.173 A 
ATOM    117  C   UNL A   1      41.916  27.507  35.909  1.00  0.00     0.173 A 
ATOM    118  F   UNL A   1      43.503  26.379  32.842  1.00  0.00    -0.203 F 
ATOM    119  C   UNL A   1      42.792  25.179  34.720  1.00  0.00     0.198 A 
ATOM    120  C   UNL A   1      41.804  26.291  36.579  1.00  0.00     0.198 A 
ATOM    121  F   UNL A   1      41.348  28.545  36.532  1.00  0.00    -0.203 F 
ATOM    122  F   UNL A   1      43.135  24.043  34.096  1.00  0.00    -0.200 F 
ATOM    123  C   UNL A   1      42.207  25.122  35.971  1.00  0.00     0.200 A 
ATOM    124  F   UNL A   1      41.217  26.257  37.784  1.00  0.00    -0.200 F 
ATOM    125  F   UNL A   1      41.984  23.944  36.567  1.00  0.00    -0.200 F 
ENDBRANCH  95 115
BRANCH  98 126
ATOM    126  C   UNL A   1      42.700  24.913  26.507  1.00  0.00     0.064 A 
ATOM    127  C   UNL A   1      43.571  24.618  25.445  1.00  0.00     0.173 A 
ATOM    128  C   UNL A   1      41.928  23.840  26.996  1.00  0.00     0.173 A 
ATOM    129  F   UNL A   1      44.376  25.571  24.949  1.00  0.00    -0.203 F 
ATOM    130  C   UNL A   1      43.689  23.323  24.926  1.00  0.00     0.198 A 
ATOM    131  C   UNL A   1      42.043  22.549  26.475  1.00  0.00     0.198 A 
ATOM    132  F   UNL A   1      41.122  24.001  28.056  1.00  0.00    -0.203 F 
ATOM    133  F   UNL A   1      44.582  23.068  23.959  1.00  0.00    -0.200 F 
ATOM    134  C   UNL A   1      42.934  22.287  25.451  1.00  0.00     0.200 A 
ATOM    135  F   UNL A   1      41.337  21.548  27.020  1.00  0.00    -0.200 F 
ATOM    136  F   UNL A   1      43.096  21.035  25.004  1.00  0.00    -0.200 F 
ENDBRANCH  98 126
BRANCH 113 137
ATOM    137  C   UNL A   1      45.412  30.016  28.976  1.00  0.00     0.064 A 
ATOM    138  C   UNL A   1      46.735  30.126  28.510  1.00  0.00     0.173 A 
ATOM    139  C   UNL A   1      44.432  30.755  28.300  1.00  0.00     0.173 A 
ATOM    140  F   UNL A   1      47.716  29.383  29.035  1.00  0.00    -0.203 F 
ATOM    141  C   UNL A   1      47.061  30.969  27.448  1.00  0.00     0.198 A 
ATOM    142  C   UNL A   1      44.754  31.567  27.218  1.00  0.00     0.198 A 
ATOM    143  F   UNL A   1      43.144  30.649  28.665  1.00  0.00    -0.203 F 
ATOM    144  F   UNL A   1      48.334  31.065  27.031  1.00  0.00    -0.200 F 
ATOM    145  C   UNL A   1      46.069  31.683  26.799  1.00  0.00     0.200 A 
ATOM    146  F   UNL A   1      43.782  32.218  26.562  1.00  0.00    -0.200 F 
ATOM    147  F   UNL A   1      46.376  32.463  25.752  1.00  0.00    -0.200 F 
ENDBRANCH 113 137
ENDBRANCH  78  81
ENDBRANCH  68  71
ENDBRANCH  64  67
ENDBRANCH  61  64
ENDBRANCH  58  61
ENDBRANCH  55  58
ENDBRANCH   1  55
TORSDOF 20
ENDMDL
MODEL 6
REMARK VINA RESULT:     -10.4      5.989     13.211
REMARK SMILES C/C(=N\Nc1nc(-c2ccc(Cl)cc2)cs1)c1nnn(-c2ccc(C(=O)NCCCCCCNC(=O)c3ccc(-c4c5nc(c(-c6c(F)c(F)c(F)c(F)c6F)c6ccc([nH]6)c(-c6c(F)c(F)c(F)c(F)c6F)c6nc(c(-c7c(F)c(F)c(F)c(F)c7F)c7ccc4[nH]7)C=C6)C=C5)cc3)cc2)c1C
REMARK SMILES IDX 29 1 28 4 27 7 25 8 26 9 24 11 21 12 22 13 101 14 23 15
REMARK SMILES IDX 100 17 20 21 17 22 18 23 102 24 19 25 2 26 3 27 1 28 4 32
REMARK SMILES IDX 5 34 6 35 16 36 7 37 15 38 8 40 9 41 14 42 10 43 13 45 11 47
REMARK SMILES IDX 12 50 103 51 30 55 31 58 32 61 33 64 34 67 35 68 36 70 37 71
REMARK SMILES IDX 38 72 99 73 39 74 98 76 40 78 41 81 42 82 92 83 43 84 97 85
REMARK SMILES IDX 91 86 93 87 44 88 96 89 90 91 89 93 45 95 77 98 57 99 76 100
REMARK SMILES IDX 58 101 61 102 75 103 94 104 59 105 60 107 74 109 95 110
REMARK SMILES IDX 62 113 46 115 47 116 55 117 48 118 49 119 53 120 56 121
REMARK SMILES IDX 50 122 51 123 54 124 52 125 78 126 79 127 87 128 80 129
REMARK SMILES IDX 81 130 85 131 88 132 82 133 83 134 86 135 84 136 63 137
REMARK SMILES IDX 64 138 72 139 65 140 66 141 70 142 73 143 67 144 68 145
REMARK SMILES IDX 71 146 69 147
REMARK H PARENT 29 2 29 3 28 5 28 6 27 10 22 16 101 18 23 19 100 20 1 29 1 30
REMARK H PARENT 1 31 4 33 15 39 9 44 14 46 10 48 13 49 103 52 103 53 103 54
REMARK H PARENT 30 56 30 57 31 59 31 60 32 62 32 63 33 65 33 66 34 69 38 75
REMARK H PARENT 99 77 39 79 98 80 97 90 91 92 93 94 96 96 90 97 58 106 61 108
REMARK H PARENT 94 111 59 112 95 114
REMARK Flexibility Score: inf
ROOT
ATOM      1  C   UNL A   1      46.603  26.831  25.271  1.00  0.00    -0.036 C 
ATOM      2  H   UNL A   1      47.271  26.357  24.582  1.00  0.00     0.028 H 
ATOM      3  H   UNL A   1      45.731  26.242  25.462  1.00  0.00     0.028 H 
ENDROOT
BRANCH   1   4
ATOM      4  C   UNL A   1      46.130  28.151  24.656  1.00  0.00     0.018 C 
ATOM      5  H   UNL A   1      46.718  28.366  23.788  1.00  0.00     0.049 H 
ATOM      6  H   UNL A   1      45.098  28.058  24.389  1.00  0.00     0.049 H 
BRANCH   4   7
ATOM      7  N   UNL A   1      46.272  29.236  25.611  1.00  0.00    -0.352 N 
ATOM      8  C   UNL A   1      45.481  29.693  26.635  1.00  0.00     0.251 C 
ATOM      9  O   UNL A   1      45.896  30.642  27.302  1.00  0.00    -0.269 OA
ATOM     10  H   UNL A   1      47.106  29.749  25.501  1.00  0.00     0.163 HD
BRANCH   8  11
ATOM     11  C   UNL A   1      44.198  29.044  27.023  1.00  0.00     0.039 A 
ATOM     12  C   UNL A   1      41.954  27.487  27.569  1.00  0.00     0.067 A 
ATOM     13  C   UNL A   1      43.123  27.252  28.290  1.00  0.00    -0.036 A 
ATOM     14  C   UNL A   1      41.854  28.567  26.689  1.00  0.00    -0.036 A 
ATOM     15  C   UNL A   1      44.252  28.022  27.991  1.00  0.00    -0.047 A 
ATOM     16  H   UNL A   1      43.155  26.529  29.025  1.00  0.00     0.065 H 
ATOM     17  C   UNL A   1      42.965  29.375  26.460  1.00  0.00    -0.047 A 
ATOM     18  H   UNL A   1      40.961  28.765  26.209  1.00  0.00     0.065 H 
ATOM     19  H   UNL A   1      45.138  27.839  28.489  1.00  0.00     0.063 H 
ATOM     20  H   UNL A   1      42.875  30.219  25.874  1.00  0.00     0.063 H 
BRANCH  12  21
ATOM     21  N   UNL A   1      40.921  26.535  27.579  1.00  0.00    -0.217 N 
ATOM     22  C   UNL A   1      39.589  24.887  27.092  1.00  0.00     0.132 A 
ATOM     23  N   UNL A   1      39.161  25.475  28.253  1.00  0.00    -0.128 NA
ATOM     24  C   UNL A   1      40.725  25.541  26.641  1.00  0.00     0.071 A 
ATOM     25  N   UNL A   1      40.039  26.416  28.589  1.00  0.00    -0.061 NA
BRANCH  22  26
ATOM     26  C   UNL A   1      38.998  23.690  26.507  1.00  0.00     0.087 C 
ATOM     27  N   UNL A   1      38.002  23.883  25.688  1.00  0.00    -0.176 NA
BRANCH  26  28
ATOM     28  C   UNL A   1      39.680  22.397  26.876  1.00  0.00    -0.018 C 
ATOM     29  H   UNL A   1      40.308  22.556  27.729  1.00  0.00     0.030 H 
ATOM     30  H   UNL A   1      40.276  22.060  26.053  1.00  0.00     0.030 H 
ATOM     31  H   UNL A   1      38.942  21.658  27.110  1.00  0.00     0.030 H 
ENDBRANCH  26  28
BRANCH  27  32
ATOM     32  N   UNL A   1      37.420  22.900  24.916  1.00  0.00    -0.252 N 
ATOM     33  H   UNL A   1      38.012  22.521  24.227  1.00  0.00     0.193 HD
BRANCH  32  34
ATOM     34  C   UNL A   1      36.173  22.366  24.942  1.00  0.00     0.203 A 
ATOM     35  N   UNL A   1      35.851  21.175  25.390  1.00  0.00    -0.219 NA
ATOM     36  S   UNL A   1      34.839  23.232  24.262  1.00  0.00    -0.103 S 
ATOM     37  C   UNL A   1      34.622  20.788  24.897  1.00  0.00     0.084 A 
ATOM     38  C   UNL A   1      33.916  21.780  24.251  1.00  0.00     0.021 A 
ATOM     39  H   UNL A   1      32.981  21.669  23.828  1.00  0.00     0.076 H 
BRANCH  37  40
ATOM     40  C   UNL A   1      34.213  19.399  25.001  1.00  0.00     0.001 A 
ATOM     41  C   UNL A   1      35.099  18.388  24.609  1.00  0.00    -0.051 A 
ATOM     42  C   UNL A   1      32.905  19.058  25.376  1.00  0.00    -0.051 A 
ATOM     43  C   UNL A   1      34.699  17.050  24.626  1.00  0.00    -0.043 A 
ATOM     44  H   UNL A   1      36.055  18.633  24.306  1.00  0.00     0.063 H 
ATOM     45  C   UNL A   1      32.500  17.719  25.380  1.00  0.00    -0.043 A 
ATOM     46  H   UNL A   1      32.239  19.797  25.649  1.00  0.00     0.063 H 
ATOM     47  C   UNL A   1      33.402  16.721  25.014  1.00  0.00     0.041 A 
ATOM     48  H   UNL A   1      35.361  16.306  24.352  1.00  0.00     0.064 H 
ATOM     49  H   UNL A   1      31.537  17.470  25.656  1.00  0.00     0.064 H 
ATOM     50  Cl  UNL A   1      32.903  15.075  25.026  1.00  0.00    -0.084 Cl
ENDBRANCH  37  40
ENDBRANCH  32  34
ENDBRANCH  27  32
ENDBRANCH  22  26
BRANCH  24  51
ATOM     51  C   UNL A   1      41.667  25.246  25.529  1.00  0.00    -0.020 C 
ATOM     52  H   UNL A   1      41.125  24.841  24.700  1.00  0.00     0.030 H 
ATOM     53  H   UNL A   1      42.397  24.536  25.858  1.00  0.00     0.030 H 
ATOM     54  H   UNL A   1      42.156  26.149  25.227  1.00  0.00     0.030 H 
ENDBRANCH  24  51
ENDBRANCH  12  21
ENDBRANCH   8  11
ENDBRANCH   4   7
ENDBRANCH   1   4
BRANCH   1  55
ATOM     55  C   UNL A   1      47.332  27.006  26.611  1.00  0.00    -0.052 C 
ATOM     56  H   UNL A   1      46.600  27.244  27.354  1.00  0.00     0.027 H 
ATOM     57  H   UNL A   1      48.055  27.778  26.450  1.00  0.00     0.027 H 
BRANCH  55  58
ATOM     58  C   UNL A   1      48.127  25.784  27.103  1.00  0.00    -0.052 C 
ATOM     59  H   UNL A   1      49.118  26.114  27.336  1.00  0.00     0.027 H 
ATOM     60  H   UNL A   1      48.072  25.071  26.307  1.00  0.00     0.027 H 
BRANCH  58  61
ATOM     61  C   UNL A   1      47.574  25.057  28.338  1.00  0.00    -0.036 C 
ATOM     62  H   UNL A   1      48.388  24.577  28.840  1.00  0.00     0.028 H 
ATOM     63  H   UNL A   1      46.842  24.359  27.989  1.00  0.00     0.028 H 
BRANCH  61  64
ATOM     64  C   UNL A   1      46.876  25.976  29.326  1.00  0.00     0.018 C 
ATOM     65  H   UNL A   1      45.853  26.085  29.029  1.00  0.00     0.049 H 
ATOM     66  H   UNL A   1      47.391  26.914  29.317  1.00  0.00     0.049 H 
BRANCH  64  67
ATOM     67  N   UNL A   1      46.913  25.460  30.701  1.00  0.00    -0.352 N 
ATOM     68  C   UNL A   1      46.402  26.028  31.849  1.00  0.00     0.251 C 
ATOM     69  H   UNL A   1      47.364  24.593  30.818  1.00  0.00     0.163 HD
ATOM     70  O   UNL A   1      46.821  25.698  32.963  1.00  0.00    -0.269 OA
BRANCH  68  71
ATOM     71  C   UNL A   1      45.333  27.027  31.732  1.00  0.00     0.039 A 
ATOM     72  C   UNL A   1      43.975  26.709  31.840  1.00  0.00    -0.049 A 
ATOM     73  C   UNL A   1      45.737  28.341  31.537  1.00  0.00    -0.049 A 
ATOM     74  C   UNL A   1      43.046  27.747  31.806  1.00  0.00    -0.053 A 
ATOM     75  H   UNL A   1      43.669  25.728  31.944  1.00  0.00     0.063 H 
ATOM     76  C   UNL A   1      44.863  29.356  31.778  1.00  0.00    -0.053 A 
ATOM     77  H   UNL A   1      46.694  28.547  31.213  1.00  0.00     0.063 H 
ATOM     78  C   UNL A   1      43.509  29.071  31.781  1.00  0.00    -0.014 A 
ATOM     79  H   UNL A   1      42.034  27.545  31.798  1.00  0.00     0.063 H 
ATOM     80  H   UNL A   1      45.202  30.314  31.955  1.00  0.00     0.063 H 
BRANCH  78  81
ATOM     81  C   UNL A   1      42.617  30.218  31.838  1.00  0.00     0.031 A 
ATOM     82  C   UNL A   1      42.028  30.449  33.176  1.00  0.00     0.074 A 
ATOM     83  C   UNL A   1      42.548  31.123  30.833  1.00  0.00     0.049 A 
ATOM     84  N   UNL A   1      40.791  30.318  33.521  1.00  0.00    -0.248 NA
ATOM     85  C   UNL A   1      42.939  30.696  34.307  1.00  0.00    -0.034 C 
ATOM     86  C   UNL A   1      43.335  31.179  29.591  1.00  0.00    -0.036 A 
ATOM     87  N   UNL A   1      41.817  32.266  30.761  1.00  0.00    -0.354 N 
ATOM     88  C   UNL A   1      40.732  30.685  34.860  1.00  0.00     0.074 A 
ATOM     89  C   UNL A   1      42.090  30.695  35.336  1.00  0.00    -0.034 C 
ATOM     90  H   UNL A   1      43.962  30.835  34.304  1.00  0.00     0.065 H 
ATOM     91  C   UNL A   1      43.209  32.398  29.021  1.00  0.00    -0.036 A 
ATOM     92  H   UNL A   1      43.899  30.403  29.211  1.00  0.00     0.065 H 
ATOM     93  C   UNL A   1      42.203  33.143  29.751  1.00  0.00     0.049 A 
ATOM     94  H   UNL A   1      41.072  32.460  31.376  1.00  0.00     0.167 HD
ATOM     95  C   UNL A   1      39.593  31.226  35.374  1.00  0.00     0.037 A 
ATOM     96  H   UNL A   1      42.366  30.702  36.330  1.00  0.00     0.065 H 
ATOM     97  H   UNL A   1      43.738  32.739  28.204  1.00  0.00     0.065 H 
ATOM     98  C   UNL A   1      41.735  34.403  29.555  1.00  0.00     0.037 A 
ATOM     99  C   UNL A   1      38.469  30.979  34.500  1.00  0.00     0.049 A 
ATOM    100  C   UNL A   1      40.445  34.502  30.285  1.00  0.00     0.074 A 
ATOM    101  C   UNL A   1      37.858  29.844  34.001  1.00  0.00    -0.036 A 
ATOM    102  N   UNL A   1      38.059  32.007  33.687  1.00  0.00    -0.354 N 
ATOM    103  N   UNL A   1      39.373  33.839  29.949  1.00  0.00    -0.248 NA
ATOM    104  C   UNL A   1      40.495  34.953  31.668  1.00  0.00    -0.034 C 
ATOM    105  C   UNL A   1      37.529  30.166  32.651  1.00  0.00    -0.036 A 
ATOM    106  H   UNL A   1      37.679  28.957  34.499  1.00  0.00     0.065 H 
ATOM    107  C   UNL A   1      37.878  31.498  32.427  1.00  0.00     0.049 A 
ATOM    108  H   UNL A   1      37.919  32.943  33.959  1.00  0.00     0.167 HD
ATOM    109  C   UNL A   1      38.834  33.411  31.153  1.00  0.00     0.074 A 
ATOM    110  C   UNL A   1      39.526  34.189  32.178  1.00  0.00    -0.034 C 
ATOM    111  H   UNL A   1      41.101  35.656  32.120  1.00  0.00     0.065 H 
ATOM    112  H   UNL A   1      37.107  29.525  31.961  1.00  0.00     0.065 H 
ATOM    113  C   UNL A   1      38.103  32.258  31.220  1.00  0.00     0.037 A 
ATOM    114  H   UNL A   1      39.292  34.152  33.183  1.00  0.00     0.065 H 
BRANCH  95 115
ATOM    115  C   UNL A   1      39.566  32.317  36.419  1.00  0.00     0.064 A 
ATOM    116  C   UNL A   1      38.573  32.269  37.419  1.00  0.00     0.173 A 
ATOM    117  C   UNL A   1      40.249  33.548  36.301  1.00  0.00     0.173 A 
ATOM    118  F   UNL A   1      37.853  31.154  37.612  1.00  0.00    -0.203 F 
ATOM    119  C   UNL A   1      38.227  33.394  38.170  1.00  0.00     0.198 A 
ATOM    120  C   UNL A   1      39.937  34.653  37.092  1.00  0.00     0.198 A 
ATOM    121  F   UNL A   1      41.160  33.778  35.351  1.00  0.00    -0.203 F 
ATOM    122  F   UNL A   1      37.183  33.337  39.008  1.00  0.00    -0.200 F 
ATOM    123  C   UNL A   1      38.903  34.588  37.999  1.00  0.00     0.200 A 
ATOM    124  F   UNL A   1      40.594  35.805  36.898  1.00  0.00    -0.200 F 
ATOM    125  F   UNL A   1      38.528  35.686  38.667  1.00  0.00    -0.200 F 
ENDBRANCH  95 115
BRANCH  98 126
ATOM    126  C   UNL A   1      42.465  35.603  29.078  1.00  0.00     0.064 A 
ATOM    127  C   UNL A   1      42.076  36.269  27.904  1.00  0.00     0.173 A 
ATOM    128  C   UNL A   1      43.361  36.294  29.918  1.00  0.00     0.173 A 
ATOM    129  F   UNL A   1      41.190  35.703  27.070  1.00  0.00    -0.203 F 
ATOM    130  C   UNL A   1      42.529  37.560  27.604  1.00  0.00     0.198 A 
ATOM    131  C   UNL A   1      43.815  37.579  29.616  1.00  0.00     0.198 A 
ATOM    132  F   UNL A   1      43.734  35.775  31.098  1.00  0.00    -0.203 F 
ATOM    133  F   UNL A   1      42.081  38.189  26.507  1.00  0.00    -0.200 F 
ATOM    134  C   UNL A   1      43.388  38.219  28.468  1.00  0.00     0.200 A 
ATOM    135  F   UNL A   1      44.613  38.221  30.482  1.00  0.00    -0.200 F 
ATOM    136  F   UNL A   1      43.766  39.479  28.218  1.00  0.00    -0.200 F 
ENDBRANCH  98 126
BRANCH 113 137
ATOM    137  C   UNL A   1      37.679  31.621  29.926  1.00  0.00     0.064 A 
ATOM    138  C   UNL A   1      38.437  30.669  29.220  1.00  0.00     0.173 A 
ATOM    139  C   UNL A   1      36.385  31.885  29.455  1.00  0.00     0.173 A 
ATOM    140  F   UNL A   1      39.644  30.289  29.655  1.00  0.00    -0.203 F 
ATOM    141  C   UNL A   1      37.938  30.048  28.076  1.00  0.00     0.198 A 
ATOM    142  C   UNL A   1      35.875  31.237  28.334  1.00  0.00     0.198 A 
ATOM    143  F   UNL A   1      35.594  32.743  30.118  1.00  0.00    -0.203 F 
ATOM    144  F   UNL A   1      38.688  29.153  27.414  1.00  0.00    -0.200 F 
ATOM    145  C   UNL A   1      36.655  30.327  27.638  1.00  0.00     0.200 A 
ATOM    146  F   UNL A   1      34.615  31.475  27.945  1.00  0.00    -0.200 F 
ATOM    147  F   UNL A   1      36.159  29.701  26.562  1.00  0.00    -0.200 F 
ENDBRANCH 113 137
ENDBRANCH  78  81
ENDBRANCH  68  71
ENDBRANCH  64  67
ENDBRANCH  61  64
ENDBRANCH  58  61
ENDBRANCH  55  58
ENDBRANCH   1  55
TORSDOF 20
ENDMDL
MODEL 7
REMARK VINA RESULT:     -10.2      5.584     12.492
REMARK SMILES C/C(=N\Nc1nc(-c2ccc(Cl)cc2)cs1)c1nnn(-c2ccc(C(=O)NCCCCCCNC(=O)c3ccc(-c4c5nc(c(-c6c(F)c(F)c(F)c(F)c6F)c6ccc([nH]6)c(-c6c(F)c(F)c(F)c(F)c6F)c6nc(c(-c7c(F)c(F)c(F)c(F)c7F)c7ccc4[nH]7)C=C6)C=C5)cc3)cc2)c1C
REMARK SMILES IDX 29 1 28 4 27 7 25 8 26 9 24 11 21 12 22 13 101 14 23 15
REMARK SMILES IDX 100 17 20 21 17 22 18 23 102 24 19 25 2 26 3 27 1 28 4 32
REMARK SMILES IDX 5 34 6 35 16 36 7 37 15 38 8 40 9 41 14 42 10 43 13 45 11 47
REMARK SMILES IDX 12 50 103 51 30 55 31 58 32 61 33 64 34 67 35 68 36 70 37 71
REMARK SMILES IDX 38 72 99 73 39 74 98 76 40 78 41 81 42 82 92 83 43 84 97 85
REMARK SMILES IDX 91 86 93 87 44 88 96 89 90 91 89 93 45 95 77 98 57 99 76 100
REMARK SMILES IDX 58 101 61 102 75 103 94 104 59 105 60 107 74 109 95 110
REMARK SMILES IDX 62 113 46 115 47 116 55 117 48 118 49 119 53 120 56 121
REMARK SMILES IDX 50 122 51 123 54 124 52 125 78 126 79 127 87 128 80 129
REMARK SMILES IDX 81 130 85 131 88 132 82 133 83 134 86 135 84 136 63 137
REMARK SMILES IDX 64 138 72 139 65 140 66 141 70 142 73 143 67 144 68 145
REMARK SMILES IDX 71 146 69 147
REMARK H PARENT 29 2 29 3 28 5 28 6 27 10 22 16 101 18 23 19 100 20 1 29 1 30
REMARK H PARENT 1 31 4 33 15 39 9 44 14 46 10 48 13 49 103 52 103 53 103 54
REMARK H PARENT 30 56 30 57 31 59 31 60 32 62 32 63 33 65 33 66 34 69 38 75
REMARK H PARENT 99 77 39 79 98 80 97 90 91 92 93 94 96 96 90 97 58 106 61 108
REMARK H PARENT 94 111 59 112 95 114
REMARK Flexibility Score: inf
ROOT
ATOM      1  C   UNL A   1      46.390  25.785  25.101  1.00  0.00    -0.036 C 
ATOM      2  H   UNL A   1      45.820  26.496  24.541  1.00  0.00     0.028 H 
ATOM      3  H   UNL A   1      46.844  26.220  25.967  1.00  0.00     0.028 H 
ENDROOT
BRANCH   1   4
ATOM      4  C   UNL A   1      47.524  25.266  24.212  1.00  0.00     0.018 C 
ATOM      5  H   UNL A   1      48.104  24.554  24.760  1.00  0.00     0.049 H 
ATOM      6  H   UNL A   1      47.099  24.807  23.344  1.00  0.00     0.049 H 
BRANCH   4   7
ATOM      7  N   UNL A   1      48.381  26.361  23.792  1.00  0.00    -0.352 N 
ATOM      8  C   UNL A   1      49.052  27.343  24.479  1.00  0.00     0.251 C 
ATOM      9  O   UNL A   1      49.737  28.132  23.828  1.00  0.00    -0.269 OA
ATOM     10  H   UNL A   1      48.506  26.410  22.817  1.00  0.00     0.163 HD
BRANCH   8  11
ATOM     11  C   UNL A   1      49.054  27.439  25.966  1.00  0.00     0.039 A 
ATOM     12  C   UNL A   1      48.852  27.256  28.737  1.00  0.00     0.067 A 
ATOM     13  C   UNL A   1      49.732  26.405  28.073  1.00  0.00    -0.036 A 
ATOM     14  C   UNL A   1      48.183  28.276  28.057  1.00  0.00    -0.036 A 
ATOM     15  C   UNL A   1      49.808  26.487  26.678  1.00  0.00    -0.047 A 
ATOM     16  H   UNL A   1      50.314  25.732  28.595  1.00  0.00     0.065 H 
ATOM     17  C   UNL A   1      48.330  28.396  26.677  1.00  0.00    -0.047 A 
ATOM     18  H   UNL A   1      47.583  28.938  28.573  1.00  0.00     0.065 H 
ATOM     19  H   UNL A   1      50.428  25.840  26.164  1.00  0.00     0.063 H 
ATOM     20  H   UNL A   1      47.904  29.194  26.181  1.00  0.00     0.063 H 
BRANCH  12  21
ATOM     21  N   UNL A   1      48.483  26.985  30.065  1.00  0.00    -0.217 N 
ATOM     22  C   UNL A   1      47.484  26.252  31.852  1.00  0.00     0.132 A 
ATOM     23  N   UNL A   1      48.544  27.036  32.226  1.00  0.00    -0.128 NA
ATOM     24  C   UNL A   1      47.427  26.193  30.469  1.00  0.00     0.071 A 
ATOM     25  N   UNL A   1      49.201  27.396  31.127  1.00  0.00    -0.061 NA
BRANCH  22  26
ATOM     26  C   UNL A   1      46.639  25.511  32.780  1.00  0.00     0.087 C 
ATOM     27  N   UNL A   1      47.257  24.859  33.725  1.00  0.00    -0.176 NA
BRANCH  26  28
ATOM     28  C   UNL A   1      45.156  25.673  32.558  1.00  0.00    -0.018 C 
ATOM     29  H   UNL A   1      44.951  25.677  31.507  1.00  0.00     0.030 H 
ATOM     30  H   UNL A   1      44.829  26.597  32.988  1.00  0.00     0.030 H 
ATOM     31  H   UNL A   1      44.635  24.860  33.019  1.00  0.00     0.030 H 
ENDBRANCH  26  28
BRANCH  27  32
ATOM     32  N   UNL A   1      46.633  24.238  34.786  1.00  0.00    -0.252 N 
ATOM     33  H   UNL A   1      46.917  23.308  34.937  1.00  0.00     0.193 HD
BRANCH  32  34
ATOM     34  C   UNL A   1      45.696  24.688  35.658  1.00  0.00     0.203 A 
ATOM     35  N   UNL A   1      45.794  25.752  36.419  1.00  0.00    -0.219 NA
ATOM     36  S   UNL A   1      44.242  23.787  35.917  1.00  0.00    -0.103 S 
ATOM     37  C   UNL A   1      44.890  25.691  37.459  1.00  0.00     0.084 A 
ATOM     38  C   UNL A   1      43.957  24.681  37.358  1.00  0.00     0.021 A 
ATOM     39  H   UNL A   1      43.206  24.492  38.040  1.00  0.00     0.076 H 
BRANCH  37  40
ATOM     40  C   UNL A   1      45.034  26.591  38.589  1.00  0.00     0.001 A 
ATOM     41  C   UNL A   1      45.561  27.873  38.387  1.00  0.00    -0.051 A 
ATOM     42  C   UNL A   1      44.762  26.158  39.895  1.00  0.00    -0.051 A 
ATOM     43  C   UNL A   1      45.781  28.727  39.470  1.00  0.00    -0.043 A 
ATOM     44  H   UNL A   1      45.789  28.188  37.431  1.00  0.00     0.063 H 
ATOM     45  C   UNL A   1      44.995  27.009  40.981  1.00  0.00    -0.043 A 
ATOM     46  H   UNL A   1      44.390  25.209  40.056  1.00  0.00     0.063 H 
ATOM     47  C   UNL A   1      45.495  28.292  40.763  1.00  0.00     0.041 A 
ATOM     48  H   UNL A   1      46.155  29.677  39.314  1.00  0.00     0.064 H 
ATOM     49  H   UNL A   1      44.795  26.688  41.941  1.00  0.00     0.064 H 
ATOM     50  Cl  UNL A   1      45.774  29.338  42.099  1.00  0.00    -0.084 Cl
ENDBRANCH  37  40
ENDBRANCH  32  34
ENDBRANCH  27  32
ENDBRANCH  22  26
BRANCH  24  51
ATOM     51  C   UNL A   1      46.583  25.393  29.541  1.00  0.00    -0.020 C 
ATOM     52  H   UNL A   1      47.210  24.869  28.850  1.00  0.00     0.030 H 
ATOM     53  H   UNL A   1      45.927  26.045  29.004  1.00  0.00     0.030 H 
ATOM     54  H   UNL A   1      46.006  24.688  30.104  1.00  0.00     0.030 H 
ENDBRANCH  24  51
ENDBRANCH  12  21
ENDBRANCH   8  11
ENDBRANCH   4   7
ENDBRANCH   1   4
BRANCH   1  55
ATOM     55  C   UNL A   1      45.444  24.682  25.593  1.00  0.00    -0.052 C 
ATOM     56  H   UNL A   1      44.793  24.422  24.784  1.00  0.00     0.027 H 
ATOM     57  H   UNL A   1      44.938  25.090  26.443  1.00  0.00     0.027 H 
BRANCH  55  58
ATOM     58  C   UNL A   1      46.121  23.392  26.090  1.00  0.00    -0.052 C 
ATOM     59  H   UNL A   1      46.173  23.444  27.157  1.00  0.00     0.027 H 
ATOM     60  H   UNL A   1      47.071  23.364  25.598  1.00  0.00     0.027 H 
BRANCH  58  61
ATOM     61  C   UNL A   1      45.434  22.069  25.719  1.00  0.00    -0.036 C 
ATOM     62  H   UNL A   1      45.344  21.476  26.605  1.00  0.00     0.028 H 
ATOM     63  H   UNL A   1      46.040  21.599  24.973  1.00  0.00     0.028 H 
BRANCH  61  64
ATOM     64  C   UNL A   1      44.050  22.248  25.119  1.00  0.00     0.018 C 
ATOM     65  H   UNL A   1      44.063  21.886  24.111  1.00  0.00     0.049 H 
ATOM     66  H   UNL A   1      43.809  23.290  25.160  1.00  0.00     0.049 H 
BRANCH  64  67
ATOM     67  N   UNL A   1      43.013  21.522  25.865  1.00  0.00    -0.352 N 
ATOM     68  C   UNL A   1      42.322  21.920  26.991  1.00  0.00     0.251 C 
ATOM     69  H   UNL A   1      42.780  20.633  25.514  1.00  0.00     0.163 HD
ATOM     70  O   UNL A   1      41.773  21.093  27.725  1.00  0.00    -0.269 OA
BRANCH  68  71
ATOM     71  C   UNL A   1      42.232  23.353  27.299  1.00  0.00     0.039 A 
ATOM     72  C   UNL A   1      41.336  24.216  26.662  1.00  0.00    -0.049 A 
ATOM     73  C   UNL A   1      43.074  23.820  28.300  1.00  0.00    -0.049 A 
ATOM     74  C   UNL A   1      41.269  25.539  27.095  1.00  0.00    -0.053 A 
ATOM     75  H   UNL A   1      40.738  23.882  25.890  1.00  0.00     0.063 H 
ATOM     76  C   UNL A   1      42.812  25.016  28.894  1.00  0.00    -0.053 A 
ATOM     77  H   UNL A   1      43.891  23.263  28.593  1.00  0.00     0.063 H 
ATOM     78  C   UNL A   1      42.012  25.923  28.222  1.00  0.00    -0.014 A 
ATOM     79  H   UNL A   1      40.682  26.225  26.595  1.00  0.00     0.063 H 
ATOM     80  H   UNL A   1      43.201  25.241  29.823  1.00  0.00     0.063 H 
BRANCH  78  81
ATOM     81  C   UNL A   1      41.933  27.254  28.801  1.00  0.00     0.031 A 
ATOM     82  C   UNL A   1      43.023  28.158  28.368  1.00  0.00     0.074 A 
ATOM     83  C   UNL A   1      40.830  27.686  29.457  1.00  0.00     0.049 A 
ATOM     84  N   UNL A   1      43.981  28.631  29.090  1.00  0.00    -0.248 NA
ATOM     85  C   UNL A   1      43.163  28.442  26.930  1.00  0.00    -0.034 C 
ATOM     86  C   UNL A   1      39.551  26.989  29.663  1.00  0.00    -0.036 A 
ATOM     87  N   UNL A   1      40.581  28.908  29.998  1.00  0.00    -0.354 N 
ATOM     88  C   UNL A   1      44.718  29.455  28.247  1.00  0.00     0.074 A 
ATOM     89  C   UNL A   1      44.305  29.132  26.907  1.00  0.00    -0.034 C 
ATOM     90  H   UNL A   1      42.543  28.180  26.148  1.00  0.00     0.065 H 
ATOM     91  C   UNL A   1      38.607  27.869  30.063  1.00  0.00    -0.036 A 
ATOM     92  H   UNL A   1      39.397  25.978  29.522  1.00  0.00     0.065 H 
ATOM     93  C   UNL A   1      39.246  29.145  30.314  1.00  0.00     0.049 A 
ATOM     94  H   UNL A   1      41.290  29.574  30.154  1.00  0.00     0.167 HD
ATOM     95  C   UNL A   1      45.390  30.526  28.749  1.00  0.00     0.037 A 
ATOM     96  H   UNL A   1      44.818  29.397  26.052  1.00  0.00     0.065 H 
ATOM     97  H   UNL A   1      37.601  27.666  30.173  1.00  0.00     0.065 H 
ATOM     98  C   UNL A   1      38.714  30.323  30.729  1.00  0.00     0.037 A 
ATOM     99  C   UNL A   1      45.535  30.415  30.182  1.00  0.00     0.049 A 
ATOM    100  C   UNL A   1      39.839  31.153  31.229  1.00  0.00     0.074 A 
ATOM    101  C   UNL A   1      46.116  29.491  31.030  1.00  0.00    -0.036 A 
ATOM    102  N   UNL A   1      44.678  31.149  30.967  1.00  0.00    -0.354 N 
ATOM    103  N   UNL A   1      40.531  30.863  32.297  1.00  0.00    -0.248 NA
ATOM    104  C   UNL A   1      40.503  32.024  30.270  1.00  0.00    -0.034 C 
ATOM    105  C   UNL A   1      45.223  29.396  32.140  1.00  0.00    -0.036 A 
ATOM    106  H   UNL A   1      47.003  28.981  30.891  1.00  0.00     0.065 H 
ATOM    107  C   UNL A   1      44.197  30.322  31.949  1.00  0.00     0.049 A 
ATOM    108  H   UNL A   1      44.451  32.099  30.846  1.00  0.00     0.167 HD
ATOM    109  C   UNL A   1      41.845  31.136  31.947  1.00  0.00     0.074 A 
ATOM    110  C   UNL A   1      41.758  31.917  30.716  1.00  0.00    -0.034 C 
ATOM    111  H   UNL A   1      40.117  32.563  29.479  1.00  0.00     0.065 H 
ATOM    112  H   UNL A   1      45.319  28.754  32.942  1.00  0.00     0.065 H 
ATOM    113  C   UNL A   1      42.877  30.448  32.520  1.00  0.00     0.037 A 
ATOM    114  H   UNL A   1      42.573  32.339  30.243  1.00  0.00     0.065 H 
BRANCH  95 115
ATOM    115  C   UNL A   1      45.538  31.849  28.034  1.00  0.00     0.064 A 
ATOM    116  C   UNL A   1      44.373  32.550  27.663  1.00  0.00     0.173 A 
ATOM    117  C   UNL A   1      46.733  32.295  27.425  1.00  0.00     0.173 A 
ATOM    118  F   UNL A   1      43.180  32.206  28.171  1.00  0.00    -0.203 F 
ATOM    119  C   UNL A   1      44.391  33.550  26.688  1.00  0.00     0.198 A 
ATOM    120  C   UNL A   1      46.754  33.330  26.493  1.00  0.00     0.198 A 
ATOM    121  F   UNL A   1      47.907  31.684  27.611  1.00  0.00    -0.203 F 
ATOM    122  F   UNL A   1      43.238  34.089  26.269  1.00  0.00    -0.200 F 
ATOM    123  C   UNL A   1      45.581  33.933  26.097  1.00  0.00     0.200 A 
ATOM    124  F   UNL A   1      47.917  33.674  25.920  1.00  0.00    -0.200 F 
ATOM    125  F   UNL A   1      45.592  34.841  25.112  1.00  0.00    -0.200 F 
ENDBRANCH  95 115
BRANCH  98 126
ATOM    126  C   UNL A   1      37.383  30.903  30.420  1.00  0.00     0.064 A 
ATOM    127  C   UNL A   1      36.485  31.243  31.445  1.00  0.00     0.173 A 
ATOM    128  C   UNL A   1      37.088  31.412  29.139  1.00  0.00     0.173 A 
ATOM    129  F   UNL A   1      36.714  30.839  32.704  1.00  0.00    -0.203 F 
ATOM    130  C   UNL A   1      35.379  32.070  31.212  1.00  0.00     0.198 A 
ATOM    131  C   UNL A   1      35.983  32.232  28.907  1.00  0.00     0.198 A 
ATOM    132  F   UNL A   1      37.924  31.206  28.110  1.00  0.00    -0.203 F 
ATOM    133  F   UNL A   1      34.583  32.428  32.231  1.00  0.00    -0.200 F 
ATOM    134  C   UNL A   1      35.137  32.574  29.945  1.00  0.00     0.200 A 
ATOM    135  F   UNL A   1      35.784  32.747  27.684  1.00  0.00    -0.200 F 
ATOM    136  F   UNL A   1      34.120  33.421  29.734  1.00  0.00    -0.200 F 
ENDBRANCH  98 126
BRANCH 113 137
ATOM    137  C   UNL A   1      42.569  29.590  33.716  1.00  0.00     0.064 A 
ATOM    138  C   UNL A   1      42.198  28.234  33.649  1.00  0.00     0.173 A 
ATOM    139  C   UNL A   1      42.795  30.129  34.989  1.00  0.00     0.173 A 
ATOM    140  F   UNL A   1      42.055  27.615  32.472  1.00  0.00    -0.203 F 
ATOM    141  C   UNL A   1      42.022  27.473  34.805  1.00  0.00     0.198 A 
ATOM    142  C   UNL A   1      42.654  29.358  36.139  1.00  0.00     0.198 A 
ATOM    143  F   UNL A   1      43.204  31.402  35.114  1.00  0.00    -0.203 F 
ATOM    144  F   UNL A   1      41.656  26.185  34.713  1.00  0.00    -0.200 F 
ATOM    145  C   UNL A   1      42.257  28.035  36.048  1.00  0.00     0.200 A 
ATOM    146  F   UNL A   1      42.931  29.894  37.336  1.00  0.00    -0.200 F 
ATOM    147  F   UNL A   1      42.126  27.293  37.157  1.00  0.00    -0.200 F 
ENDBRANCH 113 137
ENDBRANCH  78  81
ENDBRANCH  68  71
ENDBRANCH  64  67
ENDBRANCH  61  64
ENDBRANCH  58  61
ENDBRANCH  55  58
ENDBRANCH   1  55
TORSDOF 20
ENDMDL
MODEL 8
REMARK VINA RESULT:     -10.1      2.991      6.818
REMARK SMILES C/C(=N\Nc1nc(-c2ccc(Cl)cc2)cs1)c1nnn(-c2ccc(C(=O)NCCCCCCNC(=O)c3ccc(-c4c5nc(c(-c6c(F)c(F)c(F)c(F)c6F)c6ccc([nH]6)c(-c6c(F)c(F)c(F)c(F)c6F)c6nc(c(-c7c(F)c(F)c(F)c(F)c7F)c7ccc4[nH]7)C=C6)C=C5)cc3)cc2)c1C
REMARK SMILES IDX 29 1 28 4 27 7 25 8 26 9 24 11 21 12 22 13 101 14 23 15
REMARK SMILES IDX 100 17 20 21 17 22 18 23 102 24 19 25 2 26 3 27 1 28 4 32
REMARK SMILES IDX 5 34 6 35 16 36 7 37 15 38 8 40 9 41 14 42 10 43 13 45 11 47
REMARK SMILES IDX 12 50 103 51 30 55 31 58 32 61 33 64 34 67 35 68 36 70 37 71
REMARK SMILES IDX 38 72 99 73 39 74 98 76 40 78 41 81 42 82 92 83 43 84 97 85
REMARK SMILES IDX 91 86 93 87 44 88 96 89 90 91 89 93 45 95 77 98 57 99 76 100
REMARK SMILES IDX 58 101 61 102 75 103 94 104 59 105 60 107 74 109 95 110
REMARK SMILES IDX 62 113 46 115 47 116 55 117 48 118 49 119 53 120 56 121
REMARK SMILES IDX 50 122 51 123 54 124 52 125 78 126 79 127 87 128 80 129
REMARK SMILES IDX 81 130 85 131 88 132 82 133 83 134 86 135 84 136 63 137
REMARK SMILES IDX 64 138 72 139 65 140 66 141 70 142 73 143 67 144 68 145
REMARK SMILES IDX 71 146 69 147
REMARK H PARENT 29 2 29 3 28 5 28 6 27 10 22 16 101 18 23 19 100 20 1 29 1 30
REMARK H PARENT 1 31 4 33 15 39 9 44 14 46 10 48 13 49 103 52 103 53 103 54
REMARK H PARENT 30 56 30 57 31 59 31 60 32 62 32 63 33 65 33 66 34 69 38 75
REMARK H PARENT 99 77 39 79 98 80 97 90 91 92 93 94 96 96 90 97 58 106 61 108
REMARK H PARENT 94 111 59 112 95 114
REMARK Flexibility Score: inf
ROOT
ATOM      1  C   UNL A   1      42.368  28.429  34.819  1.00  0.00    -0.036 C 
ATOM      2  H   UNL A   1      41.674  28.767  35.560  1.00  0.00     0.028 H 
ATOM      3  H   UNL A   1      43.099  29.173  34.579  1.00  0.00     0.028 H 
ENDROOT
BRANCH   1   4
ATOM      4  C   UNL A   1      41.594  28.126  33.534  1.00  0.00     0.018 C 
ATOM      5  H   UNL A   1      41.985  28.724  32.738  1.00  0.00     0.049 H 
ATOM      6  H   UNL A   1      41.702  27.087  33.302  1.00  0.00     0.049 H 
BRANCH   4   7
ATOM      7  N   UNL A   1      40.183  28.424  33.709  1.00  0.00    -0.352 N 
ATOM      8  C   UNL A   1      39.395  29.482  33.331  1.00  0.00     0.251 C 
ATOM      9  O   UNL A   1      38.196  29.432  33.608  1.00  0.00    -0.269 OA
ATOM     10  H   UNL A   1      39.692  27.724  34.198  1.00  0.00     0.163 HD
BRANCH   8  11
ATOM     11  C   UNL A   1      39.905  30.633  32.534  1.00  0.00     0.039 A 
ATOM     12  C   UNL A   1      41.162  32.524  30.921  1.00  0.00     0.067 A 
ATOM     13  C   UNL A   1      40.460  31.485  30.312  1.00  0.00    -0.036 A 
ATOM     14  C   UNL A   1      41.127  32.703  32.306  1.00  0.00    -0.036 A 
ATOM     15  C   UNL A   1      39.853  30.526  31.131  1.00  0.00    -0.047 A 
ATOM     16  H   UNL A   1      40.390  31.425  29.285  1.00  0.00     0.065 H 
ATOM     17  C   UNL A   1      40.452  31.783  33.103  1.00  0.00    -0.047 A 
ATOM     18  H   UNL A   1      41.600  33.514  32.737  1.00  0.00     0.065 H 
ATOM     19  H   UNL A   1      39.360  29.729  30.698  1.00  0.00     0.063 H 
ATOM     20  H   UNL A   1      40.355  31.953  34.117  1.00  0.00     0.063 H 
BRANCH  12  21
ATOM     21  N   UNL A   1      42.063  33.297  30.170  1.00  0.00    -0.217 N 
ATOM     22  C   UNL A   1      42.955  34.770  28.843  1.00  0.00     0.132 A 
ATOM     23  N   UNL A   1      43.948  33.978  29.360  1.00  0.00    -0.128 NA
ATOM     24  C   UNL A   1      41.734  34.361  29.355  1.00  0.00     0.071 A 
ATOM     25  N   UNL A   1      43.398  33.148  30.242  1.00  0.00    -0.061 NA
BRANCH  22  26
ATOM     26  C   UNL A   1      43.185  35.927  27.988  1.00  0.00     0.087 C 
ATOM     27  N   UNL A   1      43.526  37.031  28.593  1.00  0.00    -0.176 NA
BRANCH  26  28
ATOM     28  C   UNL A   1      43.071  35.658  26.509  1.00  0.00    -0.018 C 
ATOM     29  H   UNL A   1      42.313  36.287  26.089  1.00  0.00     0.030 H 
ATOM     30  H   UNL A   1      42.811  34.632  26.351  1.00  0.00     0.030 H 
ATOM     31  H   UNL A   1      44.008  35.867  26.035  1.00  0.00     0.030 H 
ENDBRANCH  26  28
BRANCH  27  32
ATOM     32  N   UNL A   1      43.941  38.180  27.954  1.00  0.00    -0.252 N 
ATOM     33  H   UNL A   1      44.887  38.409  28.103  1.00  0.00     0.193 HD
BRANCH  32  34
ATOM     34  C   UNL A   1      43.271  39.048  27.155  1.00  0.00     0.203 A 
ATOM     35  N   UNL A   1      43.805  39.844  26.259  1.00  0.00    -0.219 NA
ATOM     36  S   UNL A   1      41.562  39.251  27.328  1.00  0.00    -0.103 S 
ATOM     37  C   UNL A   1      42.934  40.864  25.937  1.00  0.00     0.084 A 
ATOM     38  C   UNL A   1      41.656  40.715  26.429  1.00  0.00     0.021 A 
ATOM     39  H   UNL A   1      40.877  41.376  26.282  1.00  0.00     0.076 H 
BRANCH  37  40
ATOM     40  C   UNL A   1      43.424  42.025  25.215  1.00  0.00     0.001 A 
ATOM     41  C   UNL A   1      44.435  42.812  25.781  1.00  0.00    -0.051 A 
ATOM     42  C   UNL A   1      42.823  42.436  24.017  1.00  0.00    -0.051 A 
ATOM     43  C   UNL A   1      44.867  43.977  25.143  1.00  0.00    -0.043 A 
ATOM     44  H   UNL A   1      44.863  42.530  26.677  1.00  0.00     0.063 H 
ATOM     45  C   UNL A   1      43.247  43.610  23.384  1.00  0.00    -0.043 A 
ATOM     46  H   UNL A   1      42.066  41.873  23.601  1.00  0.00     0.063 H 
ATOM     47  C   UNL A   1      44.272  44.370  23.945  1.00  0.00     0.041 A 
ATOM     48  H   UNL A   1      45.623  44.546  25.556  1.00  0.00     0.064 H 
ATOM     49  H   UNL A   1      42.803  43.912  22.502  1.00  0.00     0.064 H 
ATOM     50  Cl  UNL A   1      44.795  45.809  23.161  1.00  0.00    -0.084 Cl
ENDBRANCH  37  40
ENDBRANCH  32  34
ENDBRANCH  27  32
ENDBRANCH  22  26
BRANCH  24  51
ATOM     51  C   UNL A   1      40.367  34.938  29.246  1.00  0.00    -0.020 C 
ATOM     52  H   UNL A   1      39.668  34.159  29.025  1.00  0.00     0.030 H 
ATOM     53  H   UNL A   1      40.349  35.666  28.463  1.00  0.00     0.030 H 
ATOM     54  H   UNL A   1      40.101  35.402  30.173  1.00  0.00     0.030 H 
ENDBRANCH  24  51
ENDBRANCH  12  21
ENDBRANCH   8  11
ENDBRANCH   4   7
ENDBRANCH   1   4
BRANCH   1  55
ATOM     55  C   UNL A   1      43.125  27.217  35.380  1.00  0.00    -0.052 C 
ATOM     56  H   UNL A   1      43.648  26.753  34.570  1.00  0.00     0.027 H 
ATOM     57  H   UNL A   1      42.381  26.593  35.831  1.00  0.00     0.027 H 
BRANCH  55  58
ATOM     58  C   UNL A   1      44.145  27.522  36.491  1.00  0.00    -0.052 C 
ATOM     59  H   UNL A   1      43.980  28.528  36.815  1.00  0.00     0.027 H 
ATOM     60  H   UNL A   1      45.104  27.348  36.050  1.00  0.00     0.027 H 
BRANCH  58  61
ATOM     61  C   UNL A   1      44.099  26.617  37.731  1.00  0.00    -0.036 C 
ATOM     62  H   UNL A   1      43.536  27.116  38.492  1.00  0.00     0.028 H 
ATOM     63  H   UNL A   1      45.112  26.437  38.026  1.00  0.00     0.028 H 
BRANCH  61  64
ATOM     64  C   UNL A   1      43.463  25.262  37.475  1.00  0.00     0.018 C 
ATOM     65  H   UNL A   1      43.032  25.265  36.496  1.00  0.00     0.049 H 
ATOM     66  H   UNL A   1      42.724  25.101  38.232  1.00  0.00     0.049 H 
BRANCH  64  67
ATOM     67  N   UNL A   1      44.431  24.159  37.558  1.00  0.00    -0.352 N 
ATOM     68  C   UNL A   1      45.035  23.462  36.532  1.00  0.00     0.251 C 
ATOM     69  H   UNL A   1      44.682  23.881  38.468  1.00  0.00     0.163 HD
ATOM     70  O   UNL A   1      45.516  22.341  36.722  1.00  0.00    -0.269 OA
BRANCH  68  71
ATOM     71  C   UNL A   1      45.113  24.081  35.204  1.00  0.00     0.039 A 
ATOM     72  C   UNL A   1      46.125  24.974  34.836  1.00  0.00    -0.049 A 
ATOM     73  C   UNL A   1      44.135  23.708  34.292  1.00  0.00    -0.049 A 
ATOM     74  C   UNL A   1      46.159  25.432  33.520  1.00  0.00    -0.053 A 
ATOM     75  H   UNL A   1      46.830  25.285  35.523  1.00  0.00     0.063 H 
ATOM     76  C   UNL A   1      44.331  23.935  32.965  1.00  0.00    -0.053 A 
ATOM     77  H   UNL A   1      43.265  23.259  34.619  1.00  0.00     0.063 H 
ATOM     78  C   UNL A   1      45.254  24.895  32.591  1.00  0.00    -0.014 A 
ATOM     79  H   UNL A   1      46.838  26.155  33.234  1.00  0.00     0.063 H 
ATOM     80  H   UNL A   1      43.803  23.405  32.255  1.00  0.00     0.063 H 
BRANCH  78  81
ATOM     81  C   UNL A   1      45.276  25.243  31.180  1.00  0.00     0.031 A 
ATOM     82  C   UNL A   1      46.325  26.227  30.825  1.00  0.00     0.074 A 
ATOM     83  C   UNL A   1      44.580  24.538  30.257  1.00  0.00     0.049 A 
ATOM     84  N   UNL A   1      46.156  27.444  30.434  1.00  0.00    -0.248 NA
ATOM     85  C   UNL A   1      47.730  25.874  31.090  1.00  0.00    -0.034 C 
ATOM     86  C   UNL A   1      43.763  23.331  30.448  1.00  0.00    -0.036 A 
ATOM     87  N   UNL A   1      44.544  24.699  28.908  1.00  0.00    -0.354 N 
ATOM     88  C   UNL A   1      47.430  27.941  30.187  1.00  0.00     0.074 A 
ATOM     89  C   UNL A   1      48.348  27.022  30.805  1.00  0.00    -0.034 C 
ATOM     90  H   UNL A   1      48.131  24.979  31.409  1.00  0.00     0.065 H 
ATOM     91  C   UNL A   1      43.516  22.748  29.253  1.00  0.00    -0.036 A 
ATOM     92  H   UNL A   1      43.427  22.980  31.359  1.00  0.00     0.065 H 
ATOM     93  C   UNL A   1      43.999  23.627  28.207  1.00  0.00     0.049 A 
ATOM     94  H   UNL A   1      44.877  25.511  28.461  1.00  0.00     0.167 HD
ATOM     95  C   UNL A   1      47.620  28.910  29.249  1.00  0.00     0.037 A 
ATOM     96  H   UNL A   1      49.342  27.222  31.000  1.00  0.00     0.065 H 
ATOM     97  H   UNL A   1      43.060  21.834  29.111  1.00  0.00     0.065 H 
ATOM     98  C   UNL A   1      43.976  23.475  26.858  1.00  0.00     0.037 A 
ATOM     99  C   UNL A   1      46.368  29.549  28.912  1.00  0.00     0.049 A 
ATOM    100  C   UNL A   1      44.192  24.820  26.268  1.00  0.00     0.074 A 
ATOM    101  C   UNL A   1      45.412  30.246  29.625  1.00  0.00    -0.036 A 
ATOM    102  N   UNL A   1      45.752  29.164  27.746  1.00  0.00    -0.354 N 
ATOM    103  N   UNL A   1      43.336  25.799  26.371  1.00  0.00    -0.248 NA
ATOM    104  C   UNL A   1      45.566  25.216  25.997  1.00  0.00    -0.034 C 
ATOM    105  C   UNL A   1      44.163  29.817  29.085  1.00  0.00    -0.036 A 
ATOM    106  H   UNL A   1      45.568  30.929  30.384  1.00  0.00     0.065 H 
ATOM    107  C   UNL A   1      44.426  28.952  28.023  1.00  0.00     0.049 A 
ATOM    108  H   UNL A   1      46.185  29.061  26.867  1.00  0.00     0.167 HD
ATOM    109  C   UNL A   1      44.114  26.920  26.618  1.00  0.00     0.074 A 
ATOM    110  C   UNL A   1      45.481  26.513  26.303  1.00  0.00    -0.034 C 
ATOM    111  H   UNL A   1      46.369  24.657  25.665  1.00  0.00     0.065 H 
ATOM    112  H   UNL A   1      43.228  30.098  29.421  1.00  0.00     0.065 H 
ATOM    113  C   UNL A   1      43.618  27.969  27.340  1.00  0.00     0.037 A 
ATOM    114  H   UNL A   1      46.290  27.155  26.315  1.00  0.00     0.065 H 
BRANCH  95 115
ATOM    115  C   UNL A   1      48.825  28.992  28.342  1.00  0.00     0.064 A 
ATOM    116  C   UNL A   1      49.464  30.238  28.180  1.00  0.00     0.173 A 
ATOM    117  C   UNL A   1      49.180  28.002  27.399  1.00  0.00     0.173 A 
ATOM    118  F   UNL A   1      49.195  31.256  29.011  1.00  0.00    -0.203 F 
ATOM    119  C   UNL A   1      50.312  30.498  27.101  1.00  0.00     0.198 A 
ATOM    120  C   UNL A   1      50.071  28.249  26.356  1.00  0.00     0.198 A 
ATOM    121  F   UNL A   1      48.604  26.796  27.369  1.00  0.00    -0.203 F 
ATOM    122  F   UNL A   1      50.784  31.738  26.912  1.00  0.00    -0.200 F 
ATOM    123  C   UNL A   1      50.608  29.506  26.185  1.00  0.00     0.200 A 
ATOM    124  F   UNL A   1      50.329  27.278  25.469  1.00  0.00    -0.200 F 
ATOM    125  F   UNL A   1      51.364  29.771  25.112  1.00  0.00    -0.200 F 
ENDBRANCH  95 115
BRANCH  98 126
ATOM    126  C   UNL A   1      44.116  22.232  26.059  1.00  0.00     0.064 A 
ATOM    127  C   UNL A   1      45.376  21.781  25.635  1.00  0.00     0.173 A 
ATOM    128  C   UNL A   1      43.056  21.308  25.955  1.00  0.00     0.173 A 
ATOM    129  F   UNL A   1      46.449  22.580  25.742  1.00  0.00    -0.203 F 
ATOM    130  C   UNL A   1      45.574  20.476  25.168  1.00  0.00     0.198 A 
ATOM    131  C   UNL A   1      43.253  20.008  25.485  1.00  0.00     0.198 A 
ATOM    132  F   UNL A   1      41.830  21.617  26.403  1.00  0.00    -0.203 F 
ATOM    133  F   UNL A   1      46.806  20.062  24.837  1.00  0.00    -0.200 F 
ATOM    134  C   UNL A   1      44.514  19.586  25.106  1.00  0.00     0.200 A 
ATOM    135  F   UNL A   1      42.226  19.146  25.470  1.00  0.00    -0.200 F 
ATOM    136  F   UNL A   1      44.713  18.317  24.726  1.00  0.00    -0.200 F 
ENDBRANCH  98 126
BRANCH 113 137
ATOM    137  C   UNL A   1      42.141  27.988  27.624  1.00  0.00     0.064 A 
ATOM    138  C   UNL A   1      41.544  27.445  28.776  1.00  0.00     0.173 A 
ATOM    139  C   UNL A   1      41.314  28.713  26.755  1.00  0.00     0.173 A 
ATOM    140  F   UNL A   1      42.277  26.821  29.705  1.00  0.00    -0.203 F 
ATOM    141  C   UNL A   1      40.177  27.585  29.019  1.00  0.00     0.198 A 
ATOM    142  C   UNL A   1      39.958  28.882  27.018  1.00  0.00     0.198 A 
ATOM    143  F   UNL A   1      41.837  29.300  25.667  1.00  0.00    -0.203 F 
ATOM    144  F   UNL A   1      39.631  27.045  30.119  1.00  0.00    -0.200 F 
ATOM    145  C   UNL A   1      39.388  28.309  28.143  1.00  0.00     0.200 A 
ATOM    146  F   UNL A   1      39.209  29.626  26.193  1.00  0.00    -0.200 F 
ATOM    147  F   UNL A   1      38.082  28.479  28.396  1.00  0.00    -0.200 F 
ENDBRANCH 113 137
ENDBRANCH  78  81
ENDBRANCH  68  71
ENDBRANCH  64  67
ENDBRANCH  61  64
ENDBRANCH  58  61
ENDBRANCH  55  58
ENDBRANCH   1  55
TORSDOF 20
ENDMDL
MODEL 9
REMARK VINA RESULT:     -10.1      4.936     12.150
REMARK SMILES C/C(=N\Nc1nc(-c2ccc(Cl)cc2)cs1)c1nnn(-c2ccc(C(=O)NCCCCCCNC(=O)c3ccc(-c4c5nc(c(-c6c(F)c(F)c(F)c(F)c6F)c6ccc([nH]6)c(-c6c(F)c(F)c(F)c(F)c6F)c6nc(c(-c7c(F)c(F)c(F)c(F)c7F)c7ccc4[nH]7)C=C6)C=C5)cc3)cc2)c1C
REMARK SMILES IDX 29 1 28 4 27 7 25 8 26 9 24 11 21 12 22 13 101 14 23 15
REMARK SMILES IDX 100 17 20 21 17 22 18 23 102 24 19 25 2 26 3 27 1 28 4 32
REMARK SMILES IDX 5 34 6 35 16 36 7 37 15 38 8 40 9 41 14 42 10 43 13 45 11 47
REMARK SMILES IDX 12 50 103 51 30 55 31 58 32 61 33 64 34 67 35 68 36 70 37 71
REMARK SMILES IDX 38 72 99 73 39 74 98 76 40 78 41 81 42 82 92 83 43 84 97 85
REMARK SMILES IDX 91 86 93 87 44 88 96 89 90 91 89 93 45 95 77 98 57 99 76 100
REMARK SMILES IDX 58 101 61 102 75 103 94 104 59 105 60 107 74 109 95 110
REMARK SMILES IDX 62 113 46 115 47 116 55 117 48 118 49 119 53 120 56 121
REMARK SMILES IDX 50 122 51 123 54 124 52 125 78 126 79 127 87 128 80 129
REMARK SMILES IDX 81 130 85 131 88 132 82 133 83 134 86 135 84 136 63 137
REMARK SMILES IDX 64 138 72 139 65 140 66 141 70 142 73 143 67 144 68 145
REMARK SMILES IDX 71 146 69 147
REMARK H PARENT 29 2 29 3 28 5 28 6 27 10 22 16 101 18 23 19 100 20 1 29 1 30
REMARK H PARENT 1 31 4 33 15 39 9 44 14 46 10 48 13 49 103 52 103 53 103 54
REMARK H PARENT 30 56 30 57 31 59 31 60 32 62 32 63 33 65 33 66 34 69 38 75
REMARK H PARENT 99 77 39 79 98 80 97 90 91 92 93 94 96 96 90 97 58 106 61 108
REMARK H PARENT 94 111 59 112 95 114
REMARK Flexibility Score: inf
ROOT
ATOM      1  C   UNL A   1      42.452  35.902  27.744  1.00  0.00    -0.036 C 
ATOM      2  H   UNL A   1      42.654  35.312  28.613  1.00  0.00     0.028 H 
ATOM      3  H   UNL A   1      41.530  35.629  27.274  1.00  0.00     0.028 H 
ENDROOT
BRANCH   1   4
ATOM      4  C   UNL A   1      43.567  35.660  26.724  1.00  0.00     0.018 C 
ATOM      5  H   UNL A   1      43.252  34.909  26.030  1.00  0.00     0.049 H 
ATOM      6  H   UNL A   1      43.770  36.576  26.209  1.00  0.00     0.049 H 
BRANCH   4   7
ATOM      7  N   UNL A   1      44.778  35.217  27.391  1.00  0.00    -0.352 N 
ATOM      8  C   UNL A   1      45.157  34.022  27.951  1.00  0.00     0.251 C 
ATOM      9  O   UNL A   1      46.289  33.947  28.431  1.00  0.00    -0.269 OA
ATOM     10  H   UNL A   1      45.469  35.917  27.456  1.00  0.00     0.163 HD
BRANCH   8  11
ATOM     11  C   UNL A   1      44.300  32.804  27.926  1.00  0.00     0.039 A 
ATOM     12  C   UNL A   1      42.955  30.378  28.174  1.00  0.00     0.067 A 
ATOM     13  C   UNL A   1      42.838  31.316  29.198  1.00  0.00    -0.036 A 
ATOM     14  C   UNL A   1      43.614  30.690  26.982  1.00  0.00    -0.036 A 
ATOM     15  C   UNL A   1      43.538  32.521  29.076  1.00  0.00    -0.047 A 
ATOM     16  H   UNL A   1      42.251  31.126  30.025  1.00  0.00     0.065 H 
ATOM     17  C   UNL A   1      44.240  31.926  26.844  1.00  0.00    -0.047 A 
ATOM     18  H   UNL A   1      43.637  30.008  26.207  1.00  0.00     0.065 H 
ATOM     19  H   UNL A   1      43.494  33.213  29.841  1.00  0.00     0.063 H 
ATOM     20  H   UNL A   1      44.659  32.193  25.939  1.00  0.00     0.063 H 
BRANCH  12  21
ATOM     21  N   UNL A   1      42.570  29.046  28.395  1.00  0.00    -0.217 N 
ATOM     22  C   UNL A   1      41.472  27.171  28.479  1.00  0.00     0.132 A 
ATOM     23  N   UNL A   1      42.707  26.988  29.044  1.00  0.00    -0.128 NA
ATOM     24  C   UNL A   1      41.360  28.482  28.044  1.00  0.00     0.071 A 
ATOM     25  N   UNL A   1      43.400  28.114  28.898  1.00  0.00    -0.061 NA
BRANCH  22  26
ATOM     26  C   UNL A   1      40.494  26.110  28.272  1.00  0.00     0.087 C 
ATOM     27  N   UNL A   1      40.771  25.249  27.333  1.00  0.00    -0.176 NA
BRANCH  26  28
ATOM     28  C   UNL A   1      39.335  26.116  29.235  1.00  0.00    -0.018 C 
ATOM     29  H   UNL A   1      39.625  25.634  30.147  1.00  0.00     0.030 H 
ATOM     30  H   UNL A   1      38.508  25.591  28.803  1.00  0.00     0.030 H 
ATOM     31  H   UNL A   1      39.048  27.126  29.443  1.00  0.00     0.030 H 
ENDBRANCH  26  28
BRANCH  27  32
ATOM     32  N   UNL A   1      40.060  24.092  27.095  1.00  0.00    -0.252 N 
ATOM     33  H   UNL A   1      39.083  24.204  27.113  1.00  0.00     0.193 HD
BRANCH  32  34
ATOM     34  C   UNL A   1      40.476  22.825  26.840  1.00  0.00     0.203 A 
ATOM     35  N   UNL A   1      41.718  22.403  26.845  1.00  0.00    -0.219 NA
ATOM     36  S   UNL A   1      39.336  21.612  26.371  1.00  0.00    -0.103 S 
ATOM     37  C   UNL A   1      41.829  21.216  26.152  1.00  0.00     0.084 A 
ATOM     38  C   UNL A   1      40.630  20.629  25.809  1.00  0.00     0.021 A 
ATOM     39  H   UNL A   1      40.525  19.739  25.296  1.00  0.00     0.076 H 
BRANCH  37  40
ATOM     40  C   UNL A   1      43.141  20.733  25.761  1.00  0.00     0.001 A 
ATOM     41  C   UNL A   1      43.358  19.355  25.630  1.00  0.00    -0.051 A 
ATOM     42  C   UNL A   1      44.224  21.614  25.626  1.00  0.00    -0.051 A 
ATOM     43  C   UNL A   1      44.631  18.864  25.332  1.00  0.00    -0.043 A 
ATOM     44  H   UNL A   1      42.572  18.698  25.755  1.00  0.00     0.063 H 
ATOM     45  C   UNL A   1      45.501  21.121  25.340  1.00  0.00    -0.043 A 
ATOM     46  H   UNL A   1      44.078  22.630  25.738  1.00  0.00     0.063 H 
ATOM     47  C   UNL A   1      45.697  19.749  25.186  1.00  0.00     0.041 A 
ATOM     48  H   UNL A   1      44.783  17.849  25.220  1.00  0.00     0.064 H 
ATOM     49  H   UNL A   1      46.297  21.771  25.242  1.00  0.00     0.064 H 
ATOM     50  Cl  UNL A   1      47.268  19.147  24.828  1.00  0.00    -0.084 Cl
ENDBRANCH  37  40
ENDBRANCH  32  34
ENDBRANCH  27  32
ENDBRANCH  22  26
BRANCH  24  51
ATOM     51  C   UNL A   1      40.312  29.181  27.251  1.00  0.00    -0.020 C 
ATOM     52  H   UNL A   1      39.519  29.487  27.901  1.00  0.00     0.030 H 
ATOM     53  H   UNL A   1      39.927  28.516  26.506  1.00  0.00     0.030 H 
ATOM     54  H   UNL A   1      40.738  30.041  26.778  1.00  0.00     0.030 H 
ENDBRANCH  24  51
ENDBRANCH  12  21
ENDBRANCH   8  11
ENDBRANCH   4   7
ENDBRANCH   1   4
BRANCH   1  55
ATOM     55  C   UNL A   1      42.322  37.370  28.174  1.00  0.00    -0.052 C 
ATOM     56  H   UNL A   1      42.576  37.432  29.211  1.00  0.00     0.027 H 
ATOM     57  H   UNL A   1      41.312  37.648  27.957  1.00  0.00     0.027 H 
BRANCH  55  58
ATOM     58  C   UNL A   1      43.206  38.370  27.409  1.00  0.00    -0.052 C 
ATOM     59  H   UNL A   1      42.564  39.124  27.001  1.00  0.00     0.027 H 
ATOM     60  H   UNL A   1      43.726  37.787  26.678  1.00  0.00     0.027 H 
BRANCH  58  61
ATOM     61  C   UNL A   1      44.302  39.078  28.219  1.00  0.00    -0.036 C 
ATOM     62  H   UNL A   1      44.536  40.003  27.735  1.00  0.00     0.028 H 
ATOM     63  H   UNL A   1      45.140  38.415  28.259  1.00  0.00     0.028 H 
BRANCH  61  64
ATOM     64  C   UNL A   1      43.903  39.376  29.655  1.00  0.00     0.018 C 
ATOM     65  H   UNL A   1      43.105  38.719  29.933  1.00  0.00     0.049 H 
ATOM     66  H   UNL A   1      43.603  40.402  29.703  1.00  0.00     0.049 H 
BRANCH  64  67
ATOM     67  N   UNL A   1      45.013  39.193  30.599  1.00  0.00    -0.352 N 
ATOM     68  C   UNL A   1      45.077  38.376  31.708  1.00  0.00     0.251 C 
ATOM     69  H   UNL A   1      45.821  39.725  30.415  1.00  0.00     0.163 HD
ATOM     70  O   UNL A   1      45.891  38.591  32.611  1.00  0.00    -0.269 OA
BRANCH  68  71
ATOM     71  C   UNL A   1      44.167  37.226  31.796  1.00  0.00     0.039 A 
ATOM     72  C   UNL A   1      44.242  36.126  30.936  1.00  0.00    -0.049 A 
ATOM     73  C   UNL A   1      43.226  37.263  32.815  1.00  0.00    -0.049 A 
ATOM     74  C   UNL A   1      43.391  35.047  31.164  1.00  0.00    -0.053 A 
ATOM     75  H   UNL A   1      44.913  36.114  30.152  1.00  0.00     0.063 H 
ATOM     76  C   UNL A   1      42.602  36.115  33.196  1.00  0.00    -0.053 A 
ATOM     77  H   UNL A   1      43.002  38.155  33.284  1.00  0.00     0.063 H 
ATOM     78  C   UNL A   1      42.577  35.055  32.308  1.00  0.00    -0.014 A 
ATOM     79  H   UNL A   1      43.358  34.256  30.503  1.00  0.00     0.063 H 
ATOM     80  H   UNL A   1      42.158  36.038  34.124  1.00  0.00     0.063 H 
BRANCH  78  81
ATOM     81  C   UNL A   1      41.728  33.934  32.677  1.00  0.00     0.031 A 
ATOM     82  C   UNL A   1      40.457  33.875  31.919  1.00  0.00     0.074 A 
ATOM     83  C   UNL A   1      42.179  32.915  33.445  1.00  0.00     0.049 A 
ATOM     84  N   UNL A   1      39.264  34.061  32.373  1.00  0.00    -0.248 NA
ATOM     85  C   UNL A   1      40.526  33.755  30.452  1.00  0.00    -0.034 C 
ATOM     86  C   UNL A   1      43.530  32.699  33.985  1.00  0.00    -0.036 A 
ATOM     87  N   UNL A   1      41.534  31.780  33.825  1.00  0.00    -0.354 N 
ATOM     88  C   UNL A   1      38.413  33.860  31.292  1.00  0.00     0.074 A 
ATOM     89  C   UNL A   1      39.241  33.892  30.116  1.00  0.00    -0.034 C 
ATOM     90  H   UNL A   1      41.347  33.605  29.845  1.00  0.00     0.065 H 
ATOM     91  C   UNL A   1      43.658  31.421  34.407  1.00  0.00    -0.036 A 
ATOM     92  H   UNL A   1      44.270  33.417  34.034  1.00  0.00     0.065 H 
ATOM     93  C   UNL A   1      42.360  30.783  34.336  1.00  0.00     0.049 A 
ATOM     94  H   UNL A   1      40.558  31.672  33.744  1.00  0.00     0.167 HD
ATOM     95  C   UNL A   1      37.148  33.400  31.491  1.00  0.00     0.037 A 
ATOM     96  H   UNL A   1      38.892  34.003  29.151  1.00  0.00     0.065 H 
ATOM     97  H   UNL A   1      44.533  30.977  34.727  1.00  0.00     0.065 H 
ATOM     98  C   UNL A   1      41.991  29.515  34.651  1.00  0.00     0.037 A 
ATOM     99  C   UNL A   1      36.759  33.553  32.874  1.00  0.00     0.049 A 
ATOM    100  C   UNL A   1      40.514  29.520  34.804  1.00  0.00     0.074 A 
ATOM    101  C   UNL A   1      36.642  34.626  33.737  1.00  0.00    -0.036 A 
ATOM    102  N   UNL A   1      36.812  32.438  33.676  1.00  0.00    -0.354 N 
ATOM    103  N   UNL A   1      39.890  30.151  35.761  1.00  0.00    -0.248 NA
ATOM    104  C   UNL A   1      39.719  29.240  33.617  1.00  0.00    -0.034 C 
ATOM    105  C   UNL A   1      37.128  34.147  34.990  1.00  0.00    -0.036 A 
ATOM    106  H   UNL A   1      36.281  35.569  33.521  1.00  0.00     0.065 H 
ATOM    107  C   UNL A   1      37.433  32.793  34.846  1.00  0.00     0.049 A 
ATOM    108  H   UNL A   1      36.465  31.545  33.452  1.00  0.00     0.167 HD
ATOM    109  C   UNL A   1      38.791  30.729  35.142  1.00  0.00     0.074 A 
ATOM    110  C   UNL A   1      38.699  30.072  33.840  1.00  0.00    -0.034 C 
ATOM    111  H   UNL A   1      39.894  28.590  32.834  1.00  0.00     0.065 H 
ATOM    112  H   UNL A   1      37.235  34.704  35.852  1.00  0.00     0.065 H 
ATOM    113  C   UNL A   1      38.251  31.889  35.619  1.00  0.00     0.037 A 
ATOM    114  H   UNL A   1      37.932  30.233  33.168  1.00  0.00     0.065 H 
BRANCH  95 115
ATOM    115  C   UNL A   1      36.435  32.445  30.564  1.00  0.00     0.064 A 
ATOM    116  C   UNL A   1      37.060  31.223  30.241  1.00  0.00     0.173 A 
ATOM    117  C   UNL A   1      35.341  32.800  29.742  1.00  0.00     0.173 A 
ATOM    118  F   UNL A   1      38.116  30.791  30.946  1.00  0.00    -0.203 F 
ATOM    119  C   UNL A   1      36.682  30.472  29.127  1.00  0.00     0.198 A 
ATOM    120  C   UNL A   1      34.932  32.019  28.664  1.00  0.00     0.198 A 
ATOM    121  F   UNL A   1      34.694  33.964  29.868  1.00  0.00    -0.203 F 
ATOM    122  F   UNL A   1      37.397  29.392  28.780  1.00  0.00    -0.200 F 
ATOM    123  C   UNL A   1      35.624  30.874  28.333  1.00  0.00     0.200 A 
ATOM    124  F   UNL A   1      33.914  32.438  27.898  1.00  0.00    -0.200 F 
ATOM    125  F   UNL A   1      35.304  30.194  27.225  1.00  0.00    -0.200 F 
ENDBRANCH  95 115
BRANCH  98 126
ATOM    126  C   UNL A   1      42.763  28.256  34.501  1.00  0.00     0.064 A 
ATOM    127  C   UNL A   1      42.723  27.259  35.489  1.00  0.00     0.173 A 
ATOM    128  C   UNL A   1      43.311  27.880  33.258  1.00  0.00     0.173 A 
ATOM    129  F   UNL A   1      42.176  27.519  36.687  1.00  0.00    -0.203 F 
ATOM    130  C   UNL A   1      43.171  25.956  35.240  1.00  0.00     0.198 A 
ATOM    131  C   UNL A   1      43.761  26.582  33.012  1.00  0.00     0.198 A 
ATOM    132  F   UNL A   1      43.326  28.738  32.227  1.00  0.00    -0.203 F 
ATOM    133  F   UNL A   1      43.052  25.014  36.188  1.00  0.00    -0.200 F 
ATOM    134  C   UNL A   1      43.677  25.615  33.996  1.00  0.00     0.200 A 
ATOM    135  F   UNL A   1      44.210  26.256  31.791  1.00  0.00    -0.200 F 
ATOM    136  F   UNL A   1      44.041  24.353  33.734  1.00  0.00    -0.200 F 
ENDBRANCH  98 126
BRANCH 113 137
ATOM    137  C   UNL A   1      38.705  32.370  36.970  1.00  0.00     0.064 A 
ATOM    138  C   UNL A   1      39.774  33.260  37.181  1.00  0.00     0.173 A 
ATOM    139  C   UNL A   1      37.933  32.021  38.086  1.00  0.00     0.173 A 
ATOM    140  F   UNL A   1      40.503  33.719  36.157  1.00  0.00    -0.203 F 
ATOM    141  C   UNL A   1      40.078  33.739  38.456  1.00  0.00     0.198 A 
ATOM    142  C   UNL A   1      38.216  32.529  39.351  1.00  0.00     0.198 A 
ATOM    143  F   UNL A   1      36.867  31.218  37.938  1.00  0.00    -0.203 F 
ATOM    144  F   UNL A   1      41.111  34.577  38.631  1.00  0.00    -0.200 F 
ATOM    145  C   UNL A   1      39.293  33.378  39.537  1.00  0.00     0.200 A 
ATOM    146  F   UNL A   1      37.423  32.215  40.385  1.00  0.00    -0.200 F 
ATOM    147  F   UNL A   1      39.560  33.869  40.756  1.00  0.00    -0.200 F 
ENDBRANCH 113 137
ENDBRANCH  78  81
ENDBRANCH  68  71
ENDBRANCH  64  67
ENDBRANCH  61  64
ENDBRANCH  58  61
ENDBRANCH  55  58
ENDBRANCH   1  55
TORSDOF 20
ENDMDL
MODEL 10
REMARK VINA RESULT:     -10.1      1.858      6.575
REMARK SMILES C/C(=N\Nc1nc(-c2ccc(Cl)cc2)cs1)c1nnn(-c2ccc(C(=O)NCCCCCCNC(=O)c3ccc(-c4c5nc(c(-c6c(F)c(F)c(F)c(F)c6F)c6ccc([nH]6)c(-c6c(F)c(F)c(F)c(F)c6F)c6nc(c(-c7c(F)c(F)c(F)c(F)c7F)c7ccc4[nH]7)C=C6)C=C5)cc3)cc2)c1C
REMARK SMILES IDX 29 1 28 4 27 7 25 8 26 9 24 11 21 12 22 13 101 14 23 15
REMARK SMILES IDX 100 17 20 21 17 22 18 23 102 24 19 25 2 26 3 27 1 28 4 32
REMARK SMILES IDX 5 34 6 35 16 36 7 37 15 38 8 40 9 41 14 42 10 43 13 45 11 47
REMARK SMILES IDX 12 50 103 51 30 55 31 58 32 61 33 64 34 67 35 68 36 70 37 71
REMARK SMILES IDX 38 72 99 73 39 74 98 76 40 78 41 81 42 82 92 83 43 84 97 85
REMARK SMILES IDX 91 86 93 87 44 88 96 89 90 91 89 93 45 95 77 98 57 99 76 100
REMARK SMILES IDX 58 101 61 102 75 103 94 104 59 105 60 107 74 109 95 110
REMARK SMILES IDX 62 113 46 115 47 116 55 117 48 118 49 119 53 120 56 121
REMARK SMILES IDX 50 122 51 123 54 124 52 125 78 126 79 127 87 128 80 129
REMARK SMILES IDX 81 130 85 131 88 132 82 133 83 134 86 135 84 136 63 137
REMARK SMILES IDX 64 138 72 139 65 140 66 141 70 142 73 143 67 144 68 145
REMARK SMILES IDX 71 146 69 147
REMARK H PARENT 29 2 29 3 28 5 28 6 27 10 22 16 101 18 23 19 100 20 1 29 1 30
REMARK H PARENT 1 31 4 33 15 39 9 44 14 46 10 48 13 49 103 52 103 53 103 54
REMARK H PARENT 30 56 30 57 31 59 31 60 32 62 32 63 33 65 33 66 34 69 38 75
REMARK H PARENT 99 77 39 79 98 80 97 90 91 92 93 94 96 96 90 97 58 106 61 108
REMARK H PARENT 94 111 59 112 95 114
REMARK Flexibility Score: inf
ROOT
ATOM      1  C   UNL A   1      36.725  32.914  33.130  1.00  0.00    -0.036 C 
ATOM      2  H   UNL A   1      37.487  33.367  33.729  1.00  0.00     0.028 H 
ATOM      3  H   UNL A   1      35.741  33.173  33.460  1.00  0.00     0.028 H 
ENDROOT
BRANCH   1   4
ATOM      4  C   UNL A   1      36.855  31.393  33.252  1.00  0.00     0.018 C 
ATOM      5  H   UNL A   1      35.884  30.950  33.181  1.00  0.00     0.049 H 
ATOM      6  H   UNL A   1      37.483  31.035  32.462  1.00  0.00     0.049 H 
BRANCH   4   7
ATOM      7  N   UNL A   1      37.453  31.035  34.526  1.00  0.00    -0.352 N 
ATOM      8  C   UNL A   1      38.734  31.109  35.014  1.00  0.00     0.251 C 
ATOM      9  O   UNL A   1      38.928  30.744  36.174  1.00  0.00    -0.269 OA
ATOM     10  H   UNL A   1      36.809  30.663  35.171  1.00  0.00     0.163 HD
BRANCH   8  11
ATOM     11  C   UNL A   1      39.868  31.686  34.239  1.00  0.00     0.039 A 
ATOM     12  C   UNL A   1      41.695  32.964  32.570  1.00  0.00     0.067 A 
ATOM     13  C   UNL A   1      41.030  33.717  33.536  1.00  0.00    -0.036 A 
ATOM     14  C   UNL A   1      41.561  31.574  32.520  1.00  0.00    -0.036 A 
ATOM     15  C   UNL A   1      40.097  33.071  34.353  1.00  0.00    -0.047 A 
ATOM     16  H   UNL A   1      41.223  34.724  33.646  1.00  0.00     0.065 H 
ATOM     17  C   UNL A   1      40.685  30.935  33.394  1.00  0.00    -0.047 A 
ATOM     18  H   UNL A   1      42.108  31.023  31.839  1.00  0.00     0.065 H 
ATOM     19  H   UNL A   1      39.568  33.619  35.051  1.00  0.00     0.063 H 
ATOM     20  H   UNL A   1      40.641  29.904  33.416  1.00  0.00     0.063 H 
BRANCH  12  21
ATOM     21  N   UNL A   1      42.364  33.608  31.516  1.00  0.00    -0.217 N 
ATOM     22  C   UNL A   1      42.856  34.603  29.647  1.00  0.00     0.132 A 
ATOM     23  N   UNL A   1      43.996  34.484  30.399  1.00  0.00    -0.128 NA
ATOM     24  C   UNL A   1      41.790  34.058  30.345  1.00  0.00     0.071 A 
ATOM     25  N   UNL A   1      43.661  33.963  31.577  1.00  0.00    -0.061 NA
BRANCH  22  26
ATOM     26  C   UNL A   1      42.780  35.303  28.370  1.00  0.00     0.087 C 
ATOM     27  N   UNL A   1      42.205  36.473  28.390  1.00  0.00    -0.176 NA
BRANCH  26  28
ATOM     28  C   UNL A   1      43.455  34.601  27.219  1.00  0.00    -0.018 C 
ATOM     29  H   UNL A   1      43.928  35.326  26.588  1.00  0.00     0.030 H 
ATOM     30  H   UNL A   1      42.725  34.060  26.654  1.00  0.00     0.030 H 
ATOM     31  H   UNL A   1      44.192  33.923  27.596  1.00  0.00     0.030 H 
ENDBRANCH  26  28
BRANCH  27  32
ATOM     32  N   UNL A   1      42.180  37.352  27.329  1.00  0.00    -0.252 N 
ATOM     33  H   UNL A   1      42.023  36.929  26.454  1.00  0.00     0.193 HD
BRANCH  32  34
ATOM     34  C   UNL A   1      42.334  38.700  27.282  1.00  0.00     0.203 A 
ATOM     35  N   UNL A   1      42.167  39.461  26.227  1.00  0.00    -0.219 NA
ATOM     36  S   UNL A   1      42.884  39.563  28.676  1.00  0.00    -0.103 S 
ATOM     37  C   UNL A   1      42.794  40.677  26.402  1.00  0.00     0.084 A 
ATOM     38  C   UNL A   1      43.252  40.916  27.680  1.00  0.00     0.021 A 
ATOM     39  H   UNL A   1      43.737  41.772  27.991  1.00  0.00     0.076 H 
BRANCH  37  40
ATOM     40  C   UNL A   1      43.010  41.545  25.258  1.00  0.00     0.001 A 
ATOM     41  C   UNL A   1      41.962  41.771  24.357  1.00  0.00    -0.051 A 
ATOM     42  C   UNL A   1      44.281  42.068  24.978  1.00  0.00    -0.051 A 
ATOM     43  C   UNL A   1      42.168  42.538  23.208  1.00  0.00    -0.043 A 
ATOM     44  H   UNL A   1      41.030  41.366  24.542  1.00  0.00     0.063 H 
ATOM     45  C   UNL A   1      44.491  42.825  23.821  1.00  0.00    -0.043 A 
ATOM     46  H   UNL A   1      45.064  41.892  25.627  1.00  0.00     0.063 H 
ATOM     47  C   UNL A   1      43.432  43.064  22.946  1.00  0.00     0.041 A 
ATOM     48  H   UNL A   1      41.388  42.715  22.555  1.00  0.00     0.064 H 
ATOM     49  H   UNL A   1      45.427  43.208  23.616  1.00  0.00     0.064 H 
ATOM     50  Cl  UNL A   1      43.692  44.001  21.528  1.00  0.00    -0.084 Cl
ENDBRANCH  37  40
ENDBRANCH  32  34
ENDBRANCH  27  32
ENDBRANCH  22  26
BRANCH  24  51
ATOM     51  C   UNL A   1      40.328  34.039  30.071  1.00  0.00    -0.020 C 
ATOM     52  H   UNL A   1      39.801  33.778  30.965  1.00  0.00     0.030 H 
ATOM     53  H   UNL A   1      40.117  33.318  29.310  1.00  0.00     0.030 H 
ATOM     54  H   UNL A   1      40.014  35.008  29.743  1.00  0.00     0.030 H 
ENDBRANCH  24  51
ENDBRANCH  12  21
ENDBRANCH   8  11
ENDBRANCH   4   7
ENDBRANCH   1   4
BRANCH   1  55
ATOM     55  C   UNL A   1      36.868  33.428  31.691  1.00  0.00    -0.052 C 
ATOM     56  H   UNL A   1      37.392  32.685  31.127  1.00  0.00     0.027 H 
ATOM     57  H   UNL A   1      37.387  34.362  31.766  1.00  0.00     0.027 H 
BRANCH  55  58
ATOM     58  C   UNL A   1      35.552  33.739  30.959  1.00  0.00    -0.052 C 
ATOM     59  H   UNL A   1      35.627  34.732  30.564  1.00  0.00     0.027 H 
ATOM     60  H   UNL A   1      34.782  33.609  31.691  1.00  0.00     0.027 H 
BRANCH  58  61
ATOM     61  C   UNL A   1      35.172  32.803  29.801  1.00  0.00    -0.036 C 
ATOM     62  H   UNL A   1      35.167  33.372  28.895  1.00  0.00     0.028 H 
ATOM     63  H   UNL A   1      34.211  32.395  30.031  1.00  0.00     0.028 H 
BRANCH  61  64
ATOM     64  C   UNL A   1      36.123  31.631  29.628  1.00  0.00     0.018 C 
ATOM     65  H   UNL A   1      36.440  31.300  30.595  1.00  0.00     0.049 H 
ATOM     66  H   UNL A   1      36.949  31.967  29.036  1.00  0.00     0.049 H 
BRANCH  64  67
ATOM     67  N   UNL A   1      35.503  30.501  28.924  1.00  0.00    -0.352 N 
ATOM     68  C   UNL A   1      36.112  29.492  28.206  1.00  0.00     0.251 C 
ATOM     69  H   UNL A   1      34.521  30.457  28.972  1.00  0.00     0.163 HD
ATOM     70  O   UNL A   1      35.484  28.841  27.366  1.00  0.00    -0.269 OA
BRANCH  68  71
ATOM     71  C   UNL A   1      37.525  29.190  28.466  1.00  0.00     0.039 A 
ATOM     72  C   UNL A   1      37.958  28.468  29.582  1.00  0.00    -0.049 A 
ATOM     73  C   UNL A   1      38.434  29.633  27.515  1.00  0.00    -0.049 A 
ATOM     74  C   UNL A   1      39.312  28.156  29.685  1.00  0.00    -0.053 A 
ATOM     75  H   UNL A   1      37.290  28.172  30.312  1.00  0.00     0.063 H 
ATOM     76  C   UNL A   1      39.685  29.098  27.480  1.00  0.00    -0.053 A 
ATOM     77  H   UNL A   1      38.162  30.362  26.838  1.00  0.00     0.063 H 
ATOM     78  C   UNL A   1      40.165  28.474  28.617  1.00  0.00    -0.014 A 
ATOM     79  H   UNL A   1      39.682  27.700  30.534  1.00  0.00     0.063 H 
ATOM     80  H   UNL A   1      40.261  29.156  26.626  1.00  0.00     0.063 H 
BRANCH  78  81
ATOM     81  C   UNL A   1      41.571  28.105  28.596  1.00  0.00     0.031 A 
ATOM     82  C   UNL A   1      41.844  26.836  27.883  1.00  0.00     0.074 A 
ATOM     83  C   UNL A   1      42.545  28.970  28.963  1.00  0.00     0.049 A 
ATOM     84  N   UNL A   1      42.251  25.723  28.394  1.00  0.00    -0.248 NA
ATOM     85  C   UNL A   1      41.465  26.738  26.463  1.00  0.00    -0.034 C 
ATOM     86  C   UNL A   1      42.418  30.377  29.374  1.00  0.00    -0.036 A 
ATOM     87  N   UNL A   1      43.893  28.799  28.943  1.00  0.00    -0.354 N 
ATOM     88  C   UNL A   1      42.395  24.848  27.323  1.00  0.00     0.074 A 
ATOM     89  C   UNL A   1      41.702  25.449  26.215  1.00  0.00    -0.034 C 
ATOM     90  H   UNL A   1      41.112  27.471  25.828  1.00  0.00     0.065 H 
ATOM     91  C   UNL A   1      43.627  30.980  29.333  1.00  0.00    -0.036 A 
ATOM     92  H   UNL A   1      41.536  30.836  29.653  1.00  0.00     0.065 H 
ATOM     93  C   UNL A   1      44.633  29.972  29.070  1.00  0.00     0.049 A 
ATOM     94  H   UNL A   1      44.314  27.914  28.847  1.00  0.00     0.167 HD
ATOM     95  C   UNL A   1      43.317  23.848  27.374  1.00  0.00     0.037 A 
ATOM     96  H   UNL A   1      41.429  24.953  25.352  1.00  0.00     0.065 H 
ATOM     97  H   UNL A   1      43.803  31.988  29.468  1.00  0.00     0.065 H 
ATOM     98  C   UNL A   1      45.979  30.093  28.939  1.00  0.00     0.037 A 
ATOM     99  C   UNL A   1      43.756  23.624  28.732  1.00  0.00     0.049 A 
ATOM    100  C   UNL A   1      46.553  28.734  29.109  1.00  0.00     0.074 A 
ATOM    101  C   UNL A   1      43.124  23.275  29.911  1.00  0.00    -0.036 A 
ATOM    102  N   UNL A   1      44.967  24.154  29.105  1.00  0.00    -0.354 N 
ATOM    103  N   UNL A   1      46.523  28.074  30.234  1.00  0.00    -0.248 NA
ATOM    104  C   UNL A   1      46.714  27.924  27.911  1.00  0.00    -0.034 C 
ATOM    105  C   UNL A   1      43.763  24.060  30.918  1.00  0.00    -0.036 A 
ATOM    106  H   UNL A   1      42.357  22.595  30.036  1.00  0.00     0.065 H 
ATOM    107  C   UNL A   1      44.797  24.776  30.315  1.00  0.00     0.049 A 
ATOM    108  H   UNL A   1      45.807  24.098  28.595  1.00  0.00     0.167 HD
ATOM    109  C   UNL A   1      46.217  26.771  29.867  1.00  0.00     0.074 A 
ATOM    110  C   UNL A   1      46.420  26.725  28.421  1.00  0.00    -0.034 C 
ATOM    111  H   UNL A   1      46.978  28.196  26.951  1.00  0.00     0.065 H 
ATOM    112  H   UNL A   1      43.504  24.093  31.916  1.00  0.00     0.065 H 
ATOM    113  C   UNL A   1      45.540  25.947  30.720  1.00  0.00     0.037 A 
ATOM    114  H   UNL A   1      46.344  25.864  27.857  1.00  0.00     0.065 H 
BRANCH  95 115
ATOM    115  C   UNL A   1      44.124  23.373  26.188  1.00  0.00     0.064 A 
ATOM    116  C   UNL A   1      44.112  22.000  25.869  1.00  0.00     0.173 A 
ATOM    117  C   UNL A   1      45.137  24.132  25.560  1.00  0.00     0.173 A 
ATOM    118  F   UNL A   1      43.201  21.181  26.416  1.00  0.00    -0.203 F 
ATOM    119  C   UNL A   1      45.096  21.420  25.066  1.00  0.00     0.198 A 
ATOM    120  C   UNL A   1      46.084  23.558  24.714  1.00  0.00     0.198 A 
ATOM    121  F   UNL A   1      45.331  25.429  25.820  1.00  0.00    -0.203 F 
ATOM    122  F   UNL A   1      45.123  20.090  24.906  1.00  0.00    -0.200 F 
ATOM    123  C   UNL A   1      46.087  22.198  24.496  1.00  0.00     0.200 A 
ATOM    124  F   UNL A   1      47.046  24.328  24.187  1.00  0.00    -0.200 F 
ATOM    125  F   UNL A   1      47.071  21.635  23.783  1.00  0.00    -0.200 F 
ENDBRANCH  95 115
BRANCH  98 126
ATOM    126  C   UNL A   1      46.761  31.212  28.356  1.00  0.00     0.064 A 
ATOM    127  C   UNL A   1      46.331  31.865  27.190  1.00  0.00     0.173 A 
ATOM    128  C   UNL A   1      47.774  31.856  29.094  1.00  0.00     0.173 A 
ATOM    129  F   UNL A   1      45.338  31.344  26.452  1.00  0.00    -0.203 F 
ATOM    130  C   UNL A   1      46.858  33.103  26.801  1.00  0.00     0.198 A 
ATOM    131  C   UNL A   1      48.302  33.089  28.704  1.00  0.00     0.198 A 
ATOM    132  F   UNL A   1      48.200  31.351  30.261  1.00  0.00    -0.203 F 
ATOM    133  F   UNL A   1      46.373  33.727  25.718  1.00  0.00    -0.200 F 
ATOM    134  C   UNL A   1      47.833  33.720  27.567  1.00  0.00     0.200 A 
ATOM    135  F   UNL A   1      49.216  33.693  29.476  1.00  0.00    -0.200 F 
ATOM    136  F   UNL A   1      48.288  34.936  27.236  1.00  0.00    -0.200 F 
ENDBRANCH  98 126
BRANCH 113 137
ATOM    137  C   UNL A   1      45.377  26.395  32.147  1.00  0.00     0.064 A 
ATOM    138  C   UNL A   1      44.281  27.134  32.629  1.00  0.00     0.173 A 
ATOM    139  C   UNL A   1      46.304  25.935  33.091  1.00  0.00     0.173 A 
ATOM    140  F   UNL A   1      43.300  27.529  31.809  1.00  0.00    -0.203 F 
ATOM    141  C   UNL A   1      44.148  27.432  33.985  1.00  0.00     0.198 A 
ATOM    142  C   UNL A   1      46.150  26.203  34.448  1.00  0.00     0.198 A 
ATOM    143  F   UNL A   1      47.342  25.180  32.698  1.00  0.00    -0.203 F 
ATOM    144  F   UNL A   1      43.099  28.149  34.416  1.00  0.00    -0.200 F 
ATOM    145  C   UNL A   1      45.079  26.960  34.894  1.00  0.00     0.200 A 
ATOM    146  F   UNL A   1      47.028  25.701  35.328  1.00  0.00    -0.200 F 
ATOM    147  F   UNL A   1      44.931  27.212  36.202  1.00  0.00    -0.200 F 
ENDBRANCH 113 137
ENDBRANCH  78  81
ENDBRANCH  68  71
ENDBRANCH  64  67
ENDBRANCH  61  64
ENDBRANCH  58  61
ENDBRANCH  55  58
ENDBRANCH   1  55
TORSDOF 20
ENDMDL
