MODEL 1
REMARK VINA RESULT:     -12.0      0.000      0.000
REMARK SMILES C[C@@H](C(=O)NCCCCCCNC(=O)c1ccc(-c2c3nc(c(-c4c(F)c(F)c(F)c(F)c4F)c4ccc([nH]4)c(-c4c(F)c(F)c(F)c(F)c4F)c4nc(c(-c5c(F)c(F)c(F)c(F)c5F)c5ccc2[nH]5)C=C4)C=C3)cc1)c1ccc(OC2CCCC2)cc1F
REMARK SMILES IDX 8 1 7 4 6 7 5 10 3 11 4 12 2 14 1 16 78 20 79 21 89 22 80 23
REMARK SMILES IDX 88 25 90 26 81 27 82 30 83 31 84 32 87 33 85 35 86 38 9 45
REMARK SMILES IDX 10 48 11 51 12 54 13 55 14 57 15 58 16 59 77 60 17 61 76 63
REMARK SMILES IDX 18 65 19 68 20 69 70 70 21 71 75 72 69 73 71 74 22 75 74 76
REMARK SMILES IDX 68 78 67 80 23 82 55 85 35 86 54 87 36 88 39 89 53 90 72 91
REMARK SMILES IDX 37 92 38 94 52 96 73 97 40 100 24 102 25 103 33 104 26 105
REMARK SMILES IDX 27 106 31 107 34 108 28 109 29 110 32 111 30 112 56 113
REMARK SMILES IDX 57 114 65 115 58 116 59 117 63 118 66 119 60 120 61 121
REMARK SMILES IDX 64 122 62 123 41 124 42 125 50 126 43 127 44 128 48 129
REMARK SMILES IDX 51 130 45 131 46 132 49 133 47 134
REMARK H PARENT 8 2 8 3 7 5 7 6 6 8 6 9 5 13 2 15 1 17 1 18 1 19 79 24 80 28
REMARK H PARENT 88 29 83 34 84 36 84 37 87 39 87 40 85 41 85 42 86 43 86 44
REMARK H PARENT 9 46 9 47 10 49 10 50 11 52 11 53 12 56 16 62 77 64 17 66
REMARK H PARENT 76 67 75 77 69 79 71 81 74 83 68 84 36 93 39 95 72 98 37 99
REMARK H PARENT 73 101
REMARK Flexibility Score: inf
ROOT
ATOM      1  C   UNL A   1      32.222  29.739  27.055  1.00  0.00    -0.052 C 
ATOM      2  H   UNL A   1      32.563  30.274  27.917  1.00  0.00     0.027 H 
ATOM      3  H   UNL A   1      31.425  29.057  27.267  1.00  0.00     0.027 H 
ENDROOT
BRANCH   1   4
ATOM      4  C   UNL A   1      33.388  28.888  26.531  1.00  0.00    -0.036 C 
ATOM      5  H   UNL A   1      33.500  29.080  25.484  1.00  0.00     0.028 H 
ATOM      6  H   UNL A   1      34.252  29.167  27.097  1.00  0.00     0.028 H 
BRANCH   4   7
ATOM      7  C   UNL A   1      33.197  27.383  26.726  1.00  0.00     0.017 C 
ATOM      8  H   UNL A   1      33.526  27.110  27.707  1.00  0.00     0.049 H 
ATOM      9  H   UNL A   1      32.161  27.145  26.608  1.00  0.00     0.049 H 
BRANCH   7  10
ATOM     10  N   UNL A   1      33.965  26.649  25.744  1.00  0.00    -0.356 N 
ATOM     11  C   UNL A   1      33.596  25.616  24.933  1.00  0.00     0.227 C 
ATOM     12  O   UNL A   1      34.505  25.057  24.320  1.00  0.00    -0.274 OA
ATOM     13  H   UNL A   1      34.899  26.941  25.644  1.00  0.00     0.163 HD
BRANCH  11  14
ATOM     14  C   UNL A   1      32.111  25.247  24.803  1.00  0.00     0.063 C 
ATOM     15  H   UNL A   1      31.786  25.191  25.821  1.00  0.00     0.045 H 
BRANCH  14  16
ATOM     16  C   UNL A   1      31.884  23.895  24.123  1.00  0.00    -0.049 C 
ATOM     17  H   UNL A   1      32.788  23.324  24.155  1.00  0.00     0.024 H 
ATOM     18  H   UNL A   1      31.597  24.052  23.104  1.00  0.00     0.024 H 
ATOM     19  H   UNL A   1      31.108  23.365  24.635  1.00  0.00     0.024 H 
ENDBRANCH  14  16
BRANCH  14  20
ATOM     20  C   UNL A   1      31.270  26.293  24.089  1.00  0.00     0.000 A 
ATOM     21  C   UNL A   1      31.770  27.084  23.047  1.00  0.00    -0.052 A 
ATOM     22  C   UNL A   1      29.920  26.429  24.419  1.00  0.00     0.130 A 
ATOM     23  C   UNL A   1      30.941  27.993  22.386  1.00  0.00    -0.019 A 
ATOM     24  H   UNL A   1      32.758  26.993  22.765  1.00  0.00     0.063 H 
ATOM     25  C   UNL A   1      29.087  27.321  23.752  1.00  0.00     0.016 A 
ATOM     26  F   UNL A   1      29.388  25.663  25.383  1.00  0.00    -0.207 F 
ATOM     27  C   UNL A   1      29.590  28.105  22.719  1.00  0.00     0.122 A 
ATOM     28  H   UNL A   1      31.332  28.591  21.642  1.00  0.00     0.066 H 
ATOM     29  H   UNL A   1      28.095  27.402  24.023  1.00  0.00     0.069 H 
BRANCH  27  30
ATOM     30  O   UNL A   1      28.903  29.009  21.968  1.00  0.00    -0.490 OA
BRANCH  30  31
ATOM     31  C   UNL A   1      29.107  30.410  22.086  1.00  0.00     0.099 C 
ATOM     32  C   UNL A   1      28.326  31.305  21.127  1.00  0.00    -0.016 C 
ATOM     33  C   UNL A   1      28.913  30.986  23.487  1.00  0.00    -0.016 C 
ATOM     34  H   UNL A   1      30.141  30.440  21.814  1.00  0.00     0.074 H 
ATOM     35  C   UNL A   1      28.417  32.679  21.770  1.00  0.00    -0.050 C 
ATOM     36  H   UNL A   1      27.308  30.986  21.050  1.00  0.00     0.030 H 
ATOM     37  H   UNL A   1      28.715  31.287  20.131  1.00  0.00     0.030 H 
ATOM     38  C   UNL A   1      28.494  32.439  23.277  1.00  0.00    -0.050 C 
ATOM     39  H   UNL A   1      29.827  30.936  24.041  1.00  0.00     0.030 H 
ATOM     40  H   UNL A   1      28.180  30.439  24.043  1.00  0.00     0.030 H 
ATOM     41  H   UNL A   1      27.550  33.259  21.531  1.00  0.00     0.027 H 
ATOM     42  H   UNL A   1      29.270  33.221  21.417  1.00  0.00     0.027 H 
ATOM     43  H   UNL A   1      27.538  32.612  23.725  1.00  0.00     0.027 H 
ATOM     44  H   UNL A   1      29.200  33.104  23.730  1.00  0.00     0.027 H 
ENDBRANCH  30  31
ENDBRANCH  27  30
ENDBRANCH  14  20
ENDBRANCH  11  14
ENDBRANCH   7  10
ENDBRANCH   4   7
ENDBRANCH   1   4
BRANCH   1  45
ATOM     45  C   UNL A   1      31.663  30.754  26.055  1.00  0.00    -0.052 C 
ATOM     46  H   UNL A   1      30.745  30.365  25.663  1.00  0.00     0.027 H 
ATOM     47  H   UNL A   1      32.416  30.887  25.306  1.00  0.00     0.027 H 
BRANCH  45  48
ATOM     48  C   UNL A   1      31.383  32.140  26.637  1.00  0.00    -0.036 C 
ATOM     49  H   UNL A   1      30.602  32.045  27.363  1.00  0.00     0.028 H 
ATOM     50  H   UNL A   1      31.114  32.769  25.815  1.00  0.00     0.028 H 
BRANCH  48  51
ATOM     51  C   UNL A   1      32.584  32.794  27.312  1.00  0.00     0.018 C 
ATOM     52  H   UNL A   1      33.429  32.718  26.660  1.00  0.00     0.049 H 
ATOM     53  H   UNL A   1      32.761  32.285  28.236  1.00  0.00     0.049 H 
BRANCH  51  54
ATOM     54  N   UNL A   1      32.344  34.197  27.610  1.00  0.00    -0.352 N 
ATOM     55  C   UNL A   1      32.944  35.000  28.546  1.00  0.00     0.251 C 
ATOM     56  H   UNL A   1      31.654  34.633  27.061  1.00  0.00     0.163 HD
ATOM     57  O   UNL A   1      32.477  36.108  28.803  1.00  0.00    -0.269 OA
BRANCH  55  58
ATOM     58  C   UNL A   1      34.140  34.521  29.269  1.00  0.00     0.039 A 
ATOM     59  C   UNL A   1      33.979  33.936  30.526  1.00  0.00    -0.049 A 
ATOM     60  C   UNL A   1      35.414  34.639  28.704  1.00  0.00    -0.049 A 
ATOM     61  C   UNL A   1      35.086  33.402  31.187  1.00  0.00    -0.053 A 
ATOM     62  H   UNL A   1      33.046  33.899  30.965  1.00  0.00     0.063 H 
ATOM     63  C   UNL A   1      36.506  34.045  29.332  1.00  0.00    -0.053 A 
ATOM     64  H   UNL A   1      35.544  35.165  27.826  1.00  0.00     0.063 H 
ATOM     65  C   UNL A   1      36.351  33.413  30.574  1.00  0.00    -0.014 A 
ATOM     66  H   UNL A   1      34.976  32.997  32.129  1.00  0.00     0.063 H 
ATOM     67  H   UNL A   1      37.434  34.071  28.881  1.00  0.00     0.063 H 
BRANCH  65  68
ATOM     68  C   UNL A   1      37.510  32.727  31.204  1.00  0.00     0.031 A 
ATOM     69  C   UNL A   1      38.171  31.562  30.523  1.00  0.00     0.074 A 
ATOM     70  C   UNL A   1      37.920  33.118  32.427  1.00  0.00     0.049 A 
ATOM     71  N   UNL A   1      39.150  30.804  30.948  1.00  0.00    -0.248 NA
ATOM     72  C   UNL A   1      37.652  31.183  29.199  1.00  0.00    -0.034 C 
ATOM     73  C   UNL A   1      37.324  34.203  33.212  1.00  0.00    -0.036 A 
ATOM     74  N   UNL A   1      38.924  32.642  33.233  1.00  0.00    -0.354 N 
ATOM     75  C   UNL A   1      39.356  29.856  29.956  1.00  0.00     0.074 A 
ATOM     76  C   UNL A   1      38.373  30.105  28.922  1.00  0.00    -0.034 C 
ATOM     77  H   UNL A   1      36.919  31.638  28.633  1.00  0.00     0.065 H 
ATOM     78  C   UNL A   1      37.983  34.319  34.375  1.00  0.00    -0.036 A 
ATOM     79  H   UNL A   1      36.525  34.785  32.916  1.00  0.00     0.065 H 
ATOM     80  C   UNL A   1      39.018  33.293  34.440  1.00  0.00     0.049 A 
ATOM     81  H   UNL A   1      39.521  31.904  32.971  1.00  0.00     0.167 HD
ATOM     82  C   UNL A   1      40.293  28.879  29.904  1.00  0.00     0.037 A 
ATOM     83  H   UNL A   1      38.251  29.521  28.081  1.00  0.00     0.065 H 
ATOM     84  H   UNL A   1      37.789  35.021  35.106  1.00  0.00     0.065 H 
ATOM     85  C   UNL A   1      39.835  33.073  35.489  1.00  0.00     0.037 A 
ATOM     86  C   UNL A   1      41.286  28.654  30.921  1.00  0.00     0.049 A 
ATOM     87  C   UNL A   1      40.857  31.971  35.404  1.00  0.00     0.074 A 
ATOM     88  C   UNL A   1      42.327  27.742  30.919  1.00  0.00    -0.036 A 
ATOM     89  N   UNL A   1      41.359  29.341  32.124  1.00  0.00    -0.354 N 
ATOM     90  N   UNL A   1      41.099  31.140  34.419  1.00  0.00    -0.248 NA
ATOM     91  C   UNL A   1      41.721  31.777  36.577  1.00  0.00    -0.034 C 
ATOM     92  C   UNL A   1      42.994  27.835  32.145  1.00  0.00    -0.036 A 
ATOM     93  H   UNL A   1      42.570  27.103  30.146  1.00  0.00     0.065 H 
ATOM     94  C   UNL A   1      42.405  28.846  32.887  1.00  0.00     0.049 A 
ATOM     95  H   UNL A   1      40.756  30.071  32.395  1.00  0.00     0.167 HD
ATOM     96  C   UNL A   1      42.158  30.348  34.841  1.00  0.00     0.074 A 
ATOM     97  C   UNL A   1      42.527  30.812  36.161  1.00  0.00    -0.034 C 
ATOM     98  H   UNL A   1      41.705  32.266  37.486  1.00  0.00     0.065 H 
ATOM     99  H   UNL A   1      43.789  27.250  32.446  1.00  0.00     0.065 H 
ATOM    100  C   UNL A   1      42.766  29.323  34.197  1.00  0.00     0.037 A 
ATOM    101  H   UNL A   1      43.318  30.438  36.709  1.00  0.00     0.065 H 
BRANCH  82 102
ATOM    102  C   UNL A   1      40.303  27.972  28.709  1.00  0.00     0.064 A 
ATOM    103  C   UNL A   1      41.028  28.289  27.551  1.00  0.00     0.173 A 
ATOM    104  C   UNL A   1      39.657  26.727  28.759  1.00  0.00     0.173 A 
ATOM    105  F   UNL A   1      41.657  29.469  27.450  1.00  0.00    -0.203 F 
ATOM    106  C   UNL A   1      41.098  27.397  26.483  1.00  0.00     0.198 A 
ATOM    107  C   UNL A   1      39.751  25.827  27.701  1.00  0.00     0.198 A 
ATOM    108  F   UNL A   1      38.955  26.373  29.846  1.00  0.00    -0.203 F 
ATOM    109  F   UNL A   1      41.774  27.732  25.376  1.00  0.00    -0.200 F 
ATOM    110  C   UNL A   1      40.469  26.164  26.564  1.00  0.00     0.200 A 
ATOM    111  F   UNL A   1      39.156  24.630  27.787  1.00  0.00    -0.200 F 
ATOM    112  F   UNL A   1      40.556  25.298  25.544  1.00  0.00    -0.200 F 
ENDBRANCH  82 102
BRANCH  85 113
ATOM    113  C   UNL A   1      39.721  33.906  36.718  1.00  0.00     0.064 A 
ATOM    114  C   UNL A   1      38.899  33.513  37.784  1.00  0.00     0.173 A 
ATOM    115  C   UNL A   1      40.396  35.130  36.833  1.00  0.00     0.173 A 
ATOM    116  F   UNL A   1      38.217  32.361  37.714  1.00  0.00    -0.203 F 
ATOM    117  C   UNL A   1      38.728  34.330  38.899  1.00  0.00     0.198 A 
ATOM    118  C   UNL A   1      40.251  35.929  37.965  1.00  0.00     0.198 A 
ATOM    119  F   UNL A   1      41.199  35.551  35.845  1.00  0.00    -0.203 F 
ATOM    120  F   UNL A   1      37.883  33.961  39.873  1.00  0.00    -0.200 F 
ATOM    121  C   UNL A   1      39.406  35.535  38.992  1.00  0.00     0.200 A 
ATOM    122  F   UNL A   1      40.920  37.086  38.055  1.00  0.00    -0.200 F 
ATOM    123  F   UNL A   1      39.235  36.323  40.061  1.00  0.00    -0.200 F 
ENDBRANCH  85 113
BRANCH 100 124
ATOM    124  C   UNL A   1      43.912  28.652  34.897  1.00  0.00     0.064 A 
ATOM    125  C   UNL A   1      45.228  29.115  34.764  1.00  0.00     0.173 A 
ATOM    126  C   UNL A   1      43.686  27.550  35.737  1.00  0.00     0.173 A 
ATOM    127  F   UNL A   1      45.500  30.156  33.960  1.00  0.00    -0.203 F 
ATOM    128  C   UNL A   1      46.280  28.485  35.423  1.00  0.00     0.198 A 
ATOM    129  C   UNL A   1      44.735  26.943  36.421  1.00  0.00     0.198 A 
ATOM    130  F   UNL A   1      42.444  27.070  35.904  1.00  0.00    -0.203 F 
ATOM    131  F   UNL A   1      47.537  28.913  35.239  1.00  0.00    -0.200 F 
ATOM    132  C   UNL A   1      46.032  27.405  36.257  1.00  0.00     0.200 A 
ATOM    133  F   UNL A   1      44.490  25.910  37.239  1.00  0.00    -0.200 F 
ATOM    134  F   UNL A   1      47.045  26.804  36.897  1.00  0.00    -0.200 F 
ENDBRANCH 100 124
ENDBRANCH  65  68
ENDBRANCH  55  58
ENDBRANCH  51  54
ENDBRANCH  48  51
ENDBRANCH  45  48
ENDBRANCH   1  45
TORSDOF 17
ENDMDL
MODEL 2
REMARK VINA RESULT:     -11.8      2.058      4.386
REMARK SMILES C[C@@H](C(=O)NCCCCCCNC(=O)c1ccc(-c2c3nc(c(-c4c(F)c(F)c(F)c(F)c4F)c4ccc([nH]4)c(-c4c(F)c(F)c(F)c(F)c4F)c4nc(c(-c5c(F)c(F)c(F)c(F)c5F)c5ccc2[nH]5)C=C4)C=C3)cc1)c1ccc(OC2CCCC2)cc1F
REMARK SMILES IDX 8 1 7 4 6 7 5 10 3 11 4 12 2 14 1 16 78 20 79 21 89 22 80 23
REMARK SMILES IDX 88 25 90 26 81 27 82 30 83 31 84 32 87 33 85 35 86 38 9 45
REMARK SMILES IDX 10 48 11 51 12 54 13 55 14 57 15 58 16 59 77 60 17 61 76 63
REMARK SMILES IDX 18 65 19 68 20 69 70 70 21 71 75 72 69 73 71 74 22 75 74 76
REMARK SMILES IDX 68 78 67 80 23 82 55 85 35 86 54 87 36 88 39 89 53 90 72 91
REMARK SMILES IDX 37 92 38 94 52 96 73 97 40 100 24 102 25 103 33 104 26 105
REMARK SMILES IDX 27 106 31 107 34 108 28 109 29 110 32 111 30 112 56 113
REMARK SMILES IDX 57 114 65 115 58 116 59 117 63 118 66 119 60 120 61 121
REMARK SMILES IDX 64 122 62 123 41 124 42 125 50 126 43 127 44 128 48 129
REMARK SMILES IDX 51 130 45 131 46 132 49 133 47 134
REMARK H PARENT 8 2 8 3 7 5 7 6 6 8 6 9 5 13 2 15 1 17 1 18 1 19 79 24 80 28
REMARK H PARENT 88 29 83 34 84 36 84 37 87 39 87 40 85 41 85 42 86 43 86 44
REMARK H PARENT 9 46 9 47 10 49 10 50 11 52 11 53 12 56 16 62 77 64 17 66
REMARK H PARENT 76 67 75 77 69 79 71 81 74 83 68 84 36 93 39 95 72 98 37 99
REMARK H PARENT 73 101
REMARK Flexibility Score: inf
ROOT
ATOM      1  C   UNL A   1      31.397  29.759  25.115  1.00  0.00    -0.052 C 
ATOM      2  H   UNL A   1      30.469  30.203  24.821  1.00  0.00     0.027 H 
ATOM      3  H   UNL A   1      32.210  30.002  24.462  1.00  0.00     0.027 H 
ENDROOT
BRANCH   1   4
ATOM      4  C   UNL A   1      31.236  28.234  25.052  1.00  0.00    -0.036 C 
ATOM      5  H   UNL A   1      30.194  28.002  25.131  1.00  0.00     0.028 H 
ATOM      6  H   UNL A   1      31.659  27.917  24.121  1.00  0.00     0.028 H 
BRANCH   4   7
ATOM      7  C   UNL A   1      31.981  27.482  26.156  1.00  0.00     0.017 C 
ATOM      8  H   UNL A   1      32.897  27.095  25.762  1.00  0.00     0.049 H 
ATOM      9  H   UNL A   1      32.185  28.157  26.960  1.00  0.00     0.049 H 
BRANCH   7  10
ATOM     10  N   UNL A   1      31.175  26.389  26.651  1.00  0.00    -0.356 N 
ATOM     11  C   UNL A   1      30.837  25.207  26.061  1.00  0.00     0.227 C 
ATOM     12  O   UNL A   1      29.983  24.535  26.641  1.00  0.00    -0.274 OA
ATOM     13  H   UNL A   1      30.813  26.517  27.558  1.00  0.00     0.163 HD
BRANCH  11  14
ATOM     14  C   UNL A   1      31.545  24.776  24.768  1.00  0.00     0.063 C 
ATOM     15  H   UNL A   1      32.289  25.533  24.635  1.00  0.00     0.045 H 
BRANCH  14  16
ATOM     16  C   UNL A   1      30.618  24.755  23.551  1.00  0.00    -0.049 C 
ATOM     17  H   UNL A   1      29.888  23.983  23.672  1.00  0.00     0.024 H 
ATOM     18  H   UNL A   1      31.194  24.568  22.668  1.00  0.00     0.024 H 
ATOM     19  H   UNL A   1      30.127  25.701  23.462  1.00  0.00     0.024 H 
ENDBRANCH  14  16
BRANCH  14  20
ATOM     20  C   UNL A   1      32.247  23.430  24.864  1.00  0.00     0.000 A 
ATOM     21  C   UNL A   1      31.862  22.320  24.099  1.00  0.00    -0.052 A 
ATOM     22  C   UNL A   1      33.371  23.299  25.681  1.00  0.00     0.130 A 
ATOM     23  C   UNL A   1      32.574  21.121  24.183  1.00  0.00    -0.019 A 
ATOM     24  H   UNL A   1      31.048  22.390  23.470  1.00  0.00     0.063 H 
ATOM     25  C   UNL A   1      34.093  22.111  25.754  1.00  0.00     0.016 A 
ATOM     26  F   UNL A   1      33.799  24.348  26.399  1.00  0.00    -0.207 F 
ATOM     27  C   UNL A   1      33.705  21.013  24.994  1.00  0.00     0.122 A 
ATOM     28  H   UNL A   1      32.259  20.304  23.638  1.00  0.00     0.066 H 
ATOM     29  H   UNL A   1      34.916  22.045  26.372  1.00  0.00     0.069 H 
BRANCH  27  30
ATOM     30  O   UNL A   1      34.311  19.794  24.948  1.00  0.00    -0.490 OA
BRANCH  30  31
ATOM     31  C   UNL A   1      33.617  18.612  24.576  1.00  0.00     0.099 C 
ATOM     32  C   UNL A   1      34.438  17.507  23.917  1.00  0.00    -0.016 C 
ATOM     33  C   UNL A   1      32.797  17.956  25.683  1.00  0.00    -0.016 C 
ATOM     34  H   UNL A   1      32.968  19.038  23.839  1.00  0.00     0.074 H 
ATOM     35  C   UNL A   1      33.550  16.281  24.045  1.00  0.00    -0.050 C 
ATOM     36  H   UNL A   1      35.365  17.362  24.432  1.00  0.00     0.030 H 
ATOM     37  H   UNL A   1      34.698  17.729  22.904  1.00  0.00     0.030 H 
ATOM     38  C   UNL A   1      32.741  16.472  25.326  1.00  0.00    -0.050 C 
ATOM     39  H   UNL A   1      31.811  18.371  25.714  1.00  0.00     0.030 H 
ATOM     40  H   UNL A   1      33.234  18.115  26.647  1.00  0.00     0.030 H 
ATOM     41  H   UNL A   1      34.148  15.395  24.111  1.00  0.00     0.027 H 
ATOM     42  H   UNL A   1      32.912  16.170  23.192  1.00  0.00     0.027 H 
ATOM     43  H   UNL A   1      33.164  15.889  26.117  1.00  0.00     0.027 H 
ATOM     44  H   UNL A   1      31.729  16.156  25.184  1.00  0.00     0.027 H 
ENDBRANCH  30  31
ENDBRANCH  27  30
ENDBRANCH  14  20
ENDBRANCH  11  14
ENDBRANCH   7  10
ENDBRANCH   4   7
ENDBRANCH   1   4
BRANCH   1  45
ATOM     45  C   UNL A   1      31.774  30.312  26.492  1.00  0.00    -0.052 C 
ATOM     46  H   UNL A   1      32.799  30.063  26.681  1.00  0.00     0.027 H 
ATOM     47  H   UNL A   1      31.098  29.868  27.192  1.00  0.00     0.027 H 
BRANCH  45  48
ATOM     48  C   UNL A   1      31.617  31.826  26.639  1.00  0.00    -0.036 C 
ATOM     49  H   UNL A   1      30.733  32.015  27.212  1.00  0.00     0.028 H 
ATOM     50  H   UNL A   1      31.565  32.226  25.648  1.00  0.00     0.028 H 
BRANCH  48  51
ATOM     51  C   UNL A   1      32.789  32.517  27.326  1.00  0.00     0.018 C 
ATOM     52  H   UNL A   1      33.648  32.452  26.692  1.00  0.00     0.049 H 
ATOM     53  H   UNL A   1      32.961  32.026  28.261  1.00  0.00     0.049 H 
BRANCH  51  54
ATOM     54  N   UNL A   1      32.512  33.918  27.600  1.00  0.00    -0.352 N 
ATOM     55  C   UNL A   1      33.065  34.744  28.543  1.00  0.00     0.251 C 
ATOM     56  H   UNL A   1      31.829  34.333  27.024  1.00  0.00     0.163 HD
ATOM     57  O   UNL A   1      32.569  35.846  28.772  1.00  0.00    -0.269 OA
BRANCH  55  58
ATOM     58  C   UNL A   1      34.249  34.300  29.307  1.00  0.00     0.039 A 
ATOM     59  C   UNL A   1      34.059  33.658  30.533  1.00  0.00    -0.049 A 
ATOM     60  C   UNL A   1      35.541  34.505  28.813  1.00  0.00    -0.049 A 
ATOM     61  C   UNL A   1      35.159  33.156  31.228  1.00  0.00    -0.053 A 
ATOM     62  H   UNL A   1      33.109  33.556  30.922  1.00  0.00     0.063 H 
ATOM     63  C   UNL A   1      36.632  33.944  29.473  1.00  0.00    -0.053 A 
ATOM     64  H   UNL A   1      35.686  35.072  27.962  1.00  0.00     0.063 H 
ATOM     65  C   UNL A   1      36.450  33.256  30.682  1.00  0.00    -0.014 A 
ATOM     66  H   UNL A   1      35.025  32.709  32.148  1.00  0.00     0.063 H 
ATOM     67  H   UNL A   1      37.577  34.035  29.070  1.00  0.00     0.063 H 
BRANCH  65  68
ATOM     68  C   UNL A   1      37.611  32.607  31.344  1.00  0.00     0.031 A 
ATOM     69  C   UNL A   1      38.317  31.452  30.689  1.00  0.00     0.074 A 
ATOM     70  C   UNL A   1      37.985  33.021  32.571  1.00  0.00     0.049 A 
ATOM     71  N   UNL A   1      39.305  30.724  31.144  1.00  0.00    -0.248 NA
ATOM     72  C   UNL A   1      37.837  31.047  29.358  1.00  0.00    -0.034 C 
ATOM     73  C   UNL A   1      37.344  34.097  33.331  1.00  0.00    -0.036 A 
ATOM     74  N   UNL A   1      38.983  32.578  33.403  1.00  0.00    -0.354 N 
ATOM     75  C   UNL A   1      39.556  29.771  30.166  1.00  0.00     0.074 A 
ATOM     76  C   UNL A   1      38.591  29.984  29.109  1.00  0.00    -0.034 C 
ATOM     77  H   UNL A   1      37.105  31.477  28.772  1.00  0.00     0.065 H 
ATOM     78  C   UNL A   1      37.975  34.242  34.507  1.00  0.00    -0.036 A 
ATOM     79  H   UNL A   1      36.538  34.656  33.012  1.00  0.00     0.065 H 
ATOM     80  C   UNL A   1      39.033  33.243  34.605  1.00  0.00     0.049 A 
ATOM     81  H   UNL A   1      39.604  31.853  33.162  1.00  0.00     0.167 HD
ATOM     82  C   UNL A   1      40.519  28.818  30.145  1.00  0.00     0.037 A 
ATOM     83  H   UNL A   1      38.502  29.389  28.271  1.00  0.00     0.065 H 
ATOM     84  H   UNL A   1      37.747  34.946  35.226  1.00  0.00     0.065 H 
ATOM     85  C   UNL A   1      39.833  33.055  35.674  1.00  0.00     0.037 A 
ATOM     86  C   UNL A   1      41.495  28.629  31.186  1.00  0.00     0.049 A 
ATOM     87  C   UNL A   1      40.884  31.979  35.622  1.00  0.00     0.074 A 
ATOM     88  C   UNL A   1      42.559  27.743  31.216  1.00  0.00    -0.036 A 
ATOM     89  N   UNL A   1      41.524  29.329  32.382  1.00  0.00    -0.354 N 
ATOM     90  N   UNL A   1      41.169  31.144  34.652  1.00  0.00    -0.248 NA
ATOM     91  C   UNL A   1      41.727  31.819  36.816  1.00  0.00    -0.034 C 
ATOM     92  C   UNL A   1      43.196  27.866  32.455  1.00  0.00    -0.036 A 
ATOM     93  H   UNL A   1      42.834  27.103  30.456  1.00  0.00     0.065 H 
ATOM     94  C   UNL A   1      42.565  28.869  33.173  1.00  0.00     0.049 A 
ATOM     95  H   UNL A   1      40.897  30.046  32.633  1.00  0.00     0.167 HD
ATOM     96  C   UNL A   1      42.238  30.384  35.105  1.00  0.00     0.074 A 
ATOM     97  C   UNL A   1      42.566  30.870  36.428  1.00  0.00    -0.034 C 
ATOM     98  H   UNL A   1      41.679  32.316  37.719  1.00  0.00     0.065 H 
ATOM     99  H   UNL A   1      43.998  27.304  32.780  1.00  0.00     0.065 H 
ATOM    100  C   UNL A   1      42.885  29.368  34.486  1.00  0.00     0.037 A 
ATOM    101  H   UNL A   1      43.354  30.522  36.996  1.00  0.00     0.065 H 
BRANCH  82 102
ATOM    102  C   UNL A   1      40.578  27.899  28.960  1.00  0.00     0.064 A 
ATOM    103  C   UNL A   1      39.802  26.734  28.894  1.00  0.00     0.173 A 
ATOM    104  C   UNL A   1      41.350  28.239  27.838  1.00  0.00     0.173 A 
ATOM    105  F   UNL A   1      39.053  26.360  29.942  1.00  0.00    -0.203 F 
ATOM    106  C   UNL A   1      39.803  25.936  27.751  1.00  0.00     0.198 A 
ATOM    107  C   UNL A   1      41.328  27.455  26.689  1.00  0.00     0.198 A 
ATOM    108  F   UNL A   1      42.106  29.348  27.848  1.00  0.00    -0.203 F 
ATOM    109  F   UNL A   1      39.074  24.813  27.720  1.00  0.00    -0.200 F 
ATOM    110  C   UNL A   1      40.557  26.304  26.647  1.00  0.00     0.200 A 
ATOM    111  F   UNL A   1      42.045  27.820  25.617  1.00  0.00    -0.200 F 
ATOM    112  F   UNL A   1      40.540  25.547  25.540  1.00  0.00    -0.200 F 
ENDBRANCH  82 102
BRANCH  85 113
ATOM    113  C   UNL A   1      39.671  33.897  36.891  1.00  0.00     0.064 A 
ATOM    114  C   UNL A   1      38.866  33.476  37.959  1.00  0.00     0.173 A 
ATOM    115  C   UNL A   1      40.282  35.156  36.992  1.00  0.00     0.173 A 
ATOM    116  F   UNL A   1      38.244  32.290  37.902  1.00  0.00    -0.203 F 
ATOM    117  C   UNL A   1      38.648  34.298  39.063  1.00  0.00     0.198 A 
ATOM    118  C   UNL A   1      40.091  35.960  38.113  1.00  0.00     0.198 A 
ATOM    119  F   UNL A   1      41.066  35.604  36.002  1.00  0.00    -0.203 F 
ATOM    120  F   UNL A   1      37.819  33.899  40.038  1.00  0.00    -0.200 F 
ATOM    121  C   UNL A   1      39.262  35.538  39.142  1.00  0.00     0.200 A 
ATOM    122  F   UNL A   1      40.700  37.152  38.190  1.00  0.00    -0.200 F 
ATOM    123  F   UNL A   1      39.047  36.330  40.200  1.00  0.00    -0.200 F 
ENDBRANCH  85 113
BRANCH 100 124
ATOM    124  C   UNL A   1      44.032  28.733  35.217  1.00  0.00     0.064 A 
ATOM    125  C   UNL A   1      45.340  29.226  35.104  1.00  0.00     0.173 A 
ATOM    126  C   UNL A   1      43.815  27.638  36.068  1.00  0.00     0.173 A 
ATOM    127  F   UNL A   1      45.604  30.262  34.292  1.00  0.00    -0.203 F 
ATOM    128  C   UNL A   1      46.393  28.629  35.793  1.00  0.00     0.198 A 
ATOM    129  C   UNL A   1      44.864  27.065  36.781  1.00  0.00     0.198 A 
ATOM    130  F   UNL A   1      42.581  27.131  36.217  1.00  0.00    -0.203 F 
ATOM    131  F   UNL A   1      47.642  29.084  35.627  1.00  0.00    -0.200 F 
ATOM    132  C   UNL A   1      46.153  27.555  36.636  1.00  0.00     0.200 A 
ATOM    133  F   UNL A   1      44.627  26.037  37.608  1.00  0.00    -0.200 F 
ATOM    134  F   UNL A   1      47.166  26.987  37.304  1.00  0.00    -0.200 F 
ENDBRANCH 100 124
ENDBRANCH  65  68
ENDBRANCH  55  58
ENDBRANCH  51  54
ENDBRANCH  48  51
ENDBRANCH  45  48
ENDBRANCH   1  45
TORSDOF 17
ENDMDL
MODEL 3
REMARK VINA RESULT:     -11.8      5.852     11.554
REMARK SMILES C[C@@H](C(=O)NCCCCCCNC(=O)c1ccc(-c2c3nc(c(-c4c(F)c(F)c(F)c(F)c4F)c4ccc([nH]4)c(-c4c(F)c(F)c(F)c(F)c4F)c4nc(c(-c5c(F)c(F)c(F)c(F)c5F)c5ccc2[nH]5)C=C4)C=C3)cc1)c1ccc(OC2CCCC2)cc1F
REMARK SMILES IDX 8 1 7 4 6 7 5 10 3 11 4 12 2 14 1 16 78 20 79 21 89 22 80 23
REMARK SMILES IDX 88 25 90 26 81 27 82 30 83 31 84 32 87 33 85 35 86 38 9 45
REMARK SMILES IDX 10 48 11 51 12 54 13 55 14 57 15 58 16 59 77 60 17 61 76 63
REMARK SMILES IDX 18 65 19 68 20 69 70 70 21 71 75 72 69 73 71 74 22 75 74 76
REMARK SMILES IDX 68 78 67 80 23 82 55 85 35 86 54 87 36 88 39 89 53 90 72 91
REMARK SMILES IDX 37 92 38 94 52 96 73 97 40 100 24 102 25 103 33 104 26 105
REMARK SMILES IDX 27 106 31 107 34 108 28 109 29 110 32 111 30 112 56 113
REMARK SMILES IDX 57 114 65 115 58 116 59 117 63 118 66 119 60 120 61 121
REMARK SMILES IDX 64 122 62 123 41 124 42 125 50 126 43 127 44 128 48 129
REMARK SMILES IDX 51 130 45 131 46 132 49 133 47 134
REMARK H PARENT 8 2 8 3 7 5 7 6 6 8 6 9 5 13 2 15 1 17 1 18 1 19 79 24 80 28
REMARK H PARENT 88 29 83 34 84 36 84 37 87 39 87 40 85 41 85 42 86 43 86 44
REMARK H PARENT 9 46 9 47 10 49 10 50 11 52 11 53 12 56 16 62 77 64 17 66
REMARK H PARENT 76 67 75 77 69 79 71 81 74 83 68 84 36 93 39 95 72 98 37 99
REMARK H PARENT 73 101
REMARK Flexibility Score: inf
ROOT
ATOM      1  C   UNL A   1      37.038  21.994  25.772  1.00  0.00    -0.052 C 
ATOM      2  H   UNL A   1      36.176  22.191  26.374  1.00  0.00     0.027 H 
ATOM      3  H   UNL A   1      37.921  21.798  26.345  1.00  0.00     0.027 H 
ENDROOT
BRANCH   1   4
ATOM      4  C   UNL A   1      37.335  23.249  24.940  1.00  0.00    -0.036 C 
ATOM      5  H   UNL A   1      37.758  23.989  25.587  1.00  0.00     0.028 H 
ATOM      6  H   UNL A   1      38.005  22.951  24.160  1.00  0.00     0.028 H 
BRANCH   4   7
ATOM      7  C   UNL A   1      36.105  23.851  24.259  1.00  0.00     0.017 C 
ATOM      8  H   UNL A   1      36.421  24.507  23.475  1.00  0.00     0.049 H 
ATOM      9  H   UNL A   1      35.508  23.060  23.856  1.00  0.00     0.049 H 
BRANCH   7  10
ATOM     10  N   UNL A   1      35.316  24.596  25.216  1.00  0.00    -0.356 N 
ATOM     11  C   UNL A   1      34.005  24.968  25.175  1.00  0.00     0.227 C 
ATOM     12  O   UNL A   1      33.637  25.757  26.045  1.00  0.00    -0.274 OA
ATOM     13  H   UNL A   1      35.802  24.878  26.024  1.00  0.00     0.163 HD
BRANCH  11  14
ATOM     14  C   UNL A   1      33.080  24.368  24.105  1.00  0.00     0.063 C 
ATOM     15  H   UNL A   1      33.608  24.557  23.195  1.00  0.00     0.045 H 
BRANCH  14  16
ATOM     16  C   UNL A   1      31.709  25.047  24.046  1.00  0.00    -0.049 C 
ATOM     17  H   UNL A   1      31.097  24.549  23.324  1.00  0.00     0.024 H 
ATOM     18  H   UNL A   1      31.831  26.073  23.765  1.00  0.00     0.024 H 
ATOM     19  H   UNL A   1      31.244  24.994  25.007  1.00  0.00     0.024 H 
ENDBRANCH  14  16
BRANCH  14  20
ATOM     20  C   UNL A   1      32.870  22.868  24.234  1.00  0.00     0.000 A 
ATOM     21  C   UNL A   1      32.764  22.222  25.472  1.00  0.00    -0.052 A 
ATOM     22  C   UNL A   1      32.695  22.099  23.082  1.00  0.00     0.130 A 
ATOM     23  C   UNL A   1      32.517  20.848  25.537  1.00  0.00    -0.019 A 
ATOM     24  H   UNL A   1      32.868  22.765  26.343  1.00  0.00     0.063 H 
ATOM     25  C   UNL A   1      32.432  20.734  23.142  1.00  0.00     0.016 A 
ATOM     26  F   UNL A   1      32.748  22.683  21.876  1.00  0.00    -0.207 F 
ATOM     27  C   UNL A   1      32.329  20.098  24.375  1.00  0.00     0.122 A 
ATOM     28  H   UNL A   1      32.473  20.382  26.456  1.00  0.00     0.066 H 
ATOM     29  H   UNL A   1      32.313  20.193  22.272  1.00  0.00     0.069 H 
BRANCH  27  30
ATOM     30  O   UNL A   1      32.066  18.781  24.597  1.00  0.00    -0.490 OA
BRANCH  30  31
ATOM     31  C   UNL A   1      33.031  17.892  25.141  1.00  0.00     0.099 C 
ATOM     32  C   UNL A   1      32.579  16.458  25.405  1.00  0.00    -0.016 C 
ATOM     33  C   UNL A   1      34.350  17.808  24.378  1.00  0.00    -0.016 C 
ATOM     34  H   UNL A   1      33.178  18.380  26.082  1.00  0.00     0.074 H 
ATOM     35  C   UNL A   1      33.884  15.696  25.553  1.00  0.00    -0.050 C 
ATOM     36  H   UNL A   1      32.007  16.081  24.583  1.00  0.00     0.030 H 
ATOM     37  H   UNL A   1      31.947  16.372  26.264  1.00  0.00     0.030 H 
ATOM     38  C   UNL A   1      34.899  16.412  24.663  1.00  0.00    -0.050 C 
ATOM     39  H   UNL A   1      35.031  18.556  24.726  1.00  0.00     0.030 H 
ATOM     40  H   UNL A   1      34.213  17.973  23.330  1.00  0.00     0.030 H 
ATOM     41  H   UNL A   1      33.761  14.682  25.233  1.00  0.00     0.027 H 
ATOM     42  H   UNL A   1      34.209  15.670  26.573  1.00  0.00     0.027 H 
ATOM     43  H   UNL A   1      35.026  15.875  23.747  1.00  0.00     0.027 H 
ATOM     44  H   UNL A   1      35.851  16.472  25.149  1.00  0.00     0.027 H 
ENDBRANCH  30  31
ENDBRANCH  27  30
ENDBRANCH  14  20
ENDBRANCH  11  14
ENDBRANCH   7  10
ENDBRANCH   4   7
ENDBRANCH   1   4
BRANCH   1  45
ATOM     45  C   UNL A   1      36.768  20.727  24.956  1.00  0.00    -0.052 C 
ATOM     46  H   UNL A   1      36.558  21.019  23.947  1.00  0.00     0.027 H 
ATOM     47  H   UNL A   1      35.947  20.231  25.429  1.00  0.00     0.027 H 
BRANCH  45  48
ATOM     48  C   UNL A   1      37.923  19.724  24.930  1.00  0.00    -0.036 C 
ATOM     49  H   UNL A   1      38.182  19.540  23.908  1.00  0.00     0.028 H 
ATOM     50  H   UNL A   1      37.578  18.848  25.437  1.00  0.00     0.028 H 
BRANCH  48  51
ATOM     51  C   UNL A   1      39.176  20.187  25.664  1.00  0.00     0.018 C 
ATOM     52  H   UNL A   1      38.894  20.562  26.626  1.00  0.00     0.049 H 
ATOM     53  H   UNL A   1      39.642  20.948  25.074  1.00  0.00     0.049 H 
BRANCH  51  54
ATOM     54  N   UNL A   1      40.134  19.108  25.843  1.00  0.00    -0.352 N 
ATOM     55  C   UNL A   1      41.480  19.174  26.091  1.00  0.00     0.251 C 
ATOM     56  H   UNL A   1      39.762  18.199  25.776  1.00  0.00     0.163 HD
ATOM     57  O   UNL A   1      42.177  18.164  26.011  1.00  0.00    -0.269 OA
BRANCH  55  58
ATOM     58  C   UNL A   1      42.103  20.470  26.431  1.00  0.00     0.039 A 
ATOM     59  C   UNL A   1      42.580  21.281  25.400  1.00  0.00    -0.049 A 
ATOM     60  C   UNL A   1      42.206  20.889  27.762  1.00  0.00    -0.049 A 
ATOM     61  C   UNL A   1      43.095  22.544  25.695  1.00  0.00    -0.053 A 
ATOM     62  H   UNL A   1      42.553  20.947  24.424  1.00  0.00     0.063 H 
ATOM     63  C   UNL A   1      42.655  22.176  28.049  1.00  0.00    -0.053 A 
ATOM     64  H   UNL A   1      41.951  20.247  28.528  1.00  0.00     0.063 H 
ATOM     65  C   UNL A   1      43.094  23.019  27.018  1.00  0.00    -0.014 A 
ATOM     66  H   UNL A   1      43.476  23.132  24.938  1.00  0.00     0.063 H 
ATOM     67  H   UNL A   1      42.663  22.511  29.025  1.00  0.00     0.063 H 
BRANCH  65  68
ATOM     68  C   UNL A   1      43.510  24.411  27.329  1.00  0.00     0.031 A 
ATOM     69  C   UNL A   1      42.509  25.414  27.830  1.00  0.00     0.074 A 
ATOM     70  C   UNL A   1      44.783  24.786  27.091  1.00  0.00     0.049 A 
ATOM     71  N   UNL A   1      42.675  26.686  28.093  1.00  0.00    -0.248 NA
ATOM     72  C   UNL A   1      41.135  24.933  28.045  1.00  0.00    -0.034 C 
ATOM     73  C   UNL A   1      45.834  23.917  26.555  1.00  0.00    -0.036 A 
ATOM     74  N   UNL A   1      45.408  25.998  27.255  1.00  0.00    -0.354 N 
ATOM     75  C   UNL A   1      41.432  27.157  28.491  1.00  0.00     0.074 A 
ATOM     76  C   UNL A   1      40.508  26.047  28.396  1.00  0.00    -0.034 C 
ATOM     77  H   UNL A   1      40.758  23.977  27.948  1.00  0.00     0.065 H 
ATOM     78  C   UNL A   1      46.974  24.617  26.451  1.00  0.00    -0.036 A 
ATOM     79  H   UNL A   1      45.716  22.925  26.300  1.00  0.00     0.065 H 
ATOM     80  C   UNL A   1      46.728  25.993  26.868  1.00  0.00     0.049 A 
ATOM     81  H   UNL A   1      44.955  26.793  27.614  1.00  0.00     0.167 HD
ATOM     82  C   UNL A   1      41.098  28.399  28.916  1.00  0.00     0.037 A 
ATOM     83  H   UNL A   1      39.495  26.114  28.579  1.00  0.00     0.065 H 
ATOM     84  H   UNL A   1      47.879  24.242  26.126  1.00  0.00     0.065 H 
ATOM     85  C   UNL A   1      47.632  26.991  26.839  1.00  0.00     0.037 A 
ATOM     86  C   UNL A   1      42.027  29.493  29.036  1.00  0.00     0.049 A 
ATOM     87  C   UNL A   1      47.224  28.363  27.306  1.00  0.00     0.074 A 
ATOM     88  C   UNL A   1      41.799  30.764  29.534  1.00  0.00    -0.036 A 
ATOM     89  N   UNL A   1      43.358  29.448  28.649  1.00  0.00    -0.354 N 
ATOM     90  N   UNL A   1      46.066  28.772  27.765  1.00  0.00    -0.248 NA
ATOM     91  C   UNL A   1      48.251  29.414  27.251  1.00  0.00    -0.034 C 
ATOM     92  C   UNL A   1      42.975  31.507  29.393  1.00  0.00    -0.036 A 
ATOM     93  H   UNL A   1      40.913  31.105  29.939  1.00  0.00     0.065 H 
ATOM     94  C   UNL A   1      43.952  30.681  28.862  1.00  0.00     0.049 A 
ATOM     95  H   UNL A   1      43.812  28.657  28.277  1.00  0.00     0.167 HD
ATOM     96  C   UNL A   1      46.233  30.113  28.080  1.00  0.00     0.074 A 
ATOM     97  C   UNL A   1      47.610  30.445  27.781  1.00  0.00    -0.034 C 
ATOM     98  H   UNL A   1      49.218  29.362  26.894  1.00  0.00     0.065 H 
ATOM     99  H   UNL A   1      43.094  32.502  29.641  1.00  0.00     0.065 H 
ATOM    100  C   UNL A   1      45.327  30.995  28.566  1.00  0.00     0.037 A 
ATOM    101  H   UNL A   1      48.038  31.367  27.959  1.00  0.00     0.065 H 
BRANCH  82 102
ATOM    102  C   UNL A   1      39.668  28.658  29.290  1.00  0.00     0.064 A 
ATOM    103  C   UNL A   1      39.204  28.466  30.600  1.00  0.00     0.173 A 
ATOM    104  C   UNL A   1      38.775  29.193  28.349  1.00  0.00     0.173 A 
ATOM    105  F   UNL A   1      40.016  27.950  31.535  1.00  0.00    -0.203 F 
ATOM    106  C   UNL A   1      37.896  28.792  30.951  1.00  0.00     0.198 A 
ATOM    107  C   UNL A   1      37.477  29.543  28.710  1.00  0.00     0.198 A 
ATOM    108  F   UNL A   1      39.170  29.402  27.084  1.00  0.00    -0.203 F 
ATOM    109  F   UNL A   1      37.467  28.576  32.202  1.00  0.00    -0.200 F 
ATOM    110  C   UNL A   1      37.038  29.340  30.010  1.00  0.00     0.200 A 
ATOM    111  F   UNL A   1      36.654  30.087  27.803  1.00  0.00    -0.200 F 
ATOM    112  F   UNL A   1      35.786  29.674  30.356  1.00  0.00    -0.200 F 
ENDBRANCH  82 102
BRANCH  85 113
ATOM    113  C   UNL A   1      49.013  26.741  26.342  1.00  0.00     0.064 A 
ATOM    114  C   UNL A   1      49.352  26.972  25.001  1.00  0.00     0.173 A 
ATOM    115  C   UNL A   1      50.007  26.225  27.185  1.00  0.00     0.173 A 
ATOM    116  F   UNL A   1      48.431  27.445  24.150  1.00  0.00    -0.203 F 
ATOM    117  C   UNL A   1      50.620  26.661  24.516  1.00  0.00     0.198 A 
ATOM    118  C   UNL A   1      51.286  25.949  26.706  1.00  0.00     0.198 A 
ATOM    119  F   UNL A   1      49.738  25.991  28.478  1.00  0.00    -0.203 F 
ATOM    120  F   UNL A   1      50.896  26.828  23.215  1.00  0.00    -0.200 F 
ATOM    121  C   UNL A   1      51.588  26.153  25.368  1.00  0.00     0.200 A 
ATOM    122  F   UNL A   1      52.222  25.472  27.539  1.00  0.00    -0.200 F 
ATOM    123  F   UNL A   1      52.805  25.849  24.900  1.00  0.00    -0.200 F 
ENDBRANCH  85 113
BRANCH 100 124
ATOM    124  C   UNL A   1      45.800  32.394  28.833  1.00  0.00     0.064 A 
ATOM    125  C   UNL A   1      46.378  32.754  30.059  1.00  0.00     0.173 A 
ATOM    126  C   UNL A   1      45.705  33.380  27.838  1.00  0.00     0.173 A 
ATOM    127  F   UNL A   1      46.478  31.853  31.049  1.00  0.00    -0.203 F 
ATOM    128  C   UNL A   1      46.816  34.056  30.290  1.00  0.00     0.198 A 
ATOM    129  C   UNL A   1      46.175  34.670  28.061  1.00  0.00     0.198 A 
ATOM    130  F   UNL A   1      45.166  33.087  26.645  1.00  0.00    -0.203 F 
ATOM    131  F   UNL A   1      47.316  34.389  31.488  1.00  0.00    -0.200 F 
ATOM    132  C   UNL A   1      46.722  35.010  29.289  1.00  0.00     0.200 A 
ATOM    133  F   UNL A   1      46.098  35.587  27.086  1.00  0.00    -0.200 F 
ATOM    134  F   UNL A   1      47.152  36.260  29.510  1.00  0.00    -0.200 F 
ENDBRANCH 100 124
ENDBRANCH  65  68
ENDBRANCH  55  58
ENDBRANCH  51  54
ENDBRANCH  48  51
ENDBRANCH  45  48
ENDBRANCH   1  45
TORSDOF 17
ENDMDL
MODEL 4
REMARK VINA RESULT:     -11.7      2.087      4.418
REMARK SMILES C[C@@H](C(=O)NCCCCCCNC(=O)c1ccc(-c2c3nc(c(-c4c(F)c(F)c(F)c(F)c4F)c4ccc([nH]4)c(-c4c(F)c(F)c(F)c(F)c4F)c4nc(c(-c5c(F)c(F)c(F)c(F)c5F)c5ccc2[nH]5)C=C4)C=C3)cc1)c1ccc(OC2CCCC2)cc1F
REMARK SMILES IDX 8 1 7 4 6 7 5 10 3 11 4 12 2 14 1 16 78 20 79 21 89 22 80 23
REMARK SMILES IDX 88 25 90 26 81 27 82 30 83 31 84 32 87 33 85 35 86 38 9 45
REMARK SMILES IDX 10 48 11 51 12 54 13 55 14 57 15 58 16 59 77 60 17 61 76 63
REMARK SMILES IDX 18 65 19 68 20 69 70 70 21 71 75 72 69 73 71 74 22 75 74 76
REMARK SMILES IDX 68 78 67 80 23 82 55 85 35 86 54 87 36 88 39 89 53 90 72 91
REMARK SMILES IDX 37 92 38 94 52 96 73 97 40 100 24 102 25 103 33 104 26 105
REMARK SMILES IDX 27 106 31 107 34 108 28 109 29 110 32 111 30 112 56 113
REMARK SMILES IDX 57 114 65 115 58 116 59 117 63 118 66 119 60 120 61 121
REMARK SMILES IDX 64 122 62 123 41 124 42 125 50 126 43 127 44 128 48 129
REMARK SMILES IDX 51 130 45 131 46 132 49 133 47 134
REMARK H PARENT 8 2 8 3 7 5 7 6 6 8 6 9 5 13 2 15 1 17 1 18 1 19 79 24 80 28
REMARK H PARENT 88 29 83 34 84 36 84 37 87 39 87 40 85 41 85 42 86 43 86 44
REMARK H PARENT 9 46 9 47 10 49 10 50 11 52 11 53 12 56 16 62 77 64 17 66
REMARK H PARENT 76 67 75 77 69 79 71 81 74 83 68 84 36 93 39 95 72 98 37 99
REMARK H PARENT 73 101
REMARK Flexibility Score: inf
ROOT
ATOM      1  C   UNL A   1      31.780  29.518  27.171  1.00  0.00    -0.052 C 
ATOM      2  H   UNL A   1      31.823  29.946  28.151  1.00  0.00     0.027 H 
ATOM      3  H   UNL A   1      30.893  28.944  26.997  1.00  0.00     0.027 H 
ENDROOT
BRANCH   1   4
ATOM      4  C   UNL A   1      32.957  28.545  27.024  1.00  0.00    -0.036 C 
ATOM      5  H   UNL A   1      33.794  29.087  26.632  1.00  0.00     0.028 H 
ATOM      6  H   UNL A   1      33.146  28.140  27.996  1.00  0.00     0.028 H 
BRANCH   4   7
ATOM      7  C   UNL A   1      32.675  27.361  26.098  1.00  0.00     0.017 C 
ATOM      8  H   UNL A   1      32.412  27.727  25.127  1.00  0.00     0.049 H 
ATOM      9  H   UNL A   1      33.553  26.752  26.034  1.00  0.00     0.049 H 
BRANCH   7  10
ATOM     10  N   UNL A   1      31.586  26.565  26.619  1.00  0.00    -0.356 N 
ATOM     11  C   UNL A   1      31.000  25.440  26.117  1.00  0.00     0.227 C 
ATOM     12  O   UNL A   1      29.968  25.071  26.676  1.00  0.00    -0.274 OA
ATOM     13  H   UNL A   1      31.208  26.885  27.470  1.00  0.00     0.163 HD
BRANCH  11  14
ATOM     14  C   UNL A   1      31.663  24.698  24.947  1.00  0.00     0.063 C 
ATOM     15  H   UNL A   1      32.528  25.292  24.742  1.00  0.00     0.045 H 
BRANCH  14  16
ATOM     16  C   UNL A   1      30.782  24.636  23.698  1.00  0.00    -0.049 C 
ATOM     17  H   UNL A   1      30.921  23.694  23.210  1.00  0.00     0.024 H 
ATOM     18  H   UNL A   1      31.053  25.427  23.030  1.00  0.00     0.024 H 
ATOM     19  H   UNL A   1      29.756  24.744  23.980  1.00  0.00     0.024 H 
ENDBRANCH  14  16
BRANCH  14  20
ATOM     20  C   UNL A   1      32.122  23.288  25.285  1.00  0.00     0.000 A 
ATOM     21  C   UNL A   1      31.528  22.146  24.732  1.00  0.00    -0.052 A 
ATOM     22  C   UNL A   1      33.229  23.109  26.116  1.00  0.00     0.130 A 
ATOM     23  C   UNL A   1      32.022  20.874  25.031  1.00  0.00    -0.019 A 
ATOM     24  H   UNL A   1      30.721  22.245  24.097  1.00  0.00     0.063 H 
ATOM     25  C   UNL A   1      33.734  21.844  26.404  1.00  0.00     0.016 A 
ATOM     26  F   UNL A   1      33.854  24.175  26.635  1.00  0.00    -0.207 F 
ATOM     27  C   UNL A   1      33.140  20.714  25.853  1.00  0.00     0.122 A 
ATOM     28  H   UNL A   1      31.554  20.042  24.642  1.00  0.00     0.066 H 
ATOM     29  H   UNL A   1      34.551  21.745  27.026  1.00  0.00     0.069 H 
BRANCH  27  30
ATOM     30  O   UNL A   1      33.523  19.419  26.028  1.00  0.00    -0.490 OA
BRANCH  30  31
ATOM     31  C   UNL A   1      33.282  18.415  25.052  1.00  0.00     0.099 C 
ATOM     32  C   UNL A   1      34.461  18.011  24.171  1.00  0.00    -0.016 C 
ATOM     33  C   UNL A   1      32.659  17.125  25.578  1.00  0.00    -0.016 C 
ATOM     34  H   UNL A   1      32.576  18.949  24.451  1.00  0.00     0.074 H 
ATOM     35  C   UNL A   1      34.022  16.684  23.576  1.00  0.00    -0.050 C 
ATOM     36  H   UNL A   1      35.351  17.893  24.754  1.00  0.00     0.030 H 
ATOM     37  H   UNL A   1      34.694  18.743  23.427  1.00  0.00     0.030 H 
ATOM     38  C   UNL A   1      33.118  16.029  24.619  1.00  0.00    -0.050 C 
ATOM     39  H   UNL A   1      31.591  17.199  25.579  1.00  0.00     0.030 H 
ATOM     40  H   UNL A   1      32.959  16.921  26.585  1.00  0.00     0.030 H 
ATOM     41  H   UNL A   1      34.872  16.065  23.380  1.00  0.00     0.027 H 
ATOM     42  H   UNL A   1      33.509  16.823  22.646  1.00  0.00     0.027 H 
ATOM     43  H   UNL A   1      33.660  15.278  25.154  1.00  0.00     0.027 H 
ATOM     44  H   UNL A   1      32.277  15.562  24.149  1.00  0.00     0.027 H 
ENDBRANCH  30  31
ENDBRANCH  27  30
ENDBRANCH  14  20
ENDBRANCH  11  14
ENDBRANCH   7  10
ENDBRANCH   4   7
ENDBRANCH   1   4
BRANCH   1  45
ATOM     45  C   UNL A   1      31.755  30.662  26.153  1.00  0.00    -0.052 C 
ATOM     46  H   UNL A   1      30.994  30.450  25.432  1.00  0.00     0.027 H 
ATOM     47  H   UNL A   1      32.736  30.709  25.727  1.00  0.00     0.027 H 
BRANCH  45  48
ATOM     48  C   UNL A   1      31.476  32.043  26.748  1.00  0.00    -0.036 C 
ATOM     49  H   UNL A   1      30.801  31.922  27.570  1.00  0.00     0.028 H 
ATOM     50  H   UNL A   1      31.071  32.640  25.959  1.00  0.00     0.028 H 
BRANCH  48  51
ATOM     51  C   UNL A   1      32.716  32.773  27.254  1.00  0.00     0.018 C 
ATOM     52  H   UNL A   1      33.463  32.754  26.488  1.00  0.00     0.049 H 
ATOM     53  H   UNL A   1      33.055  32.276  28.138  1.00  0.00     0.049 H 
BRANCH  51  54
ATOM     54  N   UNL A   1      32.431  34.157  27.599  1.00  0.00    -0.352 N 
ATOM     55  C   UNL A   1      32.988  34.940  28.576  1.00  0.00     0.251 C 
ATOM     56  H   UNL A   1      31.740  34.594  27.051  1.00  0.00     0.163 HD
ATOM     57  O   UNL A   1      32.485  36.025  28.864  1.00  0.00    -0.269 OA
BRANCH  55  58
ATOM     58  C   UNL A   1      34.182  34.467  29.307  1.00  0.00     0.039 A 
ATOM     59  C   UNL A   1      34.014  33.857  30.551  1.00  0.00    -0.049 A 
ATOM     60  C   UNL A   1      35.461  34.616  28.762  1.00  0.00    -0.049 A 
ATOM     61  C   UNL A   1      35.121  33.329  31.217  1.00  0.00    -0.053 A 
ATOM     62  H   UNL A   1      33.076  33.797  30.976  1.00  0.00     0.063 H 
ATOM     63  C   UNL A   1      36.555  34.029  29.394  1.00  0.00    -0.053 A 
ATOM     64  H   UNL A   1      35.595  35.160  27.895  1.00  0.00     0.063 H 
ATOM     65  C   UNL A   1      36.393  33.371  30.622  1.00  0.00    -0.014 A 
ATOM     66  H   UNL A   1      35.004  32.905  32.150  1.00  0.00     0.063 H 
ATOM     67  H   UNL A   1      37.488  34.077  28.956  1.00  0.00     0.063 H 
BRANCH  65  68
ATOM     68  C   UNL A   1      37.554  32.693  31.255  1.00  0.00     0.031 A 
ATOM     69  C   UNL A   1      38.223  31.530  30.578  1.00  0.00     0.074 A 
ATOM     70  C   UNL A   1      37.960  33.089  32.478  1.00  0.00     0.049 A 
ATOM     71  N   UNL A   1      39.204  30.778  31.006  1.00  0.00    -0.248 NA
ATOM     72  C   UNL A   1      37.708  31.145  29.253  1.00  0.00    -0.034 C 
ATOM     73  C   UNL A   1      37.357  34.172  33.259  1.00  0.00    -0.036 A 
ATOM     74  N   UNL A   1      38.966  32.619  33.287  1.00  0.00    -0.354 N 
ATOM     75  C   UNL A   1      39.417  29.829  30.016  1.00  0.00     0.074 A 
ATOM     76  C   UNL A   1      38.435  30.070  28.980  1.00  0.00    -0.034 C 
ATOM     77  H   UNL A   1      36.973  31.595  28.686  1.00  0.00     0.065 H 
ATOM     78  C   UNL A   1      38.014  34.294  34.424  1.00  0.00    -0.036 A 
ATOM     79  H   UNL A   1      36.556  34.749  32.962  1.00  0.00     0.065 H 
ATOM     80  C   UNL A   1      39.054  33.273  34.493  1.00  0.00     0.049 A 
ATOM     81  H   UNL A   1      39.567  31.884  33.027  1.00  0.00     0.167 HD
ATOM     82  C   UNL A   1      40.359  28.857  29.968  1.00  0.00     0.037 A 
ATOM     83  H   UNL A   1      38.317  29.484  28.140  1.00  0.00     0.065 H 
ATOM     84  H   UNL A   1      37.815  34.996  35.153  1.00  0.00     0.065 H 
ATOM     85  C   UNL A   1      39.871  33.060  35.543  1.00  0.00     0.037 A 
ATOM     86  C   UNL A   1      41.352  28.639  30.988  1.00  0.00     0.049 A 
ATOM     87  C   UNL A   1      40.898  31.963  35.462  1.00  0.00     0.074 A 
ATOM     88  C   UNL A   1      42.398  27.731  30.989  1.00  0.00    -0.036 A 
ATOM     89  N   UNL A   1      41.419  29.328  32.188  1.00  0.00    -0.354 N 
ATOM     90  N   UNL A   1      41.147  31.131  34.480  1.00  0.00    -0.248 NA
ATOM     91  C   UNL A   1      41.762  31.776  36.637  1.00  0.00    -0.034 C 
ATOM     92  C   UNL A   1      43.062  27.831  32.216  1.00  0.00    -0.036 A 
ATOM     93  H   UNL A   1      42.645  27.092  30.218  1.00  0.00     0.065 H 
ATOM     94  C   UNL A   1      42.466  28.840  32.954  1.00  0.00     0.049 A 
ATOM     95  H   UNL A   1      40.813  30.056  32.458  1.00  0.00     0.167 HD
ATOM     96  C   UNL A   1      42.209  30.345  34.905  1.00  0.00     0.074 A 
ATOM     97  C   UNL A   1      42.573  30.814  36.225  1.00  0.00    -0.034 C 
ATOM     98  H   UNL A   1      41.742  32.267  37.545  1.00  0.00     0.065 H 
ATOM     99  H   UNL A   1      43.859  27.250  32.519  1.00  0.00     0.065 H 
ATOM    100  C   UNL A   1      42.823  29.322  34.264  1.00  0.00     0.037 A 
ATOM    101  H   UNL A   1      43.365  30.445  36.774  1.00  0.00     0.065 H 
BRANCH  82 102
ATOM    102  C   UNL A   1      40.376  27.947  28.775  1.00  0.00     0.064 A 
ATOM    103  C   UNL A   1      41.117  28.256  27.625  1.00  0.00     0.173 A 
ATOM    104  C   UNL A   1      39.719  26.707  28.820  1.00  0.00     0.173 A 
ATOM    105  F   UNL A   1      41.756  29.431  27.529  1.00  0.00    -0.203 F 
ATOM    106  C   UNL A   1      41.192  27.361  26.560  1.00  0.00     0.198 A 
ATOM    107  C   UNL A   1      39.818  25.804  27.765  1.00  0.00     0.198 A 
ATOM    108  F   UNL A   1      39.002  26.361  29.900  1.00  0.00    -0.203 F 
ATOM    109  F   UNL A   1      41.883  27.689  25.460  1.00  0.00    -0.200 F 
ATOM    110  C   UNL A   1      40.552  26.133  26.636  1.00  0.00     0.200 A 
ATOM    111  F   UNL A   1      39.213  24.612  27.847  1.00  0.00    -0.200 F 
ATOM    112  F   UNL A   1      40.644  25.264  25.618  1.00  0.00    -0.200 F 
ENDBRANCH  82 102
BRANCH  85 113
ATOM    113  C   UNL A   1      39.751  33.895  36.770  1.00  0.00     0.064 A 
ATOM    114  C   UNL A   1      38.938  33.494  37.840  1.00  0.00     0.173 A 
ATOM    115  C   UNL A   1      40.410  35.128  36.879  1.00  0.00     0.173 A 
ATOM    116  F   UNL A   1      38.270  32.333  37.776  1.00  0.00    -0.203 F 
ATOM    117  C   UNL A   1      38.760  34.312  38.954  1.00  0.00     0.198 A 
ATOM    118  C   UNL A   1      40.258  35.928  38.010  1.00  0.00     0.198 A 
ATOM    119  F   UNL A   1      41.203  35.557  35.887  1.00  0.00    -0.203 F 
ATOM    120  F   UNL A   1      37.924  33.935  39.932  1.00  0.00    -0.200 F 
ATOM    121  C   UNL A   1      39.422  35.527  39.040  1.00  0.00     0.200 A 
ATOM    122  F   UNL A   1      40.913  37.094  38.094  1.00  0.00    -0.200 F 
ATOM    123  F   UNL A   1      39.246  36.315  40.109  1.00  0.00    -0.200 F 
ENDBRANCH  85 113
BRANCH 100 124
ATOM    124  C   UNL A   1      43.971  28.658  34.967  1.00  0.00     0.064 A 
ATOM    125  C   UNL A   1      43.782  27.535  35.786  1.00  0.00     0.173 A 
ATOM    126  C   UNL A   1      45.281  29.132  34.794  1.00  0.00     0.173 A 
ATOM    127  F   UNL A   1      42.548  27.053  35.997  1.00  0.00    -0.203 F 
ATOM    128  C   UNL A   1      44.859  26.928  36.428  1.00  0.00     0.198 A 
ATOM    129  C   UNL A   1      46.358  28.502  35.411  1.00  0.00     0.198 A 
ATOM    130  F   UNL A   1      45.518  30.199  34.016  1.00  0.00    -0.203 F 
ATOM    131  F   UNL A   1      44.647  25.889  37.248  1.00  0.00    -0.200 F 
ATOM    132  C   UNL A   1      46.145  27.407  36.234  1.00  0.00     0.200 A 
ATOM    133  F   UNL A   1      47.603  28.955  35.208  1.00  0.00    -0.200 F 
ATOM    134  F   UNL A   1      47.181  26.816  36.847  1.00  0.00    -0.200 F 
ENDBRANCH 100 124
ENDBRANCH  65  68
ENDBRANCH  55  58
ENDBRANCH  51  54
ENDBRANCH  48  51
ENDBRANCH  45  48
ENDBRANCH   1  45
TORSDOF 17
ENDMDL
MODEL 5
REMARK VINA RESULT:     -11.7      5.110      9.096
REMARK SMILES C[C@@H](C(=O)NCCCCCCNC(=O)c1ccc(-c2c3nc(c(-c4c(F)c(F)c(F)c(F)c4F)c4ccc([nH]4)c(-c4c(F)c(F)c(F)c(F)c4F)c4nc(c(-c5c(F)c(F)c(F)c(F)c5F)c5ccc2[nH]5)C=C4)C=C3)cc1)c1ccc(OC2CCCC2)cc1F
REMARK SMILES IDX 8 1 7 4 6 7 5 10 3 11 4 12 2 14 1 16 78 20 79 21 89 22 80 23
REMARK SMILES IDX 88 25 90 26 81 27 82 30 83 31 84 32 87 33 85 35 86 38 9 45
REMARK SMILES IDX 10 48 11 51 12 54 13 55 14 57 15 58 16 59 77 60 17 61 76 63
REMARK SMILES IDX 18 65 19 68 20 69 70 70 21 71 75 72 69 73 71 74 22 75 74 76
REMARK SMILES IDX 68 78 67 80 23 82 55 85 35 86 54 87 36 88 39 89 53 90 72 91
REMARK SMILES IDX 37 92 38 94 52 96 73 97 40 100 24 102 25 103 33 104 26 105
REMARK SMILES IDX 27 106 31 107 34 108 28 109 29 110 32 111 30 112 56 113
REMARK SMILES IDX 57 114 65 115 58 116 59 117 63 118 66 119 60 120 61 121
REMARK SMILES IDX 64 122 62 123 41 124 42 125 50 126 43 127 44 128 48 129
REMARK SMILES IDX 51 130 45 131 46 132 49 133 47 134
REMARK H PARENT 8 2 8 3 7 5 7 6 6 8 6 9 5 13 2 15 1 17 1 18 1 19 79 24 80 28
REMARK H PARENT 88 29 83 34 84 36 84 37 87 39 87 40 85 41 85 42 86 43 86 44
REMARK H PARENT 9 46 9 47 10 49 10 50 11 52 11 53 12 56 16 62 77 64 17 66
REMARK H PARENT 76 67 75 77 69 79 71 81 74 83 68 84 36 93 39 95 72 98 37 99
REMARK H PARENT 73 101
REMARK Flexibility Score: inf
ROOT
ATOM      1  C   UNL A   1      34.648  23.582  26.234  1.00  0.00    -0.052 C 
ATOM      2  H   UNL A   1      33.591  23.417  26.215  1.00  0.00     0.027 H 
ATOM      3  H   UNL A   1      34.991  24.029  27.145  1.00  0.00     0.027 H 
ENDROOT
BRANCH   1   4
ATOM      4  C   UNL A   1      34.997  24.570  25.113  1.00  0.00    -0.036 C 
ATOM      5  H   UNL A   1      35.869  25.118  25.407  1.00  0.00     0.028 H 
ATOM      6  H   UNL A   1      35.154  23.990  24.228  1.00  0.00     0.028 H 
BRANCH   4   7
ATOM      7  C   UNL A   1      33.885  25.571  24.795  1.00  0.00     0.017 C 
ATOM      8  H   UNL A   1      32.945  25.164  25.103  1.00  0.00     0.049 H 
ATOM      9  H   UNL A   1      34.077  26.484  25.320  1.00  0.00     0.049 H 
BRANCH   7  10
ATOM     10  N   UNL A   1      33.846  25.843  23.375  1.00  0.00    -0.356 N 
ATOM     11  C   UNL A   1      32.968  25.419  22.422  1.00  0.00     0.227 C 
ATOM     12  O   UNL A   1      33.277  25.656  21.255  1.00  0.00    -0.274 OA
ATOM     13  H   UNL A   1      34.566  26.428  23.044  1.00  0.00     0.163 HD
BRANCH  11  14
ATOM     14  C   UNL A   1      31.664  24.727  22.848  1.00  0.00     0.063 C 
ATOM     15  H   UNL A   1      31.160  24.567  21.918  1.00  0.00     0.045 H 
BRANCH  14  16
ATOM     16  C   UNL A   1      30.789  25.596  23.754  1.00  0.00    -0.049 C 
ATOM     17  H   UNL A   1      31.084  26.620  23.658  1.00  0.00     0.024 H 
ATOM     18  H   UNL A   1      30.909  25.284  24.771  1.00  0.00     0.024 H 
ATOM     19  H   UNL A   1      29.764  25.491  23.467  1.00  0.00     0.024 H 
ENDBRANCH  14  16
BRANCH  14  20
ATOM     20  C   UNL A   1      31.866  23.379  23.520  1.00  0.00     0.000 A 
ATOM     21  C   UNL A   1      31.393  23.097  24.809  1.00  0.00    -0.052 A 
ATOM     22  C   UNL A   1      32.473  22.343  22.809  1.00  0.00     0.130 A 
ATOM     23  C   UNL A   1      31.556  21.825  25.362  1.00  0.00    -0.019 A 
ATOM     24  H   UNL A   1      30.921  23.835  25.353  1.00  0.00     0.063 H 
ATOM     25  C   UNL A   1      32.622  21.069  23.350  1.00  0.00     0.016 A 
ATOM     26  F   UNL A   1      32.904  22.555  21.557  1.00  0.00    -0.207 F 
ATOM     27  C   UNL A   1      32.153  20.797  24.630  1.00  0.00     0.122 A 
ATOM     28  H   UNL A   1      31.232  21.643  26.324  1.00  0.00     0.066 H 
ATOM     29  H   UNL A   1      33.081  20.326  22.801  1.00  0.00     0.069 H 
BRANCH  27  30
ATOM     30  O   UNL A   1      32.213  19.606  25.288  1.00  0.00    -0.490 OA
BRANCH  30  31
ATOM     31  C   UNL A   1      32.854  18.463  24.739  1.00  0.00     0.099 C 
ATOM     32  C   UNL A   1      34.375  18.512  24.625  1.00  0.00    -0.016 C 
ATOM     33  C   UNL A   1      32.501  17.132  25.397  1.00  0.00    -0.016 C 
ATOM     34  H   UNL A   1      32.438  18.510  23.754  1.00  0.00     0.074 H 
ATOM     35  C   UNL A   1      34.764  17.056  24.432  1.00  0.00    -0.050 C 
ATOM     36  H   UNL A   1      34.813  18.909  25.517  1.00  0.00     0.030 H 
ATOM     37  H   UNL A   1      34.713  19.142  23.829  1.00  0.00     0.030 H 
ATOM     38  C   UNL A   1      33.716  16.234  25.179  1.00  0.00    -0.050 C 
ATOM     39  H   UNL A   1      31.633  16.707  24.938  1.00  0.00     0.030 H 
ATOM     40  H   UNL A   1      32.278  17.251  26.437  1.00  0.00     0.030 H 
ATOM     41  H   UNL A   1      35.738  16.875  24.839  1.00  0.00     0.027 H 
ATOM     42  H   UNL A   1      34.800  16.795  23.394  1.00  0.00     0.027 H 
ATOM     43  H   UNL A   1      34.107  15.911  26.121  1.00  0.00     0.027 H 
ATOM     44  H   UNL A   1      33.447  15.364  24.615  1.00  0.00     0.027 H 
ENDBRANCH  30  31
ENDBRANCH  27  30
ENDBRANCH  14  20
ENDBRANCH  11  14
ENDBRANCH   7  10
ENDBRANCH   4   7
ENDBRANCH   1   4
BRANCH   1  45
ATOM     45  C   UNL A   1      35.343  22.222  26.136  1.00  0.00    -0.052 C 
ATOM     46  H   UNL A   1      34.640  21.467  26.420  1.00  0.00     0.027 H 
ATOM     47  H   UNL A   1      36.193  22.269  26.785  1.00  0.00     0.027 H 
BRANCH  45  48
ATOM     48  C   UNL A   1      35.880  21.876  24.747  1.00  0.00    -0.036 C 
ATOM     49  H   UNL A   1      35.418  22.532  24.038  1.00  0.00     0.028 H 
ATOM     50  H   UNL A   1      35.646  20.846  24.576  1.00  0.00     0.028 H 
BRANCH  48  51
ATOM     51  C   UNL A   1      37.392  22.008  24.604  1.00  0.00     0.018 C 
ATOM     52  H   UNL A   1      37.694  22.956  24.998  1.00  0.00     0.049 H 
ATOM     53  H   UNL A   1      37.634  21.927  23.565  1.00  0.00     0.049 H 
BRANCH  51  54
ATOM     54  N   UNL A   1      38.101  20.956  25.314  1.00  0.00    -0.352 N 
ATOM     55  C   UNL A   1      39.201  21.046  26.127  1.00  0.00     0.251 C 
ATOM     56  H   UNL A   1      37.739  20.048  25.193  1.00  0.00     0.163 HD
ATOM     57  O   UNL A   1      39.796  20.030  26.482  1.00  0.00    -0.269 OA
BRANCH  55  58
ATOM     58  C   UNL A   1      39.691  22.371  26.557  1.00  0.00     0.039 A 
ATOM     59  C   UNL A   1      40.808  22.440  27.393  1.00  0.00    -0.049 A 
ATOM     60  C   UNL A   1      39.058  23.543  26.130  1.00  0.00    -0.049 A 
ATOM     61  C   UNL A   1      41.335  23.684  27.741  1.00  0.00    -0.053 A 
ATOM     62  H   UNL A   1      41.240  21.574  27.751  1.00  0.00     0.063 H 
ATOM     63  C   UNL A   1      39.625  24.782  26.422  1.00  0.00    -0.053 A 
ATOM     64  H   UNL A   1      38.173  23.491  25.602  1.00  0.00     0.063 H 
ATOM     65  C   UNL A   1      40.775  24.863  27.221  1.00  0.00    -0.014 A 
ATOM     66  H   UNL A   1      42.141  23.738  28.383  1.00  0.00     0.063 H 
ATOM     67  H   UNL A   1      39.198  25.643  26.047  1.00  0.00     0.063 H 
BRANCH  65  68
ATOM     68  C   UNL A   1      41.408  26.184  27.472  1.00  0.00     0.031 A 
ATOM     69  C   UNL A   1      42.806  26.465  26.995  1.00  0.00     0.074 A 
ATOM     70  C   UNL A   1      40.741  27.106  28.194  1.00  0.00     0.049 A 
ATOM     71  N   UNL A   1      43.541  27.532  27.176  1.00  0.00    -0.248 NA
ATOM     72  C   UNL A   1      43.475  25.399  26.231  1.00  0.00    -0.034 C 
ATOM     73  C   UNL A   1      39.400  26.931  28.757  1.00  0.00    -0.036 A 
ATOM     74  N   UNL A   1      41.104  28.370  28.592  1.00  0.00    -0.354 N 
ATOM     75  C   UNL A   1      44.757  27.265  26.563  1.00  0.00     0.074 A 
ATOM     76  C   UNL A   1      44.680  25.918  26.039  1.00  0.00    -0.034 C 
ATOM     77  H   UNL A   1      43.103  24.486  25.925  1.00  0.00     0.065 H 
ATOM     78  C   UNL A   1      39.047  28.049  29.410  1.00  0.00    -0.036 A 
ATOM     79  H   UNL A   1      38.819  26.084  28.665  1.00  0.00     0.065 H 
ATOM     80  C   UNL A   1      40.149  29.003  29.352  1.00  0.00     0.049 A 
ATOM     81  H   UNL A   1      41.964  28.783  28.354  1.00  0.00     0.167 HD
ATOM     82  C   UNL A   1      45.832  28.078  26.433  1.00  0.00     0.037 A 
ATOM     83  H   UNL A   1      45.460  25.426  25.576  1.00  0.00     0.065 H 
ATOM     84  H   UNL A   1      38.141  28.208  29.879  1.00  0.00     0.065 H 
ATOM     85  C   UNL A   1      40.169  30.210  29.951  1.00  0.00     0.037 A 
ATOM     86  C   UNL A   1      45.893  29.428  26.930  1.00  0.00     0.049 A 
ATOM     87  C   UNL A   1      41.385  31.083  29.797  1.00  0.00     0.074 A 
ATOM     88  C   UNL A   1      46.909  30.356  26.776  1.00  0.00    -0.036 A 
ATOM     89  N   UNL A   1      44.904  30.039  27.684  1.00  0.00    -0.354 N 
ATOM     90  N   UNL A   1      42.494  30.852  29.137  1.00  0.00    -0.248 NA
ATOM     91  C   UNL A   1      41.353  32.390  30.471  1.00  0.00    -0.034 C 
ATOM     92  C   UNL A   1      46.560  31.509  27.486  1.00  0.00    -0.036 A 
ATOM     93  H   UNL A   1      47.774  30.220  26.230  1.00  0.00     0.065 H 
ATOM     94  C   UNL A   1      45.302  31.320  28.033  1.00  0.00     0.049 A 
ATOM     95  H   UNL A   1      44.046  29.625  27.935  1.00  0.00     0.167 HD
ATOM     96  C   UNL A   1      43.275  31.989  29.291  1.00  0.00     0.074 A 
ATOM     97  C   UNL A   1      42.504  32.920  30.088  1.00  0.00    -0.034 C 
ATOM     98  H   UNL A   1      40.623  32.789  31.081  1.00  0.00     0.065 H 
ATOM     99  H   UNL A   1      47.142  32.356  27.586  1.00  0.00     0.065 H 
ATOM    100  C   UNL A   1      44.521  32.239  28.822  1.00  0.00     0.037 A 
ATOM    101  H   UNL A   1      42.814  33.875  30.327  1.00  0.00     0.065 H 
BRANCH  82 102
ATOM    102  C   UNL A   1      47.041  27.544  25.721  1.00  0.00     0.064 A 
ATOM    103  C   UNL A   1      47.198  27.682  24.334  1.00  0.00     0.173 A 
ATOM    104  C   UNL A   1      48.096  26.971  26.448  1.00  0.00     0.173 A 
ATOM    105  F   UNL A   1      46.216  28.216  23.592  1.00  0.00    -0.203 F 
ATOM    106  C   UNL A   1      48.364  27.258  23.700  1.00  0.00     0.198 A 
ATOM    107  C   UNL A   1      49.270  26.574  25.815  1.00  0.00     0.198 A 
ATOM    108  F   UNL A   1      47.998  26.822  27.778  1.00  0.00    -0.203 F 
ATOM    109  F   UNL A   1      48.482  27.375  22.371  1.00  0.00    -0.200 F 
ATOM    110  C   UNL A   1      49.402  26.715  24.443  1.00  0.00     0.200 A 
ATOM    111  F   UNL A   1      50.278  26.064  26.536  1.00  0.00    -0.200 F 
ATOM    112  F   UNL A   1      50.532  26.328  23.833  1.00  0.00    -0.200 F 
ENDBRANCH  82 102
BRANCH  85 113
ATOM    113  C   UNL A   1      39.007  30.668  30.760  1.00  0.00     0.064 A 
ATOM    114  C   UNL A   1      38.953  30.438  32.142  1.00  0.00     0.173 A 
ATOM    115  C   UNL A   1      37.909  31.304  30.162  1.00  0.00     0.173 A 
ATOM    116  F   UNL A   1      39.968  29.815  32.758  1.00  0.00    -0.203 F 
ATOM    117  C   UNL A   1      37.830  30.792  32.887  1.00  0.00     0.198 A 
ATOM    118  C   UNL A   1      36.802  31.689  30.916  1.00  0.00     0.198 A 
ATOM    119  F   UNL A   1      37.911  31.553  28.845  1.00  0.00    -0.203 F 
ATOM    120  F   UNL A   1      37.777  30.499  34.194  1.00  0.00    -0.200 F 
ATOM    121  C   UNL A   1      36.757  31.420  32.275  1.00  0.00     0.200 A 
ATOM    122  F   UNL A   1      35.774  32.310  30.321  1.00  0.00    -0.200 F 
ATOM    123  F   UNL A   1      35.675  31.755  32.991  1.00  0.00    -0.200 F 
ENDBRANCH  85 113
BRANCH 100 124
ATOM    124  C   UNL A   1      45.119  33.581  29.133  1.00  0.00     0.064 A 
ATOM    125  C   UNL A   1      45.904  33.789  30.275  1.00  0.00     0.173 A 
ATOM    126  C   UNL A   1      44.930  34.664  28.259  1.00  0.00     0.173 A 
ATOM    127  F   UNL A   1      46.102  32.791  31.150  1.00  0.00    -0.203 F 
ATOM    128  C   UNL A   1      46.455  35.039  30.548  1.00  0.00     0.198 A 
ATOM    129  C   UNL A   1      45.510  35.901  28.517  1.00  0.00     0.198 A 
ATOM    130  F   UNL A   1      44.192  34.516  27.148  1.00  0.00    -0.203 F 
ATOM    131  F   UNL A   1      47.158  35.228  31.673  1.00  0.00    -0.200 F 
ATOM    132  C   UNL A   1      46.264  36.091  29.665  1.00  0.00     0.200 A 
ATOM    133  F   UNL A   1      45.338  36.913  27.654  1.00  0.00    -0.200 F 
ATOM    134  F   UNL A   1      46.802  37.291  29.925  1.00  0.00    -0.200 F 
ENDBRANCH 100 124
ENDBRANCH  65  68
ENDBRANCH  55  58
ENDBRANCH  51  54
ENDBRANCH  48  51
ENDBRANCH  45  48
ENDBRANCH   1  45
TORSDOF 17
ENDMDL
MODEL 6
REMARK VINA RESULT:     -11.7      5.570     10.852
REMARK SMILES C[C@@H](C(=O)NCCCCCCNC(=O)c1ccc(-c2c3nc(c(-c4c(F)c(F)c(F)c(F)c4F)c4ccc([nH]4)c(-c4c(F)c(F)c(F)c(F)c4F)c4nc(c(-c5c(F)c(F)c(F)c(F)c5F)c5ccc2[nH]5)C=C4)C=C3)cc1)c1ccc(OC2CCCC2)cc1F
REMARK SMILES IDX 8 1 7 4 6 7 5 10 3 11 4 12 2 14 1 16 78 20 79 21 89 22 80 23
REMARK SMILES IDX 88 25 90 26 81 27 82 30 83 31 84 32 87 33 85 35 86 38 9 45
REMARK SMILES IDX 10 48 11 51 12 54 13 55 14 57 15 58 16 59 77 60 17 61 76 63
REMARK SMILES IDX 18 65 19 68 20 69 70 70 21 71 75 72 69 73 71 74 22 75 74 76
REMARK SMILES IDX 68 78 67 80 23 82 55 85 35 86 54 87 36 88 39 89 53 90 72 91
REMARK SMILES IDX 37 92 38 94 52 96 73 97 40 100 24 102 25 103 33 104 26 105
REMARK SMILES IDX 27 106 31 107 34 108 28 109 29 110 32 111 30 112 56 113
REMARK SMILES IDX 57 114 65 115 58 116 59 117 63 118 66 119 60 120 61 121
REMARK SMILES IDX 64 122 62 123 41 124 42 125 50 126 43 127 44 128 48 129
REMARK SMILES IDX 51 130 45 131 46 132 49 133 47 134
REMARK H PARENT 8 2 8 3 7 5 7 6 6 8 6 9 5 13 2 15 1 17 1 18 1 19 79 24 80 28
REMARK H PARENT 88 29 83 34 84 36 84 37 87 39 87 40 85 41 85 42 86 43 86 44
REMARK H PARENT 9 46 9 47 10 49 10 50 11 52 11 53 12 56 16 62 77 64 17 66
REMARK H PARENT 76 67 75 77 69 79 71 81 74 83 68 84 36 93 39 95 72 98 37 99
REMARK H PARENT 73 101
REMARK Flexibility Score: inf
ROOT
ATOM      1  C   UNL A   1      37.183  22.091  24.392  1.00  0.00    -0.052 C 
ATOM      2  H   UNL A   1      37.613  22.702  25.157  1.00  0.00     0.027 H 
ATOM      3  H   UNL A   1      37.844  21.912  23.569  1.00  0.00     0.027 H 
ENDROOT
BRANCH   1   4
ATOM      4  C   UNL A   1      35.970  22.832  23.815  1.00  0.00    -0.036 C 
ATOM      5  H   UNL A   1      36.311  23.748  23.379  1.00  0.00     0.028 H 
ATOM      6  H   UNL A   1      35.519  22.177  23.098  1.00  0.00     0.028 H 
BRANCH   4   7
ATOM      7  C   UNL A   1      34.892  23.164  24.849  1.00  0.00     0.017 C 
ATOM      8  H   UNL A   1      35.114  22.657  25.764  1.00  0.00     0.049 H 
ATOM      9  H   UNL A   1      34.878  24.221  25.010  1.00  0.00     0.049 H 
BRANCH   7  10
ATOM     10  N   UNL A   1      33.593  22.742  24.373  1.00  0.00    -0.356 N 
ATOM     11  C   UNL A   1      32.363  23.298  24.565  1.00  0.00     0.227 C 
ATOM     12  O   UNL A   1      31.400  22.626  24.195  1.00  0.00    -0.274 OA
ATOM     13  H   UNL A   1      33.598  21.925  23.824  1.00  0.00     0.163 HD
BRANCH  11  14
ATOM     14  C   UNL A   1      32.254  24.704  25.173  1.00  0.00     0.063 C 
ATOM     15  H   UNL A   1      33.275  24.981  25.329  1.00  0.00     0.045 H 
BRANCH  14  16
ATOM     16  C   UNL A   1      31.513  24.725  26.512  1.00  0.00    -0.049 C 
ATOM     17  H   UNL A   1      31.197  23.733  26.760  1.00  0.00     0.024 H 
ATOM     18  H   UNL A   1      30.657  25.364  26.436  1.00  0.00     0.024 H 
ATOM     19  H   UNL A   1      32.166  25.093  27.275  1.00  0.00     0.024 H 
ENDBRANCH  14  16
BRANCH  14  20
ATOM     20  C   UNL A   1      31.615  25.733  24.253  1.00  0.00     0.000 A 
ATOM     21  C   UNL A   1      30.261  26.082  24.332  1.00  0.00    -0.052 A 
ATOM     22  C   UNL A   1      32.414  26.423  23.340  1.00  0.00     0.130 A 
ATOM     23  C   UNL A   1      29.735  27.073  23.500  1.00  0.00    -0.019 A 
ATOM     24  H   UNL A   1      29.648  25.605  25.011  1.00  0.00     0.063 H 
ATOM     25  C   UNL A   1      31.896  27.423  22.521  1.00  0.00     0.016 A 
ATOM     26  F   UNL A   1      33.724  26.151  23.258  1.00  0.00    -0.207 F 
ATOM     27  C   UNL A   1      30.551  27.764  22.603  1.00  0.00     0.122 A 
ATOM     28  H   UNL A   1      28.729  27.296  23.548  1.00  0.00     0.066 H 
ATOM     29  H   UNL A   1      32.512  27.912  21.852  1.00  0.00     0.069 H 
BRANCH  27  30
ATOM     30  O   UNL A   1      29.903  28.722  21.883  1.00  0.00    -0.490 OA
BRANCH  30  31
ATOM     31  C   UNL A   1      28.935  29.585  22.461  1.00  0.00     0.099 C 
ATOM     32  C   UNL A   1      29.424  30.548  23.539  1.00  0.00    -0.016 C 
ATOM     33  C   UNL A   1      28.113  30.406  21.472  1.00  0.00    -0.016 C 
ATOM     34  H   UNL A   1      28.321  28.841  22.924  1.00  0.00     0.074 H 
ATOM     35  C   UNL A   1      28.310  31.578  23.628  1.00  0.00    -0.050 C 
ATOM     36  H   UNL A   1      30.347  31.008  23.250  1.00  0.00     0.030 H 
ATOM     37  H   UNL A   1      29.619  30.065  24.473  1.00  0.00     0.030 H 
ATOM     38  C   UNL A   1      27.700  31.666  22.230  1.00  0.00    -0.050 C 
ATOM     39  H   UNL A   1      27.249  29.858  21.158  1.00  0.00     0.030 H 
ATOM     40  H   UNL A   1      28.672  30.640  20.590  1.00  0.00     0.030 H 
ATOM     41  H   UNL A   1      28.705  32.528  23.921  1.00  0.00     0.027 H 
ATOM     42  H   UNL A   1      27.578  31.299  24.357  1.00  0.00     0.027 H 
ATOM     43  H   UNL A   1      28.067  32.534  21.724  1.00  0.00     0.027 H 
ATOM     44  H   UNL A   1      26.634  31.740  22.288  1.00  0.00     0.027 H 
ENDBRANCH  30  31
ENDBRANCH  27  30
ENDBRANCH  14  20
ENDBRANCH  11  14
ENDBRANCH   7  10
ENDBRANCH   4   7
ENDBRANCH   1   4
BRANCH   1  45
ATOM     45  C   UNL A   1      36.874  20.719  24.997  1.00  0.00    -0.052 C 
ATOM     46  H   UNL A   1      36.062  20.288  24.448  1.00  0.00     0.027 H 
ATOM     47  H   UNL A   1      36.640  20.889  26.028  1.00  0.00     0.027 H 
BRANCH  45  48
ATOM     48  C   UNL A   1      38.041  19.731  24.976  1.00  0.00    -0.036 C 
ATOM     49  H   UNL A   1      38.352  19.604  23.960  1.00  0.00     0.028 H 
ATOM     50  H   UNL A   1      37.684  18.826  25.419  1.00  0.00     0.028 H 
BRANCH  48  51
ATOM     51  C   UNL A   1      39.251  20.169  25.794  1.00  0.00     0.018 C 
ATOM     52  H   UNL A   1      38.922  20.458  26.770  1.00  0.00     0.049 H 
ATOM     53  H   UNL A   1      39.716  20.986  25.284  1.00  0.00     0.049 H 
BRANCH  51  54
ATOM     54  N   UNL A   1      40.234  19.105  25.926  1.00  0.00    -0.352 N 
ATOM     55  C   UNL A   1      41.589  19.193  26.110  1.00  0.00     0.251 C 
ATOM     56  H   UNL A   1      39.874  18.190  25.876  1.00  0.00     0.163 HD
ATOM     57  O   UNL A   1      42.298  18.195  25.996  1.00  0.00    -0.269 OA
BRANCH  55  58
ATOM     58  C   UNL A   1      42.206  20.499  26.421  1.00  0.00     0.039 A 
ATOM     59  C   UNL A   1      42.724  21.267  25.376  1.00  0.00    -0.049 A 
ATOM     60  C   UNL A   1      42.264  20.970  27.736  1.00  0.00    -0.049 A 
ATOM     61  C   UNL A   1      43.234  22.538  25.640  1.00  0.00    -0.053 A 
ATOM     62  H   UNL A   1      42.730  20.895  24.414  1.00  0.00     0.063 H 
ATOM     63  C   UNL A   1      42.710  22.265  27.989  1.00  0.00    -0.053 A 
ATOM     64  H   UNL A   1      41.979  20.359  28.518  1.00  0.00     0.063 H 
ATOM     65  C   UNL A   1      43.189  23.065  26.942  1.00  0.00    -0.014 A 
ATOM     66  H   UNL A   1      43.646  23.095  24.875  1.00  0.00     0.063 H 
ATOM     67  H   UNL A   1      42.685  22.638  28.951  1.00  0.00     0.063 H 
BRANCH  65  68
ATOM     68  C   UNL A   1      43.602  24.467  27.213  1.00  0.00     0.031 A 
ATOM     69  C   UNL A   1      42.603  25.475  27.712  1.00  0.00     0.074 A 
ATOM     70  C   UNL A   1      44.866  24.845  26.941  1.00  0.00     0.049 A 
ATOM     71  N   UNL A   1      42.766  26.752  27.942  1.00  0.00    -0.248 NA
ATOM     72  C   UNL A   1      41.237  24.988  27.965  1.00  0.00    -0.034 C 
ATOM     73  C   UNL A   1      45.913  23.971  26.404  1.00  0.00    -0.036 A 
ATOM     74  N   UNL A   1      45.486  26.064  27.064  1.00  0.00    -0.354 N 
ATOM     75  C   UNL A   1      41.527  27.225  28.354  1.00  0.00     0.074 A 
ATOM     76  C   UNL A   1      40.609  26.107  28.303  1.00  0.00    -0.034 C 
ATOM     77  H   UNL A   1      40.865  24.029  27.897  1.00  0.00     0.065 H 
ATOM     78  C   UNL A   1      47.046  24.676  26.261  1.00  0.00    -0.036 A 
ATOM     79  H   UNL A   1      45.797  22.972  26.173  1.00  0.00     0.065 H 
ATOM     80  C   UNL A   1      46.798  26.059  26.652  1.00  0.00     0.049 A 
ATOM     81  H   UNL A   1      45.035  26.865  27.415  1.00  0.00     0.167 HD
ATOM     82  C   UNL A   1      41.193  28.474  28.757  1.00  0.00     0.037 A 
ATOM     83  H   UNL A   1      39.600  26.171  28.504  1.00  0.00     0.065 H 
ATOM     84  H   UNL A   1      47.947  24.300  25.927  1.00  0.00     0.065 H 
ATOM     85  C   UNL A   1      47.694  27.063  26.581  1.00  0.00     0.037 A 
ATOM     86  C   UNL A   1      42.116  29.576  28.834  1.00  0.00     0.049 A 
ATOM     87  C   UNL A   1      47.286  28.442  27.025  1.00  0.00     0.074 A 
ATOM     88  C   UNL A   1      41.889  30.857  29.307  1.00  0.00    -0.036 A 
ATOM     89  N   UNL A   1      43.439  29.531  28.421  1.00  0.00    -0.354 N 
ATOM     90  N   UNL A   1      46.134  28.854  27.499  1.00  0.00    -0.248 NA
ATOM     91  C   UNL A   1      48.303  29.499  26.926  1.00  0.00    -0.034 C 
ATOM     92  C   UNL A   1      43.056  31.604  29.126  1.00  0.00    -0.036 A 
ATOM     93  H   UNL A   1      41.009  31.201  29.722  1.00  0.00     0.065 H 
ATOM     94  C   UNL A   1      44.029  30.773  28.594  1.00  0.00     0.049 A 
ATOM     95  H   UNL A   1      43.892  28.735  28.058  1.00  0.00     0.167 HD
ATOM     96  C   UNL A   1      46.298  30.203  27.780  1.00  0.00     0.074 A 
ATOM     97  C   UNL A   1      47.666  30.537  27.446  1.00  0.00    -0.034 C 
ATOM     98  H   UNL A   1      49.263  29.445  26.551  1.00  0.00     0.065 H 
ATOM     99  H   UNL A   1      43.173  32.605  29.349  1.00  0.00     0.065 H 
ATOM    100  C   UNL A   1      45.395  31.089  28.264  1.00  0.00     0.037 A 
ATOM    101  H   UNL A   1      48.090  31.466  27.594  1.00  0.00     0.065 H 
BRANCH  82 102
ATOM    102  C   UNL A   1      39.768  28.731  29.155  1.00  0.00     0.064 A 
ATOM    103  C   UNL A   1      39.333  28.568  30.478  1.00  0.00     0.173 A 
ATOM    104  C   UNL A   1      38.852  29.237  28.219  1.00  0.00     0.173 A 
ATOM    105  F   UNL A   1      40.167  28.081  31.408  1.00  0.00    -0.203 F 
ATOM    106  C   UNL A   1      38.030  28.893  30.847  1.00  0.00     0.198 A 
ATOM    107  C   UNL A   1      37.560  29.586  28.598  1.00  0.00     0.198 A 
ATOM    108  F   UNL A   1      39.221  29.417  26.941  1.00  0.00    -0.203 F 
ATOM    109  F   UNL A   1      37.628  28.704  32.112  1.00  0.00    -0.200 F 
ATOM    110  C   UNL A   1      37.149  29.412  29.910  1.00  0.00     0.200 A 
ATOM    111  F   UNL A   1      36.715  30.102  27.695  1.00  0.00    -0.200 F 
ATOM    112  F   UNL A   1      35.902  29.745  30.274  1.00  0.00    -0.200 F 
ENDBRANCH  82 102
BRANCH  85 113
ATOM    113  C   UNL A   1      49.066  26.811  26.063  1.00  0.00     0.064 A 
ATOM    114  C   UNL A   1      49.377  27.016  24.711  1.00  0.00     0.173 A 
ATOM    115  C   UNL A   1      50.081  26.319  26.897  1.00  0.00     0.173 A 
ATOM    116  F   UNL A   1      48.437  27.465  23.868  1.00  0.00    -0.203 F 
ATOM    117  C   UNL A   1      50.638  26.703  24.207  1.00  0.00     0.198 A 
ATOM    118  C   UNL A   1      51.352  26.041  26.398  1.00  0.00     0.198 A 
ATOM    119  F   UNL A   1      49.839  26.110  28.199  1.00  0.00    -0.203 F 
ATOM    120  F   UNL A   1      50.887  26.844  22.898  1.00  0.00    -0.200 F 
ATOM    121  C   UNL A   1      51.626  26.218  25.051  1.00  0.00     0.200 A 
ATOM    122  F   UNL A   1      52.307  25.587  27.222  1.00  0.00    -0.200 F 
ATOM    123  F   UNL A   1      52.835  25.912  24.565  1.00  0.00    -0.200 F 
ENDBRANCH  85 113
BRANCH 100 124
ATOM    124  C   UNL A   1      45.863  32.498  28.490  1.00  0.00     0.064 A 
ATOM    125  C   UNL A   1      45.731  33.484  27.502  1.00  0.00     0.173 A 
ATOM    126  C   UNL A   1      46.424  32.873  29.721  1.00  0.00     0.173 A 
ATOM    127  F   UNL A   1      45.216  33.174  26.302  1.00  0.00    -0.203 F 
ATOM    128  C   UNL A   1      46.166  34.788  27.728  1.00  0.00     0.198 A 
ATOM    129  C   UNL A   1      46.827  34.184  29.955  1.00  0.00     0.198 A 
ATOM    130  F   UNL A   1      46.568  31.969  30.702  1.00  0.00    -0.203 F 
ATOM    131  F   UNL A   1      46.078  35.700  26.751  1.00  0.00    -0.200 F 
ATOM    132  C   UNL A   1      46.706  35.138  28.956  1.00  0.00     0.200 A 
ATOM    133  F   UNL A   1      47.333  34.525  31.149  1.00  0.00    -0.200 F 
ATOM    134  F   UNL A   1      47.118  36.394  29.174  1.00  0.00    -0.200 F 
ENDBRANCH 100 124
ENDBRANCH  65  68
ENDBRANCH  55  58
ENDBRANCH  51  54
ENDBRANCH  48  51
ENDBRANCH  45  48
ENDBRANCH   1  45
TORSDOF 17
ENDMDL
MODEL 7
REMARK VINA RESULT:     -11.7      5.141     10.730
REMARK SMILES C[C@@H](C(=O)NCCCCCCNC(=O)c1ccc(-c2c3nc(c(-c4c(F)c(F)c(F)c(F)c4F)c4ccc([nH]4)c(-c4c(F)c(F)c(F)c(F)c4F)c4nc(c(-c5c(F)c(F)c(F)c(F)c5F)c5ccc2[nH]5)C=C4)C=C3)cc1)c1ccc(OC2CCCC2)cc1F
REMARK SMILES IDX 8 1 7 4 6 7 5 10 3 11 4 12 2 14 1 16 78 20 79 21 89 22 80 23
REMARK SMILES IDX 88 25 90 26 81 27 82 30 83 31 84 32 87 33 85 35 86 38 9 45
REMARK SMILES IDX 10 48 11 51 12 54 13 55 14 57 15 58 16 59 77 60 17 61 76 63
REMARK SMILES IDX 18 65 19 68 20 69 70 70 21 71 75 72 69 73 71 74 22 75 74 76
REMARK SMILES IDX 68 78 67 80 23 82 55 85 35 86 54 87 36 88 39 89 53 90 72 91
REMARK SMILES IDX 37 92 38 94 52 96 73 97 40 100 24 102 25 103 33 104 26 105
REMARK SMILES IDX 27 106 31 107 34 108 28 109 29 110 32 111 30 112 56 113
REMARK SMILES IDX 57 114 65 115 58 116 59 117 63 118 66 119 60 120 61 121
REMARK SMILES IDX 64 122 62 123 41 124 42 125 50 126 43 127 44 128 48 129
REMARK SMILES IDX 51 130 45 131 46 132 49 133 47 134
REMARK H PARENT 8 2 8 3 7 5 7 6 6 8 6 9 5 13 2 15 1 17 1 18 1 19 79 24 80 28
REMARK H PARENT 88 29 83 34 84 36 84 37 87 39 87 40 85 41 85 42 86 43 86 44
REMARK H PARENT 9 46 9 47 10 49 10 50 11 52 11 53 12 56 16 62 77 64 17 66
REMARK H PARENT 76 67 75 77 69 79 71 81 74 83 68 84 36 93 39 95 72 98 37 99
REMARK H PARENT 73 101
REMARK Flexibility Score: inf
ROOT
ATOM      1  C   UNL A   1      34.856  23.578  26.253  1.00  0.00    -0.052 C 
ATOM      2  H   UNL A   1      33.807  23.569  26.462  1.00  0.00     0.027 H 
ATOM      3  H   UNL A   1      35.442  24.014  27.036  1.00  0.00     0.027 H 
ENDROOT
BRANCH   1   4
ATOM      4  C   UNL A   1      35.087  24.446  25.009  1.00  0.00    -0.036 C 
ATOM      5  H   UNL A   1      36.014  24.969  25.131  1.00  0.00     0.028 H 
ATOM      6  H   UNL A   1      35.094  23.785  24.167  1.00  0.00     0.028 H 
BRANCH   4   7
ATOM      7  C   UNL A   1      33.985  25.476  24.753  1.00  0.00     0.017 C 
ATOM      8  H   UNL A   1      33.047  25.075  25.075  1.00  0.00     0.049 H 
ATOM      9  H   UNL A   1      34.208  26.368  25.300  1.00  0.00     0.049 H 
BRANCH   7  10
ATOM     10  N   UNL A   1      33.910  25.792  23.344  1.00  0.00    -0.356 N 
ATOM     11  C   UNL A   1      33.004  25.403  22.402  1.00  0.00     0.227 C 
ATOM     12  O   UNL A   1      33.285  25.673  21.235  1.00  0.00    -0.274 OA
ATOM     13  H   UNL A   1      34.626  26.381  23.013  1.00  0.00     0.163 HD
BRANCH  11  14
ATOM     14  C   UNL A   1      31.707  24.707  22.840  1.00  0.00     0.063 C 
ATOM     15  H   UNL A   1      31.191  24.552  21.916  1.00  0.00     0.045 H 
BRANCH  14  16
ATOM     16  C   UNL A   1      30.844  25.569  23.764  1.00  0.00    -0.049 C 
ATOM     17  H   UNL A   1      30.949  25.227  24.772  1.00  0.00     0.024 H 
ATOM     18  H   UNL A   1      29.818  25.494  23.466  1.00  0.00     0.024 H 
ATOM     19  H   UNL A   1      31.160  26.589  23.698  1.00  0.00     0.024 H 
ENDBRANCH  14  16
BRANCH  14  20
ATOM     20  C   UNL A   1      31.919  23.354  23.501  1.00  0.00     0.000 A 
ATOM     21  C   UNL A   1      31.490  23.073  24.805  1.00  0.00    -0.052 A 
ATOM     22  C   UNL A   1      32.491  22.315  22.765  1.00  0.00     0.130 A 
ATOM     23  C   UNL A   1      31.660  21.797  25.347  1.00  0.00    -0.019 A 
ATOM     24  H   UNL A   1      31.045  23.814  25.368  1.00  0.00     0.063 H 
ATOM     25  C   UNL A   1      32.646  21.037  23.296  1.00  0.00     0.016 A 
ATOM     26  F   UNL A   1      32.878  22.527  21.499  1.00  0.00    -0.207 F 
ATOM     27  C   UNL A   1      32.220  20.765  24.592  1.00  0.00     0.122 A 
ATOM     28  H   UNL A   1      31.368  21.615  26.320  1.00  0.00     0.066 H 
ATOM     29  H   UNL A   1      33.077  20.292  22.728  1.00  0.00     0.069 H 
BRANCH  27  30
ATOM     30  O   UNL A   1      32.291  19.572  25.243  1.00  0.00    -0.490 OA
BRANCH  30  31
ATOM     31  C   UNL A   1      32.792  18.395  24.625  1.00  0.00     0.099 C 
ATOM     32  C   UNL A   1      34.307  18.279  24.486  1.00  0.00    -0.016 C 
ATOM     33  C   UNL A   1      32.299  17.079  25.221  1.00  0.00    -0.016 C 
ATOM     34  H   UNL A   1      32.372  18.540  23.652  1.00  0.00     0.074 H 
ATOM     35  C   UNL A   1      34.527  16.801  24.212  1.00  0.00    -0.050 C 
ATOM     36  H   UNL A   1      34.798  18.577  25.389  1.00  0.00     0.030 H 
ATOM     37  H   UNL A   1      34.704  18.907  23.717  1.00  0.00     0.030 H 
ATOM     38  C   UNL A   1      33.402  16.062  24.935  1.00  0.00    -0.050 C 
ATOM     39  H   UNL A   1      31.383  16.778  24.757  1.00  0.00     0.030 H 
ATOM     40  H   UNL A   1      32.104  17.167  26.270  1.00  0.00     0.030 H 
ATOM     41  H   UNL A   1      35.478  16.490  24.591  1.00  0.00     0.027 H 
ATOM     42  H   UNL A   1      34.520  16.592  23.162  1.00  0.00     0.027 H 
ATOM     43  H   UNL A   1      33.765  15.649  25.853  1.00  0.00     0.027 H 
ATOM     44  H   UNL A   1      33.029  15.260  24.333  1.00  0.00     0.027 H 
ENDBRANCH  30  31
ENDBRANCH  27  30
ENDBRANCH  14  20
ENDBRANCH  11  14
ENDBRANCH   7  10
ENDBRANCH   4   7
ENDBRANCH   1   4
BRANCH   1  45
ATOM     45  C   UNL A   1      35.327  22.127  26.124  1.00  0.00    -0.052 C 
ATOM     46  H   UNL A   1      34.487  21.487  26.300  1.00  0.00     0.027 H 
ATOM     47  H   UNL A   1      36.111  21.998  26.841  1.00  0.00     0.027 H 
BRANCH  45  48
ATOM     48  C   UNL A   1      35.923  21.766  24.763  1.00  0.00    -0.036 C 
ATOM     49  H   UNL A   1      35.474  22.396  24.024  1.00  0.00     0.028 H 
ATOM     50  H   UNL A   1      35.721  20.728  24.606  1.00  0.00     0.028 H 
BRANCH  48  51
ATOM     51  C   UNL A   1      37.436  21.932  24.674  1.00  0.00     0.018 C 
ATOM     52  H   UNL A   1      37.712  22.849  25.152  1.00  0.00     0.049 H 
ATOM     53  H   UNL A   1      37.708  21.939  23.639  1.00  0.00     0.049 H 
BRANCH  51  54
ATOM     54  N   UNL A   1      38.145  20.836  25.316  1.00  0.00    -0.352 N 
ATOM     55  C   UNL A   1      39.261  20.871  26.110  1.00  0.00     0.251 C 
ATOM     56  H   UNL A   1      37.768  19.941  25.158  1.00  0.00     0.163 HD
ATOM     57  O   UNL A   1      39.848  19.831  26.403  1.00  0.00    -0.269 OA
BRANCH  55  58
ATOM     58  C   UNL A   1      39.778  22.167  26.596  1.00  0.00     0.039 A 
ATOM     59  C   UNL A   1      40.829  22.173  27.516  1.00  0.00    -0.049 A 
ATOM     60  C   UNL A   1      39.236  23.372  26.139  1.00  0.00    -0.049 A 
ATOM     61  C   UNL A   1      41.385  23.386  27.921  1.00  0.00    -0.053 A 
ATOM     62  H   UNL A   1      41.191  21.284  27.894  1.00  0.00     0.063 H 
ATOM     63  C   UNL A   1      39.837  24.579  26.491  1.00  0.00    -0.053 A 
ATOM     64  H   UNL A   1      38.393  23.368  25.543  1.00  0.00     0.063 H 
ATOM     65  C   UNL A   1      40.924  24.596  27.377  1.00  0.00    -0.014 A 
ATOM     66  H   UNL A   1      42.141  23.394  28.624  1.00  0.00     0.063 H 
ATOM     67  H   UNL A   1      39.481  25.463  26.096  1.00  0.00     0.063 H 
BRANCH  65  68
ATOM     68  C   UNL A   1      41.597  25.882  27.695  1.00  0.00     0.031 A 
ATOM     69  C   UNL A   1      40.863  26.968  28.432  1.00  0.00     0.074 A 
ATOM     70  C   UNL A   1      42.853  26.093  27.255  1.00  0.00     0.049 A 
ATOM     71  N   UNL A   1      41.266  28.174  28.740  1.00  0.00    -0.248 NA
ATOM     72  C   UNL A   1      39.487  26.668  28.861  1.00  0.00    -0.034 C 
ATOM     73  C   UNL A   1      43.651  25.135  26.484  1.00  0.00    -0.036 A 
ATOM     74  N   UNL A   1      43.678  27.185  27.379  1.00  0.00    -0.354 N 
ATOM     75  C   UNL A   1      40.197  28.779  29.386  1.00  0.00     0.074 A 
ATOM     76  C   UNL A   1      39.109  27.824  29.390  1.00  0.00    -0.034 C 
ATOM     77  H   UNL A   1      38.956  25.788  28.774  1.00  0.00     0.065 H 
ATOM     78  C   UNL A   1      44.852  25.674  26.220  1.00  0.00    -0.036 A 
ATOM     79  H   UNL A   1      43.339  24.197  26.192  1.00  0.00     0.065 H 
ATOM     80  C   UNL A   1      44.896  27.028  26.762  1.00  0.00     0.049 A 
ATOM     81  H   UNL A   1      43.421  28.001  27.865  1.00  0.00     0.167 HD
ATOM     82  C   UNL A   1      40.136  30.013  29.941  1.00  0.00     0.037 A 
ATOM     83  H   UNL A   1      38.164  28.017  29.756  1.00  0.00     0.065 H 
ATOM     84  H   UNL A   1      45.619  25.206  25.714  1.00  0.00     0.065 H 
ATOM     85  C   UNL A   1      45.925  27.887  26.632  1.00  0.00     0.037 A 
ATOM     86  C   UNL A   1      41.230  30.949  29.961  1.00  0.00     0.049 A 
ATOM     87  C   UNL A   1      45.820  29.255  27.251  1.00  0.00     0.074 A 
ATOM     88  C   UNL A   1      41.289  32.190  30.570  1.00  0.00    -0.036 A 
ATOM     89  N   UNL A   1      42.453  30.751  29.337  1.00  0.00    -0.354 N 
ATOM     90  N   UNL A   1      44.835  29.781  27.937  1.00  0.00    -0.248 NA
ATOM     91  C   UNL A   1      46.973  30.151  27.078  1.00  0.00    -0.034 C 
ATOM     92  C   UNL A   1      42.525  32.769  30.267  1.00  0.00    -0.036 A 
ATOM     93  H   UNL A   1      40.549  32.615  31.150  1.00  0.00     0.065 H 
ATOM     94  C   UNL A   1      43.259  31.864  29.517  1.00  0.00     0.049 A 
ATOM     95  H   UNL A   1      42.710  29.941  28.840  1.00  0.00     0.167 HD
ATOM     96  C   UNL A   1      45.259  31.052  28.301  1.00  0.00     0.074 A 
ATOM     97  C   UNL A   1      46.599  31.210  27.779  1.00  0.00    -0.034 C 
ATOM     98  H   UNL A   1      47.846  29.995  26.549  1.00  0.00     0.065 H 
ATOM     99  H   UNL A   1      42.838  33.710  30.552  1.00  0.00     0.065 H 
ATOM    100  C   UNL A   1      44.595  32.005  28.998  1.00  0.00     0.037 A 
ATOM    101  H   UNL A   1      47.188  32.043  27.935  1.00  0.00     0.065 H 
BRANCH  82 102
ATOM    102  C   UNL A   1      38.847  30.437  30.584  1.00  0.00     0.064 A 
ATOM    103  C   UNL A   1      38.654  30.349  31.970  1.00  0.00     0.173 A 
ATOM    104  C   UNL A   1      37.832  31.025  29.814  1.00  0.00     0.173 A 
ATOM    105  F   UNL A   1      39.590  29.789  32.749  1.00  0.00    -0.203 F 
ATOM    106  C   UNL A   1      37.485  30.826  32.561  1.00  0.00     0.198 A 
ATOM    107  C   UNL A   1      36.678  31.524  30.411  1.00  0.00     0.198 A 
ATOM    108  F   UNL A   1      37.971  31.138  28.484  1.00  0.00    -0.203 F 
ATOM    109  F   UNL A   1      37.310  30.707  33.884  1.00  0.00    -0.200 F 
ATOM    110  C   UNL A   1      36.505  31.422  31.783  1.00  0.00     0.200 A 
ATOM    111  F   UNL A   1      35.739  32.115  29.659  1.00  0.00    -0.200 F 
ATOM    112  F   UNL A   1      35.391  31.900  32.356  1.00  0.00    -0.200 F 
ENDBRANCH  82 102
BRANCH  85 113
ATOM    113  C   UNL A   1      47.147  27.489  25.879  1.00  0.00     0.064 A 
ATOM    114  C   UNL A   1      48.269  26.973  26.544  1.00  0.00     0.173 A 
ATOM    115  C   UNL A   1      47.233  27.658  24.490  1.00  0.00     0.173 A 
ATOM    116  F   UNL A   1      48.244  26.812  27.874  1.00  0.00    -0.203 F 
ATOM    117  C   UNL A   1      49.442  26.678  25.852  1.00  0.00     0.198 A 
ATOM    118  C   UNL A   1      48.395  27.328  23.795  1.00  0.00     0.198 A 
ATOM    119  F   UNL A   1      46.188  28.143  23.805  1.00  0.00    -0.203 F 
ATOM    120  F   UNL A   1      50.521  26.250  26.522  1.00  0.00    -0.200 F 
ATOM    121  C   UNL A   1      49.504  26.852  24.478  1.00  0.00     0.200 A 
ATOM    122  F   UNL A   1      48.444  27.484  22.465  1.00  0.00    -0.200 F 
ATOM    123  F   UNL A   1      50.634  26.573  23.815  1.00  0.00    -0.200 F 
ENDBRANCH  85 113
BRANCH 100 124
ATOM    124  C   UNL A   1      45.318  33.294  29.262  1.00  0.00     0.064 A 
ATOM    125  C   UNL A   1      45.214  34.388  28.392  1.00  0.00     0.173 A 
ATOM    126  C   UNL A   1      46.099  33.447  30.419  1.00  0.00     0.173 A 
ATOM    127  F   UNL A   1      44.492  34.288  27.264  1.00  0.00    -0.203 F 
ATOM    128  C   UNL A   1      45.888  35.579  28.653  1.00  0.00     0.198 A 
ATOM    129  C   UNL A   1      46.744  34.649  30.694  1.00  0.00     0.198 A 
ATOM    130  F   UNL A   1      46.227  32.433  31.289  1.00  0.00    -0.203 F 
ATOM    131  F   UNL A   1      45.816  36.592  27.780  1.00  0.00    -0.200 F 
ATOM    132  C   UNL A   1      46.645  35.711  29.808  1.00  0.00     0.200 A 
ATOM    133  F   UNL A   1      47.461  34.781  31.819  1.00  0.00    -0.200 F 
ATOM    134  F   UNL A   1      47.286  36.860  30.062  1.00  0.00    -0.200 F 
ENDBRANCH 100 124
ENDBRANCH  65  68
ENDBRANCH  55  58
ENDBRANCH  51  54
ENDBRANCH  48  51
ENDBRANCH  45  48
ENDBRANCH   1  45
TORSDOF 17
ENDMDL
MODEL 8
REMARK VINA RESULT:     -11.6      0.663      7.393
REMARK SMILES C[C@@H](C(=O)NCCCCCCNC(=O)c1ccc(-c2c3nc(c(-c4c(F)c(F)c(F)c(F)c4F)c4ccc([nH]4)c(-c4c(F)c(F)c(F)c(F)c4F)c4nc(c(-c5c(F)c(F)c(F)c(F)c5F)c5ccc2[nH]5)C=C4)C=C3)cc1)c1ccc(OC2CCCC2)cc1F
REMARK SMILES IDX 8 1 7 4 6 7 5 10 3 11 4 12 2 14 1 16 78 20 79 21 89 22 80 23
REMARK SMILES IDX 88 25 90 26 81 27 82 30 83 31 84 32 87 33 85 35 86 38 9 45
REMARK SMILES IDX 10 48 11 51 12 54 13 55 14 57 15 58 16 59 77 60 17 61 76 63
REMARK SMILES IDX 18 65 19 68 20 69 70 70 21 71 75 72 69 73 71 74 22 75 74 76
REMARK SMILES IDX 68 78 67 80 23 82 55 85 35 86 54 87 36 88 39 89 53 90 72 91
REMARK SMILES IDX 37 92 38 94 52 96 73 97 40 100 24 102 25 103 33 104 26 105
REMARK SMILES IDX 27 106 31 107 34 108 28 109 29 110 32 111 30 112 56 113
REMARK SMILES IDX 57 114 65 115 58 116 59 117 63 118 66 119 60 120 61 121
REMARK SMILES IDX 64 122 62 123 41 124 42 125 50 126 43 127 44 128 48 129
REMARK SMILES IDX 51 130 45 131 46 132 49 133 47 134
REMARK H PARENT 8 2 8 3 7 5 7 6 6 8 6 9 5 13 2 15 1 17 1 18 1 19 79 24 80 28
REMARK H PARENT 88 29 83 34 84 36 84 37 87 39 87 40 85 41 85 42 86 43 86 44
REMARK H PARENT 9 46 9 47 10 49 10 50 11 52 11 53 12 56 16 62 77 64 17 66
REMARK H PARENT 76 67 75 77 69 79 71 81 74 83 68 84 36 93 39 95 72 98 37 99
REMARK H PARENT 73 101
REMARK Flexibility Score: inf
ROOT
ATOM      1  C   UNL A   1      32.125  29.810  27.134  1.00  0.00    -0.052 C 
ATOM      2  H   UNL A   1      32.466  30.382  27.972  1.00  0.00     0.027 H 
ATOM      3  H   UNL A   1      31.323  29.143  27.373  1.00  0.00     0.027 H 
ENDROOT
BRANCH   1   4
ATOM      4  C   UNL A   1      33.287  28.930  26.653  1.00  0.00    -0.036 C 
ATOM      5  H   UNL A   1      33.556  29.240  25.664  1.00  0.00     0.028 H 
ATOM      6  H   UNL A   1      34.083  29.058  27.357  1.00  0.00     0.028 H 
BRANCH   4   7
ATOM      7  C   UNL A   1      32.963  27.435  26.617  1.00  0.00     0.017 C 
ATOM      8  H   UNL A   1      33.020  27.039  27.609  1.00  0.00     0.049 H 
ATOM      9  H   UNL A   1      31.977  27.302  26.226  1.00  0.00     0.049 H 
BRANCH   7  10
ATOM     10  N   UNL A   1      33.905  26.738  25.769  1.00  0.00    -0.356 N 
ATOM     11  C   UNL A   1      33.749  25.604  25.029  1.00  0.00     0.227 C 
ATOM     12  O   UNL A   1      34.775  25.128  24.543  1.00  0.00    -0.274 OA
ATOM     13  H   UNL A   1      34.799  27.147  25.717  1.00  0.00     0.163 HD
BRANCH  11  14
ATOM     14  C   UNL A   1      32.342  25.024  24.817  1.00  0.00     0.063 C 
ATOM     15  H   UNL A   1      31.983  24.888  25.815  1.00  0.00     0.045 H 
BRANCH  14  16
ATOM     16  C   UNL A   1      32.350  23.676  24.093  1.00  0.00    -0.049 C 
ATOM     17  H   UNL A   1      31.672  23.711  23.267  1.00  0.00     0.024 H 
ATOM     18  H   UNL A   1      32.046  22.905  24.772  1.00  0.00     0.024 H 
ATOM     19  H   UNL A   1      33.337  23.468  23.737  1.00  0.00     0.024 H 
ENDBRANCH  14  16
BRANCH  14  20
ATOM     20  C   UNL A   1      31.388  25.958  24.089  1.00  0.00     0.000 A 
ATOM     21  C   UNL A   1      30.098  26.237  24.558  1.00  0.00    -0.052 A 
ATOM     22  C   UNL A   1      31.828  26.634  22.950  1.00  0.00     0.130 A 
ATOM     23  C   UNL A   1      29.280  27.145  23.882  1.00  0.00    -0.019 A 
ATOM     24  H   UNL A   1      29.750  25.770  25.409  1.00  0.00     0.063 H 
ATOM     25  C   UNL A   1      31.022  27.552  22.283  1.00  0.00     0.016 A 
ATOM     26  F   UNL A   1      33.070  26.428  22.489  1.00  0.00    -0.207 F 
ATOM     27  C   UNL A   1      29.741  27.824  22.752  1.00  0.00     0.122 A 
ATOM     28  H   UNL A   1      28.321  27.316  24.221  1.00  0.00     0.066 H 
ATOM     29  H   UNL A   1      31.374  28.031  21.440  1.00  0.00     0.069 H 
BRANCH  27  30
ATOM     30  O   UNL A   1      28.843  28.699  22.221  1.00  0.00    -0.490 OA
BRANCH  30  31
ATOM     31  C   UNL A   1      29.086  30.097  22.161  1.00  0.00     0.099 C 
ATOM     32  C   UNL A   1      28.225  30.908  21.196  1.00  0.00    -0.016 C 
ATOM     33  C   UNL A   1      29.056  30.827  23.502  1.00  0.00    -0.016 C 
ATOM     34  H   UNL A   1      30.085  30.065  21.780  1.00  0.00     0.074 H 
ATOM     35  C   UNL A   1      28.411  32.339  21.669  1.00  0.00    -0.050 C 
ATOM     36  H   UNL A   1      27.198  30.614  21.261  1.00  0.00     0.030 H 
ATOM     37  H   UNL A   1      28.504  30.769  20.172  1.00  0.00     0.030 H 
ATOM     38  C   UNL A   1      28.646  32.261  23.177  1.00  0.00    -0.050 C 
ATOM     39  H   UNL A   1      30.024  30.809  23.958  1.00  0.00     0.030 H 
ATOM     40  H   UNL A   1      28.377  30.367  24.189  1.00  0.00     0.030 H 
ATOM     41  H   UNL A   1      27.535  32.917  21.459  1.00  0.00     0.027 H 
ATOM     42  H   UNL A   1      29.232  32.813  21.170  1.00  0.00     0.027 H 
ATOM     43  H   UNL A   1      27.747  32.512  23.700  1.00  0.00     0.027 H 
ATOM     44  H   UNL A   1      29.409  32.950  23.476  1.00  0.00     0.027 H 
ENDBRANCH  30  31
ENDBRANCH  27  30
ENDBRANCH  14  20
ENDBRANCH  11  14
ENDBRANCH   7  10
ENDBRANCH   4   7
ENDBRANCH   1   4
BRANCH   1  45
ATOM     45  C   UNL A   1      31.575  30.782  26.087  1.00  0.00    -0.052 C 
ATOM     46  H   UNL A   1      30.619  30.422  25.767  1.00  0.00     0.027 H 
ATOM     47  H   UNL A   1      32.296  30.816  25.297  1.00  0.00     0.027 H 
BRANCH  45  48
ATOM     48  C   UNL A   1      31.403  32.221  26.577  1.00  0.00    -0.036 C 
ATOM     49  H   UNL A   1      30.587  32.242  27.270  1.00  0.00     0.028 H 
ATOM     50  H   UNL A   1      31.228  32.821  25.709  1.00  0.00     0.028 H 
BRANCH  48  51
ATOM     51  C   UNL A   1      32.631  32.802  27.268  1.00  0.00     0.018 C 
ATOM     52  H   UNL A   1      33.469  32.721  26.609  1.00  0.00     0.049 H 
ATOM     53  H   UNL A   1      32.794  32.251  28.171  1.00  0.00     0.049 H 
BRANCH  51  54
ATOM     54  N   UNL A   1      32.446  34.200  27.624  1.00  0.00    -0.352 N 
ATOM     55  C   UNL A   1      33.056  34.934  28.608  1.00  0.00     0.251 C 
ATOM     56  H   UNL A   1      31.788  34.690  27.079  1.00  0.00     0.163 HD
ATOM     57  O   UNL A   1      32.633  36.050  28.904  1.00  0.00    -0.269 OA
BRANCH  55  58
ATOM     58  C   UNL A   1      34.212  34.371  29.335  1.00  0.00     0.039 A 
ATOM     59  C   UNL A   1      33.991  33.704  30.542  1.00  0.00    -0.049 A 
ATOM     60  C   UNL A   1      35.509  34.491  28.825  1.00  0.00    -0.049 A 
ATOM     61  C   UNL A   1      35.059  33.093  31.200  1.00  0.00    -0.053 A 
ATOM     62  H   UNL A   1      33.042  33.663  30.944  1.00  0.00     0.063 H 
ATOM     63  C   UNL A   1      36.562  33.823  29.446  1.00  0.00    -0.053 A 
ATOM     64  H   UNL A   1      35.685  35.073  27.991  1.00  0.00     0.063 H 
ATOM     65  C   UNL A   1      36.345  33.110  30.634  1.00  0.00    -0.014 A 
ATOM     66  H   UNL A   1      34.903  32.626  32.107  1.00  0.00     0.063 H 
ATOM     67  H   UNL A   1      37.505  33.853  29.029  1.00  0.00     0.063 H 
BRANCH  65  68
ATOM     68  C   UNL A   1      37.461  32.348  31.253  1.00  0.00     0.031 A 
ATOM     69  C   UNL A   1      37.964  32.708  32.623  1.00  0.00     0.074 A 
ATOM     70  C   UNL A   1      38.065  31.374  30.544  1.00  0.00     0.049 A 
ATOM     71  N   UNL A   1      38.966  32.198  33.294  1.00  0.00    -0.248 NA
ATOM     72  C   UNL A   1      37.265  33.797  33.324  1.00  0.00    -0.034 C 
ATOM     73  C   UNL A   1      37.701  30.969  29.184  1.00  0.00    -0.036 A 
ATOM     74  N   UNL A   1      39.121  30.555  30.860  1.00  0.00    -0.354 N 
ATOM     75  C   UNL A   1      39.025  32.908  34.485  1.00  0.00     0.074 A 
ATOM     76  C   UNL A   1      37.986  33.914  34.431  1.00  0.00    -0.034 C 
ATOM     77  H   UNL A   1      36.432  34.330  33.031  1.00  0.00     0.065 H 
ATOM     78  C   UNL A   1      38.507  29.970  28.791  1.00  0.00    -0.036 A 
ATOM     79  H   UNL A   1      36.945  31.384  28.619  1.00  0.00     0.065 H 
ATOM     80  C   UNL A   1      39.472  29.693  29.849  1.00  0.00     0.049 A 
ATOM     81  H   UNL A   1      39.583  30.584  31.729  1.00  0.00     0.167 HD
ATOM     82  C   UNL A   1      39.859  32.723  35.536  1.00  0.00     0.037 A 
ATOM     83  H   UNL A   1      37.826  34.628  35.159  1.00  0.00     0.065 H 
ATOM     84  H   UNL A   1      38.453  29.478  27.885  1.00  0.00     0.065 H 
ATOM     85  C   UNL A   1      40.471  28.792  29.777  1.00  0.00     0.037 A 
ATOM     86  C   UNL A   1      40.873  31.702  35.597  1.00  0.00     0.049 A 
ATOM     87  C   UNL A   1      41.389  28.620  30.959  1.00  0.00     0.074 A 
ATOM     88  C   UNL A   1      41.711  31.385  36.652  1.00  0.00    -0.036 A 
ATOM     89  N   UNL A   1      41.190  30.838  34.560  1.00  0.00    -0.354 N 
ATOM     90  N   UNL A   1      41.375  29.238  32.115  1.00  0.00    -0.248 NA
ATOM     91  C   UNL A   1      42.461  27.624  30.825  1.00  0.00    -0.034 C 
ATOM     92  C   UNL A   1      42.577  30.370  36.234  1.00  0.00    -0.036 A 
ATOM     93  H   UNL A   1      41.700  31.823  37.586  1.00  0.00     0.065 H 
ATOM     94  C   UNL A   1      42.238  30.014  34.938  1.00  0.00     0.049 A 
ATOM     95  H   UNL A   1      40.739  30.815  33.685  1.00  0.00     0.167 HD
ATOM     96  C   UNL A   1      42.413  28.686  32.854  1.00  0.00     0.074 A 
ATOM     97  C   UNL A   1      43.022  27.669  32.024  1.00  0.00    -0.034 C 
ATOM     98  H   UNL A   1      42.711  27.041  30.011  1.00  0.00     0.065 H 
ATOM     99  H   UNL A   1      43.339  29.956  36.794  1.00  0.00     0.065 H 
ATOM    100  C   UNL A   1      42.830  28.999  34.104  1.00  0.00     0.037 A 
ATOM    101  H   UNL A   1      43.794  27.056  32.329  1.00  0.00     0.065 H 
BRANCH  82 102
ATOM    102  C   UNL A   1      39.720  33.637  36.719  1.00  0.00     0.064 A 
ATOM    103  C   UNL A   1      40.339  34.895  36.753  1.00  0.00     0.173 A 
ATOM    104  C   UNL A   1      38.882  33.288  37.789  1.00  0.00     0.173 A 
ATOM    105  F   UNL A   1      41.156  35.273  35.759  1.00  0.00    -0.203 F 
ATOM    106  C   UNL A   1      40.130  35.766  37.820  1.00  0.00     0.198 A 
ATOM    107  C   UNL A   1      38.654  34.171  38.840  1.00  0.00     0.198 A 
ATOM    108  F   UNL A   1      38.261  32.097  37.801  1.00  0.00    -0.203 F 
ATOM    109  F   UNL A   1      40.753  36.952  37.845  1.00  0.00    -0.200 F 
ATOM    110  C   UNL A   1      39.280  35.408  38.856  1.00  0.00     0.200 A 
ATOM    111  F   UNL A   1      37.820  33.830  39.831  1.00  0.00    -0.200 F 
ATOM    112  F   UNL A   1      39.064  36.257  39.870  1.00  0.00    -0.200 F 
ENDBRANCH  82 102
BRANCH  85 113
ATOM    113  C   UNL A   1      40.669  27.984  28.543  1.00  0.00     0.064 A 
ATOM    114  C   UNL A   1      41.458  28.461  27.486  1.00  0.00     0.173 A 
ATOM    115  C   UNL A   1      40.039  26.743  28.376  1.00  0.00     0.173 A 
ATOM    116  F   UNL A   1      42.065  29.652  27.588  1.00  0.00    -0.203 F 
ATOM    117  C   UNL A   1      41.578  27.744  26.297  1.00  0.00     0.198 A 
ATOM    118  C   UNL A   1      40.190  26.011  27.200  1.00  0.00     0.198 A 
ATOM    119  F   UNL A   1      39.278  26.238  29.357  1.00  0.00    -0.203 F 
ATOM    120  F   UNL A   1      42.283  28.255  25.278  1.00  0.00    -0.200 F 
ATOM    121  C   UNL A   1      40.947  26.518  26.156  1.00  0.00     0.200 A 
ATOM    122  F   UNL A   1      39.589  24.819  27.075  1.00  0.00    -0.200 F 
ATOM    123  F   UNL A   1      41.058  25.833  25.010  1.00  0.00    -0.200 F 
ENDBRANCH  85 113
BRANCH 100 124
ATOM    124  C   UNL A   1      43.981  28.214  34.664  1.00  0.00     0.064 A 
ATOM    125  C   UNL A   1      43.785  27.000  35.337  1.00  0.00     0.173 A 
ATOM    126  C   UNL A   1      45.299  28.666  34.496  1.00  0.00     0.173 A 
ATOM    127  F   UNL A   1      42.543  26.531  35.537  1.00  0.00    -0.203 F 
ATOM    128  C   UNL A   1      44.863  26.280  35.846  1.00  0.00     0.198 A 
ATOM    129  C   UNL A   1      46.376  27.928  34.977  1.00  0.00     0.198 A 
ATOM    130  F   UNL A   1      45.543  29.819  33.854  1.00  0.00    -0.203 F 
ATOM    131  F   UNL A   1      44.647  25.149  36.532  1.00  0.00    -0.200 F 
ATOM    132  C   UNL A   1      46.157  26.741  35.659  1.00  0.00     0.200 A 
ATOM    133  F   UNL A   1      47.628  28.366  34.781  1.00  0.00    -0.200 F 
ATOM    134  F   UNL A   1      47.194  26.043  36.143  1.00  0.00    -0.200 F 
ENDBRANCH 100 124
ENDBRANCH  65  68
ENDBRANCH  55  58
ENDBRANCH  51  54
ENDBRANCH  48  51
ENDBRANCH  45  48
ENDBRANCH   1  45
TORSDOF 17
ENDMDL
MODEL 9
REMARK VINA RESULT:     -11.6      0.842      7.304
REMARK SMILES C[C@@H](C(=O)NCCCCCCNC(=O)c1ccc(-c2c3nc(c(-c4c(F)c(F)c(F)c(F)c4F)c4ccc([nH]4)c(-c4c(F)c(F)c(F)c(F)c4F)c4nc(c(-c5c(F)c(F)c(F)c(F)c5F)c5ccc2[nH]5)C=C4)C=C3)cc1)c1ccc(OC2CCCC2)cc1F
REMARK SMILES IDX 8 1 7 4 6 7 5 10 3 11 4 12 2 14 1 16 78 20 79 21 89 22 80 23
REMARK SMILES IDX 88 25 90 26 81 27 82 30 83 31 84 32 87 33 85 35 86 38 9 45
REMARK SMILES IDX 10 48 11 51 12 54 13 55 14 57 15 58 16 59 77 60 17 61 76 63
REMARK SMILES IDX 18 65 19 68 20 69 70 70 21 71 75 72 69 73 71 74 22 75 74 76
REMARK SMILES IDX 68 78 67 80 23 82 55 85 35 86 54 87 36 88 39 89 53 90 72 91
REMARK SMILES IDX 37 92 38 94 52 96 73 97 40 100 24 102 25 103 33 104 26 105
REMARK SMILES IDX 27 106 31 107 34 108 28 109 29 110 32 111 30 112 56 113
REMARK SMILES IDX 57 114 65 115 58 116 59 117 63 118 66 119 60 120 61 121
REMARK SMILES IDX 64 122 62 123 41 124 42 125 50 126 43 127 44 128 48 129
REMARK SMILES IDX 51 130 45 131 46 132 49 133 47 134
REMARK H PARENT 8 2 8 3 7 5 7 6 6 8 6 9 5 13 2 15 1 17 1 18 1 19 79 24 80 28
REMARK H PARENT 88 29 83 34 84 36 84 37 87 39 87 40 85 41 85 42 86 43 86 44
REMARK H PARENT 9 46 9 47 10 49 10 50 11 52 11 53 12 56 16 62 77 64 17 66
REMARK H PARENT 76 67 75 77 69 79 71 81 74 83 68 84 36 93 39 95 72 98 37 99
REMARK H PARENT 73 101
REMARK Flexibility Score: inf
ROOT
ATOM      1  C   UNL A   1      32.022  28.890  26.245  1.00  0.00    -0.052 C 
ATOM      2  H   UNL A   1      31.995  29.051  27.302  1.00  0.00     0.027 H 
ATOM      3  H   UNL A   1      31.319  28.156  25.909  1.00  0.00     0.027 H 
ENDROOT
BRANCH   1   4
ATOM      4  C   UNL A   1      33.412  28.354  25.878  1.00  0.00    -0.036 C 
ATOM      5  H   UNL A   1      33.643  28.672  24.882  1.00  0.00     0.028 H 
ATOM      6  H   UNL A   1      34.095  28.745  26.604  1.00  0.00     0.028 H 
BRANCH   4   7
ATOM      7  C   UNL A   1      33.528  26.830  25.937  1.00  0.00     0.017 C 
ATOM      8  H   UNL A   1      34.191  26.557  26.730  1.00  0.00     0.049 H 
ATOM      9  H   UNL A   1      32.558  26.414  26.111  1.00  0.00     0.049 H 
BRANCH   7  10
ATOM     10  N   UNL A   1      34.044  26.318  24.686  1.00  0.00    -0.356 N 
ATOM     11  C   UNL A   1      33.500  25.425  23.811  1.00  0.00     0.227 C 
ATOM     12  O   UNL A   1      34.240  25.027  22.911  1.00  0.00    -0.274 OA
ATOM     13  H   UNL A   1      34.925  26.669  24.426  1.00  0.00     0.163 HD
BRANCH  11  14
ATOM     14  C   UNL A   1      32.029  25.009  23.968  1.00  0.00     0.063 C 
ATOM     15  H   UNL A   1      31.957  24.762  25.006  1.00  0.00     0.045 H 
BRANCH  14  16
ATOM     16  C   UNL A   1      31.657  23.785  23.128  1.00  0.00    -0.049 C 
ATOM     17  H   UNL A   1      32.510  23.463  22.569  1.00  0.00     0.024 H 
ATOM     18  H   UNL A   1      30.865  24.043  22.455  1.00  0.00     0.024 H 
ATOM     19  H   UNL A   1      31.333  22.996  23.773  1.00  0.00     0.024 H 
ENDBRANCH  14  16
BRANCH  14  20
ATOM     20  C   UNL A   1      31.034  26.120  23.670  1.00  0.00     0.000 A 
ATOM     21  C   UNL A   1      31.248  27.081  22.674  1.00  0.00    -0.052 A 
ATOM     22  C   UNL A   1      29.817  26.150  24.353  1.00  0.00     0.130 A 
ATOM     23  C   UNL A   1      30.278  28.049  22.402  1.00  0.00    -0.019 A 
ATOM     24  H   UNL A   1      32.129  27.074  22.137  1.00  0.00     0.063 H 
ATOM     25  C   UNL A   1      28.841  27.102  24.074  1.00  0.00     0.016 A 
ATOM     26  F   UNL A   1      29.552  25.224  25.287  1.00  0.00    -0.207 F 
ATOM     27  C   UNL A   1      29.060  28.055  23.085  1.00  0.00     0.122 A 
ATOM     28  H   UNL A   1      30.464  28.769  21.688  1.00  0.00     0.066 H 
ATOM     29  H   UNL A   1      27.954  27.101  24.600  1.00  0.00     0.069 H 
BRANCH  27  30
ATOM     30  O   UNL A   1      28.204  29.037  22.690  1.00  0.00    -0.490 OA
BRANCH  30  31
ATOM     31  C   UNL A   1      28.648  30.341  22.344  1.00  0.00     0.099 C 
ATOM     32  C   UNL A   1      28.028  30.975  21.101  1.00  0.00    -0.016 C 
ATOM     33  C   UNL A   1      28.566  31.380  23.459  1.00  0.00    -0.016 C 
ATOM     34  H   UNL A   1      29.669  30.106  22.131  1.00  0.00     0.074 H 
ATOM     35  C   UNL A   1      28.359  32.450  21.251  1.00  0.00    -0.050 C 
ATOM     36  H   UNL A   1      26.969  30.821  21.081  1.00  0.00     0.030 H 
ATOM     37  H   UNL A   1      28.401  30.556  20.190  1.00  0.00     0.030 H 
ATOM     38  C   UNL A   1      28.403  32.724  22.753  1.00  0.00    -0.050 C 
ATOM     39  H   UNL A   1      29.461  31.370  24.045  1.00  0.00     0.030 H 
ATOM     40  H   UNL A   1      27.753  31.182  24.126  1.00  0.00     0.030 H 
ATOM     41  H   UNL A   1      27.604  33.049  20.786  1.00  0.00     0.027 H 
ATOM     42  H   UNL A   1      29.290  32.692  20.782  1.00  0.00     0.027 H 
ATOM     43  H   UNL A   1      27.494  33.194  23.067  1.00  0.00     0.027 H 
ATOM     44  H   UNL A   1      29.216  33.378  22.994  1.00  0.00     0.027 H 
ENDBRANCH  30  31
ENDBRANCH  27  30
ENDBRANCH  14  20
ENDBRANCH  11  14
ENDBRANCH   7  10
ENDBRANCH   4   7
ENDBRANCH   1   4
BRANCH   1  45
ATOM     45  C   UNL A   1      31.632  30.201  25.555  1.00  0.00    -0.052 C 
ATOM     46  H   UNL A   1      30.724  30.035  25.012  1.00  0.00     0.027 H 
ATOM     47  H   UNL A   1      32.455  30.467  24.924  1.00  0.00     0.027 H 
BRANCH  45  48
ATOM     48  C   UNL A   1      31.413  31.382  26.501  1.00  0.00    -0.036 C 
ATOM     49  H   UNL A   1      30.859  31.033  27.347  1.00  0.00     0.028 H 
ATOM     50  H   UNL A   1      30.892  32.130  25.941  1.00  0.00     0.028 H 
BRANCH  48  51
ATOM     51  C   UNL A   1      32.696  32.031  27.006  1.00  0.00     0.018 C 
ATOM     52  H   UNL A   1      33.463  31.896  26.272  1.00  0.00     0.049 H 
ATOM     53  H   UNL A   1      32.961  31.565  27.932  1.00  0.00     0.049 H 
BRANCH  51  54
ATOM     54  N   UNL A   1      32.527  33.455  27.253  1.00  0.00    -0.352 N 
ATOM     55  C   UNL A   1      33.138  34.252  28.186  1.00  0.00     0.251 C 
ATOM     56  H   UNL A   1      31.883  33.910  26.665  1.00  0.00     0.163 HD
ATOM     57  O   UNL A   1      32.727  35.393  28.392  1.00  0.00    -0.269 OA
BRANCH  55  58
ATOM     58  C   UNL A   1      34.277  33.730  28.968  1.00  0.00     0.039 A 
ATOM     59  C   UNL A   1      34.028  32.836  30.010  1.00  0.00    -0.049 A 
ATOM     60  C   UNL A   1      35.588  34.113  28.667  1.00  0.00    -0.049 A 
ATOM     61  C   UNL A   1      35.097  32.268  30.704  1.00  0.00    -0.053 A 
ATOM     62  H   UNL A   1      33.058  32.596  30.266  1.00  0.00     0.063 H 
ATOM     63  C   UNL A   1      36.656  33.495  29.314  1.00  0.00    -0.053 A 
ATOM     64  H   UNL A   1      35.765  34.853  27.969  1.00  0.00     0.063 H 
ATOM     65  C   UNL A   1      36.420  32.559  30.331  1.00  0.00    -0.014 A 
ATOM     66  H   UNL A   1      34.915  31.630  31.495  1.00  0.00     0.063 H 
ATOM     67  H   UNL A   1      37.624  33.726  29.042  1.00  0.00     0.063 H 
BRANCH  65  68
ATOM     68  C   UNL A   1      37.565  31.858  30.970  1.00  0.00     0.031 A 
ATOM     69  C   UNL A   1      38.030  32.248  32.345  1.00  0.00     0.074 A 
ATOM     70  C   UNL A   1      38.227  30.912  30.274  1.00  0.00     0.049 A 
ATOM     71  N   UNL A   1      39.046  31.793  33.032  1.00  0.00    -0.248 NA
ATOM     72  C   UNL A   1      37.267  33.304  33.030  1.00  0.00    -0.034 C 
ATOM     73  C   UNL A   1      37.903  30.483  28.911  1.00  0.00    -0.036 A 
ATOM     74  N   UNL A   1      39.319  30.150  30.610  1.00  0.00    -0.354 N 
ATOM     75  C   UNL A   1      39.053  32.510  34.221  1.00  0.00     0.074 A 
ATOM     76  C   UNL A   1      37.965  33.462  34.147  1.00  0.00    -0.034 C 
ATOM     77  H   UNL A   1      36.412  33.792  32.723  1.00  0.00     0.065 H 
ATOM     78  C   UNL A   1      38.764  29.524  28.535  1.00  0.00    -0.036 A 
ATOM     79  H   UNL A   1      37.135  30.857  28.334  1.00  0.00     0.065 H 
ATOM     80  C   UNL A   1      39.727  29.301  29.608  1.00  0.00     0.049 A 
ATOM     81  H   UNL A   1      39.766  30.205  31.484  1.00  0.00     0.167 HD
ATOM     82  C   UNL A   1      39.880  32.373  35.284  1.00  0.00     0.037 A 
ATOM     83  H   UNL A   1      37.759  34.170  34.869  1.00  0.00     0.065 H 
ATOM     84  H   UNL A   1      38.748  29.026  27.631  1.00  0.00     0.065 H 
ATOM     85  C   UNL A   1      40.772  28.452  29.555  1.00  0.00     0.037 A 
ATOM     86  C   UNL A   1      40.943  31.404  35.365  1.00  0.00     0.049 A 
ATOM     87  C   UNL A   1      41.680  28.332  30.749  1.00  0.00     0.074 A 
ATOM     88  C   UNL A   1      41.782  31.135  36.432  1.00  0.00    -0.036 A 
ATOM     89  N   UNL A   1      41.319  30.553  34.336  1.00  0.00    -0.354 N 
ATOM     90  N   UNL A   1      41.619  28.953  31.902  1.00  0.00    -0.248 NA
ATOM     91  C   UNL A   1      42.803  27.391  30.636  1.00  0.00    -0.034 C 
ATOM     92  C   UNL A   1      42.703  30.163  36.031  1.00  0.00    -0.036 A 
ATOM     93  H   UNL A   1      41.735  31.576  37.364  1.00  0.00     0.065 H 
ATOM     94  C   UNL A   1      42.402  29.785  34.733  1.00  0.00     0.049 A 
ATOM     95  H   UNL A   1      40.882  30.503  33.455  1.00  0.00     0.167 HD
ATOM     96  C   UNL A   1      42.672  28.459  32.658  1.00  0.00     0.074 A 
ATOM     97  C   UNL A   1      43.344  27.469  31.843  1.00  0.00    -0.034 C 
ATOM     98  H   UNL A   1      43.094  26.818  29.828  1.00  0.00     0.065 H 
ATOM     99  H   UNL A   1      43.477  29.792  36.604  1.00  0.00     0.065 H 
ATOM    100  C   UNL A   1      43.056  28.798  33.913  1.00  0.00     0.037 A 
ATOM    101  H   UNL A   1      44.142  26.898  32.162  1.00  0.00     0.065 H 
BRANCH  82 102
ATOM    102  C   UNL A   1      39.678  33.283  36.460  1.00  0.00     0.064 A 
ATOM    103  C   UNL A   1      38.802  32.953  37.503  1.00  0.00     0.173 A 
ATOM    104  C   UNL A   1      40.442  34.453  36.589  1.00  0.00     0.173 A 
ATOM    105  F   UNL A   1      38.043  31.850  37.425  1.00  0.00    -0.203 F 
ATOM    106  C   UNL A   1      38.690  33.767  38.629  1.00  0.00     0.198 A 
ATOM    107  C   UNL A   1      40.348  35.250  37.727  1.00  0.00     0.198 A 
ATOM    108  F   UNL A   1      41.301  34.811  35.621  1.00  0.00    -0.203 F 
ATOM    109  F   UNL A   1      37.825  33.447  39.601  1.00  0.00    -0.200 F 
ATOM    110  C   UNL A   1      39.471  34.907  38.744  1.00  0.00     0.200 A 
ATOM    111  F   UNL A   1      41.115  36.342  37.843  1.00  0.00    -0.200 F 
ATOM    112  F   UNL A   1      39.377  35.677  39.838  1.00  0.00    -0.200 F 
ENDBRANCH  82 102
BRANCH  85 113
ATOM    113  C   UNL A   1      41.028  27.650  28.327  1.00  0.00     0.064 A 
ATOM    114  C   UNL A   1      40.483  26.366  28.177  1.00  0.00     0.173 A 
ATOM    115  C   UNL A   1      41.855  28.130  27.302  1.00  0.00     0.173 A 
ATOM    116  F   UNL A   1      39.702  25.853  29.138  1.00  0.00    -0.203 F 
ATOM    117  C   UNL A   1      40.788  25.581  27.067  1.00  0.00     0.198 A 
ATOM    118  C   UNL A   1      42.130  27.357  26.176  1.00  0.00     0.198 A 
ATOM    119  F   UNL A   1      42.398  29.353  27.393  1.00  0.00    -0.203 F 
ATOM    120  F   UNL A   1      40.309  24.332  26.981  1.00  0.00    -0.200 F 
ATOM    121  C   UNL A   1      41.608  26.078  26.065  1.00  0.00     0.200 A 
ATOM    122  F   UNL A   1      42.911  27.849  25.204  1.00  0.00    -0.200 F 
ATOM    123  F   UNL A   1      41.905  25.320  25.001  1.00  0.00    -0.200 F 
ENDBRANCH  85 113
BRANCH 100 124
ATOM    124  C   UNL A   1      44.237  28.074  34.492  1.00  0.00     0.064 A 
ATOM    125  C   UNL A   1      45.537  28.589  34.391  1.00  0.00     0.173 A 
ATOM    126  C   UNL A   1      44.061  26.866  35.186  1.00  0.00     0.173 A 
ATOM    127  F   UNL A   1      45.761  29.733  33.724  1.00  0.00    -0.203 F 
ATOM    128  C   UNL A   1      46.622  27.908  34.937  1.00  0.00     0.198 A 
ATOM    129  C   UNL A   1      45.143  26.206  35.760  1.00  0.00     0.198 A 
ATOM    130  F   UNL A   1      42.837  26.333  35.318  1.00  0.00    -0.203 F 
ATOM    131  F   UNL A   1      47.861  28.393  34.781  1.00  0.00    -0.200 F 
ATOM    132  C   UNL A   1      46.423  26.722  35.628  1.00  0.00     0.200 A 
ATOM    133  F   UNL A   1      44.947  25.069  36.441  1.00  0.00    -0.200 F 
ATOM    134  F   UNL A   1      47.468  26.073  36.160  1.00  0.00    -0.200 F 
ENDBRANCH 100 124
ENDBRANCH  65  68
ENDBRANCH  55  58
ENDBRANCH  51  54
ENDBRANCH  48  51
ENDBRANCH  45  48
ENDBRANCH   1  45
TORSDOF 17
ENDMDL
MODEL 10
REMARK VINA RESULT:     -11.5      5.790     11.437
REMARK SMILES C[C@@H](C(=O)NCCCCCCNC(=O)c1ccc(-c2c3nc(c(-c4c(F)c(F)c(F)c(F)c4F)c4ccc([nH]4)c(-c4c(F)c(F)c(F)c(F)c4F)c4nc(c(-c5c(F)c(F)c(F)c(F)c5F)c5ccc2[nH]5)C=C4)C=C3)cc1)c1ccc(OC2CCCC2)cc1F
REMARK SMILES IDX 8 1 7 4 6 7 5 10 3 11 4 12 2 14 1 16 78 20 79 21 89 22 80 23
REMARK SMILES IDX 88 25 90 26 81 27 82 30 83 31 84 32 87 33 85 35 86 38 9 45
REMARK SMILES IDX 10 48 11 51 12 54 13 55 14 57 15 58 16 59 77 60 17 61 76 63
REMARK SMILES IDX 18 65 19 68 20 69 70 70 21 71 75 72 69 73 71 74 22 75 74 76
REMARK SMILES IDX 68 78 67 80 23 82 55 85 35 86 54 87 36 88 39 89 53 90 72 91
REMARK SMILES IDX 37 92 38 94 52 96 73 97 40 100 24 102 25 103 33 104 26 105
REMARK SMILES IDX 27 106 31 107 34 108 28 109 29 110 32 111 30 112 56 113
REMARK SMILES IDX 57 114 65 115 58 116 59 117 63 118 66 119 60 120 61 121
REMARK SMILES IDX 64 122 62 123 41 124 42 125 50 126 43 127 44 128 48 129
REMARK SMILES IDX 51 130 45 131 46 132 49 133 47 134
REMARK H PARENT 8 2 8 3 7 5 7 6 6 8 6 9 5 13 2 15 1 17 1 18 1 19 79 24 80 28
REMARK H PARENT 88 29 83 34 84 36 84 37 87 39 87 40 85 41 85 42 86 43 86 44
REMARK H PARENT 9 46 9 47 10 49 10 50 11 52 11 53 12 56 16 62 77 64 17 66
REMARK H PARENT 76 67 75 77 69 79 71 81 74 83 68 84 36 93 39 95 72 98 37 99
REMARK H PARENT 73 101
REMARK Flexibility Score: inf
ROOT
ATOM      1  C   UNL A   1      36.963  22.343  25.255  1.00  0.00    -0.052 C 
ATOM      2  H   UNL A   1      37.769  22.406  25.955  1.00  0.00     0.027 H 
ATOM      3  H   UNL A   1      37.200  22.756  24.296  1.00  0.00     0.027 H 
ENDROOT
BRANCH   1   4
ATOM      4  C   UNL A   1      35.791  23.171  25.801  1.00  0.00    -0.036 C 
ATOM      5  H   UNL A   1      34.912  22.561  25.784  1.00  0.00     0.028 H 
ATOM      6  H   UNL A   1      36.063  23.475  26.791  1.00  0.00     0.028 H 
BRANCH   4   7
ATOM      7  C   UNL A   1      35.507  24.448  25.009  1.00  0.00     0.017 C 
ATOM      8  H   UNL A   1      36.427  24.961  24.825  1.00  0.00     0.049 H 
ATOM      9  H   UNL A   1      35.043  24.186  24.081  1.00  0.00     0.049 H 
BRANCH   7  10
ATOM     10  N   UNL A   1      34.618  25.313  25.753  1.00  0.00    -0.356 N 
ATOM     11  C   UNL A   1      33.399  25.821  25.415  1.00  0.00     0.227 C 
ATOM     12  O   UNL A   1      32.942  26.681  26.167  1.00  0.00    -0.274 OA
ATOM     13  H   UNL A   1      34.944  25.576  26.643  1.00  0.00     0.163 HD
BRANCH  11  14
ATOM     14  C   UNL A   1      32.668  25.279  24.177  1.00  0.00     0.063 C 
ATOM     15  H   UNL A   1      33.334  25.523  23.376  1.00  0.00     0.045 H 
BRANCH  14  16
ATOM     16  C   UNL A   1      31.315  25.951  23.934  1.00  0.00    -0.049 C 
ATOM     17  H   UNL A   1      31.248  26.840  24.525  1.00  0.00     0.024 H 
ATOM     18  H   UNL A   1      30.529  25.278  24.208  1.00  0.00     0.024 H 
ATOM     19  H   UNL A   1      31.224  26.202  22.898  1.00  0.00     0.024 H 
ENDBRANCH  14  16
BRANCH  14  20
ATOM     20  C   UNL A   1      32.464  23.772  24.186  1.00  0.00     0.000 A 
ATOM     21  C   UNL A   1      32.895  22.944  23.141  1.00  0.00    -0.052 A 
ATOM     22  C   UNL A   1      31.898  23.164  25.308  1.00  0.00     0.130 A 
ATOM     23  C   UNL A   1      32.733  21.558  23.222  1.00  0.00    -0.019 A 
ATOM     24  H   UNL A   1      33.336  23.360  22.307  1.00  0.00     0.063 H 
ATOM     25  C   UNL A   1      31.751  21.782  25.399  1.00  0.00     0.016 A 
ATOM     26  F   UNL A   1      31.509  23.914  26.349  1.00  0.00    -0.207 F 
ATOM     27  C   UNL A   1      32.178  20.966  24.358  1.00  0.00     0.122 A 
ATOM     28  H   UNL A   1      33.026  20.965  22.431  1.00  0.00     0.066 H 
ATOM     29  H   UNL A   1      31.323  21.364  26.240  1.00  0.00     0.069 H 
BRANCH  27  30
ATOM     30  O   UNL A   1      32.114  19.607  24.304  1.00  0.00    -0.490 OA
BRANCH  30  31
ATOM     31  C   UNL A   1      33.215  18.808  23.894  1.00  0.00     0.099 C 
ATOM     32  C   UNL A   1      34.054  18.170  24.998  1.00  0.00    -0.016 C 
ATOM     33  C   UNL A   1      32.889  17.705  22.891  1.00  0.00    -0.016 C 
ATOM     34  H   UNL A   1      33.797  19.574  23.426  1.00  0.00     0.074 H 
ATOM     35  C   UNL A   1      34.830  17.084  24.272  1.00  0.00    -0.050 C 
ATOM     36  H   UNL A   1      33.429  17.750  25.758  1.00  0.00     0.030 H 
ATOM     37  H   UNL A   1      34.689  18.871  25.497  1.00  0.00     0.030 H 
ATOM     38  C   UNL A   1      33.936  16.619  23.124  1.00  0.00    -0.050 C 
ATOM     39  H   UNL A   1      32.954  18.079  21.891  1.00  0.00     0.030 H 
ATOM     40  H   UNL A   1      31.895  17.331  23.022  1.00  0.00     0.030 H 
ATOM     41  H   UNL A   1      35.037  16.269  24.935  1.00  0.00     0.027 H 
ATOM     42  H   UNL A   1      35.770  17.448  23.913  1.00  0.00     0.027 H 
ATOM     43  H   UNL A   1      33.457  15.698  23.383  1.00  0.00     0.027 H 
ATOM     44  H   UNL A   1      34.515  16.455  22.238  1.00  0.00     0.027 H 
ENDBRANCH  30  31
ENDBRANCH  27  30
ENDBRANCH  14  20
ENDBRANCH  11  14
ENDBRANCH   7  10
ENDBRANCH   4   7
ENDBRANCH   1   4
BRANCH   1  45
ATOM     45  C   UNL A   1      36.652  20.863  25.018  1.00  0.00    -0.052 C 
ATOM     46  H   UNL A   1      36.075  20.783  24.119  1.00  0.00     0.027 H 
ATOM     47  H   UNL A   1      36.127  20.521  25.886  1.00  0.00     0.027 H 
BRANCH  45  48
ATOM     48  C   UNL A   1      37.882  19.965  24.875  1.00  0.00    -0.036 C 
ATOM     49  H   UNL A   1      38.236  20.043  23.868  1.00  0.00     0.028 H 
ATOM     50  H   UNL A   1      37.570  18.975  25.133  1.00  0.00     0.028 H 
BRANCH  48  51
ATOM     51  C   UNL A   1      39.031  20.317  25.813  1.00  0.00     0.018 C 
ATOM     52  H   UNL A   1      38.630  20.555  26.776  1.00  0.00     0.049 H 
ATOM     53  H   UNL A   1      39.555  21.152  25.396  1.00  0.00     0.049 H 
BRANCH  51  54
ATOM     54  N   UNL A   1      39.975  19.220  25.956  1.00  0.00    -0.352 N 
ATOM     55  C   UNL A   1      41.335  19.262  26.123  1.00  0.00     0.251 C 
ATOM     56  H   UNL A   1      39.580  18.319  25.929  1.00  0.00     0.163 HD
ATOM     57  O   UNL A   1      42.005  18.235  26.021  1.00  0.00    -0.269 OA
BRANCH  55  58
ATOM     58  C   UNL A   1      42.003  20.549  26.400  1.00  0.00     0.039 A 
ATOM     59  C   UNL A   1      42.347  21.376  25.329  1.00  0.00    -0.049 A 
ATOM     60  C   UNL A   1      42.281  20.945  27.713  1.00  0.00    -0.049 A 
ATOM     61  C   UNL A   1      42.902  22.632  25.576  1.00  0.00    -0.053 A 
ATOM     62  H   UNL A   1      42.191  21.060  24.360  1.00  0.00     0.063 H 
ATOM     63  C   UNL A   1      42.771  22.225  27.960  1.00  0.00    -0.053 A 
ATOM     64  H   UNL A   1      42.125  20.290  28.495  1.00  0.00     0.063 H 
ATOM     65  C   UNL A   1      43.077  23.085  26.895  1.00  0.00    -0.014 A 
ATOM     66  H   UNL A   1      43.185  23.233  24.786  1.00  0.00     0.063 H 
ATOM     67  H   UNL A   1      42.909  22.543  28.932  1.00  0.00     0.063 H 
BRANCH  65  68
ATOM     68  C   UNL A   1      43.537  24.470  27.172  1.00  0.00     0.031 A 
ATOM     69  C   UNL A   1      42.577  25.507  27.684  1.00  0.00     0.074 A 
ATOM     70  C   UNL A   1      44.813  24.807  26.895  1.00  0.00     0.049 A 
ATOM     71  N   UNL A   1      42.783  26.777  27.922  1.00  0.00    -0.248 NA
ATOM     72  C   UNL A   1      41.197  25.066  27.942  1.00  0.00    -0.034 C 
ATOM     73  C   UNL A   1      45.826  23.902  26.346  1.00  0.00    -0.036 A 
ATOM     74  N   UNL A   1      45.474  26.004  27.023  1.00  0.00    -0.354 N 
ATOM     75  C   UNL A   1      41.564  27.288  28.345  1.00  0.00     0.074 A 
ATOM     76  C   UNL A   1      40.609  26.202  28.292  1.00  0.00    -0.034 C 
ATOM     77  H   UNL A   1      40.792  24.119  27.871  1.00  0.00     0.065 H 
ATOM     78  C   UNL A   1      46.981  24.569  26.200  1.00  0.00    -0.036 A 
ATOM     79  H   UNL A   1      45.675  22.909  26.110  1.00  0.00     0.065 H 
ATOM     80  C   UNL A   1      46.782  25.958  26.602  1.00  0.00     0.049 A 
ATOM     81  H   UNL A   1      45.052  26.817  27.381  1.00  0.00     0.167 HD
ATOM     82  C   UNL A   1      41.274  28.545  28.758  1.00  0.00     0.037 A 
ATOM     83  H   UNL A   1      39.603  26.299  28.500  1.00  0.00     0.065 H 
ATOM     84  H   UNL A   1      47.867  24.166  25.858  1.00  0.00     0.065 H 
ATOM     85  C   UNL A   1      47.711  26.931  26.532  1.00  0.00     0.037 A 
ATOM     86  C   UNL A   1      42.235  29.615  28.836  1.00  0.00     0.049 A 
ATOM     87  C   UNL A   1      47.352  28.320  26.988  1.00  0.00     0.074 A 
ATOM     88  C   UNL A   1      42.053  30.900  29.319  1.00  0.00    -0.036 A 
ATOM     89  N   UNL A   1      43.553  29.528  28.415  1.00  0.00    -0.354 N 
ATOM     90  N   UNL A   1      46.218  28.767  27.471  1.00  0.00    -0.248 NA
ATOM     91  C   UNL A   1      48.404  29.343  26.889  1.00  0.00    -0.034 C 
ATOM     92  C   UNL A   1      43.244  31.609  29.135  1.00  0.00    -0.036 A 
ATOM     93  H   UNL A   1      41.188  31.270  29.742  1.00  0.00     0.065 H 
ATOM     94  C   UNL A   1      44.185  30.749  28.592  1.00  0.00     0.049 A 
ATOM     95  H   UNL A   1      43.976  28.720  28.044  1.00  0.00     0.167 HD
ATOM     96  C   UNL A   1      46.429  30.108  27.760  1.00  0.00     0.074 A 
ATOM     97  C   UNL A   1      47.805  30.398  27.419  1.00  0.00    -0.034 C 
ATOM     98  H   UNL A   1      49.360  29.259  26.508  1.00  0.00     0.065 H 
ATOM     99  H   UNL A   1      43.397  32.603  29.364  1.00  0.00     0.065 H 
ATOM    100  C   UNL A   1      45.559  31.021  28.255  1.00  0.00     0.037 A 
ATOM    101  H   UNL A   1      48.262  31.311  27.571  1.00  0.00     0.065 H 
BRANCH  82 102
ATOM    102  C   UNL A   1      39.862  28.847  29.166  1.00  0.00     0.064 A 
ATOM    103  C   UNL A   1      38.905  29.281  28.236  1.00  0.00     0.173 A 
ATOM    104  C   UNL A   1      39.438  28.610  30.482  1.00  0.00     0.173 A 
ATOM    105  F   UNL A   1      39.260  29.530  26.967  1.00  0.00    -0.203 F 
ATOM    106  C   UNL A   1      37.578  29.475  28.613  1.00  0.00     0.198 A 
ATOM    107  C   UNL A   1      38.107  28.778  30.849  1.00  0.00     0.198 A 
ATOM    108  F   UNL A   1      40.314  28.188  31.408  1.00  0.00    -0.203 F 
ATOM    109  F   UNL A   1      36.686  29.915  27.715  1.00  0.00    -0.200 F 
ATOM    110  C   UNL A   1      37.178  29.212  29.915  1.00  0.00     0.200 A 
ATOM    111  F   UNL A   1      37.719  28.509  32.103  1.00  0.00    -0.200 F 
ATOM    112  F   UNL A   1      35.896  29.378  30.270  1.00  0.00    -0.200 F 
ENDBRANCH  82 102
BRANCH  85 113
ATOM    113  C   UNL A   1      49.071  26.636  26.004  1.00  0.00     0.064 A 
ATOM    114  C   UNL A   1      50.064  26.088  26.830  1.00  0.00     0.173 A 
ATOM    115  C   UNL A   1      49.419  26.937  24.680  1.00  0.00     0.173 A 
ATOM    116  F   UNL A   1      49.788  25.802  28.110  1.00  0.00    -0.203 F 
ATOM    117  C   UNL A   1      51.360  25.888  26.360  1.00  0.00     0.198 A 
ATOM    118  C   UNL A   1      50.707  26.702  24.202  1.00  0.00     0.198 A 
ATOM    119  F   UNL A   1      48.507  27.458  23.846  1.00  0.00    -0.203 F 
ATOM    120  F   UNL A   1      52.306  25.426  27.190  1.00  0.00    -0.200 F 
ATOM    121  C   UNL A   1      51.681  26.192  25.046  1.00  0.00     0.200 A 
ATOM    122  F   UNL A   1      51.007  26.984  22.926  1.00  0.00    -0.200 F 
ATOM    123  F   UNL A   1      52.929  26.005  24.598  1.00  0.00    -0.200 F 
ENDBRANCH  85 113
BRANCH 100 124
ATOM    124  C   UNL A   1      46.076  32.411  28.487  1.00  0.00     0.064 A 
ATOM    125  C   UNL A   1      45.979  33.406  27.504  1.00  0.00     0.173 A 
ATOM    126  C   UNL A   1      46.648  32.762  29.721  1.00  0.00     0.173 A 
ATOM    127  F   UNL A   1      45.454  33.118  26.302  1.00  0.00    -0.203 F 
ATOM    128  C   UNL A   1      46.459  34.692  27.735  1.00  0.00     0.198 A 
ATOM    129  C   UNL A   1      47.096  34.057  29.960  1.00  0.00     0.198 A 
ATOM    130  F   UNL A   1      46.760  31.849  30.698  1.00  0.00    -0.203 F 
ATOM    131  F   UNL A   1      46.403  35.611  26.762  1.00  0.00    -0.200 F 
ATOM    132  C   UNL A   1      47.010  35.018  28.965  1.00  0.00     0.200 A 
ATOM    133  F   UNL A   1      47.613  34.375  31.156  1.00  0.00    -0.200 F 
ATOM    134  F   UNL A   1      47.465  36.259  29.189  1.00  0.00    -0.200 F 
ENDBRANCH 100 124
ENDBRANCH  65  68
ENDBRANCH  55  58
ENDBRANCH  51  54
ENDBRANCH  48  51
ENDBRANCH  45  48
ENDBRANCH   1  45
TORSDOF 17
ENDMDL
