MODEL 1
REMARK VINA RESULT:     -10.4      0.000      0.000
REMARK SMILES CCCCCCOC(=O)Nc1cccc(-c2ccc([C@@H](C)C(=O)NCCCCCCNC(=O)c3ccc(-c4c5nc(c(-c6c(F)c(F)c(F)c(F)c6F)c6ccc([nH]6)c(-c6c(F)c(F)c(F)c(F)c6F)c6nc(c(-c7c(F)c(F)c(F)c(F)c7F)c7ccc4[nH]7)C=C6)C=C5)cc3)cc2F)c1
REMARK SMILES IDX 22 1 23 2 24 3 20 5 19 7 16 8 17 9 98 10 18 11 97 13 99 14
REMARK SMILES IDX 15 17 11 18 12 19 100 20 13 21 14 24 10 27 8 28 9 29 7 31
REMARK SMILES IDX 6 32 5 35 4 38 3 41 2 44 1 47 21 51 25 55 26 58 27 61 28 64
REMARK SMILES IDX 29 67 30 70 31 73 32 74 33 76 34 77 35 78 96 79 36 80 95 82
REMARK SMILES IDX 37 84 38 87 39 88 89 89 40 90 94 91 88 92 90 93 41 94 93 95
REMARK SMILES IDX 87 97 86 99 42 101 74 104 54 105 73 106 55 107 58 108 72 109
REMARK SMILES IDX 91 110 56 111 57 113 71 115 92 116 59 119 43 121 44 122
REMARK SMILES IDX 52 123 45 124 46 125 50 126 53 127 47 128 48 129 51 130
REMARK SMILES IDX 49 131 75 132 76 133 84 134 77 135 78 136 82 137 85 138
REMARK SMILES IDX 79 139 80 140 83 141 81 142 60 143 61 144 69 145 62 146
REMARK SMILES IDX 63 147 67 148 70 149 64 150 65 151 68 152 66 153
REMARK H PARENT 24 4 20 6 17 12 18 15 97 16 12 22 100 23 13 25 14 26 10 30
REMARK H PARENT 6 33 6 34 5 36 5 37 4 39 4 40 3 42 3 43 2 45 2 46 1 48 1 49
REMARK H PARENT 1 50 21 52 21 53 21 54 25 56 25 57 26 59 26 60 27 62 27 63
REMARK H PARENT 28 65 28 66 29 68 29 69 30 71 30 72 31 75 35 81 96 83 36 85
REMARK H PARENT 95 86 94 96 88 98 90 100 93 102 87 103 55 112 58 114 91 117
REMARK H PARENT 56 118 92 120
REMARK Flexibility Score: inf
ROOT
ATOM      1  C   UNL A   1      28.345  31.320  23.544  1.00  0.00     0.227 C 
ATOM      2  O   UNL A   1      27.133  31.546  23.646  1.00  0.00    -0.274 OA
ATOM      3  N   UNL A   1      29.129  31.752  24.568  1.00  0.00    -0.356 N 
ATOM      4  H   UNL A   1      28.630  32.129  25.328  1.00  0.00     0.163 HD
ENDROOT
BRANCH   1   5
ATOM      5  C   UNL A   1      28.884  30.573  22.315  1.00  0.00     0.060 C 
ATOM      6  H   UNL A   1      29.819  31.038  22.081  1.00  0.00     0.045 H 
BRANCH   5   7
ATOM      7  C   UNL A   1      29.278  29.132  22.600  1.00  0.00    -0.033 A 
ATOM      8  C   UNL A   1      30.179  26.500  23.257  1.00  0.00     0.018 A 
ATOM      9  C   UNL A   1      28.891  26.936  23.594  1.00  0.00    -0.051 A 
ATOM     10  C   UNL A   1      30.980  27.398  22.531  1.00  0.00     0.131 A 
ATOM     11  C   UNL A   1      28.439  28.215  23.244  1.00  0.00    -0.057 A 
ATOM     12  H   UNL A   1      28.263  26.301  24.111  1.00  0.00     0.063 H 
ATOM     13  C   UNL A   1      30.554  28.692  22.227  1.00  0.00    -0.022 A 
ATOM     14  F   UNL A   1      32.201  27.035  22.108  1.00  0.00    -0.206 F 
ATOM     15  H   UNL A   1      27.469  28.486  23.466  1.00  0.00     0.063 H 
ATOM     16  H   UNL A   1      31.186  29.331  21.721  1.00  0.00     0.066 H 
BRANCH   8  17
ATOM     17  C   UNL A   1      30.672  25.173  23.679  1.00  0.00    -0.013 A 
ATOM     18  C   UNL A   1      31.343  23.651  25.477  1.00  0.00     0.045 A 
ATOM     19  C   UNL A   1      31.712  22.689  24.543  1.00  0.00    -0.038 A 
ATOM     20  C   UNL A   1      30.821  24.874  25.042  1.00  0.00    -0.030 A 
ATOM     21  C   UNL A   1      31.513  22.935  23.186  1.00  0.00    -0.060 A 
ATOM     22  H   UNL A   1      32.129  21.797  24.853  1.00  0.00     0.064 H 
ATOM     23  H   UNL A   1      30.538  25.576  25.744  1.00  0.00     0.065 H 
ATOM     24  C   UNL A   1      31.006  24.167  22.758  1.00  0.00    -0.054 A 
ATOM     25  H   UNL A   1      31.741  22.204  22.493  1.00  0.00     0.062 H 
ATOM     26  H   UNL A   1      30.876  24.339  21.750  1.00  0.00     0.063 H 
BRANCH  18  27
ATOM     27  N   UNL A   1      31.602  23.416  26.834  1.00  0.00    -0.291 N 
ATOM     28  C   UNL A   1      32.827  23.196  27.410  1.00  0.00     0.411 C 
ATOM     29  O   UNL A   1      32.937  22.567  28.448  1.00  0.00    -0.224 OA
ATOM     30  H   UNL A   1      30.823  23.407  27.436  1.00  0.00     0.173 HD
BRANCH  28  31
ATOM     31  O   UNL A   1      33.829  23.856  26.771  1.00  0.00    -0.449 OA
BRANCH  31  32
ATOM     32  C   UNL A   1      34.952  23.100  26.294  1.00  0.00     0.093 C 
ATOM     33  H   UNL A   1      35.735  23.148  27.021  1.00  0.00     0.071 H 
ATOM     34  H   UNL A   1      34.628  22.092  26.139  1.00  0.00     0.071 H 
BRANCH  32  35
ATOM     35  C   UNL A   1      35.482  23.634  24.959  1.00  0.00    -0.019 C 
ATOM     36  H   UNL A   1      34.679  23.615  24.254  1.00  0.00     0.030 H 
ATOM     37  H   UNL A   1      35.854  24.616  25.165  1.00  0.00     0.030 H 
BRANCH  35  38
ATOM     38  C   UNL A   1      36.659  22.858  24.355  1.00  0.00    -0.050 C 
ATOM     39  H   UNL A   1      36.392  22.574  23.359  1.00  0.00     0.027 H 
ATOM     40  H   UNL A   1      37.504  23.512  24.397  1.00  0.00     0.027 H 
BRANCH  38  41
ATOM     41  C   UNL A   1      37.059  21.590  25.122  1.00  0.00    -0.053 C 
ATOM     42  H   UNL A   1      36.426  21.507  25.980  1.00  0.00     0.027 H 
ATOM     43  H   UNL A   1      36.949  20.777  24.434  1.00  0.00     0.027 H 
BRANCH  41  44
ATOM     44  C   UNL A   1      38.510  21.557  25.597  1.00  0.00    -0.056 C 
ATOM     45  H   UNL A   1      38.632  20.731  26.267  1.00  0.00     0.026 H 
ATOM     46  H   UNL A   1      39.133  21.460  24.733  1.00  0.00     0.026 H 
BRANCH  44  47
ATOM     47  C   UNL A   1      38.918  22.831  26.317  1.00  0.00    -0.065 C 
ATOM     48  H   UNL A   1      38.051  23.433  26.497  1.00  0.00     0.023 H 
ATOM     49  H   UNL A   1      39.610  23.377  25.710  1.00  0.00     0.023 H 
ATOM     50  H   UNL A   1      39.380  22.582  27.249  1.00  0.00     0.023 H 
ENDBRANCH  44  47
ENDBRANCH  41  44
ENDBRANCH  38  41
ENDBRANCH  35  38
ENDBRANCH  32  35
ENDBRANCH  31  32
ENDBRANCH  28  31
ENDBRANCH  18  27
ENDBRANCH   8  17
ENDBRANCH   5   7
BRANCH   5  51
ATOM     51  C   UNL A   1      28.069  30.804  21.043  1.00  0.00    -0.049 C 
ATOM     52  H   UNL A   1      28.166  31.826  20.737  1.00  0.00     0.024 H 
ATOM     53  H   UNL A   1      27.040  30.585  21.234  1.00  0.00     0.024 H 
ATOM     54  H   UNL A   1      28.431  30.164  20.266  1.00  0.00     0.024 H 
ENDBRANCH   5  51
ENDBRANCH   1   5
BRANCH   3  55
ATOM     55  C   UNL A   1      30.565  31.756  24.739  1.00  0.00     0.017 C 
ATOM     56  H   UNL A   1      30.897  32.766  24.863  1.00  0.00     0.049 H 
ATOM     57  H   UNL A   1      31.006  31.312  23.871  1.00  0.00     0.049 H 
BRANCH  55  58
ATOM     58  C   UNL A   1      30.991  30.941  25.962  1.00  0.00    -0.036 C 
ATOM     59  H   UNL A   1      30.174  30.916  26.653  1.00  0.00     0.028 H 
ATOM     60  H   UNL A   1      31.856  31.419  26.372  1.00  0.00     0.028 H 
BRANCH  58  61
ATOM     61  C   UNL A   1      31.390  29.499  25.632  1.00  0.00    -0.052 C 
ATOM     62  H   UNL A   1      32.260  29.529  25.010  1.00  0.00     0.027 H 
ATOM     63  H   UNL A   1      30.542  29.055  25.155  1.00  0.00     0.027 H 
BRANCH  61  64
ATOM     64  C   UNL A   1      31.706  28.620  26.850  1.00  0.00    -0.052 C 
ATOM     65  H   UNL A   1      30.909  27.916  26.965  1.00  0.00     0.027 H 
ATOM     66  H   UNL A   1      31.810  29.290  27.678  1.00  0.00     0.027 H 
BRANCH  64  67
ATOM     67  C   UNL A   1      33.020  27.838  26.774  1.00  0.00    -0.036 C 
ATOM     68  H   UNL A   1      32.966  27.176  25.935  1.00  0.00     0.028 H 
ATOM     69  H   UNL A   1      33.122  27.325  27.707  1.00  0.00     0.028 H 
BRANCH  67  70
ATOM     70  C   UNL A   1      34.268  28.704  26.619  1.00  0.00     0.018 C 
ATOM     71  H   UNL A   1      34.448  28.868  25.576  1.00  0.00     0.049 H 
ATOM     72  H   UNL A   1      35.089  28.189  27.073  1.00  0.00     0.049 H 
BRANCH  70  73
ATOM     73  N   UNL A   1      34.117  29.990  27.280  1.00  0.00    -0.352 N 
ATOM     74  C   UNL A   1      34.923  30.602  28.207  1.00  0.00     0.251 C 
ATOM     75  H   UNL A   1      33.316  30.500  27.022  1.00  0.00     0.163 HD
ATOM     76  O   UNL A   1      34.515  31.576  28.832  1.00  0.00    -0.269 OA
BRANCH  74  77
ATOM     77  C   UNL A   1      36.284  30.086  28.464  1.00  0.00     0.039 A 
ATOM     78  C   UNL A   1      37.256  30.217  27.469  1.00  0.00    -0.049 A 
ATOM     79  C   UNL A   1      36.592  29.445  29.668  1.00  0.00    -0.049 A 
ATOM     80  C   UNL A   1      38.555  29.762  27.706  1.00  0.00    -0.053 A 
ATOM     81  H   UNL A   1      37.016  30.649  26.563  1.00  0.00     0.063 H 
ATOM     82  C   UNL A   1      37.903  29.052  29.928  1.00  0.00    -0.053 A 
ATOM     83  H   UNL A   1      35.851  29.264  30.362  1.00  0.00     0.063 H 
ATOM     84  C   UNL A   1      38.897  29.208  28.950  1.00  0.00    -0.014 A 
ATOM     85  H   UNL A   1      39.267  29.834  26.962  1.00  0.00     0.063 H 
ATOM     86  H   UNL A   1      38.144  28.645  30.845  1.00  0.00     0.063 H 
BRANCH  84  87
ATOM     87  C   UNL A   1      40.292  28.800  29.252  1.00  0.00     0.031 A 
ATOM     88  C   UNL A   1      41.208  29.723  30.004  1.00  0.00     0.074 A 
ATOM     89  C   UNL A   1      40.750  27.622  28.786  1.00  0.00     0.049 A 
ATOM     90  N   UNL A   1      42.476  29.573  30.298  1.00  0.00    -0.248 NA
ATOM     91  C   UNL A   1      40.632  30.994  30.467  1.00  0.00    -0.034 C 
ATOM     92  C   UNL A   1      39.971  26.662  28.004  1.00  0.00    -0.036 A 
ATOM     93  N   UNL A   1      41.988  27.038  28.889  1.00  0.00    -0.354 N 
ATOM     94  C   UNL A   1      42.849  30.731  30.966  1.00  0.00     0.074 A 
ATOM     95  C   UNL A   1      41.689  31.596  30.991  1.00  0.00    -0.034 C 
ATOM     96  H   UNL A   1      39.658  31.329  30.401  1.00  0.00     0.065 H 
ATOM     97  C   UNL A   1      40.740  25.601  27.715  1.00  0.00    -0.036 A 
ATOM     98  H   UNL A   1      38.985  26.782  27.720  1.00  0.00     0.065 H 
ATOM     99  C   UNL A   1      42.078  25.822  28.255  1.00  0.00     0.049 A 
ATOM    100  H   UNL A   1      42.741  27.451  29.372  1.00  0.00     0.167 HD
ATOM    101  C   UNL A   1      44.044  31.034  31.527  1.00  0.00     0.037 A 
ATOM    102  H   UNL A   1      41.687  32.557  31.368  1.00  0.00     0.065 H 
ATOM    103  H   UNL A   1      40.435  24.764  27.195  1.00  0.00     0.065 H 
ATOM    104  C   UNL A   1      43.124  24.987  28.117  1.00  0.00     0.037 A 
ATOM    105  C   UNL A   1      45.188  30.160  31.517  1.00  0.00     0.049 A 
ATOM    106  C   UNL A   1      44.443  25.354  28.737  1.00  0.00     0.074 A 
ATOM    107  C   UNL A   1      46.424  30.348  32.112  1.00  0.00    -0.036 A 
ATOM    108  N   UNL A   1      45.239  28.932  30.873  1.00  0.00    -0.354 N 
ATOM    109  N   UNL A   1      44.765  26.422  29.427  1.00  0.00    -0.248 NA
ATOM    110  C   UNL A   1      45.546  24.399  28.562  1.00  0.00    -0.034 C 
ATOM    111  C   UNL A   1      47.238  29.259  31.787  1.00  0.00    -0.036 A 
ATOM    112  H   UNL A   1      46.697  31.155  32.697  1.00  0.00     0.065 H 
ATOM    113  C   UNL A   1      46.493  28.365  31.033  1.00  0.00     0.049 A 
ATOM    114  H   UNL A   1      44.493  28.524  30.376  1.00  0.00     0.167 HD
ATOM    115  C   UNL A   1      46.094  26.256  29.789  1.00  0.00     0.074 A 
ATOM    116  C   UNL A   1      46.515  24.976  29.258  1.00  0.00    -0.034 C 
ATOM    117  H   UNL A   1      45.561  23.511  28.036  1.00  0.00     0.065 H 
ATOM    118  H   UNL A   1      48.225  29.140  32.062  1.00  0.00     0.065 H 
ATOM    119  C   UNL A   1      46.897  27.090  30.496  1.00  0.00     0.037 A 
ATOM    120  H   UNL A   1      47.451  24.566  29.402  1.00  0.00     0.065 H 
BRANCH 101 121
ATOM    121  C   UNL A   1      44.178  32.370  32.201  1.00  0.00     0.064 A 
ATOM    122  C   UNL A   1      43.829  32.553  33.548  1.00  0.00     0.173 A 
ATOM    123  C   UNL A   1      44.699  33.471  31.505  1.00  0.00     0.173 A 
ATOM    124  F   UNL A   1      43.317  31.535  34.257  1.00  0.00    -0.203 F 
ATOM    125  C   UNL A   1      43.970  33.794  34.164  1.00  0.00     0.198 A 
ATOM    126  C   UNL A   1      44.868  34.703  32.132  1.00  0.00     0.198 A 
ATOM    127  F   UNL A   1      45.054  33.350  30.216  1.00  0.00    -0.203 F 
ATOM    128  F   UNL A   1      43.585  33.956  35.437  1.00  0.00    -0.200 F 
ATOM    129  C   UNL A   1      44.496  34.866  33.458  1.00  0.00     0.200 A 
ATOM    130  F   UNL A   1      45.389  35.733  31.452  1.00  0.00    -0.200 F 
ATOM    131  F   UNL A   1      44.639  36.057  34.054  1.00  0.00    -0.200 F 
ENDBRANCH 101 121
BRANCH 104 132
ATOM    132  C   UNL A   1      42.959  23.711  27.372  1.00  0.00     0.064 A 
ATOM    133  C   UNL A   1      42.401  22.584  27.990  1.00  0.00     0.173 A 
ATOM    134  C   UNL A   1      43.357  23.591  26.032  1.00  0.00     0.173 A 
ATOM    135  F   UNL A   1      42.025  22.644  29.277  1.00  0.00    -0.203 F 
ATOM    136  C   UNL A   1      42.265  21.380  27.304  1.00  0.00     0.198 A 
ATOM    137  C   UNL A   1      43.193  22.394  25.338  1.00  0.00     0.198 A 
ATOM    138  F   UNL A   1      43.891  24.641  25.392  1.00  0.00    -0.203 F 
ATOM    139  F   UNL A   1      41.770  20.305  27.934  1.00  0.00    -0.200 F 
ATOM    140  C   UNL A   1      42.655  21.286  25.977  1.00  0.00     0.200 A 
ATOM    141  F   UNL A   1      43.556  22.313  24.051  1.00  0.00    -0.200 F 
ATOM    142  F   UNL A   1      42.518  20.130  25.315  1.00  0.00    -0.200 F 
ENDBRANCH 104 132
BRANCH 119 143
ATOM    143  C   UNL A   1      48.303  26.633  30.755  1.00  0.00     0.064 A 
ATOM    144  C   UNL A   1      48.623  25.822  31.853  1.00  0.00     0.173 A 
ATOM    145  C   UNL A   1      49.337  26.984  29.873  1.00  0.00     0.173 A 
ATOM    146  F   UNL A   1      47.673  25.474  32.734  1.00  0.00    -0.203 F 
ATOM    147  C   UNL A   1      49.932  25.401  32.075  1.00  0.00     0.198 A 
ATOM    148  C   UNL A   1      50.639  26.534  30.080  1.00  0.00     0.198 A 
ATOM    149  F   UNL A   1      49.084  27.753  28.803  1.00  0.00    -0.203 F 
ATOM    150  F   UNL A   1      50.223  24.668  33.159  1.00  0.00    -0.200 F 
ATOM    151  C   UNL A   1      50.936  25.751  31.185  1.00  0.00     0.200 A 
ATOM    152  F   UNL A   1      51.605  26.862  29.212  1.00  0.00    -0.200 F 
ATOM    153  F   UNL A   1      52.193  25.338  31.396  1.00  0.00    -0.200 F 
ENDBRANCH 119 143
ENDBRANCH  84  87
ENDBRANCH  74  77
ENDBRANCH  70  73
ENDBRANCH  67  70
ENDBRANCH  64  67
ENDBRANCH  61  64
ENDBRANCH  58  61
ENDBRANCH  55  58
ENDBRANCH   3  55
TORSDOF 24
ENDMDL
MODEL 2
REMARK VINA RESULT:     -10.4      3.955      9.170
REMARK SMILES CCCCCCOC(=O)Nc1cccc(-c2ccc([C@@H](C)C(=O)NCCCCCCNC(=O)c3ccc(-c4c5nc(c(-c6c(F)c(F)c(F)c(F)c6F)c6ccc([nH]6)c(-c6c(F)c(F)c(F)c(F)c6F)c6nc(c(-c7c(F)c(F)c(F)c(F)c7F)c7ccc4[nH]7)C=C6)C=C5)cc3)cc2F)c1
REMARK SMILES IDX 22 1 23 2 24 3 20 5 19 7 16 8 17 9 98 10 18 11 97 13 99 14
REMARK SMILES IDX 15 17 11 18 12 19 100 20 13 21 14 24 10 27 8 28 9 29 7 31
REMARK SMILES IDX 6 32 5 35 4 38 3 41 2 44 1 47 21 51 25 55 26 58 27 61 28 64
REMARK SMILES IDX 29 67 30 70 31 73 32 74 33 76 34 77 35 78 96 79 36 80 95 82
REMARK SMILES IDX 37 84 38 87 39 88 89 89 40 90 94 91 88 92 90 93 41 94 93 95
REMARK SMILES IDX 87 97 86 99 42 101 74 104 54 105 73 106 55 107 58 108 72 109
REMARK SMILES IDX 91 110 56 111 57 113 71 115 92 116 59 119 43 121 44 122
REMARK SMILES IDX 52 123 45 124 46 125 50 126 53 127 47 128 48 129 51 130
REMARK SMILES IDX 49 131 75 132 76 133 84 134 77 135 78 136 82 137 85 138
REMARK SMILES IDX 79 139 80 140 83 141 81 142 60 143 61 144 69 145 62 146
REMARK SMILES IDX 63 147 67 148 70 149 64 150 65 151 68 152 66 153
REMARK H PARENT 24 4 20 6 17 12 18 15 97 16 12 22 100 23 13 25 14 26 10 30
REMARK H PARENT 6 33 6 34 5 36 5 37 4 39 4 40 3 42 3 43 2 45 2 46 1 48 1 49
REMARK H PARENT 1 50 21 52 21 53 21 54 25 56 25 57 26 59 26 60 27 62 27 63
REMARK H PARENT 28 65 28 66 29 68 29 69 30 71 30 72 31 75 35 81 96 83 36 85
REMARK H PARENT 95 86 94 96 88 98 90 100 93 102 87 103 55 112 58 114 91 117
REMARK H PARENT 56 118 92 120
REMARK Flexibility Score: inf
ROOT
ATOM      1  C   UNL A   1      31.272  25.408  26.167  1.00  0.00     0.227 C 
ATOM      2  O   UNL A   1      30.651  24.579  26.844  1.00  0.00    -0.274 OA
ATOM      3  N   UNL A   1      31.494  26.618  26.748  1.00  0.00    -0.356 N 
ATOM      4  H   UNL A   1      31.205  26.675  27.687  1.00  0.00     0.163 HD
ENDROOT
BRANCH   1   5
ATOM      5  C   UNL A   1      31.759  25.036  24.759  1.00  0.00     0.060 C 
ATOM      6  H   UNL A   1      32.091  25.952  24.317  1.00  0.00     0.045 H 
BRANCH   5   7
ATOM      7  C   UNL A   1      33.016  24.179  24.755  1.00  0.00    -0.033 A 
ATOM      8  C   UNL A   1      35.374  22.576  24.960  1.00  0.00     0.018 A 
ATOM      9  C   UNL A   1      34.217  22.095  24.333  1.00  0.00    -0.051 A 
ATOM     10  C   UNL A   1      35.335  23.901  25.427  1.00  0.00     0.131 A 
ATOM     11  C   UNL A   1      33.072  22.893  24.205  1.00  0.00    -0.057 A 
ATOM     12  H   UNL A   1      34.208  21.134  23.959  1.00  0.00     0.063 H 
ATOM     13  C   UNL A   1      34.181  24.681  25.350  1.00  0.00    -0.022 A 
ATOM     14  F   UNL A   1      36.424  24.463  25.977  1.00  0.00    -0.206 F 
ATOM     15  H   UNL A   1      32.254  22.524  23.696  1.00  0.00     0.063 H 
ATOM     16  H   UNL A   1      34.184  25.637  25.735  1.00  0.00     0.066 H 
BRANCH   8  17
ATOM     17  C   UNL A   1      36.558  21.712  25.145  1.00  0.00    -0.013 A 
ATOM     18  C   UNL A   1      38.919  21.478  25.753  1.00  0.00     0.045 A 
ATOM     19  C   UNL A   1      38.887  20.130  25.415  1.00  0.00    -0.038 A 
ATOM     20  C   UNL A   1      37.761  22.252  25.625  1.00  0.00    -0.030 A 
ATOM     21  C   UNL A   1      37.688  19.553  24.997  1.00  0.00    -0.060 A 
ATOM     22  H   UNL A   1      39.744  19.559  25.474  1.00  0.00     0.064 H 
ATOM     23  H   UNL A   1      37.792  23.249  25.892  1.00  0.00     0.065 H 
ATOM     24  C   UNL A   1      36.539  20.338  24.855  1.00  0.00    -0.054 A 
ATOM     25  H   UNL A   1      37.650  18.542  24.791  1.00  0.00     0.062 H 
ATOM     26  H   UNL A   1      35.662  19.900  24.533  1.00  0.00     0.063 H 
BRANCH  18  27
ATOM     27  N   UNL A   1      40.141  22.060  26.115  1.00  0.00    -0.291 N 
ATOM     28  C   UNL A   1      40.898  21.761  27.219  1.00  0.00     0.411 C 
ATOM     29  O   UNL A   1      41.663  22.576  27.705  1.00  0.00    -0.224 OA
ATOM     30  H   UNL A   1      40.493  22.757  25.515  1.00  0.00     0.173 HD
BRANCH  28  31
ATOM     31  O   UNL A   1      40.784  20.458  27.591  1.00  0.00    -0.449 OA
BRANCH  31  32
ATOM     32  C   UNL A   1      41.933  19.607  27.466  1.00  0.00     0.093 C 
ATOM     33  H   UNL A   1      42.710  19.979  28.101  1.00  0.00     0.071 H 
ATOM     34  H   UNL A   1      41.641  18.617  27.749  1.00  0.00     0.071 H 
BRANCH  32  35
ATOM     35  C   UNL A   1      42.455  19.550  26.027  1.00  0.00    -0.019 C 
ATOM     36  H   UNL A   1      41.618  19.408  25.378  1.00  0.00     0.030 H 
ATOM     37  H   UNL A   1      42.974  20.472  25.868  1.00  0.00     0.030 H 
BRANCH  35  38
ATOM     38  C   UNL A   1      43.473  18.441  25.734  1.00  0.00    -0.050 C 
ATOM     39  H   UNL A   1      43.918  18.147  26.661  1.00  0.00     0.027 H 
ATOM     40  H   UNL A   1      42.929  17.653  25.257  1.00  0.00     0.027 H 
BRANCH  38  41
ATOM     41  C   UNL A   1      44.598  18.834  24.768  1.00  0.00    -0.053 C 
ATOM     42  H   UNL A   1      45.052  17.937  24.404  1.00  0.00     0.027 H 
ATOM     43  H   UNL A   1      44.141  19.420  23.998  1.00  0.00     0.027 H 
BRANCH  41  44
ATOM     44  C   UNL A   1      45.694  19.706  25.377  1.00  0.00    -0.056 C 
ATOM     45  H   UNL A   1      45.540  19.760  26.435  1.00  0.00     0.026 H 
ATOM     46  H   UNL A   1      46.636  19.258  25.138  1.00  0.00     0.026 H 
BRANCH  44  47
ATOM     47  C   UNL A   1      45.700  21.117  24.813  1.00  0.00    -0.065 C 
ATOM     48  H   UNL A   1      45.038  21.734  25.386  1.00  0.00     0.023 H 
ATOM     49  H   UNL A   1      45.373  21.095  23.795  1.00  0.00     0.023 H 
ATOM     50  H   UNL A   1      46.691  21.516  24.862  1.00  0.00     0.023 H 
ENDBRANCH  44  47
ENDBRANCH  41  44
ENDBRANCH  38  41
ENDBRANCH  35  38
ENDBRANCH  32  35
ENDBRANCH  31  32
ENDBRANCH  28  31
ENDBRANCH  18  27
ENDBRANCH   8  17
ENDBRANCH   5   7
BRANCH   5  51
ATOM     51  C   UNL A   1      30.644  24.592  23.814  1.00  0.00    -0.049 C 
ATOM     52  H   UNL A   1      30.014  25.427  23.588  1.00  0.00     0.024 H 
ATOM     53  H   UNL A   1      30.064  23.825  24.283  1.00  0.00     0.024 H 
ATOM     54  H   UNL A   1      31.072  24.213  22.910  1.00  0.00     0.024 H 
ENDBRANCH   5  51
ENDBRANCH   1   5
BRANCH   3  55
ATOM     55  C   UNL A   1      32.078  27.836  26.230  1.00  0.00     0.017 C 
ATOM     56  H   UNL A   1      31.326  28.384  25.701  1.00  0.00     0.049 H 
ATOM     57  H   UNL A   1      32.884  27.569  25.580  1.00  0.00     0.049 H 
BRANCH  55  58
ATOM     58  C   UNL A   1      32.637  28.715  27.351  1.00  0.00    -0.036 C 
ATOM     59  H   UNL A   1      32.848  28.093  28.195  1.00  0.00     0.028 H 
ATOM     60  H   UNL A   1      31.897  29.456  27.566  1.00  0.00     0.028 H 
BRANCH  58  61
ATOM     61  C   UNL A   1      33.919  29.460  26.967  1.00  0.00    -0.052 C 
ATOM     62  H   UNL A   1      33.919  29.597  25.905  1.00  0.00     0.027 H 
ATOM     63  H   UNL A   1      34.731  28.858  27.316  1.00  0.00     0.027 H 
BRANCH  61  64
ATOM     64  C   UNL A   1      34.091  30.836  27.625  1.00  0.00    -0.052 C 
ATOM     65  H   UNL A   1      35.139  31.034  27.708  1.00  0.00     0.027 H 
ATOM     66  H   UNL A   1      33.588  30.775  28.568  1.00  0.00     0.027 H 
BRANCH  64  67
ATOM     67  C   UNL A   1      33.446  32.007  26.878  1.00  0.00    -0.036 C 
ATOM     68  H   UNL A   1      33.226  31.686  25.882  1.00  0.00     0.028 H 
ATOM     69  H   UNL A   1      34.148  32.813  26.914  1.00  0.00     0.028 H 
BRANCH  67  70
ATOM     70  C   UNL A   1      32.156  32.529  27.506  1.00  0.00     0.018 C 
ATOM     71  H   UNL A   1      32.046  32.099  28.480  1.00  0.00     0.049 H 
ATOM     72  H   UNL A   1      31.341  32.252  26.871  1.00  0.00     0.049 H 
BRANCH  70  73
ATOM     73  N   UNL A   1      32.163  33.978  27.627  1.00  0.00    -0.352 N 
ATOM     74  C   UNL A   1      32.906  34.788  28.448  1.00  0.00     0.251 C 
ATOM     75  H   UNL A   1      31.539  34.450  27.029  1.00  0.00     0.163 HD
ATOM     76  O   UNL A   1      32.606  35.970  28.584  1.00  0.00    -0.269 OA
BRANCH  74  77
ATOM     77  C   UNL A   1      34.067  34.239  29.180  1.00  0.00     0.039 A 
ATOM     78  C   UNL A   1      33.844  33.487  30.335  1.00  0.00    -0.049 A 
ATOM     79  C   UNL A   1      35.372  34.493  28.747  1.00  0.00    -0.049 A 
ATOM     80  C   UNL A   1      34.927  32.935  31.023  1.00  0.00    -0.053 A 
ATOM     81  H   UNL A   1      32.882  33.338  30.679  1.00  0.00     0.063 H 
ATOM     82  C   UNL A   1      36.447  33.889  29.395  1.00  0.00    -0.053 A 
ATOM     83  H   UNL A   1      35.539  35.127  27.951  1.00  0.00     0.063 H 
ATOM     84  C   UNL A   1      36.234  33.103  30.538  1.00  0.00    -0.014 A 
ATOM     85  H   UNL A   1      34.766  32.402  31.892  1.00  0.00     0.063 H 
ATOM     86  H   UNL A   1      37.404  34.019  29.032  1.00  0.00     0.063 H 
BRANCH  84  87
ATOM     87  C   UNL A   1      37.391  32.452  31.204  1.00  0.00     0.031 A 
ATOM     88  C   UNL A   1      38.093  31.296  30.550  1.00  0.00     0.074 A 
ATOM     89  C   UNL A   1      37.761  32.862  32.432  1.00  0.00     0.049 A 
ATOM     90  N   UNL A   1      39.071  30.555  31.008  1.00  0.00    -0.248 NA
ATOM     91  C   UNL A   1      37.617  30.903  29.215  1.00  0.00    -0.034 C 
ATOM     92  C   UNL A   1      37.128  33.943  33.189  1.00  0.00    -0.036 A 
ATOM     93  N   UNL A   1      38.752  32.410  33.267  1.00  0.00    -0.354 N 
ATOM     94  C   UNL A   1      39.318  29.606  30.026  1.00  0.00     0.074 A 
ATOM     95  C   UNL A   1      38.355  29.831  28.969  1.00  0.00    -0.034 C 
ATOM     96  H   UNL A   1      36.897  31.348  28.624  1.00  0.00     0.065 H 
ATOM     97  C   UNL A   1      37.756  34.083  34.366  1.00  0.00    -0.036 A 
ATOM     98  H   UNL A   1      36.325  34.507  32.867  1.00  0.00     0.065 H 
ATOM     99  C   UNL A   1      38.810  33.079  34.466  1.00  0.00     0.049 A 
ATOM    100  H   UNL A   1      39.364  31.676  33.029  1.00  0.00     0.167 HD
ATOM    101  C   UNL A   1      40.276  28.648  29.999  1.00  0.00     0.037 A 
ATOM    102  H   UNL A   1      38.256  29.233  28.133  1.00  0.00     0.065 H 
ATOM    103  H   UNL A   1      37.530  34.788  35.085  1.00  0.00     0.065 H 
ATOM    104  C   UNL A   1      39.615  32.894  35.529  1.00  0.00     0.037 A 
ATOM    105  C   UNL A   1      41.245  28.443  31.045  1.00  0.00     0.049 A 
ATOM    106  C   UNL A   1      40.660  31.815  35.479  1.00  0.00     0.074 A 
ATOM    107  C   UNL A   1      42.295  27.542  31.083  1.00  0.00    -0.036 A 
ATOM    108  N   UNL A   1      41.278  29.146  32.239  1.00  0.00    -0.354 N 
ATOM    109  N   UNL A   1      40.930  30.968  34.515  1.00  0.00    -0.248 NA
ATOM    110  C   UNL A   1      41.516  31.667  36.664  1.00  0.00    -0.034 C 
ATOM    111  C   UNL A   1      42.933  27.665  32.321  1.00  0.00    -0.036 A 
ATOM    112  H   UNL A   1      42.562  26.891  30.327  1.00  0.00     0.065 H 
ATOM    113  C   UNL A   1      42.313  28.679  33.034  1.00  0.00     0.049 A 
ATOM    114  H   UNL A   1      40.658  29.869  32.487  1.00  0.00     0.167 HD
ATOM    115  C   UNL A   1      41.999  30.206  34.965  1.00  0.00     0.074 A 
ATOM    116  C   UNL A   1      42.341  30.702  36.282  1.00  0.00    -0.034 C 
ATOM    117  H   UNL A   1      41.484  32.180  37.559  1.00  0.00     0.065 H 
ATOM    118  H   UNL A   1      43.729  27.097  32.649  1.00  0.00     0.065 H 
ATOM    119  C   UNL A   1      42.639  29.184  34.344  1.00  0.00     0.037 A 
ATOM    120  H   UNL A   1      43.127  30.350  36.850  1.00  0.00     0.065 H 
BRANCH 101 121
ATOM    121  C   UNL A   1      40.325  27.746  28.799  1.00  0.00     0.064 A 
ATOM    122  C   UNL A   1      41.077  28.076  27.660  1.00  0.00     0.173 A 
ATOM    123  C   UNL A   1      39.647  26.519  28.801  1.00  0.00     0.173 A 
ATOM    124  F   UNL A   1      41.737  29.243  27.602  1.00  0.00    -0.203 F 
ATOM    125  C   UNL A   1      41.124  27.224  26.560  1.00  0.00     0.198 A 
ATOM    126  C   UNL A   1      39.720  25.655  27.712  1.00  0.00     0.198 A 
ATOM    127  F   UNL A   1      38.918  26.150  29.867  1.00  0.00    -0.203 F 
ATOM    128  F   UNL A   1      41.809  27.584  25.466  1.00  0.00    -0.200 F 
ATOM    129  C   UNL A   1      40.452  26.012  26.589  1.00  0.00     0.200 A 
ATOM    130  F   UNL A   1      39.082  24.478  27.748  1.00  0.00    -0.200 F 
ATOM    131  F   UNL A   1      40.505  25.190  25.532  1.00  0.00    -0.200 F 
ENDBRANCH 101 121
BRANCH 104 132
ATOM    132  C   UNL A   1      39.472  33.764  36.726  1.00  0.00     0.064 A 
ATOM    133  C   UNL A   1      40.131  35.000  36.799  1.00  0.00     0.173 A 
ATOM    134  C   UNL A   1      38.681  33.381  37.818  1.00  0.00     0.173 A 
ATOM    135  F   UNL A   1      40.916  35.400  35.787  1.00  0.00    -0.203 F 
ATOM    136  C   UNL A   1      40.020  35.810  37.926  1.00  0.00     0.198 A 
ATOM    137  C   UNL A   1      38.547  34.206  38.933  1.00  0.00     0.198 A 
ATOM    138  F   UNL A   1      38.025  32.212  37.797  1.00  0.00    -0.203 F 
ATOM    139  F   UNL A   1      40.697  36.964  37.987  1.00  0.00    -0.200 F 
ATOM    140  C   UNL A   1      39.223  35.416  38.991  1.00  0.00     0.200 A 
ATOM    141  F   UNL A   1      37.763  33.829  39.952  1.00  0.00    -0.200 F 
ATOM    142  F   UNL A   1      39.111  36.197  40.072  1.00  0.00    -0.200 F 
ENDBRANCH 104 132
BRANCH 119 143
ATOM    143  C   UNL A   1      43.788  28.551  35.074  1.00  0.00     0.064 A 
ATOM    144  C   UNL A   1      43.604  27.449  35.922  1.00  0.00     0.173 A 
ATOM    145  C   UNL A   1      45.095  29.031  34.896  1.00  0.00     0.173 A 
ATOM    146  F   UNL A   1      42.372  26.963  36.138  1.00  0.00    -0.203 F 
ATOM    147  C   UNL A   1      44.681  26.868  36.586  1.00  0.00     0.198 A 
ATOM    148  C   UNL A   1      46.174  28.428  35.537  1.00  0.00     0.198 A 
ATOM    149  F   UNL A   1      45.328  30.079  34.091  1.00  0.00    -0.203 F 
ATOM    150  F   UNL A   1      44.474  25.848  37.430  1.00  0.00    -0.200 F 
ATOM    151  C   UNL A   1      45.966  27.353  36.387  1.00  0.00     0.200 A 
ATOM    152  F   UNL A   1      47.415  28.890  35.333  1.00  0.00    -0.200 F 
ATOM    153  F   UNL A   1      47.001  26.789  37.021  1.00  0.00    -0.200 F 
ENDBRANCH 119 143
ENDBRANCH  84  87
ENDBRANCH  74  77
ENDBRANCH  70  73
ENDBRANCH  67  70
ENDBRANCH  64  67
ENDBRANCH  61  64
ENDBRANCH  58  61
ENDBRANCH  55  58
ENDBRANCH   3  55
TORSDOF 24
ENDMDL
MODEL 3
REMARK VINA RESULT:     -10.4      4.747      9.541
REMARK SMILES CCCCCCOC(=O)Nc1cccc(-c2ccc([C@@H](C)C(=O)NCCCCCCNC(=O)c3ccc(-c4c5nc(c(-c6c(F)c(F)c(F)c(F)c6F)c6ccc([nH]6)c(-c6c(F)c(F)c(F)c(F)c6F)c6nc(c(-c7c(F)c(F)c(F)c(F)c7F)c7ccc4[nH]7)C=C6)C=C5)cc3)cc2F)c1
REMARK SMILES IDX 22 1 23 2 24 3 20 5 19 7 16 8 17 9 98 10 18 11 97 13 99 14
REMARK SMILES IDX 15 17 11 18 12 19 100 20 13 21 14 24 10 27 8 28 9 29 7 31
REMARK SMILES IDX 6 32 5 35 4 38 3 41 2 44 1 47 21 51 25 55 26 58 27 61 28 64
REMARK SMILES IDX 29 67 30 70 31 73 32 74 33 76 34 77 35 78 96 79 36 80 95 82
REMARK SMILES IDX 37 84 38 87 39 88 89 89 40 90 94 91 88 92 90 93 41 94 93 95
REMARK SMILES IDX 87 97 86 99 42 101 74 104 54 105 73 106 55 107 58 108 72 109
REMARK SMILES IDX 91 110 56 111 57 113 71 115 92 116 59 119 43 121 44 122
REMARK SMILES IDX 52 123 45 124 46 125 50 126 53 127 47 128 48 129 51 130
REMARK SMILES IDX 49 131 75 132 76 133 84 134 77 135 78 136 82 137 85 138
REMARK SMILES IDX 79 139 80 140 83 141 81 142 60 143 61 144 69 145 62 146
REMARK SMILES IDX 63 147 67 148 70 149 64 150 65 151 68 152 66 153
REMARK H PARENT 24 4 20 6 17 12 18 15 97 16 12 22 100 23 13 25 14 26 10 30
REMARK H PARENT 6 33 6 34 5 36 5 37 4 39 4 40 3 42 3 43 2 45 2 46 1 48 1 49
REMARK H PARENT 1 50 21 52 21 53 21 54 25 56 25 57 26 59 26 60 27 62 27 63
REMARK H PARENT 28 65 28 66 29 68 29 69 30 71 30 72 31 75 35 81 96 83 36 85
REMARK H PARENT 95 86 94 96 88 98 90 100 93 102 87 103 55 112 58 114 91 117
REMARK H PARENT 56 118 92 120
REMARK Flexibility Score: inf
ROOT
ATOM      1  C   UNL A   1      36.470  31.061  29.373  1.00  0.00     0.227 C 
ATOM      2  O   UNL A   1      35.930  31.345  30.449  1.00  0.00    -0.274 OA
ATOM      3  N   UNL A   1      37.626  30.347  29.446  1.00  0.00    -0.356 N 
ATOM      4  H   UNL A   1      37.866  30.058  30.356  1.00  0.00     0.163 HD
ENDROOT
BRANCH   1   5
ATOM      5  C   UNL A   1      35.822  31.501  28.051  1.00  0.00     0.060 C 
ATOM      6  H   UNL A   1      36.589  31.415  27.310  1.00  0.00     0.045 H 
BRANCH   5   7
ATOM      7  C   UNL A   1      34.751  30.544  27.549  1.00  0.00    -0.033 A 
ATOM      8  C   UNL A   1      32.712  28.877  26.438  1.00  0.00     0.018 A 
ATOM      9  C   UNL A   1      34.012  28.397  26.652  1.00  0.00    -0.051 A 
ATOM     10  C   UNL A   1      32.450  30.194  26.851  1.00  0.00     0.131 A 
ATOM     11  C   UNL A   1      35.002  29.205  27.226  1.00  0.00    -0.057 A 
ATOM     12  H   UNL A   1      34.243  27.429  26.380  1.00  0.00     0.063 H 
ATOM     13  C   UNL A   1      33.445  31.020  27.373  1.00  0.00    -0.022 A 
ATOM     14  F   UNL A   1      31.213  30.708  26.747  1.00  0.00    -0.206 F 
ATOM     15  H   UNL A   1      35.935  28.805  27.413  1.00  0.00     0.063 H 
ATOM     16  H   UNL A   1      33.218  31.992  27.633  1.00  0.00     0.066 H 
BRANCH   8  17
ATOM     17  C   UNL A   1      31.688  28.040  25.779  1.00  0.00    -0.013 A 
ATOM     18  C   UNL A   1      30.228  26.074  25.825  1.00  0.00     0.045 A 
ATOM     19  C   UNL A   1      29.806  26.341  24.527  1.00  0.00    -0.038 A 
ATOM     20  C   UNL A   1      31.153  26.924  26.441  1.00  0.00    -0.030 A 
ATOM     21  C   UNL A   1      30.272  27.479  23.871  1.00  0.00    -0.060 A 
ATOM     22  H   UNL A   1      29.151  25.700  24.053  1.00  0.00     0.064 H 
ATOM     23  H   UNL A   1      31.450  26.725  27.409  1.00  0.00     0.065 H 
ATOM     24  C   UNL A   1      31.210  28.315  24.487  1.00  0.00    -0.054 A 
ATOM     25  H   UNL A   1      29.924  27.705  22.926  1.00  0.00     0.062 H 
ATOM     26  H   UNL A   1      31.555  29.147  23.985  1.00  0.00     0.063 H 
BRANCH  18  27
ATOM     27  N   UNL A   1      29.799  24.897  26.452  1.00  0.00    -0.291 N 
ATOM     28  C   UNL A   1      30.537  23.759  26.657  1.00  0.00     0.411 C 
ATOM     29  O   UNL A   1      30.006  22.669  26.772  1.00  0.00    -0.224 OA
ATOM     30  H   UNL A   1      28.870  24.884  26.778  1.00  0.00     0.173 HD
BRANCH  28  31
ATOM     31  O   UNL A   1      31.859  24.022  26.840  1.00  0.00    -0.449 OA
BRANCH  31  32
ATOM     32  C   UNL A   1      32.816  23.028  26.444  1.00  0.00     0.093 C 
ATOM     33  H   UNL A   1      32.851  22.265  27.194  1.00  0.00     0.071 H 
ATOM     34  H   UNL A   1      32.507  22.630  25.501  1.00  0.00     0.071 H 
BRANCH  32  35
ATOM     35  C   UNL A   1      34.220  23.616  26.270  1.00  0.00    -0.019 C 
ATOM     36  H   UNL A   1      34.642  23.756  27.243  1.00  0.00     0.030 H 
ATOM     37  H   UNL A   1      34.756  22.917  25.662  1.00  0.00     0.030 H 
BRANCH  35  38
ATOM     38  C   UNL A   1      34.290  24.957  25.528  1.00  0.00    -0.050 C 
ATOM     39  H   UNL A   1      33.436  25.536  25.810  1.00  0.00     0.027 H 
ATOM     40  H   UNL A   1      35.219  25.407  25.810  1.00  0.00     0.027 H 
BRANCH  38  41
ATOM     41  C   UNL A   1      34.311  24.849  23.998  1.00  0.00    -0.053 C 
ATOM     42  H   UNL A   1      35.332  24.804  23.682  1.00  0.00     0.027 H 
ATOM     43  H   UNL A   1      33.752  23.970  23.752  1.00  0.00     0.027 H 
BRANCH  41  44
ATOM     44  C   UNL A   1      33.637  26.005  23.262  1.00  0.00    -0.056 C 
ATOM     45  H   UNL A   1      32.931  26.465  23.921  1.00  0.00     0.026 H 
ATOM     46  H   UNL A   1      34.403  26.691  22.964  1.00  0.00     0.026 H 
BRANCH  44  47
ATOM     47  C   UNL A   1      32.910  25.555  22.006  1.00  0.00    -0.065 C 
ATOM     48  H   UNL A   1      33.048  26.283  21.233  1.00  0.00     0.023 H 
ATOM     49  H   UNL A   1      31.866  25.453  22.216  1.00  0.00     0.023 H 
ATOM     50  H   UNL A   1      33.303  24.614  21.684  1.00  0.00     0.023 H 
ENDBRANCH  44  47
ENDBRANCH  41  44
ENDBRANCH  38  41
ENDBRANCH  35  38
ENDBRANCH  32  35
ENDBRANCH  31  32
ENDBRANCH  28  31
ENDBRANCH  18  27
ENDBRANCH   8  17
ENDBRANCH   5   7
BRANCH   5  51
ATOM     51  C   UNL A   1      35.470  32.986  27.998  1.00  0.00    -0.049 C 
ATOM     52  H   UNL A   1      35.639  33.358  27.008  1.00  0.00     0.024 H 
ATOM     53  H   UNL A   1      36.084  33.524  28.689  1.00  0.00     0.024 H 
ATOM     54  H   UNL A   1      34.441  33.119  28.258  1.00  0.00     0.024 H 
ENDBRANCH   5  51
ENDBRANCH   1   5
BRANCH   3  55
ATOM     55  C   UNL A   1      38.564  29.937  28.425  1.00  0.00     0.017 C 
ATOM     56  H   UNL A   1      39.459  30.516  28.522  1.00  0.00     0.049 H 
ATOM     57  H   UNL A   1      38.108  30.095  27.470  1.00  0.00     0.049 H 
BRANCH  55  58
ATOM     58  C   UNL A   1      38.918  28.453  28.546  1.00  0.00    -0.036 C 
ATOM     59  H   UNL A   1      38.273  27.898  27.897  1.00  0.00     0.028 H 
ATOM     60  H   UNL A   1      38.792  28.184  29.573  1.00  0.00     0.028 H 
BRANCH  58  61
ATOM     61  C   UNL A   1      40.370  28.135  28.173  1.00  0.00    -0.052 C 
ATOM     62  H   UNL A   1      40.819  27.620  28.997  1.00  0.00     0.027 H 
ATOM     63  H   UNL A   1      40.836  29.072  27.953  1.00  0.00     0.027 H 
BRANCH  61  64
ATOM     64  C   UNL A   1      40.541  27.266  26.919  1.00  0.00    -0.052 C 
ATOM     65  H   UNL A   1      41.587  27.097  26.774  1.00  0.00     0.027 H 
ATOM     66  H   UNL A   1      40.078  27.809  26.120  1.00  0.00     0.027 H 
BRANCH  64  67
ATOM     67  C   UNL A   1      39.842  25.904  26.962  1.00  0.00    -0.036 C 
ATOM     68  H   UNL A   1      39.875  25.482  25.979  1.00  0.00     0.028 H 
ATOM     69  H   UNL A   1      38.847  26.085  27.308  1.00  0.00     0.028 H 
BRANCH  67  70
ATOM     70  C   UNL A   1      40.463  24.902  27.932  1.00  0.00     0.018 C 
ATOM     71  H   UNL A   1      39.710  24.573  28.619  1.00  0.00     0.049 H 
ATOM     72  H   UNL A   1      41.265  25.389  28.445  1.00  0.00     0.049 H 
BRANCH  70  73
ATOM     73  N   UNL A   1      41.006  23.744  27.238  1.00  0.00    -0.352 N 
ATOM     74  C   UNL A   1      42.127  23.635  26.456  1.00  0.00     0.251 C 
ATOM     75  H   UNL A   1      40.490  22.913  27.348  1.00  0.00     0.163 HD
ATOM     76  O   UNL A   1      42.297  22.640  25.758  1.00  0.00    -0.269 OA
BRANCH  74  77
ATOM     77  C   UNL A   1      43.133  24.718  26.443  1.00  0.00     0.039 A 
ATOM     78  C   UNL A   1      43.337  25.437  25.263  1.00  0.00    -0.049 A 
ATOM     79  C   UNL A   1      43.895  25.002  27.580  1.00  0.00    -0.049 A 
ATOM     80  C   UNL A   1      44.262  26.484  25.241  1.00  0.00    -0.053 A 
ATOM     81  H   UNL A   1      42.806  25.197  24.411  1.00  0.00     0.063 H 
ATOM     82  C   UNL A   1      44.768  26.087  27.577  1.00  0.00    -0.053 A 
ATOM     83  H   UNL A   1      43.811  24.409  28.421  1.00  0.00     0.063 H 
ATOM     84  C   UNL A   1      44.959  26.839  26.407  1.00  0.00    -0.014 A 
ATOM     85  H   UNL A   1      44.434  26.998  24.363  1.00  0.00     0.063 H 
ATOM     86  H   UNL A   1      45.277  26.340  28.438  1.00  0.00     0.063 H 
BRANCH  84  87
ATOM     87  C   UNL A   1      45.880  28.003  26.428  1.00  0.00     0.031 A 
ATOM     88  C   UNL A   1      47.356  27.809  26.228  1.00  0.00     0.074 A 
ATOM     89  C   UNL A   1      45.389  29.228  26.695  1.00  0.00     0.049 A 
ATOM     90  N   UNL A   1      48.323  28.691  26.285  1.00  0.00    -0.248 NA
ATOM     91  C   UNL A   1      47.812  26.438  25.953  1.00  0.00    -0.034 C 
ATOM     92  C   UNL A   1      43.981  29.536  26.953  1.00  0.00    -0.036 A 
ATOM     93  N   UNL A   1      46.019  30.441  26.810  1.00  0.00    -0.354 N 
ATOM     94  C   UNL A   1      49.495  27.982  26.065  1.00  0.00     0.074 A 
ATOM     95  C   UNL A   1      49.127  26.589  25.925  1.00  0.00    -0.034 C 
ATOM     96  H   UNL A   1      47.251  25.581  25.818  1.00  0.00     0.065 H 
ATOM     97  C   UNL A   1      43.852  30.853  27.176  1.00  0.00    -0.036 A 
ATOM     98  H   UNL A   1      43.210  28.848  26.961  1.00  0.00     0.065 H 
ATOM     99  C   UNL A   1      45.170  31.477  27.117  1.00  0.00     0.049 A 
ATOM    100  H   UNL A   1      46.989  30.559  26.684  1.00  0.00     0.167 HD
ATOM    101  C   UNL A   1      50.762  28.453  25.967  1.00  0.00     0.037 A 
ATOM    102  H   UNL A   1      49.802  25.816  25.817  1.00  0.00     0.065 H 
ATOM    103  H   UNL A   1      42.963  31.345  27.359  1.00  0.00     0.065 H 
ATOM    104  C   UNL A   1      45.428  32.780  27.337  1.00  0.00     0.037 A 
ATOM    105  C   UNL A   1      51.119  29.843  26.087  1.00  0.00     0.049 A 
ATOM    106  C   UNL A   1      46.844  33.275  27.236  1.00  0.00     0.074 A 
ATOM    107  C   UNL A   1      52.365  30.430  25.940  1.00  0.00    -0.036 A 
ATOM    108  N   UNL A   1      50.230  30.864  26.388  1.00  0.00    -0.354 N 
ATOM    109  N   UNL A   1      47.937  32.606  26.959  1.00  0.00    -0.248 NA
ATOM    110  C   UNL A   1      47.063  34.707  27.476  1.00  0.00    -0.034 C 
ATOM    111  C   UNL A   1      52.238  31.798  26.201  1.00  0.00    -0.036 A 
ATOM    112  H   UNL A   1      53.237  29.941  25.681  1.00  0.00     0.065 H 
ATOM    113  C   UNL A   1      50.905  32.073  26.460  1.00  0.00     0.049 A 
ATOM    114  H   UNL A   1      49.263  30.748  26.530  1.00  0.00     0.167 HD
ATOM    115  C   UNL A   1      48.966  33.536  26.966  1.00  0.00     0.074 A 
ATOM    116  C   UNL A   1      48.365  34.821  27.257  1.00  0.00    -0.034 C 
ATOM    117  H   UNL A   1      46.381  35.435  27.744  1.00  0.00     0.065 H 
ATOM    118  H   UNL A   1      53.007  32.485  26.202  1.00  0.00     0.065 H 
ATOM    119  C   UNL A   1      50.291  33.344  26.752  1.00  0.00     0.037 A 
ATOM    120  H   UNL A   1      48.885  35.712  27.290  1.00  0.00     0.065 H 
BRANCH 101 121
ATOM    121  C   UNL A   1      51.858  27.458  25.718  1.00  0.00     0.064 A 
ATOM    122  C   UNL A   1      52.233  27.085  24.417  1.00  0.00     0.173 A 
ATOM    123  C   UNL A   1      52.572  26.900  26.788  1.00  0.00     0.173 A 
ATOM    124  F   UNL A   1      51.576  27.582  23.357  1.00  0.00    -0.203 F 
ATOM    125  C   UNL A   1      53.259  26.170  24.200  1.00  0.00     0.198 A 
ATOM    126  C   UNL A   1      53.619  26.009  26.568  1.00  0.00     0.198 A 
ATOM    127  F   UNL A   1      52.260  27.226  28.052  1.00  0.00    -0.203 F 
ATOM    128  F   UNL A   1      53.566  25.793  22.951  1.00  0.00    -0.200 F 
ATOM    129  C   UNL A   1      53.956  25.638  25.275  1.00  0.00     0.200 A 
ATOM    130  F   UNL A   1      54.300  25.507  27.607  1.00  0.00    -0.200 F 
ATOM    131  F   UNL A   1      54.950  24.764  25.064  1.00  0.00    -0.200 F 
ENDBRANCH 101 121
BRANCH 104 132
ATOM    132  C   UNL A   1      44.314  33.711  27.658  1.00  0.00     0.064 A 
ATOM    133  C   UNL A   1      43.754  33.746  28.943  1.00  0.00     0.173 A 
ATOM    134  C   UNL A   1      43.786  34.579  26.692  1.00  0.00     0.173 A 
ATOM    135  F   UNL A   1      44.212  32.920  29.896  1.00  0.00    -0.203 F 
ATOM    136  C   UNL A   1      42.696  34.600  29.244  1.00  0.00     0.198 A 
ATOM    137  C   UNL A   1      42.747  35.454  27.001  1.00  0.00     0.198 A 
ATOM    138  F   UNL A   1      44.290  34.589  25.449  1.00  0.00    -0.203 F 
ATOM    139  F   UNL A   1      42.150  34.581  30.467  1.00  0.00    -0.200 F 
ATOM    140  C   UNL A   1      42.197  35.458  28.275  1.00  0.00     0.200 A 
ATOM    141  F   UNL A   1      42.279  36.292  26.067  1.00  0.00    -0.200 F 
ATOM    142  F   UNL A   1      41.183  36.284  28.565  1.00  0.00    -0.200 F 
ENDBRANCH 104 132
BRANCH 119 143
ATOM    143  C   UNL A   1      51.177  34.555  26.804  1.00  0.00     0.064 A 
ATOM    144  C   UNL A   1      51.861  34.917  27.974  1.00  0.00     0.173 A 
ATOM    145  C   UNL A   1      51.371  35.344  25.660  1.00  0.00     0.173 A 
ATOM    146  F   UNL A   1      51.696  34.205  29.099  1.00  0.00    -0.203 F 
ATOM    147  C   UNL A   1      52.685  36.039  28.004  1.00  0.00     0.198 A 
ATOM    148  C   UNL A   1      52.220  36.447  25.685  1.00  0.00     0.198 A 
ATOM    149  F   UNL A   1      50.745  35.038  24.513  1.00  0.00    -0.203 F 
ATOM    150  F   UNL A   1      53.287  36.394  29.147  1.00  0.00    -0.200 F 
ATOM    151  C   UNL A   1      52.869  36.798  26.858  1.00  0.00     0.200 A 
ATOM    152  F   UNL A   1      52.407  37.171  24.573  1.00  0.00    -0.200 F 
ATOM    153  F   UNL A   1      53.667  37.873  26.887  1.00  0.00    -0.200 F 
ENDBRANCH 119 143
ENDBRANCH  84  87
ENDBRANCH  74  77
ENDBRANCH  70  73
ENDBRANCH  67  70
ENDBRANCH  64  67
ENDBRANCH  61  64
ENDBRANCH  58  61
ENDBRANCH  55  58
ENDBRANCH   3  55
TORSDOF 24
ENDMDL
MODEL 4
REMARK VINA RESULT:     -10.3      3.460      8.645
REMARK SMILES CCCCCCOC(=O)Nc1cccc(-c2ccc([C@@H](C)C(=O)NCCCCCCNC(=O)c3ccc(-c4c5nc(c(-c6c(F)c(F)c(F)c(F)c6F)c6ccc([nH]6)c(-c6c(F)c(F)c(F)c(F)c6F)c6nc(c(-c7c(F)c(F)c(F)c(F)c7F)c7ccc4[nH]7)C=C6)C=C5)cc3)cc2F)c1
REMARK SMILES IDX 22 1 23 2 24 3 20 5 19 7 16 8 17 9 98 10 18 11 97 13 99 14
REMARK SMILES IDX 15 17 11 18 12 19 100 20 13 21 14 24 10 27 8 28 9 29 7 31
REMARK SMILES IDX 6 32 5 35 4 38 3 41 2 44 1 47 21 51 25 55 26 58 27 61 28 64
REMARK SMILES IDX 29 67 30 70 31 73 32 74 33 76 34 77 35 78 96 79 36 80 95 82
REMARK SMILES IDX 37 84 38 87 39 88 89 89 40 90 94 91 88 92 90 93 41 94 93 95
REMARK SMILES IDX 87 97 86 99 42 101 74 104 54 105 73 106 55 107 58 108 72 109
REMARK SMILES IDX 91 110 56 111 57 113 71 115 92 116 59 119 43 121 44 122
REMARK SMILES IDX 52 123 45 124 46 125 50 126 53 127 47 128 48 129 51 130
REMARK SMILES IDX 49 131 75 132 76 133 84 134 77 135 78 136 82 137 85 138
REMARK SMILES IDX 79 139 80 140 83 141 81 142 60 143 61 144 69 145 62 146
REMARK SMILES IDX 63 147 67 148 70 149 64 150 65 151 68 152 66 153
REMARK H PARENT 24 4 20 6 17 12 18 15 97 16 12 22 100 23 13 25 14 26 10 30
REMARK H PARENT 6 33 6 34 5 36 5 37 4 39 4 40 3 42 3 43 2 45 2 46 1 48 1 49
REMARK H PARENT 1 50 21 52 21 53 21 54 25 56 25 57 26 59 26 60 27 62 27 63
REMARK H PARENT 28 65 28 66 29 68 29 69 30 71 30 72 31 75 35 81 96 83 36 85
REMARK H PARENT 95 86 94 96 88 98 90 100 93 102 87 103 55 112 58 114 91 117
REMARK H PARENT 56 118 92 120
REMARK Flexibility Score: inf
ROOT
ATOM      1  C   UNL A   1      31.323  22.528  24.829  1.00  0.00     0.227 C 
ATOM      2  O   UNL A   1      31.090  21.440  25.370  1.00  0.00    -0.274 OA
ATOM      3  N   UNL A   1      30.572  23.584  25.243  1.00  0.00    -0.356 N 
ATOM      4  H   UNL A   1      29.974  23.382  25.999  1.00  0.00     0.163 HD
ENDROOT
BRANCH   1   5
ATOM      5  C   UNL A   1      32.424  22.632  23.762  1.00  0.00     0.060 C 
ATOM      6  H   UNL A   1      32.358  23.627  23.376  1.00  0.00     0.045 H 
BRANCH   5   7
ATOM      7  C   UNL A   1      33.832  22.576  24.331  1.00  0.00    -0.033 A 
ATOM      8  C   UNL A   1      36.496  22.682  25.364  1.00  0.00     0.018 A 
ATOM      9  C   UNL A   1      35.420  22.269  26.161  1.00  0.00    -0.051 A 
ATOM     10  C   UNL A   1      36.209  22.982  24.022  1.00  0.00     0.131 A 
ATOM     11  C   UNL A   1      34.120  22.187  25.645  1.00  0.00    -0.057 A 
ATOM     12  H   UNL A   1      35.589  22.020  27.148  1.00  0.00     0.063 H 
ATOM     13  C   UNL A   1      34.908  22.954  23.518  1.00  0.00    -0.022 A 
ATOM     14  F   UNL A   1      37.193  23.319  23.173  1.00  0.00    -0.206 F 
ATOM     15  H   UNL A   1      33.359  21.834  26.246  1.00  0.00     0.063 H 
ATOM     16  H   UNL A   1      34.736  23.215  22.535  1.00  0.00     0.066 H 
BRANCH   8  17
ATOM     17  C   UNL A   1      37.854  22.823  25.928  1.00  0.00    -0.013 A 
ATOM     18  C   UNL A   1      39.941  21.780  26.677  1.00  0.00     0.045 A 
ATOM     19  C   UNL A   1      40.420  23.015  27.102  1.00  0.00    -0.038 A 
ATOM     20  C   UNL A   1      38.674  21.695  26.090  1.00  0.00    -0.030 A 
ATOM     21  C   UNL A   1      39.654  24.160  26.894  1.00  0.00    -0.060 A 
ATOM     22  H   UNL A   1      41.339  23.083  27.567  1.00  0.00     0.064 H 
ATOM     23  H   UNL A   1      38.333  20.776  25.766  1.00  0.00     0.065 H 
ATOM     24  C   UNL A   1      38.381  24.064  26.321  1.00  0.00    -0.054 A 
ATOM     25  H   UNL A   1      40.027  25.084  27.165  1.00  0.00     0.062 H 
ATOM     26  H   UNL A   1      37.820  24.918  26.185  1.00  0.00     0.063 H 
BRANCH  18  27
ATOM     27  N   UNL A   1      40.693  20.630  26.944  1.00  0.00    -0.291 N 
ATOM     28  C   UNL A   1      41.630  20.052  26.126  1.00  0.00     0.411 C 
ATOM     29  O   UNL A   1      41.892  18.864  26.199  1.00  0.00    -0.224 OA
ATOM     30  H   UNL A   1      40.533  20.189  27.810  1.00  0.00     0.173 HD
BRANCH  28  31
ATOM     31  O   UNL A   1      42.284  20.964  25.358  1.00  0.00    -0.449 OA
BRANCH  31  32
ATOM     32  C   UNL A   1      43.566  21.437  25.799  1.00  0.00     0.093 C 
ATOM     33  H   UNL A   1      43.436  22.381  26.288  1.00  0.00     0.071 H 
ATOM     34  H   UNL A   1      43.974  20.708  26.467  1.00  0.00     0.071 H 
BRANCH  32  35
ATOM     35  C   UNL A   1      44.547  21.613  24.636  1.00  0.00    -0.019 C 
ATOM     36  H   UNL A   1      44.035  22.121  23.847  1.00  0.00     0.030 H 
ATOM     37  H   UNL A   1      45.378  22.157  25.034  1.00  0.00     0.030 H 
BRANCH  35  38
ATOM     38  C   UNL A   1      45.132  20.317  24.060  1.00  0.00    -0.050 C 
ATOM     39  H   UNL A   1      44.479  19.512  24.327  1.00  0.00     0.027 H 
ATOM     40  H   UNL A   1      45.211  20.466  23.004  1.00  0.00     0.027 H 
BRANCH  38  41
ATOM     41  C   UNL A   1      46.544  19.970  24.553  1.00  0.00    -0.053 C 
ATOM     42  H   UNL A   1      47.134  19.698  23.703  1.00  0.00     0.027 H 
ATOM     43  H   UNL A   1      46.906  20.840  25.060  1.00  0.00     0.027 H 
BRANCH  41  44
ATOM     44  C   UNL A   1      46.609  18.826  25.562  1.00  0.00    -0.056 C 
ATOM     45  H   UNL A   1      47.322  18.106  25.219  1.00  0.00     0.026 H 
ATOM     46  H   UNL A   1      46.892  19.242  26.507  1.00  0.00     0.026 H 
BRANCH  44  47
ATOM     47  C   UNL A   1      45.270  18.133  25.749  1.00  0.00    -0.065 C 
ATOM     48  H   UNL A   1      45.267  17.605  26.680  1.00  0.00     0.023 H 
ATOM     49  H   UNL A   1      45.111  17.441  24.948  1.00  0.00     0.023 H 
ATOM     50  H   UNL A   1      44.488  18.863  25.750  1.00  0.00     0.023 H 
ENDBRANCH  44  47
ENDBRANCH  41  44
ENDBRANCH  38  41
ENDBRANCH  35  38
ENDBRANCH  32  35
ENDBRANCH  31  32
ENDBRANCH  28  31
ENDBRANCH  18  27
ENDBRANCH   8  17
ENDBRANCH   5   7
BRANCH   5  51
ATOM     51  C   UNL A   1      32.169  21.775  22.523  1.00  0.00    -0.049 C 
ATOM     52  H   UNL A   1      32.388  20.751  22.745  1.00  0.00     0.024 H 
ATOM     53  H   UNL A   1      32.797  22.108  21.723  1.00  0.00     0.024 H 
ATOM     54  H   UNL A   1      31.144  21.865  22.231  1.00  0.00     0.024 H 
ENDBRANCH   5  51
ENDBRANCH   1   5
BRANCH   3  55
ATOM     55  C   UNL A   1      30.496  24.949  24.772  1.00  0.00     0.017 C 
ATOM     56  H   UNL A   1      29.544  25.104  24.309  1.00  0.00     0.049 H 
ATOM     57  H   UNL A   1      31.291  25.105  24.074  1.00  0.00     0.049 H 
BRANCH  55  58
ATOM     58  C   UNL A   1      30.660  25.951  25.917  1.00  0.00    -0.036 C 
ATOM     59  H   UNL A   1      30.111  25.592  26.762  1.00  0.00     0.028 H 
ATOM     60  H   UNL A   1      30.294  26.892  25.563  1.00  0.00     0.028 H 
BRANCH  58  61
ATOM     61  C   UNL A   1      32.116  26.167  26.342  1.00  0.00    -0.052 C 
ATOM     62  H   UNL A   1      32.455  25.277  26.831  1.00  0.00     0.027 H 
ATOM     63  H   UNL A   1      32.118  27.027  26.977  1.00  0.00     0.027 H 
BRANCH  61  64
ATOM     64  C   UNL A   1      33.087  26.479  25.194  1.00  0.00    -0.052 C 
ATOM     65  H   UNL A   1      32.875  25.805  24.391  1.00  0.00     0.027 H 
ATOM     66  H   UNL A   1      34.070  26.367  25.602  1.00  0.00     0.027 H 
BRANCH  64  67
ATOM     67  C   UNL A   1      33.019  27.906  24.645  1.00  0.00    -0.036 C 
ATOM     68  H   UNL A   1      32.025  28.274  24.793  1.00  0.00     0.028 H 
ATOM     69  H   UNL A   1      33.294  27.847  23.613  1.00  0.00     0.028 H 
BRANCH  67  70
ATOM     70  C   UNL A   1      33.991  28.886  25.296  1.00  0.00     0.018 C 
ATOM     71  H   UNL A   1      34.704  29.205  24.564  1.00  0.00     0.049 H 
ATOM     72  H   UNL A   1      34.474  28.385  26.109  1.00  0.00     0.049 H 
BRANCH  70  73
ATOM     73  N   UNL A   1      33.306  30.054  25.828  1.00  0.00    -0.352 N 
ATOM     74  C   UNL A   1      33.590  30.811  26.936  1.00  0.00     0.251 C 
ATOM     75  H   UNL A   1      32.519  30.346  25.313  1.00  0.00     0.163 HD
ATOM     76  O   UNL A   1      32.764  31.611  27.364  1.00  0.00    -0.269 OA
BRANCH  74  77
ATOM     77  C   UNL A   1      34.889  30.661  27.625  1.00  0.00     0.039 A 
ATOM     78  C   UNL A   1      35.732  31.770  27.727  1.00  0.00    -0.049 A 
ATOM     79  C   UNL A   1      35.289  29.424  28.140  1.00  0.00    -0.049 A 
ATOM     80  C   UNL A   1      36.950  31.654  28.401  1.00  0.00    -0.053 A 
ATOM     81  H   UNL A   1      35.456  32.672  27.307  1.00  0.00     0.063 H 
ATOM     82  C   UNL A   1      36.472  29.326  28.868  1.00  0.00    -0.053 A 
ATOM     83  H   UNL A   1      34.709  28.586  27.980  1.00  0.00     0.063 H 
ATOM     84  C   UNL A   1      37.313  30.440  29.006  1.00  0.00    -0.014 A 
ATOM     85  H   UNL A   1      37.587  32.465  28.453  1.00  0.00     0.063 H 
ATOM     86  H   UNL A   1      36.730  28.429  29.309  1.00  0.00     0.063 H 
BRANCH  84  87
ATOM     87  C   UNL A   1      38.561  30.322  29.802  1.00  0.00     0.031 A 
ATOM     88  C   UNL A   1      39.736  29.556  29.263  1.00  0.00     0.074 A 
ATOM     89  C   UNL A   1      38.606  30.847  31.041  1.00  0.00     0.049 A 
ATOM     90  N   UNL A   1      40.880  29.283  29.839  1.00  0.00    -0.248 NA
ATOM     91  C   UNL A   1      39.600  29.003  27.907  1.00  0.00    -0.034 C 
ATOM     92  C   UNL A   1      37.513  31.572  31.691  1.00  0.00    -0.036 A 
ATOM     93  N   UNL A   1      39.605  30.842  31.981  1.00  0.00    -0.354 N 
ATOM     94  C   UNL A   1      41.591  28.519  28.923  1.00  0.00     0.074 A 
ATOM     95  C   UNL A   1      40.733  28.329  27.774  1.00  0.00    -0.034 C 
ATOM     96  H   UNL A   1      38.825  29.113  27.235  1.00  0.00     0.065 H 
ATOM     97  C   UNL A   1      37.907  31.957  32.915  1.00  0.00    -0.036 A 
ATOM     98  H   UNL A   1      36.587  31.756  31.274  1.00  0.00     0.065 H 
ATOM     99  C   UNL A   1      39.264  31.475  33.152  1.00  0.00     0.049 A 
ATOM    100  H   UNL A   1      40.485  30.424  31.831  1.00  0.00     0.167 HD
ATOM    101  C   UNL A   1      42.855  28.040  29.024  1.00  0.00     0.037 A 
ATOM    102  H   UNL A   1      40.971  27.744  26.958  1.00  0.00     0.065 H 
ATOM    103  H   UNL A   1      37.342  32.507  33.580  1.00  0.00     0.065 H 
ATOM    104  C   UNL A   1      39.963  31.637  34.291  1.00  0.00     0.037 A 
ATOM    105  C   UNL A   1      43.712  28.251  30.162  1.00  0.00     0.049 A 
ATOM    106  C   UNL A   1      41.357  31.083  34.382  1.00  0.00     0.074 A 
ATOM    107  C   UNL A   1      45.030  27.861  30.333  1.00  0.00    -0.036 A 
ATOM    108  N   UNL A   1      43.335  28.905  31.325  1.00  0.00    -0.354 N 
ATOM    109  N   UNL A   1      42.045  30.422  33.482  1.00  0.00    -0.248 NA
ATOM    110  C   UNL A   1      42.075  31.299  35.645  1.00  0.00    -0.034 C 
ATOM    111  C   UNL A   1      45.433  28.235  31.619  1.00  0.00    -0.036 A 
ATOM    112  H   UNL A   1      45.614  27.378  29.632  1.00  0.00     0.065 H 
ATOM    113  C   UNL A   1      44.385  28.905  32.230  1.00  0.00     0.049 A 
ATOM    114  H   UNL A   1      42.452  29.310  31.485  1.00  0.00     0.167 HD
ATOM    115  C   UNL A   1      43.281  30.166  34.059  1.00  0.00     0.074 A 
ATOM    116  C   UNL A   1      43.256  30.759  35.380  1.00  0.00    -0.034 C 
ATOM    117  H   UNL A   1      41.746  31.754  36.512  1.00  0.00     0.065 H 
ATOM    118  H   UNL A   1      46.355  28.045  32.042  1.00  0.00     0.065 H 
ATOM    119  C   UNL A   1      44.342  29.498  33.542  1.00  0.00     0.037 A 
ATOM    120  H   UNL A   1      44.056  30.761  36.033  1.00  0.00     0.065 H 
BRANCH 101 121
ATOM    121  C   UNL A   1      43.389  27.238  27.872  1.00  0.00     0.064 A 
ATOM    122  C   UNL A   1      43.210  25.848  27.795  1.00  0.00     0.173 A 
ATOM    123  C   UNL A   1      44.053  27.871  26.810  1.00  0.00     0.173 A 
ATOM    124  F   UNL A   1      42.591  25.192  28.789  1.00  0.00    -0.203 F 
ATOM    125  C   UNL A   1      43.700  25.119  26.715  1.00  0.00     0.198 A 
ATOM    126  C   UNL A   1      44.514  27.144  25.716  1.00  0.00     0.198 A 
ATOM    127  F   UNL A   1      44.246  29.199  26.828  1.00  0.00    -0.203 F 
ATOM    128  F   UNL A   1      43.559  23.787  26.689  1.00  0.00    -0.200 F 
ATOM    129  C   UNL A   1      44.345  25.768  25.673  1.00  0.00     0.200 A 
ATOM    130  F   UNL A   1      45.125  27.775  24.704  1.00  0.00    -0.200 F 
ATOM    131  F   UNL A   1      44.808  25.067  24.630  1.00  0.00    -0.200 F 
ENDBRANCH 101 121
BRANCH 104 132
ATOM    132  C   UNL A   1      39.357  32.372  35.433  1.00  0.00     0.064 A 
ATOM    133  C   UNL A   1      38.538  31.712  36.359  1.00  0.00     0.173 A 
ATOM    134  C   UNL A   1      39.581  33.743  35.619  1.00  0.00     0.173 A 
ATOM    135  F   UNL A   1      38.278  30.404  36.212  1.00  0.00    -0.203 F 
ATOM    136  C   UNL A   1      37.950  32.400  37.418  1.00  0.00     0.198 A 
ATOM    137  C   UNL A   1      39.016  34.425  36.695  1.00  0.00     0.198 A 
ATOM    138  F   UNL A   1      40.361  34.421  34.764  1.00  0.00    -0.203 F 
ATOM    139  F   UNL A   1      37.135  31.754  38.263  1.00  0.00    -0.200 F 
ATOM    140  C   UNL A   1      38.193  33.755  37.589  1.00  0.00     0.200 A 
ATOM    141  F   UNL A   1      39.267  35.729  36.866  1.00  0.00    -0.200 F 
ATOM    142  F   UNL A   1      37.633  34.415  38.611  1.00  0.00    -0.200 F 
ENDBRANCH 104 132
BRANCH 119 143
ATOM    143  C   UNL A   1      45.570  29.393  34.400  1.00  0.00     0.064 A 
ATOM    144  C   UNL A   1      46.573  30.373  34.372  1.00  0.00     0.173 A 
ATOM    145  C   UNL A   1      45.728  28.316  35.285  1.00  0.00     0.173 A 
ATOM    146  F   UNL A   1      46.477  31.413  33.530  1.00  0.00    -0.203 F 
ATOM    147  C   UNL A   1      47.703  30.264  35.179  1.00  0.00     0.198 A 
ATOM    148  C   UNL A   1      46.844  28.227  36.114  1.00  0.00     0.198 A 
ATOM    149  F   UNL A   1      44.795  27.355  35.356  1.00  0.00    -0.203 F 
ATOM    150  F   UNL A   1      48.672  31.186  35.098  1.00  0.00    -0.200 F 
ATOM    151  C   UNL A   1      47.833  29.196  36.054  1.00  0.00     0.200 A 
ATOM    152  F   UNL A   1      46.961  27.202  36.969  1.00  0.00    -0.200 F 
ATOM    153  F   UNL A   1      48.917  29.097  36.835  1.00  0.00    -0.200 F 
ENDBRANCH 119 143
ENDBRANCH  84  87
ENDBRANCH  74  77
ENDBRANCH  70  73
ENDBRANCH  67  70
ENDBRANCH  64  67
ENDBRANCH  61  64
ENDBRANCH  58  61
ENDBRANCH  55  58
ENDBRANCH   3  55
TORSDOF 24
ENDMDL
MODEL 5
REMARK VINA RESULT:     -10.3      0.444      1.565
REMARK SMILES CCCCCCOC(=O)Nc1cccc(-c2ccc([C@@H](C)C(=O)NCCCCCCNC(=O)c3ccc(-c4c5nc(c(-c6c(F)c(F)c(F)c(F)c6F)c6ccc([nH]6)c(-c6c(F)c(F)c(F)c(F)c6F)c6nc(c(-c7c(F)c(F)c(F)c(F)c7F)c7ccc4[nH]7)C=C6)C=C5)cc3)cc2F)c1
REMARK SMILES IDX 22 1 23 2 24 3 20 5 19 7 16 8 17 9 98 10 18 11 97 13 99 14
REMARK SMILES IDX 15 17 11 18 12 19 100 20 13 21 14 24 10 27 8 28 9 29 7 31
REMARK SMILES IDX 6 32 5 35 4 38 3 41 2 44 1 47 21 51 25 55 26 58 27 61 28 64
REMARK SMILES IDX 29 67 30 70 31 73 32 74 33 76 34 77 35 78 96 79 36 80 95 82
REMARK SMILES IDX 37 84 38 87 39 88 89 89 40 90 94 91 88 92 90 93 41 94 93 95
REMARK SMILES IDX 87 97 86 99 42 101 74 104 54 105 73 106 55 107 58 108 72 109
REMARK SMILES IDX 91 110 56 111 57 113 71 115 92 116 59 119 43 121 44 122
REMARK SMILES IDX 52 123 45 124 46 125 50 126 53 127 47 128 48 129 51 130
REMARK SMILES IDX 49 131 75 132 76 133 84 134 77 135 78 136 82 137 85 138
REMARK SMILES IDX 79 139 80 140 83 141 81 142 60 143 61 144 69 145 62 146
REMARK SMILES IDX 63 147 67 148 70 149 64 150 65 151 68 152 66 153
REMARK H PARENT 24 4 20 6 17 12 18 15 97 16 12 22 100 23 13 25 14 26 10 30
REMARK H PARENT 6 33 6 34 5 36 5 37 4 39 4 40 3 42 3 43 2 45 2 46 1 48 1 49
REMARK H PARENT 1 50 21 52 21 53 21 54 25 56 25 57 26 59 26 60 27 62 27 63
REMARK H PARENT 28 65 28 66 29 68 29 69 30 71 30 72 31 75 35 81 96 83 36 85
REMARK H PARENT 95 86 94 96 88 98 90 100 93 102 87 103 55 112 58 114 91 117
REMARK H PARENT 56 118 92 120
REMARK Flexibility Score: inf
ROOT
ATOM      1  C   UNL A   1      28.272  31.309  23.554  1.00  0.00     0.227 C 
ATOM      2  O   UNL A   1      27.053  31.497  23.656  1.00  0.00    -0.274 OA
ATOM      3  N   UNL A   1      29.045  31.793  24.564  1.00  0.00    -0.356 N 
ATOM      4  H   UNL A   1      28.536  32.172  25.317  1.00  0.00     0.163 HD
ENDROOT
BRANCH   1   5
ATOM      5  C   UNL A   1      28.831  30.550  22.342  1.00  0.00     0.060 C 
ATOM      6  H   UNL A   1      29.780  30.998  22.133  1.00  0.00     0.045 H 
BRANCH   5   7
ATOM      7  C   UNL A   1      29.193  29.104  22.641  1.00  0.00    -0.033 A 
ATOM      8  C   UNL A   1      30.036  26.458  23.320  1.00  0.00     0.018 A 
ATOM      9  C   UNL A   1      28.763  26.930  23.667  1.00  0.00    -0.051 A 
ATOM     10  C   UNL A   1      30.849  27.327  22.573  1.00  0.00     0.131 A 
ATOM     11  C   UNL A   1      28.339  28.216  23.307  1.00  0.00    -0.057 A 
ATOM     12  H   UNL A   1      28.126  26.318  24.200  1.00  0.00     0.063 H 
ATOM     13  C   UNL A   1      30.453  28.626  22.258  1.00  0.00    -0.022 A 
ATOM     14  F   UNL A   1      32.056  26.927  22.140  1.00  0.00    -0.206 F 
ATOM     15  H   UNL A   1      27.378  28.514  23.537  1.00  0.00     0.063 H 
ATOM     16  H   UNL A   1      31.094  29.244  21.737  1.00  0.00     0.066 H 
BRANCH   8  17
ATOM     17  C   UNL A   1      30.500  25.124  23.753  1.00  0.00    -0.013 A 
ATOM     18  C   UNL A   1      31.209  23.624  25.556  1.00  0.00     0.045 A 
ATOM     19  C   UNL A   1      31.491  22.625  24.631  1.00  0.00    -0.038 A 
ATOM     20  C   UNL A   1      30.710  24.855  25.115  1.00  0.00    -0.030 A 
ATOM     21  C   UNL A   1      31.231  22.843  23.279  1.00  0.00    -0.060 A 
ATOM     22  H   UNL A   1      31.891  21.727  24.944  1.00  0.00     0.064 H 
ATOM     23  H   UNL A   1      30.491  25.585  25.810  1.00  0.00     0.065 H 
ATOM     24  C   UNL A   1      30.748  24.082  22.844  1.00  0.00    -0.054 A 
ATOM     25  H   UNL A   1      31.395  22.087  22.597  1.00  0.00     0.062 H 
ATOM     26  H   UNL A   1      30.571  24.233  21.840  1.00  0.00     0.063 H 
BRANCH  18  27
ATOM     27  N   UNL A   1      31.530  23.415  26.903  1.00  0.00    -0.291 N 
ATOM     28  C   UNL A   1      32.782  23.227  27.430  1.00  0.00     0.411 C 
ATOM     29  O   UNL A   1      32.949  22.615  28.471  1.00  0.00    -0.224 OA
ATOM     30  H   UNL A   1      30.777  23.401  27.539  1.00  0.00     0.173 HD
BRANCH  28  31
ATOM     31  O   UNL A   1      33.743  23.895  26.739  1.00  0.00    -0.449 OA
BRANCH  31  32
ATOM     32  C   UNL A   1      34.789  23.137  26.112  1.00  0.00     0.093 C 
ATOM     33  H   UNL A   1      35.271  22.535  26.854  1.00  0.00     0.071 H 
ATOM     34  H   UNL A   1      34.345  22.532  25.350  1.00  0.00     0.071 H 
BRANCH  32  35
ATOM     35  C   UNL A   1      35.836  24.037  25.448  1.00  0.00    -0.019 C 
ATOM     36  H   UNL A   1      35.359  24.565  24.650  1.00  0.00     0.030 H 
ATOM     37  H   UNL A   1      36.210  24.672  26.224  1.00  0.00     0.030 H 
BRANCH  35  38
ATOM     38  C   UNL A   1      37.060  23.316  24.871  1.00  0.00    -0.050 C 
ATOM     39  H   UNL A   1      36.977  23.324  23.804  1.00  0.00     0.027 H 
ATOM     40  H   UNL A   1      37.918  23.843  25.233  1.00  0.00     0.027 H 
BRANCH  38  41
ATOM     41  C   UNL A   1      37.226  21.859  25.326  1.00  0.00    -0.053 C 
ATOM     42  H   UNL A   1      36.616  21.710  26.191  1.00  0.00     0.027 H 
ATOM     43  H   UNL A   1      36.938  21.251  24.493  1.00  0.00     0.027 H 
BRANCH  41  44
ATOM     44  C   UNL A   1      38.656  21.455  25.678  1.00  0.00    -0.056 C 
ATOM     45  H   UNL A   1      38.627  20.540  26.233  1.00  0.00     0.026 H 
ATOM     46  H   UNL A   1      39.198  21.344  24.762  1.00  0.00     0.026 H 
BRANCH  44  47
ATOM     47  C   UNL A   1      39.372  22.506  26.510  1.00  0.00    -0.065 C 
ATOM     48  H   UNL A   1      40.429  22.339  26.463  1.00  0.00     0.023 H 
ATOM     49  H   UNL A   1      39.047  22.438  27.527  1.00  0.00     0.023 H 
ATOM     50  H   UNL A   1      39.147  23.479  26.127  1.00  0.00     0.023 H 
ENDBRANCH  44  47
ENDBRANCH  41  44
ENDBRANCH  38  41
ENDBRANCH  35  38
ENDBRANCH  32  35
ENDBRANCH  31  32
ENDBRANCH  28  31
ENDBRANCH  18  27
ENDBRANCH   8  17
ENDBRANCH   5   7
BRANCH   5  51
ATOM     51  C   UNL A   1      28.055  30.792  21.048  1.00  0.00    -0.049 C 
ATOM     52  H   UNL A   1      27.356  31.589  21.194  1.00  0.00     0.024 H 
ATOM     53  H   UNL A   1      27.528  29.901  20.776  1.00  0.00     0.024 H 
ATOM     54  H   UNL A   1      28.737  31.054  20.266  1.00  0.00     0.024 H 
ENDBRANCH   5  51
ENDBRANCH   1   5
BRANCH   3  55
ATOM     55  C   UNL A   1      30.480  31.850  24.728  1.00  0.00     0.017 C 
ATOM     56  H   UNL A   1      30.768  32.862  24.925  1.00  0.00     0.049 H 
ATOM     57  H   UNL A   1      30.934  31.492  23.828  1.00  0.00     0.049 H 
BRANCH  55  58
ATOM     58  C   UNL A   1      30.952  30.967  25.885  1.00  0.00    -0.036 C 
ATOM     59  H   UNL A   1      30.133  30.826  26.559  1.00  0.00     0.028 H 
ATOM     60  H   UNL A   1      31.777  31.469  26.346  1.00  0.00     0.028 H 
BRANCH  58  61
ATOM     61  C   UNL A   1      31.457  29.590  25.443  1.00  0.00    -0.052 C 
ATOM     62  H   UNL A   1      32.367  29.729  24.897  1.00  0.00     0.027 H 
ATOM     63  H   UNL A   1      30.673  29.158  24.858  1.00  0.00     0.027 H 
BRANCH  61  64
ATOM     64  C   UNL A   1      31.733  28.603  26.586  1.00  0.00    -0.052 C 
ATOM     65  H   UNL A   1      30.925  27.902  26.619  1.00  0.00     0.027 H 
ATOM     66  H   UNL A   1      31.824  29.198  27.471  1.00  0.00     0.027 H 
BRANCH  64  67
ATOM     67  C   UNL A   1      33.040  27.814  26.472  1.00  0.00    -0.036 C 
ATOM     68  H   UNL A   1      32.991  27.214  25.587  1.00  0.00     0.028 H 
ATOM     69  H   UNL A   1      33.123  27.235  27.367  1.00  0.00     0.028 H 
BRANCH  67  70
ATOM     70  C   UNL A   1      34.298  28.674  26.394  1.00  0.00     0.018 C 
ATOM     71  H   UNL A   1      34.549  28.830  25.366  1.00  0.00     0.049 H 
ATOM     72  H   UNL A   1      35.085  28.161  26.907  1.00  0.00     0.049 H 
BRANCH  70  73
ATOM     73  N   UNL A   1      34.109  29.966  27.035  1.00  0.00    -0.352 N 
ATOM     74  C   UNL A   1      34.864  30.591  27.994  1.00  0.00     0.251 C 
ATOM     75  H   UNL A   1      33.318  30.469  26.733  1.00  0.00     0.163 HD
ATOM     76  O   UNL A   1      34.421  31.569  28.588  1.00  0.00    -0.269 OA
BRANCH  74  77
ATOM     77  C   UNL A   1      36.214  30.085  28.323  1.00  0.00     0.039 A 
ATOM     78  C   UNL A   1      37.242  30.246  27.392  1.00  0.00    -0.049 A 
ATOM     79  C   UNL A   1      36.457  29.426  29.532  1.00  0.00    -0.049 A 
ATOM     80  C   UNL A   1      38.530  29.801  27.698  1.00  0.00    -0.053 A 
ATOM     81  H   UNL A   1      37.051  30.692  26.481  1.00  0.00     0.063 H 
ATOM     82  C   UNL A   1      37.754  29.042  29.864  1.00  0.00    -0.053 A 
ATOM     83  H   UNL A   1      35.677  29.224  30.177  1.00  0.00     0.063 H 
ATOM     84  C   UNL A   1      38.803  29.227  28.950  1.00  0.00    -0.014 A 
ATOM     85  H   UNL A   1      39.285  29.894  27.000  1.00  0.00     0.063 H 
ATOM     86  H   UNL A   1      37.944  28.620  30.786  1.00  0.00     0.063 H 
BRANCH  84  87
ATOM     87  C   UNL A   1      40.182  28.828  29.329  1.00  0.00     0.031 A 
ATOM     88  C   UNL A   1      41.032  29.737  30.171  1.00  0.00     0.074 A 
ATOM     89  C   UNL A   1      40.689  27.675  28.853  1.00  0.00     0.049 A 
ATOM     90  N   UNL A   1      42.281  29.595  30.541  1.00  0.00    -0.248 NA
ATOM     91  C   UNL A   1      40.406  30.983  30.638  1.00  0.00    -0.034 C 
ATOM     92  C   UNL A   1      39.978  26.733  27.989  1.00  0.00    -0.036 A 
ATOM     93  N   UNL A   1      41.927  27.106  29.016  1.00  0.00    -0.354 N 
ATOM     94  C   UNL A   1      42.590  30.734  31.271  1.00  0.00     0.074 A 
ATOM     95  C   UNL A   1      41.417  31.581  31.251  1.00  0.00    -0.034 C 
ATOM     96  H   UNL A   1      39.433  31.306  30.520  1.00  0.00     0.065 H 
ATOM     97  C   UNL A   1      40.782  25.694  27.714  1.00  0.00    -0.036 A 
ATOM     98  H   UNL A   1      39.011  26.848  27.646  1.00  0.00     0.065 H 
ATOM     99  C   UNL A   1      42.078  25.915  28.348  1.00  0.00     0.049 A 
ATOM    100  H   UNL A   1      42.640  27.512  29.562  1.00  0.00     0.167 HD
ATOM    101  C   UNL A   1      43.741  31.034  31.920  1.00  0.00     0.037 A 
ATOM    102  H   UNL A   1      41.374  32.528  31.660  1.00  0.00     0.065 H 
ATOM    103  H   UNL A   1      40.526  24.871  27.146  1.00  0.00     0.065 H 
ATOM    104  C   UNL A   1      43.145  25.100  28.249  1.00  0.00     0.037 A 
ATOM    105  C   UNL A   1      44.898  30.177  31.954  1.00  0.00     0.049 A 
ATOM    106  C   UNL A   1      44.415  25.464  28.967  1.00  0.00     0.074 A 
ATOM    107  C   UNL A   1      46.089  30.362  32.635  1.00  0.00    -0.036 A 
ATOM    108  N   UNL A   1      45.010  28.974  31.273  1.00  0.00    -0.354 N 
ATOM    109  N   UNL A   1      44.674  26.510  29.713  1.00  0.00    -0.248 NA
ATOM    110  C   UNL A   1      45.542  24.531  28.831  1.00  0.00    -0.034 C 
ATOM    111  C   UNL A   1      46.940  29.297  32.326  1.00  0.00    -0.036 A 
ATOM    112  H   UNL A   1      46.310  31.151  33.264  1.00  0.00     0.065 H 
ATOM    113  C   UNL A   1      46.261  28.420  31.495  1.00  0.00     0.049 A 
ATOM    114  H   UNL A   1      44.306  28.573  30.715  1.00  0.00     0.167 HD
ATOM    115  C   UNL A   1      45.979  26.351  30.155  1.00  0.00     0.074 A 
ATOM    116  C   UNL A   1      46.455  25.097  29.608  1.00  0.00    -0.034 C 
ATOM    117  H   UNL A   1      45.607  23.663  28.277  1.00  0.00     0.065 H 
ATOM    118  H   UNL A   1      47.910  29.182  32.660  1.00  0.00     0.065 H 
ATOM    119  C   UNL A   1      46.720  27.171  30.942  1.00  0.00     0.037 A 
ATOM    120  H   UNL A   1      47.386  24.695  29.799  1.00  0.00     0.065 H 
BRANCH 101 121
ATOM    121  C   UNL A   1      43.809  32.347  32.647  1.00  0.00     0.064 A 
ATOM    122  C   UNL A   1      44.277  33.513  32.020  1.00  0.00     0.173 A 
ATOM    123  C   UNL A   1      43.362  32.451  33.972  1.00  0.00     0.173 A 
ATOM    124  F   UNL A   1      44.725  33.466  30.757  1.00  0.00    -0.203 F 
ATOM    125  C   UNL A   1      44.322  34.725  32.703  1.00  0.00     0.198 A 
ATOM    126  C   UNL A   1      43.380  33.672  34.643  1.00  0.00     0.198 A 
ATOM    127  F   UNL A   1      42.899  31.369  34.617  1.00  0.00    -0.203 F 
ATOM    128  F   UNL A   1      44.819  35.813  32.099  1.00  0.00    -0.200 F 
ATOM    129  C   UNL A   1      43.867  34.806  34.011  1.00  0.00     0.200 A 
ATOM    130  F   UNL A   1      42.926  33.750  35.901  1.00  0.00    -0.200 F 
ATOM    131  F   UNL A   1      43.904  35.975  34.663  1.00  0.00    -0.200 F 
ENDBRANCH 101 121
BRANCH 104 132
ATOM    132  C   UNL A   1      43.050  23.849  27.451  1.00  0.00     0.064 A 
ATOM    133  C   UNL A   1      42.701  22.634  28.057  1.00  0.00     0.173 A 
ATOM    134  C   UNL A   1      43.309  23.841  26.073  1.00  0.00     0.173 A 
ATOM    135  F   UNL A   1      42.464  22.588  29.377  1.00  0.00    -0.203 F 
ATOM    136  C   UNL A   1      42.632  21.455  27.319  1.00  0.00     0.198 A 
ATOM    137  C   UNL A   1      43.211  22.666  25.330  1.00  0.00     0.198 A 
ATOM    138  F   UNL A   1      43.642  24.977  25.444  1.00  0.00    -0.203 F 
ATOM    139  F   UNL A   1      42.340  20.300  27.932  1.00  0.00    -0.200 F 
ATOM    140  C   UNL A   1      42.881  21.472  25.955  1.00  0.00     0.200 A 
ATOM    141  F   UNL A   1      43.436  22.690  24.010  1.00  0.00    -0.200 F 
ATOM    142  F   UNL A   1      42.809  20.340  25.244  1.00  0.00    -0.200 F 
ENDBRANCH 104 132
BRANCH 119 143
ATOM    143  C   UNL A   1      48.114  26.725  31.275  1.00  0.00     0.064 A 
ATOM    144  C   UNL A   1      49.221  27.149  30.525  1.00  0.00     0.173 A 
ATOM    145  C   UNL A   1      48.349  25.892  32.380  1.00  0.00     0.173 A 
ATOM    146  F   UNL A   1      49.047  27.932  29.450  1.00  0.00    -0.203 F 
ATOM    147  C   UNL A   1      50.509  26.733  30.852  1.00  0.00     0.198 A 
ATOM    148  C   UNL A   1      49.641  25.504  32.723  1.00  0.00     0.198 A 
ATOM    149  F   UNL A   1      47.326  25.463  33.135  1.00  0.00    -0.203 F 
ATOM    150  F   UNL A   1      51.546  27.109  30.090  1.00  0.00    -0.200 F 
ATOM    151  C   UNL A   1      50.719  25.917  31.954  1.00  0.00     0.200 A 
ATOM    152  F   UNL A   1      49.843  24.727  33.796  1.00  0.00    -0.200 F 
ATOM    153  F   UNL A   1      51.959  25.524  32.271  1.00  0.00    -0.200 F 
ENDBRANCH 119 143
ENDBRANCH  84  87
ENDBRANCH  74  77
ENDBRANCH  70  73
ENDBRANCH  67  70
ENDBRANCH  64  67
ENDBRANCH  61  64
ENDBRANCH  58  61
ENDBRANCH  55  58
ENDBRANCH   3  55
TORSDOF 24
ENDMDL
MODEL 6
REMARK VINA RESULT:     -10.3      3.971      8.989
REMARK SMILES CCCCCCOC(=O)Nc1cccc(-c2ccc([C@@H](C)C(=O)NCCCCCCNC(=O)c3ccc(-c4c5nc(c(-c6c(F)c(F)c(F)c(F)c6F)c6ccc([nH]6)c(-c6c(F)c(F)c(F)c(F)c6F)c6nc(c(-c7c(F)c(F)c(F)c(F)c7F)c7ccc4[nH]7)C=C6)C=C5)cc3)cc2F)c1
REMARK SMILES IDX 22 1 23 2 24 3 20 5 19 7 16 8 17 9 98 10 18 11 97 13 99 14
REMARK SMILES IDX 15 17 11 18 12 19 100 20 13 21 14 24 10 27 8 28 9 29 7 31
REMARK SMILES IDX 6 32 5 35 4 38 3 41 2 44 1 47 21 51 25 55 26 58 27 61 28 64
REMARK SMILES IDX 29 67 30 70 31 73 32 74 33 76 34 77 35 78 96 79 36 80 95 82
REMARK SMILES IDX 37 84 38 87 39 88 89 89 40 90 94 91 88 92 90 93 41 94 93 95
REMARK SMILES IDX 87 97 86 99 42 101 74 104 54 105 73 106 55 107 58 108 72 109
REMARK SMILES IDX 91 110 56 111 57 113 71 115 92 116 59 119 43 121 44 122
REMARK SMILES IDX 52 123 45 124 46 125 50 126 53 127 47 128 48 129 51 130
REMARK SMILES IDX 49 131 75 132 76 133 84 134 77 135 78 136 82 137 85 138
REMARK SMILES IDX 79 139 80 140 83 141 81 142 60 143 61 144 69 145 62 146
REMARK SMILES IDX 63 147 67 148 70 149 64 150 65 151 68 152 66 153
REMARK H PARENT 24 4 20 6 17 12 18 15 97 16 12 22 100 23 13 25 14 26 10 30
REMARK H PARENT 6 33 6 34 5 36 5 37 4 39 4 40 3 42 3 43 2 45 2 46 1 48 1 49
REMARK H PARENT 1 50 21 52 21 53 21 54 25 56 25 57 26 59 26 60 27 62 27 63
REMARK H PARENT 28 65 28 66 29 68 29 69 30 71 30 72 31 75 35 81 96 83 36 85
REMARK H PARENT 95 86 94 96 88 98 90 100 93 102 87 103 55 112 58 114 91 117
REMARK H PARENT 56 118 92 120
REMARK Flexibility Score: inf
ROOT
ATOM      1  C   UNL A   1      30.961  25.752  25.911  1.00  0.00     0.227 C 
ATOM      2  O   UNL A   1      30.266  24.912  26.496  1.00  0.00    -0.274 OA
ATOM      3  N   UNL A   1      31.104  26.955  26.530  1.00  0.00    -0.356 N 
ATOM      4  H   UNL A   1      30.704  26.997  27.428  1.00  0.00     0.163 HD
ENDROOT
BRANCH   1   5
ATOM      5  C   UNL A   1      31.617  25.402  24.567  1.00  0.00     0.060 C 
ATOM      6  H   UNL A   1      31.940  26.334  24.151  1.00  0.00     0.045 H 
BRANCH   5   7
ATOM      7  C   UNL A   1      32.914  24.620  24.706  1.00  0.00    -0.033 A 
ATOM      8  C   UNL A   1      35.235  22.985  25.037  1.00  0.00     0.018 A 
ATOM      9  C   UNL A   1      34.887  23.514  23.787  1.00  0.00    -0.051 A 
ATOM     10  C   UNL A   1      34.422  23.347  26.124  1.00  0.00     0.131 A 
ATOM     11  C   UNL A   1      33.767  24.342  23.632  1.00  0.00    -0.057 A 
ATOM     12  H   UNL A   1      35.469  23.290  22.965  1.00  0.00     0.063 H 
ATOM     13  C   UNL A   1      33.275  24.125  25.966  1.00  0.00    -0.022 A 
ATOM     14  F   UNL A   1      34.725  22.940  27.368  1.00  0.00    -0.206 F 
ATOM     15  H   UNL A   1      33.567  24.753  22.707  1.00  0.00     0.063 H 
ATOM     16  H   UNL A   1      32.686  24.340  26.785  1.00  0.00     0.066 H 
BRANCH   8  17
ATOM     17  C   UNL A   1      36.383  22.067  25.185  1.00  0.00    -0.013 A 
ATOM     18  C   UNL A   1      38.739  21.717  25.759  1.00  0.00     0.045 A 
ATOM     19  C   UNL A   1      38.644  20.380  25.387  1.00  0.00    -0.038 A 
ATOM     20  C   UNL A   1      37.613  22.542  25.665  1.00  0.00    -0.030 A 
ATOM     21  C   UNL A   1      37.418  19.866  24.969  1.00  0.00    -0.060 A 
ATOM     22  H   UNL A   1      39.477  19.772  25.421  1.00  0.00     0.064 H 
ATOM     23  H   UNL A   1      37.690  23.530  25.957  1.00  0.00     0.065 H 
ATOM     24  C   UNL A   1      36.302  20.702  24.861  1.00  0.00    -0.054 A 
ATOM     25  H   UNL A   1      37.334  18.864  24.737  1.00  0.00     0.062 H 
ATOM     26  H   UNL A   1      35.404  20.311  24.539  1.00  0.00     0.063 H 
BRANCH  18  27
ATOM     27  N   UNL A   1      39.988  22.236  26.121  1.00  0.00    -0.291 N 
ATOM     28  C   UNL A   1      40.775  21.829  27.168  1.00  0.00     0.411 C 
ATOM     29  O   UNL A   1      41.578  22.582  27.690  1.00  0.00    -0.224 OA
ATOM     30  H   UNL A   1      40.338  22.971  25.566  1.00  0.00     0.173 HD
BRANCH  28  31
ATOM     31  O   UNL A   1      40.638  20.503  27.438  1.00  0.00    -0.449 OA
BRANCH  31  32
ATOM     32  C   UNL A   1      41.810  19.676  27.423  1.00  0.00     0.093 C 
ATOM     33  H   UNL A   1      42.657  20.272  27.692  1.00  0.00     0.071 H 
ATOM     34  H   UNL A   1      41.660  18.879  28.120  1.00  0.00     0.071 H 
BRANCH  32  35
ATOM     35  C   UNL A   1      42.060  19.055  26.045  1.00  0.00    -0.019 C 
ATOM     36  H   UNL A   1      42.015  17.992  26.149  1.00  0.00     0.030 H 
ATOM     37  H   UNL A   1      41.307  19.459  25.401  1.00  0.00     0.030 H 
BRANCH  35  38
ATOM     38  C   UNL A   1      43.403  19.408  25.392  1.00  0.00    -0.050 C 
ATOM     39  H   UNL A   1      44.142  18.733  25.769  1.00  0.00     0.027 H 
ATOM     40  H   UNL A   1      43.254  19.327  24.336  1.00  0.00     0.027 H 
BRANCH  38  41
ATOM     41  C   UNL A   1      43.889  20.841  25.649  1.00  0.00    -0.053 C 
ATOM     42  H   UNL A   1      43.058  21.502  25.521  1.00  0.00     0.027 H 
ATOM     43  H   UNL A   1      44.287  20.848  26.643  1.00  0.00     0.027 H 
BRANCH  41  44
ATOM     44  C   UNL A   1      45.016  21.312  24.732  1.00  0.00    -0.056 C 
ATOM     45  H   UNL A   1      45.865  21.562  25.334  1.00  0.00     0.026 H 
ATOM     46  H   UNL A   1      45.236  20.515  24.052  1.00  0.00     0.026 H 
BRANCH  44  47
ATOM     47  C   UNL A   1      44.629  22.527  23.906  1.00  0.00    -0.065 C 
ATOM     48  H   UNL A   1      44.369  23.335  24.559  1.00  0.00     0.023 H 
ATOM     49  H   UNL A   1      43.790  22.285  23.288  1.00  0.00     0.023 H 
ATOM     50  H   UNL A   1      45.455  22.817  23.291  1.00  0.00     0.023 H 
ENDBRANCH  44  47
ENDBRANCH  41  44
ENDBRANCH  38  41
ENDBRANCH  35  38
ENDBRANCH  32  35
ENDBRANCH  31  32
ENDBRANCH  28  31
ENDBRANCH  18  27
ENDBRANCH   8  17
ENDBRANCH   5   7
BRANCH   5  51
ATOM     51  C   UNL A   1      30.637  24.888  23.513  1.00  0.00    -0.049 C 
ATOM     52  H   UNL A   1      31.126  24.843  22.562  1.00  0.00     0.024 H 
ATOM     53  H   UNL A   1      29.799  25.552  23.452  1.00  0.00     0.024 H 
ATOM     54  H   UNL A   1      30.297  23.912  23.787  1.00  0.00     0.024 H 
ENDBRANCH   5  51
ENDBRANCH   1   5
BRANCH   3  55
ATOM     55  C   UNL A   1      31.741  28.181  26.104  1.00  0.00     0.017 C 
ATOM     56  H   UNL A   1      31.012  28.803  25.626  1.00  0.00     0.049 H 
ATOM     57  H   UNL A   1      32.531  27.930  25.428  1.00  0.00     0.049 H 
BRANCH  55  58
ATOM     58  C   UNL A   1      32.345  28.944  27.285  1.00  0.00    -0.036 C 
ATOM     59  H   UNL A   1      32.445  28.268  28.108  1.00  0.00     0.028 H 
ATOM     60  H   UNL A   1      31.685  29.757  27.503  1.00  0.00     0.028 H 
BRANCH  58  61
ATOM     61  C   UNL A   1      33.721  29.550  26.987  1.00  0.00    -0.052 C 
ATOM     62  H   UNL A   1      33.792  29.708  25.931  1.00  0.00     0.027 H 
ATOM     63  H   UNL A   1      34.442  28.855  27.362  1.00  0.00     0.027 H 
BRANCH  61  64
ATOM     64  C   UNL A   1      34.006  30.885  27.689  1.00  0.00    -0.052 C 
ATOM     65  H   UNL A   1      35.066  30.979  27.802  1.00  0.00     0.027 H 
ATOM     66  H   UNL A   1      33.476  30.847  28.618  1.00  0.00     0.027 H 
BRANCH  64  67
ATOM     67  C   UNL A   1      33.495  32.133  26.963  1.00  0.00    -0.036 C 
ATOM     68  H   UNL A   1      33.257  31.858  25.957  1.00  0.00     0.028 H 
ATOM     69  H   UNL A   1      34.276  32.861  27.026  1.00  0.00     0.028 H 
BRANCH  67  70
ATOM     70  C   UNL A   1      32.258  32.771  27.588  1.00  0.00     0.018 C 
ATOM     71  H   UNL A   1      32.076  32.316  28.539  1.00  0.00     0.049 H 
ATOM     72  H   UNL A   1      31.432  32.616  26.925  1.00  0.00     0.049 H 
BRANCH  70  73
ATOM     73  N   UNL A   1      32.425  34.204  27.774  1.00  0.00    -0.352 N 
ATOM     74  C   UNL A   1      33.279  34.889  28.601  1.00  0.00     0.251 C 
ATOM     75  H   UNL A   1      31.836  34.768  27.222  1.00  0.00     0.163 HD
ATOM     76  O   UNL A   1      33.114  36.088  28.801  1.00  0.00    -0.269 OA
BRANCH  74  77
ATOM     77  C   UNL A   1      34.399  34.185  29.261  1.00  0.00     0.039 A 
ATOM     78  C   UNL A   1      35.694  34.363  28.769  1.00  0.00    -0.049 A 
ATOM     79  C   UNL A   1      34.168  33.326  30.340  1.00  0.00    -0.049 A 
ATOM     80  C   UNL A   1      36.768  33.729  29.399  1.00  0.00    -0.053 A 
ATOM     81  H   UNL A   1      35.857  34.962  27.944  1.00  0.00     0.063 H 
ATOM     82  C   UNL A   1      35.245  32.747  31.007  1.00  0.00    -0.053 A 
ATOM     83  H   UNL A   1      33.203  33.120  30.640  1.00  0.00     0.063 H 
ATOM     84  C   UNL A   1      36.555  32.944  30.543  1.00  0.00    -0.014 A 
ATOM     85  H   UNL A   1      37.721  33.838  29.020  1.00  0.00     0.063 H 
ATOM     86  H   UNL A   1      35.079  32.170  31.847  1.00  0.00     0.063 H 
BRANCH  84  87
ATOM     87  C   UNL A   1      37.691  32.334  31.279  1.00  0.00     0.031 A 
ATOM     88  C   UNL A   1      38.444  31.174  30.689  1.00  0.00     0.074 A 
ATOM     89  C   UNL A   1      37.998  32.784  32.510  1.00  0.00     0.049 A 
ATOM     90  N   UNL A   1      39.414  30.466  31.212  1.00  0.00    -0.248 NA
ATOM     91  C   UNL A   1      38.037  30.736  29.346  1.00  0.00    -0.034 C 
ATOM     92  C   UNL A   1      37.310  33.872  33.207  1.00  0.00    -0.036 A 
ATOM     93  N   UNL A   1      38.958  32.374  33.401  1.00  0.00    -0.354 N 
ATOM     94  C   UNL A   1      39.723  29.496  30.268  1.00  0.00     0.074 A 
ATOM     95  C   UNL A   1      38.805  29.672  29.163  1.00  0.00    -0.034 C 
ATOM     96  H   UNL A   1      37.336  31.150  28.711  1.00  0.00     0.065 H 
ATOM     97  C   UNL A   1      37.881  34.056  34.408  1.00  0.00    -0.036 A 
ATOM     98  H   UNL A   1      36.513  34.411  32.834  1.00  0.00     0.065 H 
ATOM     99  C   UNL A   1      38.948  33.076  34.582  1.00  0.00     0.049 A 
ATOM    100  H   UNL A   1      39.594  31.646  33.212  1.00  0.00     0.167 HD
ATOM    101  C   UNL A   1      40.699  28.556  30.311  1.00  0.00     0.037 A 
ATOM    102  H   UNL A   1      38.756  29.051  28.341  1.00  0.00     0.065 H 
ATOM    103  H   UNL A   1      37.610  34.776  35.096  1.00  0.00     0.065 H 
ATOM    104  C   UNL A   1      39.707  32.936  35.686  1.00  0.00     0.037 A 
ATOM    105  C   UNL A   1      41.622  28.399  31.405  1.00  0.00     0.049 A 
ATOM    106  C   UNL A   1      40.774  31.877  35.713  1.00  0.00     0.074 A 
ATOM    107  C   UNL A   1      42.687  27.520  31.516  1.00  0.00    -0.036 A 
ATOM    108  N   UNL A   1      41.588  29.134  32.580  1.00  0.00    -0.354 N 
ATOM    109  N   UNL A   1      41.103  31.010  34.786  1.00  0.00    -0.248 NA
ATOM    110  C   UNL A   1      41.578  31.778  36.938  1.00  0.00    -0.034 C 
ATOM    111  C   UNL A   1      43.265  27.690  32.777  1.00  0.00    -0.036 A 
ATOM    112  H   UNL A   1      43.000  26.855  30.790  1.00  0.00     0.065 H 
ATOM    113  C   UNL A   1      42.595  28.710  33.433  1.00  0.00     0.049 A 
ATOM    114  H   UNL A   1      40.944  29.852  32.779  1.00  0.00     0.167 HD
ATOM    115  C   UNL A   1      42.164  30.282  35.304  1.00  0.00     0.074 A 
ATOM    116  C   UNL A   1      42.437  30.820  36.621  1.00  0.00    -0.034 C 
ATOM    117  H   UNL A   1      41.495  32.314  37.816  1.00  0.00     0.065 H 
ATOM    118  H   UNL A   1      44.056  27.147  33.156  1.00  0.00     0.065 H 
ATOM    119  C   UNL A   1      42.852  29.256  34.742  1.00  0.00     0.037 A 
ATOM    120  H   UNL A   1      43.203  30.499  37.234  1.00  0.00     0.065 H 
BRANCH 101 121
ATOM    121  C   UNL A   1      40.819  27.624  29.140  1.00  0.00     0.064 A 
ATOM    122  C   UNL A   1      39.930  26.553  28.956  1.00  0.00     0.173 A 
ATOM    123  C   UNL A   1      41.810  27.825  28.168  1.00  0.00     0.173 A 
ATOM    124  F   UNL A   1      38.970  26.310  29.863  1.00  0.00    -0.203 F 
ATOM    125  C   UNL A   1      40.046  25.704  27.860  1.00  0.00     0.198 A 
ATOM    126  C   UNL A   1      41.904  26.992  27.055  1.00  0.00     0.198 A 
ATOM    127  F   UNL A   1      42.683  28.837  28.290  1.00  0.00    -0.203 F 
ATOM    128  F   UNL A   1      39.215  24.660  27.732  1.00  0.00    -0.200 F 
ATOM    129  C   UNL A   1      41.028  25.928  26.906  1.00  0.00     0.200 A 
ATOM    130  F   UNL A   1      42.845  27.219  26.129  1.00  0.00    -0.200 F 
ATOM    131  F   UNL A   1      41.133  25.115  25.847  1.00  0.00    -0.200 F 
ENDBRANCH 101 121
BRANCH 104 132
ATOM    132  C   UNL A   1      39.495  33.836  36.849  1.00  0.00     0.064 A 
ATOM    133  C   UNL A   1      38.734  33.419  37.951  1.00  0.00     0.173 A 
ATOM    134  C   UNL A   1      40.041  35.127  36.884  1.00  0.00     0.173 A 
ATOM    135  F   UNL A   1      38.173  32.201  37.955  1.00  0.00    -0.203 F 
ATOM    136  C   UNL A   1      38.513  34.266  39.035  1.00  0.00     0.198 A 
ATOM    137  C   UNL A   1      39.844  35.962  37.982  1.00  0.00     0.198 A 
ATOM    138  F   UNL A   1      40.782  35.572  35.859  1.00  0.00    -0.203 F 
ATOM    139  F   UNL A   1      37.744  33.859  40.054  1.00  0.00    -0.200 F 
ATOM    140  C   UNL A   1      39.072  35.535  39.053  1.00  0.00     0.200 A 
ATOM    141  F   UNL A   1      40.400  37.181  38.002  1.00  0.00    -0.200 F 
ATOM    142  F   UNL A   1      38.865  36.347  40.097  1.00  0.00    -0.200 F 
ENDBRANCH 104 132
BRANCH 119 143
ATOM    143  C   UNL A   1      43.978  28.666  35.540  1.00  0.00     0.064 A 
ATOM    144  C   UNL A   1      43.780  27.568  36.390  1.00  0.00     0.173 A 
ATOM    145  C   UNL A   1      45.277  29.184  35.426  1.00  0.00     0.173 A 
ATOM    146  F   UNL A   1      42.554  27.048  36.546  1.00  0.00    -0.203 F 
ATOM    147  C   UNL A   1      44.837  27.027  37.118  1.00  0.00     0.198 A 
ATOM    148  C   UNL A   1      46.337  28.621  36.132  1.00  0.00     0.198 A 
ATOM    149  F   UNL A   1      45.522  30.230  34.622  1.00  0.00    -0.203 F 
ATOM    150  F   UNL A   1      44.615  26.011  37.963  1.00  0.00    -0.200 F 
ATOM    151  C   UNL A   1      46.115  27.549  36.983  1.00  0.00     0.200 A 
ATOM    152  F   UNL A   1      47.573  29.117  35.989  1.00  0.00    -0.200 F 
ATOM    153  F   UNL A   1      47.131  27.023  37.678  1.00  0.00    -0.200 F 
ENDBRANCH 119 143
ENDBRANCH  84  87
ENDBRANCH  74  77
ENDBRANCH  70  73
ENDBRANCH  67  70
ENDBRANCH  64  67
ENDBRANCH  61  64
ENDBRANCH  58  61
ENDBRANCH  55  58
ENDBRANCH   3  55
TORSDOF 24
ENDMDL
MODEL 7
REMARK VINA RESULT:     -10.2      3.218      8.430
REMARK SMILES CCCCCCOC(=O)Nc1cccc(-c2ccc([C@@H](C)C(=O)NCCCCCCNC(=O)c3ccc(-c4c5nc(c(-c6c(F)c(F)c(F)c(F)c6F)c6ccc([nH]6)c(-c6c(F)c(F)c(F)c(F)c6F)c6nc(c(-c7c(F)c(F)c(F)c(F)c7F)c7ccc4[nH]7)C=C6)C=C5)cc3)cc2F)c1
REMARK SMILES IDX 22 1 23 2 24 3 20 5 19 7 16 8 17 9 98 10 18 11 97 13 99 14
REMARK SMILES IDX 15 17 11 18 12 19 100 20 13 21 14 24 10 27 8 28 9 29 7 31
REMARK SMILES IDX 6 32 5 35 4 38 3 41 2 44 1 47 21 51 25 55 26 58 27 61 28 64
REMARK SMILES IDX 29 67 30 70 31 73 32 74 33 76 34 77 35 78 96 79 36 80 95 82
REMARK SMILES IDX 37 84 38 87 39 88 89 89 40 90 94 91 88 92 90 93 41 94 93 95
REMARK SMILES IDX 87 97 86 99 42 101 74 104 54 105 73 106 55 107 58 108 72 109
REMARK SMILES IDX 91 110 56 111 57 113 71 115 92 116 59 119 43 121 44 122
REMARK SMILES IDX 52 123 45 124 46 125 50 126 53 127 47 128 48 129 51 130
REMARK SMILES IDX 49 131 75 132 76 133 84 134 77 135 78 136 82 137 85 138
REMARK SMILES IDX 79 139 80 140 83 141 81 142 60 143 61 144 69 145 62 146
REMARK SMILES IDX 63 147 67 148 70 149 64 150 65 151 68 152 66 153
REMARK H PARENT 24 4 20 6 17 12 18 15 97 16 12 22 100 23 13 25 14 26 10 30
REMARK H PARENT 6 33 6 34 5 36 5 37 4 39 4 40 3 42 3 43 2 45 2 46 1 48 1 49
REMARK H PARENT 1 50 21 52 21 53 21 54 25 56 25 57 26 59 26 60 27 62 27 63
REMARK H PARENT 28 65 28 66 29 68 29 69 30 71 30 72 31 75 35 81 96 83 36 85
REMARK H PARENT 95 86 94 96 88 98 90 100 93 102 87 103 55 112 58 114 91 117
REMARK H PARENT 56 118 92 120
REMARK Flexibility Score: inf
ROOT
ATOM      1  C   UNL A   1      31.245  23.075  24.779  1.00  0.00     0.227 C 
ATOM      2  O   UNL A   1      31.054  22.177  25.608  1.00  0.00    -0.274 OA
ATOM      3  N   UNL A   1      30.377  24.122  24.810  1.00  0.00    -0.356 N 
ATOM      4  H   UNL A   1      29.732  24.090  25.553  1.00  0.00     0.163 HD
ENDROOT
BRANCH   1   5
ATOM      5  C   UNL A   1      32.425  22.975  23.800  1.00  0.00     0.060 C 
ATOM      6  H   UNL A   1      32.380  23.862  23.203  1.00  0.00     0.045 H 
BRANCH   5   7
ATOM      7  C   UNL A   1      33.785  23.080  24.470  1.00  0.00    -0.033 A 
ATOM      8  C   UNL A   1      36.372  23.463  25.627  1.00  0.00     0.018 A 
ATOM      9  C   UNL A   1      35.223  23.366  26.423  1.00  0.00    -0.051 A 
ATOM     10  C   UNL A   1      36.195  23.304  24.242  1.00  0.00     0.131 A 
ATOM     11  C   UNL A   1      33.959  23.147  25.858  1.00  0.00    -0.057 A 
ATOM     12  H   UNL A   1      35.309  23.458  27.447  1.00  0.00     0.063 H 
ATOM     13  C   UNL A   1      34.933  23.139  23.669  1.00  0.00    -0.022 A 
ATOM     14  F   UNL A   1      37.252  23.313  23.414  1.00  0.00    -0.206 F 
ATOM     15  H   UNL A   1      33.142  23.033  26.477  1.00  0.00     0.063 H 
ATOM     16  H   UNL A   1      34.844  23.060  22.645  1.00  0.00     0.066 H 
BRANCH   8  17
ATOM     17  C   UNL A   1      37.692  23.752  26.223  1.00  0.00    -0.013 A 
ATOM     18  C   UNL A   1      39.816  22.937  27.130  1.00  0.00     0.045 A 
ATOM     19  C   UNL A   1      40.188  24.235  27.463  1.00  0.00    -0.038 A 
ATOM     20  C   UNL A   1      38.584  22.707  26.508  1.00  0.00    -0.030 A 
ATOM     21  C   UNL A   1      39.349  25.298  27.131  1.00  0.00    -0.060 A 
ATOM     22  H   UNL A   1      41.079  24.410  27.952  1.00  0.00     0.064 H 
ATOM     23  H   UNL A   1      38.324  21.741  26.253  1.00  0.00     0.065 H 
ATOM     24  C   UNL A   1      38.111  25.058  26.525  1.00  0.00    -0.054 A 
ATOM     25  H   UNL A   1      39.644  26.266  27.334  1.00  0.00     0.062 H 
ATOM     26  H   UNL A   1      37.496  25.854  26.296  1.00  0.00     0.063 H 
BRANCH  18  27
ATOM     27  N   UNL A   1      40.639  21.872  27.521  1.00  0.00    -0.291 N 
ATOM     28  C   UNL A   1      40.550  20.569  27.103  1.00  0.00     0.411 C 
ATOM     29  O   UNL A   1      40.961  19.651  27.791  1.00  0.00    -0.224 OA
ATOM     30  H   UNL A   1      41.355  22.081  28.164  1.00  0.00     0.173 HD
BRANCH  28  31
ATOM     31  O   UNL A   1      40.090  20.461  25.828  1.00  0.00    -0.449 OA
BRANCH  31  32
ATOM     32  C   UNL A   1      39.166  19.407  25.520  1.00  0.00     0.093 C 
ATOM     33  H   UNL A   1      39.664  18.677  24.915  1.00  0.00     0.071 H 
ATOM     34  H   UNL A   1      38.831  18.983  26.443  1.00  0.00     0.071 H 
BRANCH  32  35
ATOM     35  C   UNL A   1      37.936  19.920  24.764  1.00  0.00    -0.019 C 
ATOM     36  H   UNL A   1      37.692  20.887  25.149  1.00  0.00     0.030 H 
ATOM     37  H   UNL A   1      38.210  19.923  23.729  1.00  0.00     0.030 H 
BRANCH  35  38
ATOM     38  C   UNL A   1      36.683  19.042  24.864  1.00  0.00    -0.050 C 
ATOM     39  H   UNL A   1      36.644  18.419  23.995  1.00  0.00     0.027 H 
ATOM     40  H   UNL A   1      36.774  18.491  25.776  1.00  0.00     0.027 H 
BRANCH  38  41
ATOM     41  C   UNL A   1      35.359  19.813  24.957  1.00  0.00    -0.053 C 
ATOM     42  H   UNL A   1      35.214  20.101  25.977  1.00  0.00     0.027 H 
ATOM     43  H   UNL A   1      35.449  20.645  24.290  1.00  0.00     0.027 H 
BRANCH  41  44
ATOM     44  C   UNL A   1      34.127  19.032  24.505  1.00  0.00    -0.056 C 
ATOM     45  H   UNL A   1      33.405  19.043  25.294  1.00  0.00     0.026 H 
ATOM     46  H   UNL A   1      33.750  19.503  23.620  1.00  0.00     0.026 H 
BRANCH  44  47
ATOM     47  C   UNL A   1      34.445  17.588  24.156  1.00  0.00    -0.065 C 
ATOM     48  H   UNL A   1      35.258  17.245  24.762  1.00  0.00     0.023 H 
ATOM     49  H   UNL A   1      34.719  17.523  23.123  1.00  0.00     0.023 H 
ATOM     50  H   UNL A   1      33.584  16.979  24.336  1.00  0.00     0.023 H 
ENDBRANCH  44  47
ENDBRANCH  41  44
ENDBRANCH  38  41
ENDBRANCH  35  38
ENDBRANCH  32  35
ENDBRANCH  31  32
ENDBRANCH  28  31
ENDBRANCH  18  27
ENDBRANCH   8  17
ENDBRANCH   5   7
BRANCH   5  51
ATOM     51  C   UNL A   1      32.275  21.865  22.760  1.00  0.00    -0.049 C 
ATOM     52  H   UNL A   1      31.272  21.492  22.779  1.00  0.00     0.024 H 
ATOM     53  H   UNL A   1      32.955  21.070  22.986  1.00  0.00     0.024 H 
ATOM     54  H   UNL A   1      32.493  22.254  21.788  1.00  0.00     0.024 H 
ENDBRANCH   5  51
ENDBRANCH   1   5
BRANCH   3  55
ATOM     55  C   UNL A   1      30.232  25.272  23.946  1.00  0.00     0.017 C 
ATOM     56  H   UNL A   1      29.294  25.206  23.434  1.00  0.00     0.049 H 
ATOM     57  H   UNL A   1      31.047  25.274  23.253  1.00  0.00     0.049 H 
BRANCH  55  58
ATOM     58  C   UNL A   1      30.274  26.582  24.737  1.00  0.00    -0.036 C 
ATOM     59  H   UNL A   1      29.311  26.742  25.177  1.00  0.00     0.028 H 
ATOM     60  H   UNL A   1      30.541  27.355  24.048  1.00  0.00     0.028 H 
BRANCH  58  61
ATOM     61  C   UNL A   1      31.323  26.594  25.853  1.00  0.00    -0.052 C 
ATOM     62  H   UNL A   1      31.193  25.709  26.442  1.00  0.00     0.027 H 
ATOM     63  H   UNL A   1      31.165  27.496  26.404  1.00  0.00     0.027 H 
BRANCH  61  64
ATOM     64  C   UNL A   1      32.780  26.635  25.372  1.00  0.00    -0.052 C 
ATOM     65  H   UNL A   1      32.786  27.003  24.367  1.00  0.00     0.027 H 
ATOM     66  H   UNL A   1      33.149  25.634  25.465  1.00  0.00     0.027 H 
BRANCH  64  67
ATOM     67  C   UNL A   1      33.723  27.511  26.201  1.00  0.00    -0.036 C 
ATOM     68  H   UNL A   1      34.596  26.937  26.431  1.00  0.00     0.028 H 
ATOM     69  H   UNL A   1      33.175  27.807  27.071  1.00  0.00     0.028 H 
BRANCH  67  70
ATOM     70  C   UNL A   1      34.167  28.799  25.512  1.00  0.00     0.018 C 
ATOM     71  H   UNL A   1      33.956  28.721  24.465  1.00  0.00     0.049 H 
ATOM     72  H   UNL A   1      35.215  28.924  25.684  1.00  0.00     0.049 H 
BRANCH  70  73
ATOM     73  N   UNL A   1      33.478  29.963  26.047  1.00  0.00    -0.352 N 
ATOM     74  C   UNL A   1      33.786  30.746  27.130  1.00  0.00     0.251 C 
ATOM     75  H   UNL A   1      32.667  30.230  25.556  1.00  0.00     0.163 HD
ATOM     76  O   UNL A   1      32.961  31.538  27.574  1.00  0.00    -0.269 OA
BRANCH  74  77
ATOM     77  C   UNL A   1      35.112  30.634  27.774  1.00  0.00     0.039 A 
ATOM     78  C   UNL A   1      35.971  31.735  27.750  1.00  0.00    -0.049 A 
ATOM     79  C   UNL A   1      35.520  29.437  28.370  1.00  0.00    -0.049 A 
ATOM     80  C   UNL A   1      37.215  31.657  28.380  1.00  0.00    -0.053 A 
ATOM     81  H   UNL A   1      35.687  32.604  27.271  1.00  0.00     0.063 H 
ATOM     82  C   UNL A   1      36.732  29.381  29.054  1.00  0.00    -0.053 A 
ATOM     83  H   UNL A   1      34.925  28.596  28.304  1.00  0.00     0.063 H 
ATOM     84  C   UNL A   1      37.591  30.491  29.066  1.00  0.00    -0.014 A 
ATOM     85  H   UNL A   1      37.862  32.461  28.340  1.00  0.00     0.063 H 
ATOM     86  H   UNL A   1      37.000  28.519  29.554  1.00  0.00     0.063 H 
BRANCH  84  87
ATOM     87  C   UNL A   1      38.870  30.419  29.816  1.00  0.00     0.031 A 
ATOM     88  C   UNL A   1      40.036  29.652  29.259  1.00  0.00     0.074 A 
ATOM     89  C   UNL A   1      38.955  30.990  31.032  1.00  0.00     0.049 A 
ATOM     90  N   UNL A   1      41.206  29.416  29.798  1.00  0.00    -0.248 NA
ATOM     91  C   UNL A   1      39.857  29.049  27.930  1.00  0.00    -0.034 C 
ATOM     92  C   UNL A   1      37.877  31.721  31.699  1.00  0.00    -0.036 A 
ATOM     93  N   UNL A   1      39.990  31.033  31.933  1.00  0.00    -0.354 N 
ATOM     94  C   UNL A   1      41.893  28.631  28.883  1.00  0.00     0.074 A 
ATOM     95  C   UNL A   1      40.993  28.387  27.776  1.00  0.00    -0.034 C 
ATOM     96  H   UNL A   1      39.053  29.123  27.285  1.00  0.00     0.065 H 
ATOM     97  C   UNL A   1      38.311  32.156  32.892  1.00  0.00    -0.036 A 
ATOM     98  H   UNL A   1      36.932  31.877  31.313  1.00  0.00     0.065 H 
ATOM     99  C   UNL A   1      39.684  31.702  33.093  1.00  0.00     0.049 A 
ATOM    100  H   UNL A   1      40.870  30.623  31.763  1.00  0.00     0.167 HD
ATOM    101  C   UNL A   1      43.167  28.174  28.951  1.00  0.00     0.037 A 
ATOM    102  H   UNL A   1      41.210  27.776  26.973  1.00  0.00     0.065 H 
ATOM    103  H   UNL A   1      37.764  32.721  33.560  1.00  0.00     0.065 H 
ATOM    104  C   UNL A   1      40.424  31.915  34.197  1.00  0.00     0.037 A 
ATOM    105  C   UNL A   1      44.064  28.438  30.046  1.00  0.00     0.049 A 
ATOM    106  C   UNL A   1      41.829  31.385  34.252  1.00  0.00     0.074 A 
ATOM    107  C   UNL A   1      45.394  28.074  30.179  1.00  0.00    -0.036 A 
ATOM    108  N   UNL A   1      43.722  29.128  31.199  1.00  0.00    -0.354 N 
ATOM    109  N   UNL A   1      42.493  30.703  33.350  1.00  0.00    -0.248 NA
ATOM    110  C   UNL A   1      42.592  31.658  35.478  1.00  0.00    -0.034 C 
ATOM    111  C   UNL A   1      45.840  28.500  31.434  1.00  0.00    -0.036 A 
ATOM    112  H   UNL A   1      45.958  27.575  29.473  1.00  0.00     0.065 H 
ATOM    113  C   UNL A   1      44.806  29.176  32.062  1.00  0.00     0.049 A 
ATOM    114  H   UNL A   1      42.839  29.525  31.379  1.00  0.00     0.167 HD
ATOM    115  C   UNL A   1      43.754  30.486  33.887  1.00  0.00     0.074 A 
ATOM    116  C   UNL A   1      43.770  31.126  35.186  1.00  0.00    -0.034 C 
ATOM    117  H   UNL A   1      42.290  32.138  36.340  1.00  0.00     0.065 H 
ATOM    118  H   UNL A   1      46.780  28.338  31.827  1.00  0.00     0.065 H 
ATOM    119  C   UNL A   1      44.805  29.816  33.353  1.00  0.00     0.037 A 
ATOM    120  H   UNL A   1      44.594  31.162  35.806  1.00  0.00     0.065 H 
BRANCH 101 121
ATOM    121  C   UNL A   1      43.669  27.340  27.807  1.00  0.00     0.064 A 
ATOM    122  C   UNL A   1      44.312  27.917  26.701  1.00  0.00     0.173 A 
ATOM    123  C   UNL A   1      43.543  25.943  27.835  1.00  0.00     0.173 A 
ATOM    124  F   UNL A   1      44.450  29.249  26.620  1.00  0.00    -0.203 F 
ATOM    125  C   UNL A   1      44.784  27.130  25.654  1.00  0.00     0.198 A 
ATOM    126  C   UNL A   1      44.043  25.156  26.801  1.00  0.00     0.198 A 
ATOM    127  F   UNL A   1      42.942  25.338  28.871  1.00  0.00    -0.203 F 
ATOM    128  F   UNL A   1      45.351  27.708  24.586  1.00  0.00    -0.200 F 
ATOM    129  C   UNL A   1      44.655  25.750  25.707  1.00  0.00     0.200 A 
ATOM    130  F   UNL A   1      43.931  23.822  26.861  1.00  0.00    -0.200 F 
ATOM    131  F   UNL A   1      45.117  24.993  24.703  1.00  0.00    -0.200 F 
ENDBRANCH 101 121
BRANCH 104 132
ATOM    132  C   UNL A   1      39.851  32.682  35.335  1.00  0.00     0.064 A 
ATOM    133  C   UNL A   1      40.053  34.064  35.445  1.00  0.00     0.173 A 
ATOM    134  C   UNL A   1      39.096  32.051  36.334  1.00  0.00     0.173 A 
ATOM    135  F   UNL A   1      40.786  34.709  34.524  1.00  0.00    -0.203 F 
ATOM    136  C   UNL A   1      39.539  34.784  36.520  1.00  0.00     0.198 A 
ATOM    137  C   UNL A   1      38.556  32.777  37.394  1.00  0.00     0.198 A 
ATOM    138  F   UNL A   1      38.868  30.731  36.274  1.00  0.00    -0.203 F 
ATOM    139  F   UNL A   1      39.786  36.097  36.624  1.00  0.00    -0.200 F 
ATOM    140  C   UNL A   1      38.785  34.142  37.491  1.00  0.00     0.200 A 
ATOM    141  F   UNL A   1      37.815  32.156  38.321  1.00  0.00    -0.200 F 
ATOM    142  F   UNL A   1      38.285  34.835  38.522  1.00  0.00    -0.200 F 
ENDBRANCH 104 132
BRANCH 119 143
ATOM    143  C   UNL A   1      46.066  29.759  34.164  1.00  0.00     0.064 A 
ATOM    144  C   UNL A   1      47.055  30.749  34.058  1.00  0.00     0.173 A 
ATOM    145  C   UNL A   1      46.273  28.720  35.085  1.00  0.00     0.173 A 
ATOM    146  F   UNL A   1      46.911  31.753  33.181  1.00  0.00    -0.203 F 
ATOM    147  C   UNL A   1      48.216  30.686  34.824  1.00  0.00     0.198 A 
ATOM    148  C   UNL A   1      47.422  28.678  35.871  1.00  0.00     0.198 A 
ATOM    149  F   UNL A   1      45.357  27.751  35.230  1.00  0.00    -0.203 F 
ATOM    150  F   UNL A   1      49.169  31.615  34.668  1.00  0.00    -0.200 F 
ATOM    151  C   UNL A   1      48.395  29.655  35.735  1.00  0.00     0.200 A 
ATOM    152  F   UNL A   1      47.586  27.689  36.760  1.00  0.00    -0.200 F 
ATOM    153  F   UNL A   1      49.510  29.601  36.475  1.00  0.00    -0.200 F 
ENDBRANCH 119 143
ENDBRANCH  84  87
ENDBRANCH  74  77
ENDBRANCH  70  73
ENDBRANCH  67  70
ENDBRANCH  64  67
ENDBRANCH  61  64
ENDBRANCH  58  61
ENDBRANCH  55  58
ENDBRANCH   3  55
TORSDOF 24
ENDMDL
MODEL 8
REMARK VINA RESULT:     -10.0      5.468     11.947
REMARK SMILES CCCCCCOC(=O)Nc1cccc(-c2ccc([C@@H](C)C(=O)NCCCCCCNC(=O)c3ccc(-c4c5nc(c(-c6c(F)c(F)c(F)c(F)c6F)c6ccc([nH]6)c(-c6c(F)c(F)c(F)c(F)c6F)c6nc(c(-c7c(F)c(F)c(F)c(F)c7F)c7ccc4[nH]7)C=C6)C=C5)cc3)cc2F)c1
REMARK SMILES IDX 22 1 23 2 24 3 20 5 19 7 16 8 17 9 98 10 18 11 97 13 99 14
REMARK SMILES IDX 15 17 11 18 12 19 100 20 13 21 14 24 10 27 8 28 9 29 7 31
REMARK SMILES IDX 6 32 5 35 4 38 3 41 2 44 1 47 21 51 25 55 26 58 27 61 28 64
REMARK SMILES IDX 29 67 30 70 31 73 32 74 33 76 34 77 35 78 96 79 36 80 95 82
REMARK SMILES IDX 37 84 38 87 39 88 89 89 40 90 94 91 88 92 90 93 41 94 93 95
REMARK SMILES IDX 87 97 86 99 42 101 74 104 54 105 73 106 55 107 58 108 72 109
REMARK SMILES IDX 91 110 56 111 57 113 71 115 92 116 59 119 43 121 44 122
REMARK SMILES IDX 52 123 45 124 46 125 50 126 53 127 47 128 48 129 51 130
REMARK SMILES IDX 49 131 75 132 76 133 84 134 77 135 78 136 82 137 85 138
REMARK SMILES IDX 79 139 80 140 83 141 81 142 60 143 61 144 69 145 62 146
REMARK SMILES IDX 63 147 67 148 70 149 64 150 65 151 68 152 66 153
REMARK H PARENT 24 4 20 6 17 12 18 15 97 16 12 22 100 23 13 25 14 26 10 30
REMARK H PARENT 6 33 6 34 5 36 5 37 4 39 4 40 3 42 3 43 2 45 2 46 1 48 1 49
REMARK H PARENT 1 50 21 52 21 53 21 54 25 56 25 57 26 59 26 60 27 62 27 63
REMARK H PARENT 28 65 28 66 29 68 29 69 30 71 30 72 31 75 35 81 96 83 36 85
REMARK H PARENT 95 86 94 96 88 98 90 100 93 102 87 103 55 112 58 114 91 117
REMARK H PARENT 56 118 92 120
REMARK Flexibility Score: inf
ROOT
ATOM      1  C   UNL A   1      45.592  21.798  25.234  1.00  0.00     0.227 C 
ATOM      2  O   UNL A   1      46.383  22.611  24.740  1.00  0.00    -0.274 OA
ATOM      3  N   UNL A   1      46.017  20.508  25.305  1.00  0.00    -0.356 N 
ATOM      4  H   UNL A   1      46.952  20.374  25.029  1.00  0.00     0.163 HD
ENDROOT
BRANCH   1   5
ATOM      5  C   UNL A   1      44.221  22.274  25.740  1.00  0.00     0.060 C 
ATOM      6  H   UNL A   1      43.644  21.385  25.888  1.00  0.00     0.045 H 
BRANCH   5   7
ATOM      7  C   UNL A   1      44.264  22.890  27.130  1.00  0.00    -0.033 A 
ATOM      8  C   UNL A   1      44.387  24.236  29.649  1.00  0.00     0.018 A 
ATOM      9  C   UNL A   1      43.223  23.578  29.228  1.00  0.00    -0.051 A 
ATOM     10  C   UNL A   1      45.503  24.149  28.800  1.00  0.00     0.131 A 
ATOM     11  C   UNL A   1      43.174  22.892  28.008  1.00  0.00    -0.057 A 
ATOM     12  H   UNL A   1      42.385  23.600  29.830  1.00  0.00     0.063 H 
ATOM     13  C   UNL A   1      45.443  23.513  27.559  1.00  0.00    -0.022 A 
ATOM     14  F   UNL A   1      46.678  24.691  29.159  1.00  0.00    -0.206 F 
ATOM     15  H   UNL A   1      42.316  22.379  27.751  1.00  0.00     0.063 H 
ATOM     16  H   UNL A   1      46.276  23.501  26.951  1.00  0.00     0.066 H 
BRANCH   8  17
ATOM     17  C   UNL A   1      44.416  25.007  30.909  1.00  0.00    -0.013 A 
ATOM     18  C   UNL A   1      43.905  27.070  32.126  1.00  0.00     0.045 A 
ATOM     19  C   UNL A   1      44.536  26.572  33.261  1.00  0.00    -0.038 A 
ATOM     20  C   UNL A   1      43.842  26.286  30.969  1.00  0.00    -0.030 A 
ATOM     21  C   UNL A   1      45.057  25.279  33.249  1.00  0.00    -0.060 A 
ATOM     22  H   UNL A   1      44.618  27.156  34.108  1.00  0.00     0.064 H 
ATOM     23  H   UNL A   1      43.359  26.659  30.137  1.00  0.00     0.065 H 
ATOM     24  C   UNL A   1      45.005  24.508  32.083  1.00  0.00    -0.054 A 
ATOM     25  H   UNL A   1      45.484  24.890  34.104  1.00  0.00     0.062 H 
ATOM     26  H   UNL A   1      45.406  23.558  32.084  1.00  0.00     0.063 H 
BRANCH  18  27
ATOM     27  N   UNL A   1      43.438  28.391  32.132  1.00  0.00    -0.291 N 
ATOM     28  C   UNL A   1      44.198  29.531  32.177  1.00  0.00     0.411 C 
ATOM     29  O   UNL A   1      43.757  30.572  32.631  1.00  0.00    -0.224 OA
ATOM     30  H   UNL A   1      42.461  28.513  32.101  1.00  0.00     0.173 HD
BRANCH  28  31
ATOM     31  O   UNL A   1      45.399  29.381  31.556  1.00  0.00    -0.449 OA
BRANCH  31  32
ATOM     32  C   UNL A   1      46.577  29.865  32.217  1.00  0.00     0.093 C 
ATOM     33  H   UNL A   1      47.290  30.166  31.477  1.00  0.00     0.071 H 
ATOM     34  H   UNL A   1      46.292  30.688  32.838  1.00  0.00     0.071 H 
BRANCH  32  35
ATOM     35  C   UNL A   1      47.216  28.799  33.114  1.00  0.00    -0.019 C 
ATOM     36  H   UNL A   1      46.850  28.942  34.108  1.00  0.00     0.030 H 
ATOM     37  H   UNL A   1      46.946  27.857  32.684  1.00  0.00     0.030 H 
BRANCH  35  38
ATOM     38  C   UNL A   1      48.749  28.811  33.169  1.00  0.00    -0.050 C 
ATOM     39  H   UNL A   1      49.112  29.157  32.224  1.00  0.00     0.027 H 
ATOM     40  H   UNL A   1      49.014  29.450  33.985  1.00  0.00     0.027 H 
BRANCH  38  41
ATOM     41  C   UNL A   1      49.396  27.450  33.460  1.00  0.00    -0.053 C 
ATOM     42  H   UNL A   1      50.356  27.626  33.897  1.00  0.00     0.027 H 
ATOM     43  H   UNL A   1      48.722  26.931  34.110  1.00  0.00     0.027 H 
BRANCH  41  44
ATOM     44  C   UNL A   1      49.588  26.555  32.237  1.00  0.00    -0.056 C 
ATOM     45  H   UNL A   1      49.680  27.175  31.370  1.00  0.00     0.026 H 
ATOM     46  H   UNL A   1      50.468  25.968  32.399  1.00  0.00     0.026 H 
BRANCH  44  47
ATOM     47  C   UNL A   1      48.429  25.595  32.028  1.00  0.00    -0.065 C 
ATOM     48  H   UNL A   1      48.363  25.335  30.991  1.00  0.00     0.023 H 
ATOM     49  H   UNL A   1      47.517  26.063  32.336  1.00  0.00     0.023 H 
ATOM     50  H   UNL A   1      48.589  24.710  32.608  1.00  0.00     0.023 H 
ENDBRANCH  44  47
ENDBRANCH  41  44
ENDBRANCH  38  41
ENDBRANCH  35  38
ENDBRANCH  32  35
ENDBRANCH  31  32
ENDBRANCH  28  31
ENDBRANCH  18  27
ENDBRANCH   8  17
ENDBRANCH   5   7
BRANCH   5  51
ATOM     51  C   UNL A   1      43.405  23.034  24.697  1.00  0.00    -0.049 C 
ATOM     52  H   UNL A   1      42.888  22.336  24.070  1.00  0.00     0.024 H 
ATOM     53  H   UNL A   1      44.059  23.632  24.098  1.00  0.00     0.024 H 
ATOM     54  H   UNL A   1      42.695  23.665  25.189  1.00  0.00     0.024 H 
ENDBRANCH   5  51
ENDBRANCH   1   5
BRANCH   3  55
ATOM     55  C   UNL A   1      45.339  19.298  25.715  1.00  0.00     0.017 C 
ATOM     56  H   UNL A   1      45.087  19.374  26.752  1.00  0.00     0.049 H 
ATOM     57  H   UNL A   1      45.996  18.472  25.541  1.00  0.00     0.049 H 
BRANCH  55  58
ATOM     58  C   UNL A   1      44.058  19.067  24.909  1.00  0.00    -0.036 C 
ATOM     59  H   UNL A   1      44.265  18.347  24.144  1.00  0.00     0.028 H 
ATOM     60  H   UNL A   1      43.765  20.015  24.509  1.00  0.00     0.028 H 
BRANCH  58  61
ATOM     61  C   UNL A   1      42.886  18.554  25.751  1.00  0.00    -0.052 C 
ATOM     62  H   UNL A   1      43.176  17.622  26.192  1.00  0.00     0.027 H 
ATOM     63  H   UNL A   1      42.054  18.467  25.085  1.00  0.00     0.027 H 
BRANCH  61  64
ATOM     64  C   UNL A   1      42.437  19.495  26.878  1.00  0.00    -0.052 C 
ATOM     65  H   UNL A   1      42.998  20.402  26.793  1.00  0.00     0.027 H 
ATOM     66  H   UNL A   1      42.612  18.964  27.791  1.00  0.00     0.027 H 
BRANCH  64  67
ATOM     67  C   UNL A   1      40.949  19.857  26.879  1.00  0.00    -0.036 C 
ATOM     68  H   UNL A   1      40.527  19.530  27.806  1.00  0.00     0.028 H 
ATOM     69  H   UNL A   1      40.519  19.373  26.028  1.00  0.00     0.028 H 
BRANCH  67  70
ATOM     70  C   UNL A   1      40.657  21.347  26.722  1.00  0.00     0.018 C 
ATOM     71  H   UNL A   1      41.380  21.774  26.058  1.00  0.00     0.049 H 
ATOM     72  H   UNL A   1      40.710  21.800  27.689  1.00  0.00     0.049 H 
BRANCH  70  73
ATOM     73  N   UNL A   1      39.326  21.583  26.184  1.00  0.00    -0.352 N 
ATOM     74  C   UNL A   1      38.548  22.712  26.226  1.00  0.00     0.251 C 
ATOM     75  H   UNL A   1      38.923  20.815  25.718  1.00  0.00     0.163 HD
ATOM     76  O   UNL A   1      37.359  22.652  25.931  1.00  0.00    -0.269 OA
BRANCH  74  77
ATOM     77  C   UNL A   1      39.137  24.004  26.635  1.00  0.00     0.039 A 
ATOM     78  C   UNL A   1      38.966  24.439  27.952  1.00  0.00    -0.049 A 
ATOM     79  C   UNL A   1      39.826  24.801  25.716  1.00  0.00    -0.049 A 
ATOM     80  C   UNL A   1      39.541  25.644  28.364  1.00  0.00    -0.053 A 
ATOM     81  H   UNL A   1      38.418  23.871  28.618  1.00  0.00     0.063 H 
ATOM     82  C   UNL A   1      40.454  25.968  26.144  1.00  0.00    -0.053 A 
ATOM     83  H   UNL A   1      39.869  24.525  24.723  1.00  0.00     0.063 H 
ATOM     84  C   UNL A   1      40.318  26.400  27.472  1.00  0.00    -0.014 A 
ATOM     85  H   UNL A   1      39.392  25.979  29.329  1.00  0.00     0.063 H 
ATOM     86  H   UNL A   1      41.022  26.518  25.480  1.00  0.00     0.063 H 
BRANCH  84  87
ATOM     87  C   UNL A   1      41.009  27.637  27.914  1.00  0.00     0.031 A 
ATOM     88  C   UNL A   1      42.500  27.765  27.778  1.00  0.00     0.074 A 
ATOM     89  C   UNL A   1      40.297  28.616  28.503  1.00  0.00     0.049 A 
ATOM     90  N   UNL A   1      43.287  28.735  28.172  1.00  0.00    -0.248 NA
ATOM     91  C   UNL A   1      43.204  26.646  27.135  1.00  0.00    -0.034 C 
ATOM     92  C   UNL A   1      38.852  28.587  28.734  1.00  0.00    -0.036 A 
ATOM     93  N   UNL A   1      40.692  29.821  29.029  1.00  0.00    -0.354 N 
ATOM     94  C   UNL A   1      44.574  28.337  27.837  1.00  0.00     0.074 A 
ATOM     95  C   UNL A   1      44.470  27.017  27.253  1.00  0.00    -0.034 C 
ATOM     96  H   UNL A   1      42.813  25.793  26.704  1.00  0.00     0.065 H 
ATOM     97  C   UNL A   1      38.479  29.728  29.336  1.00  0.00    -0.036 A 
ATOM     98  H   UNL A   1      38.220  27.813  28.475  1.00  0.00     0.065 H 
ATOM     99  C   UNL A   1      39.662  30.551  29.570  1.00  0.00     0.049 A 
ATOM    100  H   UNL A   1      41.627  30.133  29.018  1.00  0.00     0.167 HD
ATOM    101  C   UNL A   1      45.734  29.021  27.983  1.00  0.00     0.037 A 
ATOM    102  H   UNL A   1      45.277  26.441  26.967  1.00  0.00     0.065 H 
ATOM    103  H   UNL A   1      37.512  29.982  29.592  1.00  0.00     0.065 H 
ATOM    104  C   UNL A   1      39.672  31.744  30.194  1.00  0.00     0.037 A 
ATOM    105  C   UNL A   1      45.829  30.344  28.546  1.00  0.00     0.049 A 
ATOM    106  C   UNL A   1      40.975  32.476  30.355  1.00  0.00     0.074 A 
ATOM    107  C   UNL A   1      46.949  31.147  28.679  1.00  0.00    -0.036 A 
ATOM    108  N   UNL A   1      44.762  31.055  29.075  1.00  0.00    -0.354 N 
ATOM    109  N   UNL A   1      42.178  32.120  29.972  1.00  0.00    -0.248 NA
ATOM    110  C   UNL A   1      40.924  33.777  31.035  1.00  0.00    -0.034 C 
ATOM    111  C   UNL A   1      46.569  32.323  29.333  1.00  0.00    -0.036 A 
ATOM    112  H   UNL A   1      47.900  30.917  28.350  1.00  0.00     0.065 H 
ATOM    113  C   UNL A   1      45.203  32.276  29.561  1.00  0.00     0.049 A 
ATOM    114  H   UNL A   1      43.830  30.740  29.101  1.00  0.00     0.167 HD
ATOM    115  C   UNL A   1      43.019  33.161  30.339  1.00  0.00     0.074 A 
ATOM    116  C   UNL A   1      42.187  34.171  30.960  1.00  0.00    -0.034 C 
ATOM    117  H   UNL A   1      40.116  34.259  31.458  1.00  0.00     0.065 H 
ATOM    118  H   UNL A   1      47.199  33.095  29.601  1.00  0.00     0.065 H 
ATOM    119  C   UNL A   1      44.361  33.270  30.178  1.00  0.00     0.037 A 
ATOM    120  H   UNL A   1      42.534  35.081  31.301  1.00  0.00     0.065 H 
BRANCH 101 121
ATOM    121  C   UNL A   1      46.999  28.352  27.527  1.00  0.00     0.064 A 
ATOM    122  C   UNL A   1      47.810  27.627  28.414  1.00  0.00     0.173 A 
ATOM    123  C   UNL A   1      47.386  28.401  26.179  1.00  0.00     0.173 A 
ATOM    124  F   UNL A   1      47.492  27.558  29.716  1.00  0.00    -0.203 F 
ATOM    125  C   UNL A   1      48.974  27.001  27.975  1.00  0.00     0.198 A 
ATOM    126  C   UNL A   1      48.533  27.748  25.737  1.00  0.00     0.198 A 
ATOM    127  F   UNL A   1      46.644  29.075  25.287  1.00  0.00    -0.203 F 
ATOM    128  F   UNL A   1      49.757  26.357  28.850  1.00  0.00    -0.200 F 
ATOM    129  C   UNL A   1      49.331  27.056  26.636  1.00  0.00     0.200 A 
ATOM    130  F   UNL A   1      48.868  27.790  24.440  1.00  0.00    -0.200 F 
ATOM    131  F   UNL A   1      50.446  26.446  26.213  1.00  0.00    -0.200 F 
ENDBRANCH 101 121
BRANCH 104 132
ATOM    132  C   UNL A   1      38.401  32.327  30.697  1.00  0.00     0.064 A 
ATOM    133  C   UNL A   1      37.974  32.095  32.012  1.00  0.00     0.173 A 
ATOM    134  C   UNL A   1      37.588  33.123  29.878  1.00  0.00     0.173 A 
ATOM    135  F   UNL A   1      38.708  31.323  32.828  1.00  0.00    -0.203 F 
ATOM    136  C   UNL A   1      36.773  32.620  32.483  1.00  0.00     0.198 A 
ATOM    137  C   UNL A   1      36.401  33.672  30.358  1.00  0.00     0.198 A 
ATOM    138  F   UNL A   1      37.953  33.380  28.613  1.00  0.00    -0.203 F 
ATOM    139  F   UNL A   1      36.367  32.345  33.729  1.00  0.00    -0.200 F 
ATOM    140  C   UNL A   1      35.990  33.414  31.658  1.00  0.00     0.200 A 
ATOM    141  F   UNL A   1      35.656  34.451  29.563  1.00  0.00    -0.200 F 
ATOM    142  F   UNL A   1      34.838  33.924  32.111  1.00  0.00    -0.200 F 
ENDBRANCH 104 132
BRANCH 119 143
ATOM    143  C   UNL A   1      45.009  34.535  30.662  1.00  0.00     0.064 A 
ATOM    144  C   UNL A   1      45.288  35.598  29.791  1.00  0.00     0.173 A 
ATOM    145  C   UNL A   1      45.323  34.698  32.020  1.00  0.00     0.173 A 
ATOM    146  F   UNL A   1      45.023  35.485  28.481  1.00  0.00    -0.203 F 
ATOM    147  C   UNL A   1      45.883  36.768  30.257  1.00  0.00     0.198 A 
ATOM    148  C   UNL A   1      45.888  35.881  32.488  1.00  0.00     0.198 A 
ATOM    149  F   UNL A   1      45.071  33.714  32.897  1.00  0.00    -0.203 F 
ATOM    150  F   UNL A   1      46.187  37.751  29.398  1.00  0.00    -0.200 F 
ATOM    151  C   UNL A   1      46.175  36.911  31.606  1.00  0.00     0.200 A 
ATOM    152  F   UNL A   1      46.157  36.023  33.793  1.00  0.00    -0.200 F 
ATOM    153  F   UNL A   1      46.740  38.040  32.053  1.00  0.00    -0.200 F 
ENDBRANCH 119 143
ENDBRANCH  84  87
ENDBRANCH  74  77
ENDBRANCH  70  73
ENDBRANCH  67  70
ENDBRANCH  64  67
ENDBRANCH  61  64
ENDBRANCH  58  61
ENDBRANCH  55  58
ENDBRANCH   3  55
TORSDOF 24
ENDMDL
MODEL 9
REMARK VINA RESULT:     -10.0      3.474      5.289
REMARK SMILES CCCCCCOC(=O)Nc1cccc(-c2ccc([C@@H](C)C(=O)NCCCCCCNC(=O)c3ccc(-c4c5nc(c(-c6c(F)c(F)c(F)c(F)c6F)c6ccc([nH]6)c(-c6c(F)c(F)c(F)c(F)c6F)c6nc(c(-c7c(F)c(F)c(F)c(F)c7F)c7ccc4[nH]7)C=C6)C=C5)cc3)cc2F)c1
REMARK SMILES IDX 22 1 23 2 24 3 20 5 19 7 16 8 17 9 98 10 18 11 97 13 99 14
REMARK SMILES IDX 15 17 11 18 12 19 100 20 13 21 14 24 10 27 8 28 9 29 7 31
REMARK SMILES IDX 6 32 5 35 4 38 3 41 2 44 1 47 21 51 25 55 26 58 27 61 28 64
REMARK SMILES IDX 29 67 30 70 31 73 32 74 33 76 34 77 35 78 96 79 36 80 95 82
REMARK SMILES IDX 37 84 38 87 39 88 89 89 40 90 94 91 88 92 90 93 41 94 93 95
REMARK SMILES IDX 87 97 86 99 42 101 74 104 54 105 73 106 55 107 58 108 72 109
REMARK SMILES IDX 91 110 56 111 57 113 71 115 92 116 59 119 43 121 44 122
REMARK SMILES IDX 52 123 45 124 46 125 50 126 53 127 47 128 48 129 51 130
REMARK SMILES IDX 49 131 75 132 76 133 84 134 77 135 78 136 82 137 85 138
REMARK SMILES IDX 79 139 80 140 83 141 81 142 60 143 61 144 69 145 62 146
REMARK SMILES IDX 63 147 67 148 70 149 64 150 65 151 68 152 66 153
REMARK H PARENT 24 4 20 6 17 12 18 15 97 16 12 22 100 23 13 25 14 26 10 30
REMARK H PARENT 6 33 6 34 5 36 5 37 4 39 4 40 3 42 3 43 2 45 2 46 1 48 1 49
REMARK H PARENT 1 50 21 52 21 53 21 54 25 56 25 57 26 59 26 60 27 62 27 63
REMARK H PARENT 28 65 28 66 29 68 29 69 30 71 30 72 31 75 35 81 96 83 36 85
REMARK H PARENT 95 86 94 96 88 98 90 100 93 102 87 103 55 112 58 114 91 117
REMARK H PARENT 56 118 92 120
REMARK Flexibility Score: inf
ROOT
ATOM      1  C   UNL A   1      35.096  30.609  27.861  1.00  0.00     0.227 C 
ATOM      2  O   UNL A   1      35.499  29.574  28.405  1.00  0.00    -0.274 OA
ATOM      3  N   UNL A   1      35.843  31.728  28.060  1.00  0.00    -0.356 N 
ATOM      4  H   UNL A   1      36.681  31.572  28.553  1.00  0.00     0.163 HD
ENDROOT
BRANCH   1   5
ATOM      5  C   UNL A   1      33.822  30.577  27.003  1.00  0.00     0.060 C 
ATOM      6  H   UNL A   1      34.127  30.874  26.021  1.00  0.00     0.045 H 
BRANCH   5   7
ATOM      7  C   UNL A   1      33.270  29.177  26.782  1.00  0.00    -0.033 A 
ATOM      8  C   UNL A   1      32.402  26.471  26.474  1.00  0.00     0.018 A 
ATOM      9  C   UNL A   1      31.616  27.418  27.143  1.00  0.00    -0.051 A 
ATOM     10  C   UNL A   1      33.606  26.932  25.914  1.00  0.00     0.131 A 
ATOM     11  C   UNL A   1      32.027  28.752  27.266  1.00  0.00    -0.057 A 
ATOM     12  H   UNL A   1      30.715  27.127  27.553  1.00  0.00     0.063 H 
ATOM     13  C   UNL A   1      34.046  28.246  26.080  1.00  0.00    -0.022 A 
ATOM     14  F   UNL A   1      34.385  26.106  25.197  1.00  0.00    -0.206 F 
ATOM     15  H   UNL A   1      31.401  29.433  27.723  1.00  0.00     0.063 H 
ATOM     16  H   UNL A   1      34.952  28.535  25.682  1.00  0.00     0.066 H 
BRANCH   8  17
ATOM     17  C   UNL A   1      31.992  25.054  26.398  1.00  0.00    -0.013 A 
ATOM     18  C   UNL A   1      32.597  22.700  26.086  1.00  0.00     0.045 A 
ATOM     19  C   UNL A   1      31.256  22.335  26.136  1.00  0.00    -0.038 A 
ATOM     20  C   UNL A   1      32.954  24.046  26.225  1.00  0.00    -0.030 A 
ATOM     21  C   UNL A   1      30.286  23.308  26.371  1.00  0.00    -0.060 A 
ATOM     22  H   UNL A   1      30.981  21.350  26.000  1.00  0.00     0.064 H 
ATOM     23  H   UNL A   1      33.953  24.305  26.201  1.00  0.00     0.065 H 
ATOM     24  C   UNL A   1      30.649  24.653  26.492  1.00  0.00    -0.054 A 
ATOM     25  H   UNL A   1      29.294  23.033  26.456  1.00  0.00     0.062 H 
ATOM     26  H   UNL A   1      29.919  25.363  26.654  1.00  0.00     0.063 H 
BRANCH  18  27
ATOM     27  N   UNL A   1      33.558  21.725  25.790  1.00  0.00    -0.291 N 
ATOM     28  C   UNL A   1      33.646  20.980  24.642  1.00  0.00     0.411 C 
ATOM     29  O   UNL A   1      34.179  19.884  24.634  1.00  0.00    -0.224 OA
ATOM     30  H   UNL A   1      34.240  21.555  26.479  1.00  0.00     0.173 HD
BRANCH  28  31
ATOM     31  O   UNL A   1      33.201  21.655  23.549  1.00  0.00    -0.449 OA
BRANCH  31  32
ATOM     32  C   UNL A   1      34.044  22.667  22.978  1.00  0.00     0.093 C 
ATOM     33  H   UNL A   1      34.474  23.245  23.770  1.00  0.00     0.071 H 
ATOM     34  H   UNL A   1      34.800  22.178  22.400  1.00  0.00     0.071 H 
BRANCH  32  35
ATOM     35  C   UNL A   1      33.270  23.604  22.046  1.00  0.00    -0.019 C 
ATOM     36  H   UNL A   1      33.979  24.111  21.426  1.00  0.00     0.030 H 
ATOM     37  H   UNL A   1      32.589  22.982  21.505  1.00  0.00     0.030 H 
BRANCH  35  38
ATOM     38  C   UNL A   1      32.407  24.666  22.740  1.00  0.00    -0.050 C 
ATOM     39  H   UNL A   1      31.381  24.439  22.544  1.00  0.00     0.027 H 
ATOM     40  H   UNL A   1      32.659  24.625  23.779  1.00  0.00     0.027 H 
BRANCH  38  41
ATOM     41  C   UNL A   1      32.672  26.109  22.290  1.00  0.00    -0.053 C 
ATOM     42  H   UNL A   1      33.544  26.461  22.799  1.00  0.00     0.027 H 
ATOM     43  H   UNL A   1      32.785  26.075  21.227  1.00  0.00     0.027 H 
BRANCH  41  44
ATOM     44  C   UNL A   1      31.533  27.088  22.569  1.00  0.00    -0.056 C 
ATOM     45  H   UNL A   1      31.919  27.910  23.134  1.00  0.00     0.026 H 
ATOM     46  H   UNL A   1      31.141  27.408  21.625  1.00  0.00     0.026 H 
BRANCH  44  47
ATOM     47  C   UNL A   1      30.393  26.453  23.348  1.00  0.00    -0.065 C 
ATOM     48  H   UNL A   1      30.627  25.428  23.552  1.00  0.00     0.023 H 
ATOM     49  H   UNL A   1      29.494  26.505  22.770  1.00  0.00     0.023 H 
ATOM     50  H   UNL A   1      30.256  26.978  24.270  1.00  0.00     0.023 H 
ENDBRANCH  44  47
ENDBRANCH  41  44
ENDBRANCH  38  41
ENDBRANCH  35  38
ENDBRANCH  32  35
ENDBRANCH  31  32
ENDBRANCH  28  31
ENDBRANCH  18  27
ENDBRANCH   8  17
ENDBRANCH   5   7
BRANCH   5  51
ATOM     51  C   UNL A   1      32.798  31.649  27.373  1.00  0.00    -0.049 C 
ATOM     52  H   UNL A   1      33.114  32.594  26.983  1.00  0.00     0.024 H 
ATOM     53  H   UNL A   1      32.716  31.712  28.438  1.00  0.00     0.024 H 
ATOM     54  H   UNL A   1      31.846  31.392  26.958  1.00  0.00     0.024 H 
ENDBRANCH   5  51
ENDBRANCH   1   5
BRANCH   3  55
ATOM     55  C   UNL A   1      35.627  33.105  27.676  1.00  0.00     0.017 C 
ATOM     56  H   UNL A   1      34.661  33.192  27.222  1.00  0.00     0.049 H 
ATOM     57  H   UNL A   1      36.398  33.386  26.991  1.00  0.00     0.049 H 
BRANCH  55  58
ATOM     58  C   UNL A   1      35.693  34.046  28.882  1.00  0.00    -0.036 C 
ATOM     59  H   UNL A   1      36.013  35.009  28.542  1.00  0.00     0.028 H 
ATOM     60  H   UNL A   1      36.378  33.612  29.580  1.00  0.00     0.028 H 
BRANCH  58  61
ATOM     61  C   UNL A   1      34.355  34.210  29.609  1.00  0.00    -0.052 C 
ATOM     62  H   UNL A   1      33.622  33.625  29.092  1.00  0.00     0.027 H 
ATOM     63  H   UNL A   1      34.139  35.257  29.608  1.00  0.00     0.027 H 
BRANCH  61  64
ATOM     64  C   UNL A   1      34.360  33.775  31.081  1.00  0.00    -0.052 C 
ATOM     65  H   UNL A   1      33.370  33.904  31.467  1.00  0.00     0.027 H 
ATOM     66  H   UNL A   1      35.094  34.385  31.565  1.00  0.00     0.027 H 
BRANCH  64  67
ATOM     67  C   UNL A   1      34.782  32.325  31.337  1.00  0.00    -0.036 C 
ATOM     68  H   UNL A   1      35.413  32.014  30.531  1.00  0.00     0.028 H 
ATOM     69  H   UNL A   1      33.880  31.755  31.407  1.00  0.00     0.028 H 
BRANCH  67  70
ATOM     70  C   UNL A   1      35.535  32.103  32.646  1.00  0.00     0.018 C 
ATOM     71  H   UNL A   1      36.337  31.415  32.471  1.00  0.00     0.049 H 
ATOM     72  H   UNL A   1      34.846  31.713  33.365  1.00  0.00     0.049 H 
BRANCH  70  73
ATOM     73  N   UNL A   1      36.084  33.344  33.170  1.00  0.00    -0.352 N 
ATOM     74  C   UNL A   1      37.382  33.785  33.206  1.00  0.00     0.251 C 
ATOM     75  H   UNL A   1      35.422  33.961  33.557  1.00  0.00     0.163 HD
ATOM     76  O   UNL A   1      37.686  34.749  33.902  1.00  0.00    -0.269 OA
BRANCH  74  77
ATOM     77  C   UNL A   1      38.423  33.097  32.414  1.00  0.00     0.039 A 
ATOM     78  C   UNL A   1      38.443  33.271  31.028  1.00  0.00    -0.049 A 
ATOM     79  C   UNL A   1      39.355  32.257  33.031  1.00  0.00    -0.049 A 
ATOM     80  C   UNL A   1      39.438  32.652  30.267  1.00  0.00    -0.053 A 
ATOM     81  H   UNL A   1      37.727  33.855  30.568  1.00  0.00     0.063 H 
ATOM     82  C   UNL A   1      40.385  31.695  32.281  1.00  0.00    -0.053 A 
ATOM     83  H   UNL A   1      39.280  32.055  34.040  1.00  0.00     0.063 H 
ATOM     84  C   UNL A   1      40.436  31.888  30.892  1.00  0.00    -0.014 A 
ATOM     85  H   UNL A   1      39.438  32.757  29.240  1.00  0.00     0.063 H 
ATOM     86  H   UNL A   1      41.113  31.134  32.749  1.00  0.00     0.063 H 
BRANCH  84  87
ATOM     87  C   UNL A   1      41.552  31.295  30.111  1.00  0.00     0.031 A 
ATOM     88  C   UNL A   1      42.761  32.118  29.768  1.00  0.00     0.074 A 
ATOM     89  C   UNL A   1      41.440  30.034  29.654  1.00  0.00     0.049 A 
ATOM     90  N   UNL A   1      43.799  31.799  29.036  1.00  0.00    -0.248 NA
ATOM     91  C   UNL A   1      42.798  33.491  30.295  1.00  0.00    -0.034 C 
ATOM     92  C   UNL A   1      40.295  29.151  29.882  1.00  0.00    -0.036 A 
ATOM     93  N   UNL A   1      42.293  29.278  28.890  1.00  0.00    -0.354 N 
ATOM     94  C   UNL A   1      44.602  32.931  29.006  1.00  0.00     0.074 A 
ATOM     95  C   UNL A   1      43.910  33.961  29.750  1.00  0.00    -0.034 C 
ATOM     96  H   UNL A   1      42.132  33.963  30.927  1.00  0.00     0.065 H 
ATOM     97  C   UNL A   1      40.525  27.969  29.289  1.00  0.00    -0.036 A 
ATOM     98  H   UNL A   1      39.446  29.399  30.415  1.00  0.00     0.065 H 
ATOM     99  C   UNL A   1      41.813  28.022  28.606  1.00  0.00     0.049 A 
ATOM    100  H   UNL A   1      43.168  29.604  28.576  1.00  0.00     0.167 HD
ATOM    101  C   UNL A   1      45.818  33.088  28.429  1.00  0.00     0.037 A 
ATOM    102  H   UNL A   1      44.240  34.934  29.843  1.00  0.00     0.065 H 
ATOM    103  H   UNL A   1      39.892  27.154  29.313  1.00  0.00     0.065 H 
ATOM    104  C   UNL A   1      42.348  27.031  27.868  1.00  0.00     0.037 A 
ATOM    105  C   UNL A   1      46.512  32.052  27.708  1.00  0.00     0.049 A 
ATOM    106  C   UNL A   1      43.692  27.237  27.227  1.00  0.00     0.074 A 
ATOM    107  C   UNL A   1      47.775  32.092  27.141  1.00  0.00    -0.036 A 
ATOM    108  N   UNL A   1      45.998  30.790  27.449  1.00  0.00    -0.354 N 
ATOM    109  N   UNL A   1      44.475  28.288  27.264  1.00  0.00    -0.248 NA
ATOM    110  C   UNL A   1      44.229  26.116  26.443  1.00  0.00    -0.034 C 
ATOM    111  C   UNL A   1      48.004  30.873  26.497  1.00  0.00    -0.036 A 
ATOM    112  H   UNL A   1      48.433  32.886  27.188  1.00  0.00     0.065 H 
ATOM    113  C   UNL A   1      46.907  30.053  26.706  1.00  0.00     0.049 A 
ATOM    114  H   UNL A   1      45.118  30.466  27.748  1.00  0.00     0.167 HD
ATOM    115  C   UNL A   1      45.604  27.948  26.533  1.00  0.00     0.074 A 
ATOM    116  C   UNL A   1      45.413  26.587  26.078  1.00  0.00    -0.034 C 
ATOM    117  H   UNL A   1      43.798  25.203  26.232  1.00  0.00     0.065 H 
ATOM    118  H   UNL A   1      48.848  30.625  25.956  1.00  0.00     0.065 H 
ATOM    119  C   UNL A   1      46.701  28.698  26.260  1.00  0.00     0.037 A 
ATOM    120  H   UNL A   1      46.111  26.050  25.538  1.00  0.00     0.065 H 
BRANCH 101 121
ATOM    121  C   UNL A   1      46.480  34.431  28.554  1.00  0.00     0.064 A 
ATOM    122  C   UNL A   1      47.390  34.711  29.585  1.00  0.00     0.173 A 
ATOM    123  C   UNL A   1      46.234  35.437  27.608  1.00  0.00     0.173 A 
ATOM    124  F   UNL A   1      47.652  33.786  30.522  1.00  0.00    -0.203 F 
ATOM    125  C   UNL A   1      48.005  35.956  29.682  1.00  0.00     0.198 A 
ATOM    126  C   UNL A   1      46.875  36.671  27.689  1.00  0.00     0.198 A 
ATOM    127  F   UNL A   1      45.378  35.221  26.597  1.00  0.00    -0.203 F 
ATOM    128  F   UNL A   1      48.832  36.215  30.704  1.00  0.00    -0.200 F 
ATOM    129  C   UNL A   1      47.753  36.933  28.730  1.00  0.00     0.200 A 
ATOM    130  F   UNL A   1      46.640  37.607  26.760  1.00  0.00    -0.200 F 
ATOM    131  F   UNL A   1      48.352  38.127  28.819  1.00  0.00    -0.200 F 
ENDBRANCH 101 121
BRANCH 104 132
ATOM    132  C   UNL A   1      41.615  25.747  27.712  1.00  0.00     0.064 A 
ATOM    133  C   UNL A   1      42.002  24.606  28.428  1.00  0.00     0.173 A 
ATOM    134  C   UNL A   1      40.519  25.633  26.844  1.00  0.00     0.173 A 
ATOM    135  F   UNL A   1      43.057  24.661  29.255  1.00  0.00    -0.203 F 
ATOM    136  C   UNL A   1      41.333  23.395  28.269  1.00  0.00     0.198 A 
ATOM    137  C   UNL A   1      39.832  24.429  26.708  1.00  0.00     0.198 A 
ATOM    138  F   UNL A   1      40.104  26.696  26.140  1.00  0.00    -0.203 F 
ATOM    139  F   UNL A   1      41.753  22.309  28.932  1.00  0.00    -0.200 F 
ATOM    140  C   UNL A   1      40.245  23.307  27.413  1.00  0.00     0.200 A 
ATOM    141  F   UNL A   1      38.771  24.353  25.893  1.00  0.00    -0.200 F 
ATOM    142  F   UNL A   1      39.598  22.144  27.264  1.00  0.00    -0.200 F 
ENDBRANCH 104 132
BRANCH 119 143
ATOM    143  C   UNL A   1      47.788  28.053  25.450  1.00  0.00     0.064 A 
ATOM    144  C   UNL A   1      47.696  27.937  24.055  1.00  0.00     0.173 A 
ATOM    145  C   UNL A   1      48.951  27.576  26.074  1.00  0.00     0.173 A 
ATOM    146  F   UNL A   1      46.597  28.363  23.414  1.00  0.00    -0.203 F 
ATOM    147  C   UNL A   1      48.717  27.343  23.317  1.00  0.00     0.198 A 
ATOM    148  C   UNL A   1      49.983  27.011  25.329  1.00  0.00     0.198 A 
ATOM    149  F   UNL A   1      49.092  27.667  27.405  1.00  0.00    -0.203 F 
ATOM    150  F   UNL A   1      48.584  27.198  21.992  1.00  0.00    -0.200 F 
ATOM    151  C   UNL A   1      49.862  26.887  23.954  1.00  0.00     0.200 A 
ATOM    152  F   UNL A   1      51.094  26.584  25.945  1.00  0.00    -0.200 F 
ATOM    153  F   UNL A   1      50.845  26.322  23.242  1.00  0.00    -0.200 F 
ENDBRANCH 119 143
ENDBRANCH  84  87
ENDBRANCH  74  77
ENDBRANCH  70  73
ENDBRANCH  67  70
ENDBRANCH  64  67
ENDBRANCH  61  64
ENDBRANCH  58  61
ENDBRANCH  55  58
ENDBRANCH   3  55
TORSDOF 24
ENDMDL
MODEL 10
REMARK VINA RESULT:      -9.9      4.301      6.572
REMARK SMILES CCCCCCOC(=O)Nc1cccc(-c2ccc([C@@H](C)C(=O)NCCCCCCNC(=O)c3ccc(-c4c5nc(c(-c6c(F)c(F)c(F)c(F)c6F)c6ccc([nH]6)c(-c6c(F)c(F)c(F)c(F)c6F)c6nc(c(-c7c(F)c(F)c(F)c(F)c7F)c7ccc4[nH]7)C=C6)C=C5)cc3)cc2F)c1
REMARK SMILES IDX 22 1 23 2 24 3 20 5 19 7 16 8 17 9 98 10 18 11 97 13 99 14
REMARK SMILES IDX 15 17 11 18 12 19 100 20 13 21 14 24 10 27 8 28 9 29 7 31
REMARK SMILES IDX 6 32 5 35 4 38 3 41 2 44 1 47 21 51 25 55 26 58 27 61 28 64
REMARK SMILES IDX 29 67 30 70 31 73 32 74 33 76 34 77 35 78 96 79 36 80 95 82
REMARK SMILES IDX 37 84 38 87 39 88 89 89 40 90 94 91 88 92 90 93 41 94 93 95
REMARK SMILES IDX 87 97 86 99 42 101 74 104 54 105 73 106 55 107 58 108 72 109
REMARK SMILES IDX 91 110 56 111 57 113 71 115 92 116 59 119 43 121 44 122
REMARK SMILES IDX 52 123 45 124 46 125 50 126 53 127 47 128 48 129 51 130
REMARK SMILES IDX 49 131 75 132 76 133 84 134 77 135 78 136 82 137 85 138
REMARK SMILES IDX 79 139 80 140 83 141 81 142 60 143 61 144 69 145 62 146
REMARK SMILES IDX 63 147 67 148 70 149 64 150 65 151 68 152 66 153
REMARK H PARENT 24 4 20 6 17 12 18 15 97 16 12 22 100 23 13 25 14 26 10 30
REMARK H PARENT 6 33 6 34 5 36 5 37 4 39 4 40 3 42 3 43 2 45 2 46 1 48 1 49
REMARK H PARENT 1 50 21 52 21 53 21 54 25 56 25 57 26 59 26 60 27 62 27 63
REMARK H PARENT 28 65 28 66 29 68 29 69 30 71 30 72 31 75 35 81 96 83 36 85
REMARK H PARENT 95 86 94 96 88 98 90 100 93 102 87 103 55 112 58 114 91 117
REMARK H PARENT 56 118 92 120
REMARK Flexibility Score: inf
ROOT
ATOM      1  C   UNL A   1      33.696  30.377  26.854  1.00  0.00     0.227 C 
ATOM      2  O   UNL A   1      34.658  29.789  27.365  1.00  0.00    -0.274 OA
ATOM      3  N   UNL A   1      33.323  31.547  27.439  1.00  0.00    -0.356 N 
ATOM      4  H   UNL A   1      33.919  31.845  28.163  1.00  0.00     0.163 HD
ENDROOT
BRANCH   1   5
ATOM      5  C   UNL A   1      33.005  29.783  25.617  1.00  0.00     0.060 C 
ATOM      6  H   UNL A   1      33.448  30.274  24.776  1.00  0.00     0.045 H 
BRANCH   5   7
ATOM      7  C   UNL A   1      33.338  28.320  25.375  1.00  0.00    -0.033 A 
ATOM      8  C   UNL A   1      34.151  25.632  24.838  1.00  0.00     0.018 A 
ATOM      9  C   UNL A   1      33.868  26.062  26.141  1.00  0.00    -0.051 A 
ATOM     10  C   UNL A   1      33.958  26.568  23.808  1.00  0.00     0.131 A 
ATOM     11  C   UNL A   1      33.439  27.371  26.400  1.00  0.00    -0.057 A 
ATOM     12  H   UNL A   1      33.978  25.401  26.926  1.00  0.00     0.063 H 
ATOM     13  C   UNL A   1      33.583  27.887  24.066  1.00  0.00    -0.022 A 
ATOM     14  F   UNL A   1      34.139  26.218  22.524  1.00  0.00    -0.206 F 
ATOM     15  H   UNL A   1      33.194  27.640  27.365  1.00  0.00     0.063 H 
ATOM     16  H   UNL A   1      33.486  28.552  23.283  1.00  0.00     0.066 H 
BRANCH   8  17
ATOM     17  C   UNL A   1      34.659  24.269  24.576  1.00  0.00    -0.013 A 
ATOM     18  C   UNL A   1      34.208  21.893  24.193  1.00  0.00     0.045 A 
ATOM     19  C   UNL A   1      35.572  21.622  24.181  1.00  0.00    -0.038 A 
ATOM     20  C   UNL A   1      33.764  23.206  24.380  1.00  0.00    -0.030 A 
ATOM     21  C   UNL A   1      36.483  22.669  24.308  1.00  0.00    -0.060 A 
ATOM     22  H   UNL A   1      35.907  20.652  24.077  1.00  0.00     0.064 H 
ATOM     23  H   UNL A   1      32.750  23.399  24.374  1.00  0.00     0.065 H 
ATOM     24  C   UNL A   1      36.031  23.977  24.512  1.00  0.00    -0.054 A 
ATOM     25  H   UNL A   1      37.496  22.478  24.252  1.00  0.00     0.062 H 
ATOM     26  H   UNL A   1      36.717  24.740  24.617  1.00  0.00     0.063 H 
BRANCH  18  27
ATOM     27  N   UNL A   1      33.302  20.826  24.123  1.00  0.00    -0.291 N 
ATOM     28  C   UNL A   1      32.445  20.411  25.109  1.00  0.00     0.411 C 
ATOM     29  O   UNL A   1      32.046  19.261  25.163  1.00  0.00    -0.224 OA
ATOM     30  H   UNL A   1      33.279  20.321  23.278  1.00  0.00     0.173 HD
BRANCH  28  31
ATOM     31  O   UNL A   1      32.019  21.436  25.895  1.00  0.00    -0.449 OA
BRANCH  31  32
ATOM     32  C   UNL A   1      30.704  21.969  25.674  1.00  0.00     0.093 C 
ATOM     33  H   UNL A   1      30.650  22.351  24.675  1.00  0.00     0.071 H 
ATOM     34  H   UNL A   1      29.999  21.179  25.825  1.00  0.00     0.071 H 
BRANCH  32  35
ATOM     35  C   UNL A   1      30.366  23.097  26.654  1.00  0.00    -0.019 C 
ATOM     36  H   UNL A   1      29.302  23.188  26.696  1.00  0.00     0.030 H 
ATOM     37  H   UNL A   1      30.814  22.819  27.585  1.00  0.00     0.030 H 
BRANCH  35  38
ATOM     38  C   UNL A   1      30.945  24.474  26.305  1.00  0.00    -0.050 C 
ATOM     39  H   UNL A   1      31.511  24.818  27.145  1.00  0.00     0.027 H 
ATOM     40  H   UNL A   1      31.535  24.337  25.423  1.00  0.00     0.027 H 
BRANCH  38  41
ATOM     41  C   UNL A   1      29.901  25.545  25.961  1.00  0.00    -0.053 C 
ATOM     42  H   UNL A   1      28.964  25.056  25.797  1.00  0.00     0.027 H 
ATOM     43  H   UNL A   1      29.885  26.224  26.788  1.00  0.00     0.027 H 
BRANCH  41  44
ATOM     44  C   UNL A   1      30.222  26.382  24.725  1.00  0.00    -0.056 C 
ATOM     45  H   UNL A   1      29.396  27.034  24.529  1.00  0.00     0.026 H 
ATOM     46  H   UNL A   1      31.118  26.931  24.927  1.00  0.00     0.026 H 
BRANCH  44  47
ATOM     47  C   UNL A   1      30.473  25.531  23.492  1.00  0.00    -0.065 C 
ATOM     48  H   UNL A   1      31.528  25.410  23.350  1.00  0.00     0.023 H 
ATOM     49  H   UNL A   1      30.053  26.012  22.634  1.00  0.00     0.023 H 
ATOM     50  H   UNL A   1      30.018  24.571  23.622  1.00  0.00     0.023 H 
ENDBRANCH  44  47
ENDBRANCH  41  44
ENDBRANCH  38  41
ENDBRANCH  35  38
ENDBRANCH  32  35
ENDBRANCH  31  32
ENDBRANCH  28  31
ENDBRANCH  18  27
ENDBRANCH   8  17
ENDBRANCH   5   7
BRANCH   5  51
ATOM     51  C   UNL A   1      31.531  30.164  25.489  1.00  0.00    -0.049 C 
ATOM     52  H   UNL A   1      31.349  30.561  24.511  1.00  0.00     0.024 H 
ATOM     53  H   UNL A   1      31.288  30.902  26.224  1.00  0.00     0.024 H 
ATOM     54  H   UNL A   1      30.924  29.297  25.641  1.00  0.00     0.024 H 
ENDBRANCH   5  51
ENDBRANCH   1   5
BRANCH   3  55
ATOM     55  C   UNL A   1      32.207  32.431  27.185  1.00  0.00     0.017 C 
ATOM     56  H   UNL A   1      31.332  32.028  27.652  1.00  0.00     0.049 H 
ATOM     57  H   UNL A   1      32.075  32.507  26.127  1.00  0.00     0.049 H 
BRANCH  55  58
ATOM     58  C   UNL A   1      32.462  33.835  27.738  1.00  0.00    -0.036 C 
ATOM     59  H   UNL A   1      31.663  34.086  28.404  1.00  0.00     0.028 H 
ATOM     60  H   UNL A   1      32.515  34.497  26.899  1.00  0.00     0.028 H 
BRANCH  58  61
ATOM     61  C   UNL A   1      33.785  33.968  28.498  1.00  0.00    -0.052 C 
ATOM     62  H   UNL A   1      34.519  33.374  27.993  1.00  0.00     0.027 H 
ATOM     63  H   UNL A   1      33.591  33.641  29.497  1.00  0.00     0.027 H 
BRANCH  61  64
ATOM     64  C   UNL A   1      34.326  35.400  28.611  1.00  0.00    -0.052 C 
ATOM     65  H   UNL A   1      34.769  35.661  27.673  1.00  0.00     0.027 H 
ATOM     66  H   UNL A   1      35.019  35.388  29.427  1.00  0.00     0.027 H 
BRANCH  64  67
ATOM     67  C   UNL A   1      33.286  36.470  28.957  1.00  0.00    -0.036 C 
ATOM     68  H   UNL A   1      32.319  36.013  28.938  1.00  0.00     0.028 H 
ATOM     69  H   UNL A   1      33.398  37.246  28.231  1.00  0.00     0.028 H 
BRANCH  67  70
ATOM     70  C   UNL A   1      33.477  37.125  30.323  1.00  0.00     0.018 C 
ATOM     71  H   UNL A   1      33.411  38.187  30.209  1.00  0.00     0.049 H 
ATOM     72  H   UNL A   1      34.438  36.838  30.698  1.00  0.00     0.049 H 
BRANCH  70  73
ATOM     73  N   UNL A   1      32.470  36.688  31.276  1.00  0.00    -0.352 N 
ATOM     74  C   UNL A   1      32.478  35.619  32.136  1.00  0.00     0.251 C 
ATOM     75  H   UNL A   1      31.659  37.245  31.311  1.00  0.00     0.163 HD
ATOM     76  O   UNL A   1      31.443  35.267  32.692  1.00  0.00    -0.269 OA
BRANCH  74  77
ATOM     77  C   UNL A   1      33.732  34.878  32.389  1.00  0.00     0.039 A 
ATOM     78  C   UNL A   1      34.922  35.595  32.538  1.00  0.00    -0.049 A 
ATOM     79  C   UNL A   1      33.741  33.481  32.446  1.00  0.00    -0.049 A 
ATOM     80  C   UNL A   1      36.112  34.914  32.808  1.00  0.00    -0.053 A 
ATOM     81  H   UNL A   1      34.922  36.623  32.451  1.00  0.00     0.063 H 
ATOM     82  C   UNL A   1      34.914  32.809  32.780  1.00  0.00    -0.053 A 
ATOM     83  H   UNL A   1      32.881  32.950  32.241  1.00  0.00     0.063 H 
ATOM     84  C   UNL A   1      36.110  33.519  32.965  1.00  0.00    -0.014 A 
ATOM     85  H   UNL A   1      36.996  35.440  32.891  1.00  0.00     0.063 H 
ATOM     86  H   UNL A   1      34.903  31.783  32.892  1.00  0.00     0.063 H 
BRANCH  84  87
ATOM     87  C   UNL A   1      37.346  32.786  33.338  1.00  0.00     0.031 A 
ATOM     88  C   UNL A   1      38.046  33.086  34.633  1.00  0.00     0.074 A 
ATOM     89  C   UNL A   1      37.874  31.899  32.474  1.00  0.00     0.049 A 
ATOM     90  N   UNL A   1      39.172  32.604  35.097  1.00  0.00    -0.248 NA
ATOM     91  C   UNL A   1      37.410  34.077  35.514  1.00  0.00    -0.034 C 
ATOM     92  C   UNL A   1      37.312  31.557  31.166  1.00  0.00    -0.036 A 
ATOM     93  N   UNL A   1      39.009  31.132  32.557  1.00  0.00    -0.354 N 
ATOM     94  C   UNL A   1      39.384  33.240  36.312  1.00  0.00     0.074 A 
ATOM     95  C   UNL A   1      38.298  34.180  36.492  1.00  0.00    -0.034 C 
ATOM     96  H   UNL A   1      36.508  34.566  35.400  1.00  0.00     0.065 H 
ATOM     97  C   UNL A   1      38.092  30.636  30.579  1.00  0.00    -0.036 A 
ATOM     98  H   UNL A   1      36.452  31.960  30.761  1.00  0.00     0.065 H 
ATOM     99  C   UNL A   1      39.228  30.351  31.448  1.00  0.00     0.049 A 
ATOM    100  H   UNL A   1      39.609  31.140  33.338  1.00  0.00     0.167 HD
ATOM    101  C   UNL A   1      40.382  33.042  37.207  1.00  0.00     0.037 A 
ATOM    102  H   UNL A   1      38.225  34.843  37.280  1.00  0.00     0.065 H 
ATOM    103  H   UNL A   1      37.915  30.199  29.661  1.00  0.00     0.065 H 
ATOM    104  C   UNL A   1      40.240  29.509  31.161  1.00  0.00     0.037 A 
ATOM    105  C   UNL A   1      41.449  32.090  37.031  1.00  0.00     0.049 A 
ATOM    106  C   UNL A   1      41.342  29.318  32.165  1.00  0.00     0.074 A 
ATOM    107  C   UNL A   1      42.471  31.769  37.908  1.00  0.00    -0.036 A 
ATOM    108  N   UNL A   1      41.633  31.310  35.899  1.00  0.00    -0.354 N 
ATOM    109  N   UNL A   1      41.495  29.873  33.343  1.00  0.00    -0.248 NA
ATOM    110  C   UNL A   1      42.412  28.379  31.802  1.00  0.00    -0.034 C 
ATOM    111  C   UNL A   1      43.302  30.832  37.286  1.00  0.00    -0.036 A 
ATOM    112  H   UNL A   1      42.598  32.155  38.857  1.00  0.00     0.065 H 
ATOM    113  C   UNL A   1      42.769  30.529  36.043  1.00  0.00     0.049 A 
ATOM    114  H   UNL A   1      41.044  31.311  35.110  1.00  0.00     0.167 HD
ATOM    115  C   UNL A   1      42.660  29.336  33.870  1.00  0.00     0.074 A 
ATOM    116  C   UNL A   1      43.166  28.395  32.892  1.00  0.00    -0.034 C 
ATOM    117  H   UNL A   1      42.543  27.847  30.928  1.00  0.00     0.065 H 
ATOM    118  H   UNL A   1      44.166  30.433  37.684  1.00  0.00     0.065 H 
ATOM    119  C   UNL A   1      43.260  29.599  35.058  1.00  0.00     0.037 A 
ATOM    120  H   UNL A   1      44.007  27.812  33.027  1.00  0.00     0.065 H 
BRANCH 101 121
ATOM    121  C   UNL A   1      40.369  33.870  38.459  1.00  0.00     0.064 A 
ATOM    122  C   UNL A   1      41.118  35.053  38.568  1.00  0.00     0.173 A 
ATOM    123  C   UNL A   1      39.567  33.502  39.550  1.00  0.00     0.173 A 
ATOM    124  F   UNL A   1      41.910  35.445  37.558  1.00  0.00    -0.203 F 
ATOM    125  C   UNL A   1      41.088  35.817  39.731  1.00  0.00     0.198 A 
ATOM    126  C   UNL A   1      39.514  34.285  40.700  1.00  0.00     0.198 A 
ATOM    127  F   UNL A   1      38.825  32.385  39.497  1.00  0.00    -0.203 F 
ATOM    128  F   UNL A   1      41.850  36.915  39.829  1.00  0.00    -0.200 F 
ATOM    129  C   UNL A   1      40.280  35.437  40.793  1.00  0.00     0.200 A 
ATOM    130  F   UNL A   1      38.723  33.924  41.719  1.00  0.00    -0.200 F 
ATOM    131  F   UNL A   1      40.245  36.179  41.908  1.00  0.00    -0.200 F 
ENDBRANCH 101 121
BRANCH 104 132
ATOM    132  C   UNL A   1      40.245  28.771  29.871  1.00  0.00     0.064 A 
ATOM    133  C   UNL A   1      39.587  27.539  29.745  1.00  0.00     0.173 A 
ATOM    134  C   UNL A   1      40.906  29.277  28.743  1.00  0.00     0.173 A 
ATOM    135  F   UNL A   1      38.958  27.005  30.802  1.00  0.00    -0.203 F 
ATOM    136  C   UNL A   1      39.607  26.832  28.545  1.00  0.00     0.198 A 
ATOM    137  C   UNL A   1      40.901  28.583  27.535  1.00  0.00     0.198 A 
ATOM    138  F   UNL A   1      41.546  30.453  28.809  1.00  0.00    -0.203 F 
ATOM    139  F   UNL A   1      39.009  25.636  28.465  1.00  0.00    -0.200 F 
ATOM    140  C   UNL A   1      40.259  27.357  27.438  1.00  0.00     0.200 A 
ATOM    141  F   UNL A   1      41.518  29.100  26.464  1.00  0.00    -0.200 F 
ATOM    142  F   UNL A   1      40.274  26.680  26.283  1.00  0.00    -0.200 F 
ENDBRANCH 104 132
BRANCH 119 143
ATOM    143  C   UNL A   1      44.517  28.842  35.373  1.00  0.00     0.064 A 
ATOM    144  C   UNL A   1      44.485  27.597  36.019  1.00  0.00     0.173 A 
ATOM    145  C   UNL A   1      45.768  29.353  34.995  1.00  0.00     0.173 A 
ATOM    146  F   UNL A   1      43.316  27.074  36.416  1.00  0.00    -0.203 F 
ATOM    147  C   UNL A   1      45.661  26.905  36.298  1.00  0.00     0.198 A 
ATOM    148  C   UNL A   1      46.939  28.643  35.247  1.00  0.00     0.198 A 
ATOM    149  F   UNL A   1      45.855  30.537  34.369  1.00  0.00    -0.203 F 
ATOM    150  F   UNL A   1      45.609  25.741  36.961  1.00  0.00    -0.200 F 
ATOM    151  C   UNL A   1      46.885  27.424  35.905  1.00  0.00     0.200 A 
ATOM    152  F   UNL A   1      48.120  29.141  34.854  1.00  0.00    -0.200 F 
ATOM    153  F   UNL A   1      48.014  26.753  36.168  1.00  0.00    -0.200 F 
ENDBRANCH 119 143
ENDBRANCH  84  87
ENDBRANCH  74  77
ENDBRANCH  70  73
ENDBRANCH  67  70
ENDBRANCH  64  67
ENDBRANCH  61  64
ENDBRANCH  58  61
ENDBRANCH  55  58
ENDBRANCH   3  55
TORSDOF 24
ENDMDL
