MODEL 1
REMARK VINA RESULT:      -9.9      0.000      0.000
REMARK SMILES CCCCCCNC(=O)Oc1cccc(-c2ccc([C@@H](C)C(=O)NCCCCCCNC(=O)c3ccc(-c4c5nc(c(-c6c(F)c(F)c(F)c(F)c6F)c6ccc([nH]6)c(-c6c(F)c(F)c(F)c(F)c6F)c6nc(c(-c7c(F)c(F)c(F)c(F)c7F)c7ccc4[nH]7)C=C6)C=C5)cc3)cc2[N+](=O)[O-])c1
REMARK SMILES IDX 22 1 23 2 24 3 20 5 19 7 16 8 17 9 98 10 18 11 97 13 15 16
REMARK SMILES IDX 11 17 12 18 102 19 13 20 14 23 10 26 8 27 7 28 9 30 6 31
REMARK SMILES IDX 5 34 4 37 3 40 2 43 1 46 99 50 100 51 101 52 21 53 25 57
REMARK SMILES IDX 26 60 27 63 28 66 29 69 30 72 31 75 32 76 33 78 34 79 35 80
REMARK SMILES IDX 96 81 36 82 95 84 37 86 38 89 39 90 89 91 40 92 94 93 88 94
REMARK SMILES IDX 90 95 41 96 93 97 87 99 86 101 42 103 74 106 54 107 73 108
REMARK SMILES IDX 55 109 58 110 72 111 91 112 56 113 57 115 71 117 92 118
REMARK SMILES IDX 59 121 43 123 44 124 52 125 45 126 46 127 50 128 53 129
REMARK SMILES IDX 47 130 48 131 51 132 49 133 75 134 76 135 84 136 77 137
REMARK SMILES IDX 78 138 82 139 85 140 79 141 80 142 83 143 81 144 60 145
REMARK SMILES IDX 61 146 69 147 62 148 63 149 67 150 70 151 64 152 65 153
REMARK SMILES IDX 68 154 66 155
REMARK H PARENT 24 4 20 6 17 12 18 14 97 15 12 21 102 22 13 24 14 25 7 29 6 32
REMARK H PARENT 6 33 5 35 5 36 4 38 4 39 3 41 3 42 2 44 2 45 1 47 1 48 1 49
REMARK H PARENT 21 54 21 55 21 56 25 58 25 59 26 61 26 62 27 64 27 65 28 67
REMARK H PARENT 28 68 29 70 29 71 30 73 30 74 31 77 35 83 96 85 36 87 95 88
REMARK H PARENT 94 98 88 100 90 102 93 104 87 105 55 114 58 116 91 119 56 120
REMARK H PARENT 92 122
REMARK Flexibility Score: inf
ROOT
ATOM      1  C   UNL A   1      39.145  30.405  31.228  1.00  0.00     0.227 C 
ATOM      2  O   UNL A   1      38.971  30.947  32.327  1.00  0.00    -0.274 OA
ATOM      3  N   UNL A   1      39.504  29.094  31.258  1.00  0.00    -0.356 N 
ATOM      4  H   UNL A   1      39.512  28.700  32.160  1.00  0.00     0.163 HD
ENDROOT
BRANCH   1   5
ATOM      5  C   UNL A   1      38.931  31.212  29.937  1.00  0.00     0.060 C 
ATOM      6  H   UNL A   1      39.578  30.758  29.217  1.00  0.00     0.045 H 
BRANCH   5   7
ATOM      7  C   UNL A   1      37.551  31.037  29.320  1.00  0.00    -0.029 A 
ATOM      8  C   UNL A   1      35.016  30.808  27.995  1.00  0.00     0.060 A 
ATOM      9  C   UNL A   1      35.811  29.686  28.287  1.00  0.00    -0.047 A 
ATOM     10  C   UNL A   1      35.487  32.050  28.465  1.00  0.00     0.277 A 
ATOM     11  C   UNL A   1      37.025  29.792  28.972  1.00  0.00    -0.057 A 
ATOM     12  H   UNL A   1      35.486  28.752  27.987  1.00  0.00     0.063 H 
ATOM     13  C   UNL A   1      36.754  32.166  29.073  1.00  0.00     0.021 A 
ATOM     14  H   UNL A   1      37.541  28.935  29.224  1.00  0.00     0.063 H 
ATOM     15  H   UNL A   1      37.102  33.099  29.343  1.00  0.00     0.070 H 
BRANCH   8  16
ATOM     16  C   UNL A   1      33.789  30.620  27.190  1.00  0.00    -0.008 A 
ATOM     17  C   UNL A   1      32.420  29.304  25.673  1.00  0.00     0.133 A 
ATOM     18  C   UNL A   1      31.421  30.273  25.682  1.00  0.00    -0.019 A 
ATOM     19  C   UNL A   1      33.586  29.459  26.425  1.00  0.00    -0.011 A 
ATOM     20  C   UNL A   1      31.589  31.414  26.457  1.00  0.00    -0.058 A 
ATOM     21  H   UNL A   1      30.565  30.145  25.120  1.00  0.00     0.066 H 
ATOM     22  H   UNL A   1      34.305  28.717  26.418  1.00  0.00     0.067 H 
ATOM     23  C   UNL A   1      32.766  31.590  27.192  1.00  0.00    -0.054 A 
ATOM     24  H   UNL A   1      30.847  32.131  26.490  1.00  0.00     0.062 H 
ATOM     25  H   UNL A   1      32.888  32.449  27.750  1.00  0.00     0.063 H 
BRANCH  17  26
ATOM     26  O   UNL A   1      32.272  28.253  24.753  1.00  0.00    -0.410 OA
BRANCH  26  27
ATOM     27  C   UNL A   1      31.225  27.357  24.903  1.00  0.00     0.412 C 
ATOM     28  N   UNL A   1      30.489  27.207  23.758  1.00  0.00    -0.321 N 
ATOM     29  H   UNL A   1      29.711  26.606  23.810  1.00  0.00     0.167 HD
ATOM     30  O   UNL A   1      30.943  26.746  25.925  1.00  0.00    -0.224 OA
BRANCH  28  31
ATOM     31  C   UNL A   1      30.737  27.842  22.479  1.00  0.00     0.021 C 
ATOM     32  H   UNL A   1      31.774  28.100  22.418  1.00  0.00     0.049 H 
ATOM     33  H   UNL A   1      30.464  27.150  21.709  1.00  0.00     0.049 H 
BRANCH  31  34
ATOM     34  C   UNL A   1      29.901  29.108  22.292  1.00  0.00    -0.036 C 
ATOM     35  H   UNL A   1      30.432  29.925  22.732  1.00  0.00     0.028 H 
ATOM     36  H   UNL A   1      29.754  29.216  21.237  1.00  0.00     0.028 H 
BRANCH  34  37
ATOM     37  C   UNL A   1      28.502  29.056  22.918  1.00  0.00    -0.052 C 
ATOM     38  H   UNL A   1      27.948  28.286  22.422  1.00  0.00     0.027 H 
ATOM     39  H   UNL A   1      28.654  28.874  23.962  1.00  0.00     0.027 H 
BRANCH  37  40
ATOM     40  C   UNL A   1      27.690  30.352  22.831  1.00  0.00    -0.054 C 
ATOM     41  H   UNL A   1      27.714  30.689  21.817  1.00  0.00     0.027 H 
ATOM     42  H   UNL A   1      26.709  30.109  23.181  1.00  0.00     0.027 H 
BRANCH  40  43
ATOM     43  C   UNL A   1      28.183  31.497  23.721  1.00  0.00    -0.056 C 
ATOM     44  H   UNL A   1      27.374  31.813  24.345  1.00  0.00     0.026 H 
ATOM     45  H   UNL A   1      29.009  31.123  24.289  1.00  0.00     0.026 H 
BRANCH  43  46
ATOM     46  C   UNL A   1      28.685  32.696  22.934  1.00  0.00    -0.065 C 
ATOM     47  H   UNL A   1      28.064  32.844  22.075  1.00  0.00     0.023 H 
ATOM     48  H   UNL A   1      29.692  32.521  22.619  1.00  0.00     0.023 H 
ATOM     49  H   UNL A   1      28.652  33.569  23.552  1.00  0.00     0.023 H 
ENDBRANCH  43  46
ENDBRANCH  40  43
ENDBRANCH  37  40
ENDBRANCH  34  37
ENDBRANCH  31  34
ENDBRANCH  28  31
ENDBRANCH  26  27
ENDBRANCH  17  26
ENDBRANCH   8  16
BRANCH  10  50
ATOM     50  N   UNL A   1      34.672  33.242  28.399  1.00  0.00     0.063 N 
ATOM     51  O   UNL A   1      34.838  34.057  27.515  1.00  0.00    -0.258 OA
ATOM     52  O   UNL A   1      33.789  33.559  29.404  1.00  0.00    -0.258 OA
ENDBRANCH  10  50
ENDBRANCH   5   7
BRANCH   5  53
ATOM     53  C   UNL A   1      39.448  32.648  30.004  1.00  0.00    -0.049 C 
ATOM     54  H   UNL A   1      40.517  32.645  29.963  1.00  0.00     0.024 H 
ATOM     55  H   UNL A   1      39.127  33.100  30.920  1.00  0.00     0.024 H 
ATOM     56  H   UNL A   1      39.061  33.206  29.176  1.00  0.00     0.024 H 
ENDBRANCH   5  53
ENDBRANCH   1   5
BRANCH   3  57
ATOM     57  C   UNL A   1      39.875  28.169  30.208  1.00  0.00     0.017 C 
ATOM     58  H   UNL A   1      38.991  27.854  29.694  1.00  0.00     0.049 H 
ATOM     59  H   UNL A   1      40.373  27.336  30.657  1.00  0.00     0.049 H 
BRANCH  57  60
ATOM     60  C   UNL A   1      40.832  28.812  29.201  1.00  0.00    -0.036 C 
ATOM     61  H   UNL A   1      41.782  28.326  29.283  1.00  0.00     0.028 H 
ATOM     62  H   UNL A   1      40.882  29.854  29.441  1.00  0.00     0.028 H 
BRANCH  60  63
ATOM     63  C   UNL A   1      40.361  28.711  27.747  1.00  0.00    -0.052 C 
ATOM     64  H   UNL A   1      40.693  29.587  27.230  1.00  0.00     0.027 H 
ATOM     65  H   UNL A   1      39.297  28.617  27.785  1.00  0.00     0.027 H 
BRANCH  63  66
ATOM     66  C   UNL A   1      40.873  27.485  26.980  1.00  0.00    -0.052 C 
ATOM     67  H   UNL A   1      41.912  27.365  27.208  1.00  0.00     0.027 H 
ATOM     68  H   UNL A   1      40.676  27.682  25.947  1.00  0.00     0.027 H 
BRANCH  66  69
ATOM     69  C   UNL A   1      40.165  26.164  27.299  1.00  0.00    -0.036 C 
ATOM     70  H   UNL A   1      39.157  26.386  27.579  1.00  0.00     0.028 H 
ATOM     71  H   UNL A   1      40.729  25.700  28.080  1.00  0.00     0.028 H 
BRANCH  69  72
ATOM     72  C   UNL A   1      40.127  25.164  26.145  1.00  0.00     0.018 C 
ATOM     73  H   UNL A   1      40.595  25.605  25.289  1.00  0.00     0.049 H 
ATOM     74  H   UNL A   1      39.103  24.926  25.945  1.00  0.00     0.049 H 
BRANCH  72  75
ATOM     75  N   UNL A   1      40.821  23.929  26.475  1.00  0.00    -0.352 N 
ATOM     76  C   UNL A   1      42.166  23.666  26.547  1.00  0.00     0.251 C 
ATOM     77  H   UNL A   1      40.235  23.164  26.678  1.00  0.00     0.163 HD
ATOM     78  O   UNL A   1      42.563  22.507  26.617  1.00  0.00    -0.269 OA
BRANCH  76  79
ATOM     79  C   UNL A   1      43.144  24.773  26.532  1.00  0.00     0.039 A 
ATOM     80  C   UNL A   1      43.487  25.355  25.308  1.00  0.00    -0.049 A 
ATOM     81  C   UNL A   1      43.755  25.210  27.710  1.00  0.00    -0.049 A 
ATOM     82  C   UNL A   1      44.401  26.411  25.272  1.00  0.00    -0.053 A 
ATOM     83  H   UNL A   1      43.065  25.006  24.433  1.00  0.00     0.063 H 
ATOM     84  C   UNL A   1      44.616  26.305  27.682  1.00  0.00    -0.053 A 
ATOM     85  H   UNL A   1      43.569  24.723  28.601  1.00  0.00     0.063 H 
ATOM     86  C   UNL A   1      44.952  26.912  26.461  1.00  0.00    -0.014 A 
ATOM     87  H   UNL A   1      44.672  26.824  24.366  1.00  0.00     0.063 H 
ATOM     88  H   UNL A   1      45.012  26.670  28.563  1.00  0.00     0.063 H 
BRANCH  86  89
ATOM     89  C   UNL A   1      45.877  28.073  26.451  1.00  0.00     0.031 A 
ATOM     90  C   UNL A   1      47.352  27.864  26.253  1.00  0.00     0.074 A 
ATOM     91  C   UNL A   1      45.397  29.307  26.694  1.00  0.00     0.049 A 
ATOM     92  N   UNL A   1      48.325  28.741  26.288  1.00  0.00    -0.248 NA
ATOM     93  C   UNL A   1      47.797  26.483  26.015  1.00  0.00    -0.034 C 
ATOM     94  C   UNL A   1      43.994  29.628  26.957  1.00  0.00    -0.036 A 
ATOM     95  N   UNL A   1      46.038  30.517  26.780  1.00  0.00    -0.354 N 
ATOM     96  C   UNL A   1      49.494  28.015  26.097  1.00  0.00     0.074 A 
ATOM     97  C   UNL A   1      49.115  26.623  25.993  1.00  0.00    -0.034 C 
ATOM     98  H   UNL A   1      47.231  25.628  25.896  1.00  0.00     0.065 H 
ATOM     99  C   UNL A   1      43.878  30.949  27.167  1.00  0.00    -0.036 A 
ATOM    100  H   UNL A   1      43.217  28.948  26.979  1.00  0.00     0.065 H 
ATOM    101  C   UNL A   1      45.201  31.562  27.084  1.00  0.00     0.049 A 
ATOM    102  H   UNL A   1      47.006  30.626  26.637  1.00  0.00     0.167 HD
ATOM    103  C   UNL A   1      50.765  28.473  26.000  1.00  0.00     0.037 A 
ATOM    104  H   UNL A   1      49.783  25.840  25.912  1.00  0.00     0.065 H 
ATOM    105  H   UNL A   1      42.997  31.451  27.356  1.00  0.00     0.065 H 
ATOM    106  C   UNL A   1      45.471  32.865  27.286  1.00  0.00     0.037 A 
ATOM    107  C   UNL A   1      51.133  29.863  26.072  1.00  0.00     0.049 A 
ATOM    108  C   UNL A   1      46.886  33.352  27.149  1.00  0.00     0.074 A 
ATOM    109  C   UNL A   1      52.380  30.435  25.899  1.00  0.00    -0.036 A 
ATOM    110  N   UNL A   1      50.252  30.899  26.345  1.00  0.00    -0.354 N 
ATOM    111  N   UNL A   1      47.974  32.670  26.886  1.00  0.00    -0.248 NA
ATOM    112  C   UNL A   1      47.112  34.793  27.327  1.00  0.00    -0.034 C 
ATOM    113  C   UNL A   1      52.263  31.813  26.113  1.00  0.00    -0.036 A 
ATOM    114  H   UNL A   1      53.248  29.933  25.654  1.00  0.00     0.065 H 
ATOM    115  C   UNL A   1      50.933  32.105  26.372  1.00  0.00     0.049 A 
ATOM    116  H   UNL A   1      49.285  30.793  26.497  1.00  0.00     0.167 HD
ATOM    117  C   UNL A   1      49.007  33.595  26.847  1.00  0.00     0.074 A 
ATOM    118  C   UNL A   1      48.414  34.893  27.096  1.00  0.00    -0.034 C 
ATOM    119  H   UNL A   1      46.435  35.534  27.567  1.00  0.00     0.065 H 
ATOM    120  H   UNL A   1      53.037  32.497  26.084  1.00  0.00     0.065 H 
ATOM    121  C   UNL A   1      50.329  33.388  26.624  1.00  0.00     0.037 A 
ATOM    122  H   UNL A   1      48.938  35.781  27.094  1.00  0.00     0.065 H 
BRANCH 103 123
ATOM    123  C   UNL A   1      51.855  27.458  25.807  1.00  0.00     0.064 A 
ATOM    124  C   UNL A   1      52.556  26.911  26.892  1.00  0.00     0.173 A 
ATOM    125  C   UNL A   1      52.182  27.005  24.520  1.00  0.00     0.173 A 
ATOM    126  F   UNL A   1      52.288  27.317  28.142  1.00  0.00    -0.203 F 
ATOM    127  C   UNL A   1      53.565  25.972  26.694  1.00  0.00     0.198 A 
ATOM    128  C   UNL A   1      53.171  26.044  24.328  1.00  0.00     0.198 A 
ATOM    129  F   UNL A   1      51.538  27.489  23.447  1.00  0.00    -0.203 F 
ATOM    130  F   UNL A   1      54.257  25.503  27.742  1.00  0.00    -0.200 F 
ATOM    131  C   UNL A   1      53.868  25.535  25.414  1.00  0.00     0.200 A 
ATOM    132  F   UNL A   1      53.454  25.612  23.091  1.00  0.00    -0.200 F 
ATOM    133  F   UNL A   1      54.837  24.629  25.225  1.00  0.00    -0.200 F 
ENDBRANCH 103 123
BRANCH 106 134
ATOM    134  C   UNL A   1      44.367  33.802  27.617  1.00  0.00     0.064 A 
ATOM    135  C   UNL A   1      43.833  33.859  28.911  1.00  0.00     0.173 A 
ATOM    136  C   UNL A   1      43.837  34.671  26.652  1.00  0.00     0.173 A 
ATOM    137  F   UNL A   1      44.295  33.033  29.862  1.00  0.00    -0.203 F 
ATOM    138  C   UNL A   1      42.799  34.739  29.225  1.00  0.00     0.198 A 
ATOM    139  C   UNL A   1      42.822  35.569  26.973  1.00  0.00     0.198 A 
ATOM    140  F   UNL A   1      44.318  34.659  25.400  1.00  0.00    -0.203 F 
ATOM    141  F   UNL A   1      42.282  34.748  30.461  1.00  0.00    -0.200 F 
ATOM    142  C   UNL A   1      42.299  35.598  28.257  1.00  0.00     0.200 A 
ATOM    143  F   UNL A   1      42.352  36.409  26.040  1.00  0.00    -0.200 F 
ATOM    144  F   UNL A   1      41.313  36.452  28.562  1.00  0.00    -0.200 F 
ENDBRANCH 106 134
BRANCH 121 145
ATOM    145  C   UNL A   1      51.221  34.595  26.621  1.00  0.00     0.064 A 
ATOM    146  C   UNL A   1      51.925  34.990  27.767  1.00  0.00     0.173 A 
ATOM    147  C   UNL A   1      51.404  35.340  25.446  1.00  0.00     0.173 A 
ATOM    148  F   UNL A   1      51.770  34.321  28.919  1.00  0.00    -0.203 F 
ATOM    149  C   UNL A   1      52.764  36.102  27.744  1.00  0.00     0.198 A 
ATOM    150  C   UNL A   1      52.266  36.433  25.418  1.00  0.00     0.198 A 
ATOM    151  F   UNL A   1      50.758  34.999  24.321  1.00  0.00    -0.203 F 
ATOM    152  F   UNL A   1      53.392  36.488  28.863  1.00  0.00    -0.200 F 
ATOM    153  C   UNL A   1      52.939  36.817  26.568  1.00  0.00     0.200 A 
ATOM    154  F   UNL A   1      52.444  37.115  24.279  1.00  0.00    -0.200 F 
ATOM    155  F   UNL A   1      53.752  37.881  26.546  1.00  0.00    -0.200 F 
ENDBRANCH 121 145
ENDBRANCH  86  89
ENDBRANCH  76  79
ENDBRANCH  72  75
ENDBRANCH  69  72
ENDBRANCH  66  69
ENDBRANCH  63  66
ENDBRANCH  60  63
ENDBRANCH  57  60
ENDBRANCH   3  57
TORSDOF 25
ENDMDL
MODEL 2
REMARK VINA RESULT:      -9.9      1.856      5.466
REMARK SMILES CCCCCCNC(=O)Oc1cccc(-c2ccc([C@@H](C)C(=O)NCCCCCCNC(=O)c3ccc(-c4c5nc(c(-c6c(F)c(F)c(F)c(F)c6F)c6ccc([nH]6)c(-c6c(F)c(F)c(F)c(F)c6F)c6nc(c(-c7c(F)c(F)c(F)c(F)c7F)c7ccc4[nH]7)C=C6)C=C5)cc3)cc2[N+](=O)[O-])c1
REMARK SMILES IDX 22 1 23 2 24 3 20 5 19 7 16 8 17 9 98 10 18 11 97 13 15 16
REMARK SMILES IDX 11 17 12 18 102 19 13 20 14 23 10 26 8 27 7 28 9 30 6 31
REMARK SMILES IDX 5 34 4 37 3 40 2 43 1 46 99 50 100 51 101 52 21 53 25 57
REMARK SMILES IDX 26 60 27 63 28 66 29 69 30 72 31 75 32 76 33 78 34 79 35 80
REMARK SMILES IDX 96 81 36 82 95 84 37 86 38 89 39 90 89 91 40 92 94 93 88 94
REMARK SMILES IDX 90 95 41 96 93 97 87 99 86 101 42 103 74 106 54 107 73 108
REMARK SMILES IDX 55 109 58 110 72 111 91 112 56 113 57 115 71 117 92 118
REMARK SMILES IDX 59 121 43 123 44 124 52 125 45 126 46 127 50 128 53 129
REMARK SMILES IDX 47 130 48 131 51 132 49 133 75 134 76 135 84 136 77 137
REMARK SMILES IDX 78 138 82 139 85 140 79 141 80 142 83 143 81 144 60 145
REMARK SMILES IDX 61 146 69 147 62 148 63 149 67 150 70 151 64 152 65 153
REMARK SMILES IDX 68 154 66 155
REMARK H PARENT 24 4 20 6 17 12 18 14 97 15 12 21 102 22 13 24 14 25 7 29 6 32
REMARK H PARENT 6 33 5 35 5 36 4 38 4 39 3 41 3 42 2 44 2 45 1 47 1 48 1 49
REMARK H PARENT 21 54 21 55 21 56 25 58 25 59 26 61 26 62 27 64 27 65 28 67
REMARK H PARENT 28 68 29 70 29 71 30 73 30 74 31 77 35 83 96 85 36 87 95 88
REMARK H PARENT 94 98 88 100 90 102 93 104 87 105 55 114 58 116 91 119 56 120
REMARK H PARENT 92 122
REMARK Flexibility Score: inf
ROOT
ATOM      1  C   UNL A   1      33.978  22.068  24.458  1.00  0.00     0.227 C 
ATOM      2  O   UNL A   1      33.370  21.277  25.190  1.00  0.00    -0.274 OA
ATOM      3  N   UNL A   1      35.323  21.888  24.368  1.00  0.00    -0.356 N 
ATOM      4  H   UNL A   1      35.655  21.093  24.844  1.00  0.00     0.163 HD
ENDROOT
BRANCH   1   5
ATOM      5  C   UNL A   1      33.202  23.156  23.699  1.00  0.00     0.060 C 
ATOM      6  H   UNL A   1      32.170  22.922  23.856  1.00  0.00     0.045 H 
BRANCH   5   7
ATOM      7  C   UNL A   1      33.336  24.547  24.302  1.00  0.00    -0.029 A 
ATOM      8  C   UNL A   1      33.394  27.199  25.397  1.00  0.00     0.060 A 
ATOM      9  C   UNL A   1      33.599  26.057  26.192  1.00  0.00    -0.047 A 
ATOM     10  C   UNL A   1      33.244  26.981  24.013  1.00  0.00     0.277 A 
ATOM     11  C   UNL A   1      33.614  24.768  25.651  1.00  0.00    -0.057 A 
ATOM     12  H   UNL A   1      33.743  26.176  27.207  1.00  0.00     0.063 H 
ATOM     13  C   UNL A   1      33.169  25.676  23.484  1.00  0.00     0.021 A 
ATOM     14  H   UNL A   1      33.836  23.966  26.261  1.00  0.00     0.063 H 
ATOM     15  H   UNL A   1      32.988  25.548  22.477  1.00  0.00     0.070 H 
BRANCH   8  16
ATOM     16  C   UNL A   1      33.304  28.519  26.059  1.00  0.00    -0.008 A 
ATOM     17  C   UNL A   1      34.346  30.480  27.045  1.00  0.00     0.133 A 
ATOM     18  C   UNL A   1      33.103  31.054  27.299  1.00  0.00    -0.019 A 
ATOM     19  C   UNL A   1      34.457  29.237  26.421  1.00  0.00    -0.011 A 
ATOM     20  C   UNL A   1      31.953  30.373  26.920  1.00  0.00    -0.058 A 
ATOM     21  H   UNL A   1      33.038  31.974  27.763  1.00  0.00     0.066 H 
ATOM     22  H   UNL A   1      35.390  28.841  26.225  1.00  0.00     0.067 H 
ATOM     23  C   UNL A   1      32.053  29.115  26.318  1.00  0.00    -0.054 A 
ATOM     24  H   UNL A   1      31.025  30.796  27.082  1.00  0.00     0.062 H 
ATOM     25  H   UNL A   1      31.191  28.611  26.057  1.00  0.00     0.063 H 
BRANCH  17  26
ATOM     26  O   UNL A   1      35.465  31.132  27.591  1.00  0.00    -0.410 OA
BRANCH  26  27
ATOM     27  C   UNL A   1      35.699  31.058  28.955  1.00  0.00     0.412 C 
ATOM     28  N   UNL A   1      36.783  30.281  29.265  1.00  0.00    -0.321 N 
ATOM     29  H   UNL A   1      36.982  30.165  30.222  1.00  0.00     0.167 HD
ATOM     30  O   UNL A   1      35.037  31.603  29.829  1.00  0.00    -0.224 OA
BRANCH  28  31
ATOM     31  C   UNL A   1      37.666  29.613  28.330  1.00  0.00     0.021 C 
ATOM     32  H   UNL A   1      37.447  28.566  28.337  1.00  0.00     0.049 H 
ATOM     33  H   UNL A   1      37.502  30.038  27.361  1.00  0.00     0.049 H 
BRANCH  31  34
ATOM     34  C   UNL A   1      39.140  29.812  28.687  1.00  0.00    -0.036 C 
ATOM     35  H   UNL A   1      39.610  30.332  27.879  1.00  0.00     0.028 H 
ATOM     36  H   UNL A   1      39.153  30.357  29.608  1.00  0.00     0.028 H 
BRANCH  34  37
ATOM     37  C   UNL A   1      39.922  28.518  28.941  1.00  0.00    -0.052 C 
ATOM     38  H   UNL A   1      40.302  28.553  29.941  1.00  0.00     0.027 H 
ATOM     39  H   UNL A   1      39.231  27.718  28.770  1.00  0.00     0.027 H 
BRANCH  37  40
ATOM     40  C   UNL A   1      41.102  28.263  27.997  1.00  0.00    -0.054 C 
ATOM     41  H   UNL A   1      41.714  29.140  27.989  1.00  0.00     0.027 H 
ATOM     42  H   UNL A   1      41.600  27.394  28.376  1.00  0.00     0.027 H 
BRANCH  40  43
ATOM     43  C   UNL A   1      40.727  27.936  26.550  1.00  0.00    -0.056 C 
ATOM     44  H   UNL A   1      40.887  26.891  26.386  1.00  0.00     0.026 H 
ATOM     45  H   UNL A   1      39.702  28.213  26.417  1.00  0.00     0.026 H 
BRANCH  43  46
ATOM     46  C   UNL A   1      41.539  28.715  25.528  1.00  0.00    -0.065 C 
ATOM     47  H   UNL A   1      41.326  29.759  25.624  1.00  0.00     0.023 H 
ATOM     48  H   UNL A   1      41.281  28.388  24.542  1.00  0.00     0.023 H 
ATOM     49  H   UNL A   1      42.583  28.547  25.697  1.00  0.00     0.023 H 
ENDBRANCH  43  46
ENDBRANCH  40  43
ENDBRANCH  37  40
ENDBRANCH  34  37
ENDBRANCH  31  34
ENDBRANCH  28  31
ENDBRANCH  26  27
ENDBRANCH  17  26
ENDBRANCH   8  16
BRANCH  10  50
ATOM     50  N   UNL A   1      33.221  28.080  23.073  1.00  0.00     0.063 N 
ATOM     51  O   UNL A   1      32.206  28.719  22.892  1.00  0.00    -0.258 OA
ATOM     52  O   UNL A   1      34.296  28.342  22.257  1.00  0.00    -0.258 OA
ENDBRANCH  10  50
ENDBRANCH   5   7
BRANCH   5  53
ATOM     53  C   UNL A   1      33.342  23.079  22.179  1.00  0.00    -0.049 C 
ATOM     54  H   UNL A   1      34.025  22.295  21.923  1.00  0.00     0.024 H 
ATOM     55  H   UNL A   1      33.713  24.011  21.807  1.00  0.00     0.024 H 
ATOM     56  H   UNL A   1      32.386  22.875  21.742  1.00  0.00     0.024 H 
ENDBRANCH   5  53
ENDBRANCH   1   5
BRANCH   3  57
ATOM     57  C   UNL A   1      36.358  22.649  23.702  1.00  0.00     0.017 C 
ATOM     58  H   UNL A   1      35.956  23.070  22.804  1.00  0.00     0.049 H 
ATOM     59  H   UNL A   1      37.170  21.989  23.483  1.00  0.00     0.049 H 
BRANCH  57  60
ATOM     60  C   UNL A   1      36.886  23.781  24.587  1.00  0.00    -0.036 C 
ATOM     61  H   UNL A   1      36.118  24.520  24.682  1.00  0.00     0.028 H 
ATOM     62  H   UNL A   1      37.767  24.162  24.113  1.00  0.00     0.028 H 
BRANCH  60  63
ATOM     63  C   UNL A   1      37.297  23.329  25.992  1.00  0.00    -0.052 C 
ATOM     64  H   UNL A   1      37.041  22.295  26.095  1.00  0.00     0.027 H 
ATOM     65  H   UNL A   1      36.777  23.967  26.674  1.00  0.00     0.027 H 
BRANCH  63  66
ATOM     66  C   UNL A   1      38.790  23.483  26.315  1.00  0.00    -0.052 C 
ATOM     67  H   UNL A   1      39.295  23.754  25.412  1.00  0.00     0.027 H 
ATOM     68  H   UNL A   1      39.100  22.542  26.719  1.00  0.00     0.027 H 
BRANCH  66  69
ATOM     69  C   UNL A   1      39.131  24.531  27.379  1.00  0.00    -0.036 C 
ATOM     70  H   UNL A   1      38.637  24.256  28.288  1.00  0.00     0.028 H 
ATOM     71  H   UNL A   1      38.806  25.473  26.989  1.00  0.00     0.028 H 
BRANCH  69  72
ATOM     72  C   UNL A   1      40.621  24.681  27.675  1.00  0.00     0.018 C 
ATOM     73  H   UNL A   1      40.760  24.743  28.735  1.00  0.00     0.049 H 
ATOM     74  H   UNL A   1      40.968  25.569  27.188  1.00  0.00     0.049 H 
BRANCH  72  75
ATOM     75  N   UNL A   1      41.390  23.556  27.166  1.00  0.00    -0.352 N 
ATOM     76  C   UNL A   1      42.608  23.537  26.533  1.00  0.00     0.251 C 
ATOM     77  H   UNL A   1      40.973  22.674  27.293  1.00  0.00     0.163 HD
ATOM     78  O   UNL A   1      42.994  22.517  25.972  1.00  0.00    -0.269 OA
BRANCH  76  79
ATOM     79  C   UNL A   1      43.459  24.746  26.518  1.00  0.00     0.039 A 
ATOM     80  C   UNL A   1      44.094  25.140  27.699  1.00  0.00    -0.049 A 
ATOM     81  C   UNL A   1      43.599  25.513  25.358  1.00  0.00    -0.049 A 
ATOM     82  C   UNL A   1      44.912  26.273  27.703  1.00  0.00    -0.053 A 
ATOM     83  H   UNL A   1      43.959  24.596  28.566  1.00  0.00     0.063 H 
ATOM     84  C   UNL A   1      44.465  26.603  25.346  1.00  0.00    -0.053 A 
ATOM     85  H   UNL A   1      43.062  25.272  24.510  1.00  0.00     0.063 H 
ATOM     86  C   UNL A   1      45.126  26.997  26.521  1.00  0.00    -0.014 A 
ATOM     87  H   UNL A   1      45.360  26.578  28.581  1.00  0.00     0.063 H 
ATOM     88  H   UNL A   1      44.621  27.126  24.470  1.00  0.00     0.063 H 
BRANCH  86  89
ATOM     89  C   UNL A   1      46.039  28.167  26.490  1.00  0.00     0.031 A 
ATOM     90  C   UNL A   1      47.513  27.973  26.266  1.00  0.00     0.074 A 
ATOM     91  C   UNL A   1      45.551  29.397  26.739  1.00  0.00     0.049 A 
ATOM     92  N   UNL A   1      48.477  28.859  26.280  1.00  0.00    -0.248 NA
ATOM     93  C   UNL A   1      47.967  26.595  26.024  1.00  0.00    -0.034 C 
ATOM     94  C   UNL A   1      44.150  29.705  27.027  1.00  0.00    -0.036 A 
ATOM     95  N   UNL A   1      46.182  30.613  26.810  1.00  0.00    -0.354 N 
ATOM     96  C   UNL A   1      49.649  28.144  26.070  1.00  0.00     0.074 A 
ATOM     97  C   UNL A   1      49.283  26.749  25.977  1.00  0.00    -0.034 C 
ATOM     98  H   UNL A   1      47.408  25.735  25.917  1.00  0.00     0.065 H 
ATOM     99  C   UNL A   1      44.025  31.025  27.235  1.00  0.00    -0.036 A 
ATOM    100  H   UNL A   1      43.381  29.017  27.065  1.00  0.00     0.065 H 
ATOM    101  C   UNL A   1      45.339  31.651  27.126  1.00  0.00     0.049 A 
ATOM    102  H   UNL A   1      47.145  30.732  26.648  1.00  0.00     0.167 HD
ATOM    103  C   UNL A   1      50.914  28.615  25.949  1.00  0.00     0.037 A 
ATOM    104  H   UNL A   1      49.957  25.972  25.886  1.00  0.00     0.065 H 
ATOM    105  H   UNL A   1      43.142  31.519  27.439  1.00  0.00     0.065 H 
ATOM    106  C   UNL A   1      45.599  32.957  27.319  1.00  0.00     0.037 A 
ATOM    107  C   UNL A   1      51.269  30.009  26.010  1.00  0.00     0.049 A 
ATOM    108  C   UNL A   1      47.007  33.458  27.155  1.00  0.00     0.074 A 
ATOM    109  C   UNL A   1      52.507  30.593  25.813  1.00  0.00    -0.036 A 
ATOM    110  N   UNL A   1      50.382  31.037  26.297  1.00  0.00    -0.354 N 
ATOM    111  N   UNL A   1      48.097  32.786  26.874  1.00  0.00    -0.248 NA
ATOM    112  C   UNL A   1      47.222  34.902  27.325  1.00  0.00    -0.034 C 
ATOM    113  C   UNL A   1      52.380  31.970  26.025  1.00  0.00    -0.036 A 
ATOM    114  H   UNL A   1      53.375  30.100  25.554  1.00  0.00     0.065 H 
ATOM    115  C   UNL A   1      51.052  32.250  26.307  1.00  0.00     0.049 A 
ATOM    116  H   UNL A   1      49.419  30.922  26.466  1.00  0.00     0.167 HD
ATOM    117  C   UNL A   1      49.120  33.722  26.813  1.00  0.00     0.074 A 
ATOM    118  C   UNL A   1      48.518  35.015  27.070  1.00  0.00    -0.034 C 
ATOM    119  H   UNL A   1      46.541  35.637  27.576  1.00  0.00     0.065 H 
ATOM    120  H   UNL A   1      53.145  32.662  25.980  1.00  0.00     0.065 H 
ATOM    121  C   UNL A   1      50.439  33.528  26.567  1.00  0.00     0.037 A 
ATOM    122  H   UNL A   1      49.033  35.908  27.056  1.00  0.00     0.065 H 
BRANCH 103 123
ATOM    123  C   UNL A   1      52.010  27.611  25.738  1.00  0.00     0.064 A 
ATOM    124  C   UNL A   1      52.438  27.243  24.454  1.00  0.00     0.173 A 
ATOM    125  C   UNL A   1      52.662  27.031  26.837  1.00  0.00     0.173 A 
ATOM    126  F   UNL A   1      51.842  27.762  23.369  1.00  0.00    -0.203 F 
ATOM    127  C   UNL A   1      53.455  26.309  24.277  1.00  0.00     0.198 A 
ATOM    128  C   UNL A   1      53.699  26.119  26.657  1.00  0.00     0.198 A 
ATOM    129  F   UNL A   1      52.298  27.352  28.088  1.00  0.00    -0.203 F 
ATOM    130  F   UNL A   1      53.811  25.934  23.040  1.00  0.00    -0.200 F 
ATOM    131  C   UNL A   1      54.089  25.752  25.377  1.00  0.00     0.200 A 
ATOM    132  F   UNL A   1      54.319  25.592  27.722  1.00  0.00    -0.200 F 
ATOM    133  F   UNL A   1      55.070  24.856  25.206  1.00  0.00    -0.200 F 
ENDBRANCH 103 123
BRANCH 106 134
ATOM    134  C   UNL A   1      44.492  33.884  27.668  1.00  0.00     0.064 A 
ATOM    135  C   UNL A   1      43.874  34.671  26.688  1.00  0.00     0.173 A 
ATOM    136  C   UNL A   1      44.017  33.985  28.984  1.00  0.00     0.173 A 
ATOM    137  F   UNL A   1      44.308  34.622  25.420  1.00  0.00    -0.203 F 
ATOM    138  C   UNL A   1      42.834  35.539  27.013  1.00  0.00     0.198 A 
ATOM    139  C   UNL A   1      42.959  34.833  29.303  1.00  0.00     0.198 A 
ATOM    140  F   UNL A   1      44.571  33.247  29.957  1.00  0.00    -0.203 F 
ATOM    141  F   UNL A   1      42.285  36.308  26.063  1.00  0.00    -0.200 F 
ATOM    142  C   UNL A   1      42.372  35.614  28.319  1.00  0.00     0.200 A 
ATOM    143  F   UNL A   1      42.505  34.890  30.563  1.00  0.00    -0.200 F 
ATOM    144  F   UNL A   1      41.364  36.440  28.629  1.00  0.00    -0.200 F 
ENDBRANCH 106 134
BRANCH 121 145
ATOM    145  C   UNL A   1      51.318  34.744  26.545  1.00  0.00     0.064 A 
ATOM    146  C   UNL A   1      51.490  35.504  25.380  1.00  0.00     0.173 A 
ATOM    147  C   UNL A   1      51.964  35.175  27.714  1.00  0.00     0.173 A 
ATOM    148  F   UNL A   1      50.908  35.123  24.233  1.00  0.00    -0.203 F 
ATOM    149  C   UNL A   1      52.295  36.641  25.379  1.00  0.00     0.198 A 
ATOM    150  C   UNL A   1      52.744  36.328  27.717  1.00  0.00     0.198 A 
ATOM    151  F   UNL A   1      51.827  34.486  28.857  1.00  0.00    -0.203 F 
ATOM    152  F   UNL A   1      52.481  37.327  24.243  1.00  0.00    -0.200 F 
ATOM    153  C   UNL A   1      52.914  37.055  26.549  1.00  0.00     0.200 A 
ATOM    154  F   UNL A   1      53.332  36.735  28.850  1.00  0.00    -0.200 F 
ATOM    155  F   UNL A   1      53.682  38.153  26.548  1.00  0.00    -0.200 F 
ENDBRANCH 121 145
ENDBRANCH  86  89
ENDBRANCH  76  79
ENDBRANCH  72  75
ENDBRANCH  69  72
ENDBRANCH  66  69
ENDBRANCH  63  66
ENDBRANCH  60  63
ENDBRANCH  57  60
ENDBRANCH   3  57
TORSDOF 25
ENDMDL
MODEL 3
REMARK VINA RESULT:      -9.8      3.181      9.489
REMARK SMILES CCCCCCNC(=O)Oc1cccc(-c2ccc([C@@H](C)C(=O)NCCCCCCNC(=O)c3ccc(-c4c5nc(c(-c6c(F)c(F)c(F)c(F)c6F)c6ccc([nH]6)c(-c6c(F)c(F)c(F)c(F)c6F)c6nc(c(-c7c(F)c(F)c(F)c(F)c7F)c7ccc4[nH]7)C=C6)C=C5)cc3)cc2[N+](=O)[O-])c1
REMARK SMILES IDX 22 1 23 2 24 3 20 5 19 7 16 8 17 9 98 10 18 11 97 13 15 16
REMARK SMILES IDX 11 17 12 18 102 19 13 20 14 23 10 26 8 27 7 28 9 30 6 31
REMARK SMILES IDX 5 34 4 37 3 40 2 43 1 46 99 50 100 51 101 52 21 53 25 57
REMARK SMILES IDX 26 60 27 63 28 66 29 69 30 72 31 75 32 76 33 78 34 79 35 80
REMARK SMILES IDX 96 81 36 82 95 84 37 86 38 89 39 90 89 91 40 92 94 93 88 94
REMARK SMILES IDX 90 95 41 96 93 97 87 99 86 101 42 103 74 106 54 107 73 108
REMARK SMILES IDX 55 109 58 110 72 111 91 112 56 113 57 115 71 117 92 118
REMARK SMILES IDX 59 121 43 123 44 124 52 125 45 126 46 127 50 128 53 129
REMARK SMILES IDX 47 130 48 131 51 132 49 133 75 134 76 135 84 136 77 137
REMARK SMILES IDX 78 138 82 139 85 140 79 141 80 142 83 143 81 144 60 145
REMARK SMILES IDX 61 146 69 147 62 148 63 149 67 150 70 151 64 152 65 153
REMARK SMILES IDX 68 154 66 155
REMARK H PARENT 24 4 20 6 17 12 18 14 97 15 12 21 102 22 13 24 14 25 7 29 6 32
REMARK H PARENT 6 33 5 35 5 36 4 38 4 39 3 41 3 42 2 44 2 45 1 47 1 48 1 49
REMARK H PARENT 21 54 21 55 21 56 25 58 25 59 26 61 26 62 27 64 27 65 28 67
REMARK H PARENT 28 68 29 70 29 71 30 73 30 74 31 77 35 83 96 85 36 87 95 88
REMARK H PARENT 94 98 88 100 90 102 93 104 87 105 55 114 58 116 91 119 56 120
REMARK H PARENT 92 122
REMARK Flexibility Score: inf
ROOT
ATOM      1  C   UNL A   1      31.304  23.549  26.615  1.00  0.00     0.227 C 
ATOM      2  O   UNL A   1      30.495  23.091  27.432  1.00  0.00    -0.274 OA
ATOM      3  N   UNL A   1      32.586  23.109  26.730  1.00  0.00    -0.356 N 
ATOM      4  H   UNL A   1      32.711  22.411  27.413  1.00  0.00     0.163 HD
ENDROOT
BRANCH   1   5
ATOM      5  C   UNL A   1      30.825  24.536  25.537  1.00  0.00     0.060 C 
ATOM      6  H   UNL A   1      29.761  24.556  25.634  1.00  0.00     0.045 H 
BRANCH   5   7
ATOM      7  C   UNL A   1      31.225  25.980  25.800  1.00  0.00    -0.029 A 
ATOM      8  C   UNL A   1      31.802  28.761  26.213  1.00  0.00     0.060 A 
ATOM      9  C   UNL A   1      31.626  27.866  27.284  1.00  0.00    -0.047 A 
ATOM     10  C   UNL A   1      31.767  28.205  24.920  1.00  0.00     0.277 A 
ATOM     11  C   UNL A   1      31.388  26.504  27.083  1.00  0.00    -0.057 A 
ATOM     12  H   UNL A   1      31.674  28.229  28.250  1.00  0.00     0.063 H 
ATOM     13  C   UNL A   1      31.437  26.849  24.718  1.00  0.00     0.021 A 
ATOM     14  H   UNL A   1      31.333  25.873  27.898  1.00  0.00     0.063 H 
ATOM     15  H   UNL A   1      31.350  26.487  23.755  1.00  0.00     0.070 H 
BRANCH   8  16
ATOM     16  C   UNL A   1      31.961  30.201  26.510  1.00  0.00    -0.008 A 
ATOM     17  C   UNL A   1      33.185  32.045  27.515  1.00  0.00     0.133 A 
ATOM     18  C   UNL A   1      32.256  32.965  27.039  1.00  0.00    -0.019 A 
ATOM     19  C   UNL A   1      33.057  30.680  27.248  1.00  0.00    -0.011 A 
ATOM     20  C   UNL A   1      31.182  32.514  26.281  1.00  0.00    -0.058 A 
ATOM     21  H   UNL A   1      32.364  33.970  27.246  1.00  0.00     0.066 H 
ATOM     22  H   UNL A   1      33.770  30.019  27.595  1.00  0.00     0.067 H 
ATOM     23  C   UNL A   1      31.031  31.146  26.031  1.00  0.00    -0.054 A 
ATOM     24  H   UNL A   1      30.497  33.187  25.903  1.00  0.00     0.062 H 
ATOM     25  H   UNL A   1      30.220  30.821  25.482  1.00  0.00     0.063 H 
BRANCH  17  26
ATOM     26  O   UNL A   1      34.157  32.531  28.406  1.00  0.00    -0.410 OA
BRANCH  26  27
ATOM     27  C   UNL A   1      33.973  33.768  29.006  1.00  0.00     0.412 C 
ATOM     28  N   UNL A   1      35.153  34.351  29.385  1.00  0.00    -0.321 N 
ATOM     29  H   UNL A   1      35.087  35.219  29.846  1.00  0.00     0.167 HD
ATOM     30  O   UNL A   1      32.899  34.319  29.204  1.00  0.00    -0.224 OA
BRANCH  28  31
ATOM     31  C   UNL A   1      36.487  33.824  29.179  1.00  0.00     0.021 C 
ATOM     32  H   UNL A   1      36.409  32.856  28.727  1.00  0.00     0.049 H 
ATOM     33  H   UNL A   1      37.017  34.505  28.545  1.00  0.00     0.049 H 
BRANCH  31  34
ATOM     34  C   UNL A   1      37.265  33.696  30.488  1.00  0.00    -0.036 C 
ATOM     35  H   UNL A   1      37.275  34.654  30.964  1.00  0.00     0.028 H 
ATOM     36  H   UNL A   1      36.765  32.943  31.061  1.00  0.00     0.028 H 
BRANCH  34  37
ATOM     37  C   UNL A   1      38.716  33.225  30.333  1.00  0.00    -0.052 C 
ATOM     38  H   UNL A   1      38.700  32.182  30.094  1.00  0.00     0.027 H 
ATOM     39  H   UNL A   1      39.144  33.837  29.566  1.00  0.00     0.027 H 
BRANCH  37  40
ATOM     40  C   UNL A   1      39.607  33.412  31.566  1.00  0.00    -0.054 C 
ATOM     41  H   UNL A   1      39.570  32.511  32.140  1.00  0.00     0.027 H 
ATOM     42  H   UNL A   1      40.583  33.645  31.191  1.00  0.00     0.027 H 
BRANCH  40  43
ATOM     43  C   UNL A   1      39.222  34.574  32.485  1.00  0.00    -0.056 C 
ATOM     44  H   UNL A   1      39.616  35.479  32.071  1.00  0.00     0.026 H 
ATOM     45  H   UNL A   1      38.153  34.590  32.545  1.00  0.00     0.026 H 
BRANCH  43  46
ATOM     46  C   UNL A   1      39.749  34.420  33.902  1.00  0.00    -0.065 C 
ATOM     47  H   UNL A   1      38.943  34.530  34.597  1.00  0.00     0.023 H 
ATOM     48  H   UNL A   1      40.488  35.171  34.091  1.00  0.00     0.023 H 
ATOM     49  H   UNL A   1      40.189  33.451  34.016  1.00  0.00     0.023 H 
ENDBRANCH  43  46
ENDBRANCH  40  43
ENDBRANCH  37  40
ENDBRANCH  34  37
ENDBRANCH  31  34
ENDBRANCH  28  31
ENDBRANCH  26  27
ENDBRANCH  17  26
ENDBRANCH   8  16
BRANCH  10  50
ATOM     50  N   UNL A   1      32.125  28.981  23.753  1.00  0.00     0.063 N 
ATOM     51  O   UNL A   1      33.274  29.326  23.569  1.00  0.00    -0.258 OA
ATOM     52  O   UNL A   1      31.165  29.469  22.900  1.00  0.00    -0.258 OA
ENDBRANCH  10  50
ENDBRANCH   5   7
BRANCH   5  53
ATOM     53  C   UNL A   1      31.029  24.044  24.105  1.00  0.00    -0.049 C 
ATOM     54  H   UNL A   1      31.839  23.344  24.080  1.00  0.00     0.024 H 
ATOM     55  H   UNL A   1      31.256  24.875  23.471  1.00  0.00     0.024 H 
ATOM     56  H   UNL A   1      30.135  23.566  23.761  1.00  0.00     0.024 H 
ENDBRANCH   5  53
ENDBRANCH   1   5
BRANCH   3  57
ATOM     57  C   UNL A   1      33.800  23.476  26.034  1.00  0.00     0.017 C 
ATOM     58  H   UNL A   1      34.527  23.799  26.751  1.00  0.00     0.049 H 
ATOM     59  H   UNL A   1      33.568  24.260  25.346  1.00  0.00     0.049 H 
BRANCH  57  60
ATOM     60  C   UNL A   1      34.375  22.299  25.241  1.00  0.00    -0.036 C 
ATOM     61  H   UNL A   1      34.834  22.683  24.354  1.00  0.00     0.028 H 
ATOM     62  H   UNL A   1      33.560  21.639  25.029  1.00  0.00     0.028 H 
BRANCH  60  63
ATOM     63  C   UNL A   1      35.419  21.484  26.011  1.00  0.00    -0.052 C 
ATOM     64  H   UNL A   1      34.918  20.663  26.481  1.00  0.00     0.027 H 
ATOM     65  H   UNL A   1      35.873  22.160  26.705  1.00  0.00     0.027 H 
BRANCH  63  66
ATOM     66  C   UNL A   1      36.562  20.917  25.158  1.00  0.00    -0.052 C 
ATOM     67  H   UNL A   1      36.724  21.586  24.339  1.00  0.00     0.027 H 
ATOM     68  H   UNL A   1      36.247  19.938  24.861  1.00  0.00     0.027 H 
BRANCH  66  69
ATOM     69  C   UNL A   1      37.898  20.728  25.884  1.00  0.00    -0.036 C 
ATOM     70  H   UNL A   1      37.743  20.047  26.694  1.00  0.00     0.028 H 
ATOM     71  H   UNL A   1      38.208  21.701  26.202  1.00  0.00     0.028 H 
BRANCH  69  72
ATOM     72  C   UNL A   1      39.027  20.181  25.013  1.00  0.00     0.018 C 
ATOM     73  H   UNL A   1      39.622  20.998  24.663  1.00  0.00     0.049 H 
ATOM     74  H   UNL A   1      38.587  19.647  24.196  1.00  0.00     0.049 H 
BRANCH  72  75
ATOM     75  N   UNL A   1      39.880  19.259  25.747  1.00  0.00    -0.352 N 
ATOM     76  C   UNL A   1      41.069  19.485  26.394  1.00  0.00     0.251 C 
ATOM     77  H   UNL A   1      39.554  18.331  25.786  1.00  0.00     0.163 HD
ATOM     78  O   UNL A   1      41.758  18.539  26.763  1.00  0.00    -0.269 OA
BRANCH  76  79
ATOM     79  C   UNL A   1      41.532  20.866  26.643  1.00  0.00     0.039 A 
ATOM     80  C   UNL A   1      41.364  21.415  27.918  1.00  0.00    -0.049 A 
ATOM     81  C   UNL A   1      42.088  21.635  25.618  1.00  0.00    -0.049 A 
ATOM     82  C   UNL A   1      41.805  22.715  28.179  1.00  0.00    -0.053 A 
ATOM     83  H   UNL A   1      40.917  20.861  28.665  1.00  0.00     0.063 H 
ATOM     84  C   UNL A   1      42.586  22.906  25.894  1.00  0.00    -0.053 A 
ATOM     85  H   UNL A   1      42.131  21.262  24.656  1.00  0.00     0.063 H 
ATOM     86  C   UNL A   1      42.444  23.460  27.176  1.00  0.00    -0.014 A 
ATOM     87  H   UNL A   1      41.659  23.128  29.113  1.00  0.00     0.063 H 
ATOM     88  H   UNL A   1      43.060  23.445  25.152  1.00  0.00     0.063 H 
BRANCH  86  89
ATOM     89  C   UNL A   1      42.974  24.820  27.449  1.00  0.00     0.031 A 
ATOM     90  C   UNL A   1      42.059  25.906  27.940  1.00  0.00     0.074 A 
ATOM     91  C   UNL A   1      44.265  25.094  27.183  1.00  0.00     0.049 A 
ATOM     92  N   UNL A   1      42.319  27.170  28.163  1.00  0.00    -0.248 NA
ATOM     93  C   UNL A   1      40.659  25.528  28.185  1.00  0.00    -0.034 C 
ATOM     94  C   UNL A   1      45.237  24.139  26.650  1.00  0.00    -0.036 A 
ATOM     95  N   UNL A   1      44.976  26.261  27.306  1.00  0.00    -0.354 N 
ATOM     96  C   UNL A   1      41.113  27.740  28.552  1.00  0.00     0.074 A 
ATOM     97  C   UNL A   1      40.113  26.696  28.492  1.00  0.00    -0.034 C 
ATOM     98  H   UNL A   1      40.217  24.597  28.132  1.00  0.00     0.065 H 
ATOM     99  C   UNL A   1      46.420  24.756  26.499  1.00  0.00    -0.036 A 
ATOM    100  H   UNL A   1      45.044  23.150  26.426  1.00  0.00     0.065 H 
ATOM    101  C   UNL A   1      46.282  26.154  26.894  1.00  0.00     0.049 A 
ATOM    102  H   UNL A   1      44.588  27.095  27.656  1.00  0.00     0.167 HD
ATOM    103  C   UNL A   1      40.869  29.014  28.940  1.00  0.00     0.037 A 
ATOM    104  H   UNL A   1      39.106  26.842  28.665  1.00  0.00     0.065 H 
ATOM    105  H   UNL A   1      47.288  24.312  26.159  1.00  0.00     0.065 H 
ATOM    106  C   UNL A   1      47.255  27.082  26.831  1.00  0.00     0.037 A 
ATOM    107  C   UNL A   1      41.874  30.041  29.030  1.00  0.00     0.049 A 
ATOM    108  C   UNL A   1      46.965  28.484  27.291  1.00  0.00     0.074 A 
ATOM    109  C   UNL A   1      41.744  31.338  29.494  1.00  0.00    -0.036 A 
ATOM    110  N   UNL A   1      43.196  29.887  28.639  1.00  0.00    -0.354 N 
ATOM    111  N   UNL A   1      45.842  28.992  27.736  1.00  0.00    -0.248 NA
ATOM    112  C   UNL A   1      48.080  29.440  27.249  1.00  0.00    -0.034 C 
ATOM    113  C   UNL A   1      42.977  31.982  29.341  1.00  0.00    -0.036 A 
ATOM    114  H   UNL A   1      40.887  31.758  29.886  1.00  0.00     0.065 H 
ATOM    115  C   UNL A   1      43.887  31.072  28.827  1.00  0.00     0.049 A 
ATOM    116  H   UNL A   1      43.586  29.056  28.281  1.00  0.00     0.167 HD
ATOM    117  C   UNL A   1      46.117  30.316  28.046  1.00  0.00     0.074 A 
ATOM    118  C   UNL A   1      47.520  30.530  27.754  1.00  0.00    -0.034 C 
ATOM    119  H   UNL A   1      49.047  29.299  26.915  1.00  0.00     0.065 H 
ATOM    120  H   UNL A   1      43.175  32.969  29.573  1.00  0.00     0.065 H 
ATOM    121  C   UNL A   1      45.283  31.270  28.529  1.00  0.00     0.037 A 
ATOM    122  H   UNL A   1      48.019  31.418  27.918  1.00  0.00     0.065 H 
BRANCH 103 123
ATOM    123  C   UNL A   1      39.454  29.371  29.299  1.00  0.00     0.064 A 
ATOM    124  C   UNL A   1      39.016  29.403  30.631  1.00  0.00     0.173 A 
ATOM    125  C   UNL A   1      38.534  29.715  28.297  1.00  0.00     0.173 A 
ATOM    126  F   UNL A   1      39.854  29.075  31.626  1.00  0.00    -0.203 F 
ATOM    127  C   UNL A   1      37.700  29.735  30.945  1.00  0.00     0.198 A 
ATOM    128  C   UNL A   1      37.227  30.075  28.617  1.00  0.00     0.198 A 
ATOM    129  F   UNL A   1      38.902  29.708  27.007  1.00  0.00    -0.203 F 
ATOM    130  F   UNL A   1      37.290  29.707  32.221  1.00  0.00    -0.200 F 
ATOM    131  C   UNL A   1      36.809  30.075  29.940  1.00  0.00     0.200 A 
ATOM    132  F   UNL A   1      36.370  30.416  27.645  1.00  0.00    -0.200 F 
ATOM    133  F   UNL A   1      35.544  30.398  30.243  1.00  0.00    -0.200 F 
ENDBRANCH 103 123
BRANCH 106 134
ATOM    134  C   UNL A   1      48.601  26.703  26.330  1.00  0.00     0.064 A 
ATOM    135  C   UNL A   1      49.545  26.108  27.178  1.00  0.00     0.173 A 
ATOM    136  C   UNL A   1      48.964  26.910  24.991  1.00  0.00     0.173 A 
ATOM    137  F   UNL A   1      49.250  25.908  28.471  1.00  0.00    -0.203 F 
ATOM    138  C   UNL A   1      50.807  25.749  26.710  1.00  0.00     0.198 A 
ATOM    139  C   UNL A   1      50.216  26.526  24.518  1.00  0.00     0.198 A 
ATOM    140  F   UNL A   1      48.093  27.471  24.139  1.00  0.00    -0.203 F 
ATOM    141  F   UNL A   1      51.704  25.215  27.550  1.00  0.00    -0.200 F 
ATOM    142  C   UNL A   1      51.139  25.952  25.378  1.00  0.00     0.200 A 
ATOM    143  F   UNL A   1      50.527  26.709  23.227  1.00  0.00    -0.200 F 
ATOM    144  F   UNL A   1      52.349  25.596  24.926  1.00  0.00    -0.200 F 
ENDBRANCH 106 134
BRANCH 121 145
ATOM    145  C   UNL A   1      45.869  32.626  28.790  1.00  0.00     0.064 A 
ATOM    146  C   UNL A   1      46.460  32.946  30.021  1.00  0.00     0.173 A 
ATOM    147  C   UNL A   1      45.877  33.603  27.782  1.00  0.00     0.173 A 
ATOM    148  F   UNL A   1      46.463  32.052  31.021  1.00  0.00    -0.203 F 
ATOM    149  C   UNL A   1      47.017  34.203  30.242  1.00  0.00     0.198 A 
ATOM    150  C   UNL A   1      46.460  34.849  27.997  1.00  0.00     0.198 A 
ATOM    151  F   UNL A   1      45.330  33.345  26.585  1.00  0.00    -0.203 F 
ATOM    152  F   UNL A   1      47.536  34.502  31.441  1.00  0.00    -0.200 F 
ATOM    153  C   UNL A   1      47.023  35.150  29.228  1.00  0.00     0.200 A 
ATOM    154  F   UNL A   1      46.477  35.758  27.013  1.00  0.00    -0.200 F 
ATOM    155  F   UNL A   1      47.566  36.356  29.440  1.00  0.00    -0.200 F 
ENDBRANCH 121 145
ENDBRANCH  86  89
ENDBRANCH  76  79
ENDBRANCH  72  75
ENDBRANCH  69  72
ENDBRANCH  66  69
ENDBRANCH  63  66
ENDBRANCH  60  63
ENDBRANCH  57  60
ENDBRANCH   3  57
TORSDOF 25
ENDMDL
MODEL 4
REMARK VINA RESULT:      -9.7      7.688     14.971
REMARK SMILES CCCCCCNC(=O)Oc1cccc(-c2ccc([C@@H](C)C(=O)NCCCCCCNC(=O)c3ccc(-c4c5nc(c(-c6c(F)c(F)c(F)c(F)c6F)c6ccc([nH]6)c(-c6c(F)c(F)c(F)c(F)c6F)c6nc(c(-c7c(F)c(F)c(F)c(F)c7F)c7ccc4[nH]7)C=C6)C=C5)cc3)cc2[N+](=O)[O-])c1
REMARK SMILES IDX 22 1 23 2 24 3 20 5 19 7 16 8 17 9 98 10 18 11 97 13 15 16
REMARK SMILES IDX 11 17 12 18 102 19 13 20 14 23 10 26 8 27 7 28 9 30 6 31
REMARK SMILES IDX 5 34 4 37 3 40 2 43 1 46 99 50 100 51 101 52 21 53 25 57
REMARK SMILES IDX 26 60 27 63 28 66 29 69 30 72 31 75 32 76 33 78 34 79 35 80
REMARK SMILES IDX 96 81 36 82 95 84 37 86 38 89 39 90 89 91 40 92 94 93 88 94
REMARK SMILES IDX 90 95 41 96 93 97 87 99 86 101 42 103 74 106 54 107 73 108
REMARK SMILES IDX 55 109 58 110 72 111 91 112 56 113 57 115 71 117 92 118
REMARK SMILES IDX 59 121 43 123 44 124 52 125 45 126 46 127 50 128 53 129
REMARK SMILES IDX 47 130 48 131 51 132 49 133 75 134 76 135 84 136 77 137
REMARK SMILES IDX 78 138 82 139 85 140 79 141 80 142 83 143 81 144 60 145
REMARK SMILES IDX 61 146 69 147 62 148 63 149 67 150 70 151 64 152 65 153
REMARK SMILES IDX 68 154 66 155
REMARK H PARENT 24 4 20 6 17 12 18 14 97 15 12 21 102 22 13 24 14 25 7 29 6 32
REMARK H PARENT 6 33 5 35 5 36 4 38 4 39 3 41 3 42 2 44 2 45 1 47 1 48 1 49
REMARK H PARENT 21 54 21 55 21 56 25 58 25 59 26 61 26 62 27 64 27 65 28 67
REMARK H PARENT 28 68 29 70 29 71 30 73 30 74 31 77 35 83 96 85 36 87 95 88
REMARK H PARENT 94 98 88 100 90 102 93 104 87 105 55 114 58 116 91 119 56 120
REMARK H PARENT 92 122
REMARK Flexibility Score: inf
ROOT
ATOM      1  C   UNL A   1      47.158  20.450  38.519  1.00  0.00     0.227 C 
ATOM      2  O   UNL A   1      47.042  21.397  39.308  1.00  0.00    -0.274 OA
ATOM      3  N   UNL A   1      46.052  20.136  37.793  1.00  0.00    -0.356 N 
ATOM      4  H   UNL A   1      45.296  20.753  37.926  1.00  0.00     0.163 HD
ENDROOT
BRANCH   1   5
ATOM      5  C   UNL A   1      48.507  19.724  38.390  1.00  0.00     0.060 C 
ATOM      6  H   UNL A   1      48.293  18.838  37.831  1.00  0.00     0.045 H 
BRANCH   5   7
ATOM      7  C   UNL A   1      49.520  20.449  37.516  1.00  0.00    -0.029 A 
ATOM      8  C   UNL A   1      51.275  21.876  35.750  1.00  0.00     0.060 A 
ATOM      9  C   UNL A   1      51.098  22.253  37.093  1.00  0.00    -0.047 A 
ATOM     10  C   UNL A   1      50.612  20.705  35.334  1.00  0.00     0.277 A 
ATOM     11  C   UNL A   1      50.277  21.532  37.965  1.00  0.00    -0.057 A 
ATOM     12  H   UNL A   1      51.591  23.089  37.446  1.00  0.00     0.063 H 
ATOM     13  C   UNL A   1      49.714  20.033  36.189  1.00  0.00     0.021 A 
ATOM     14  H   UNL A   1      50.229  21.805  38.959  1.00  0.00     0.063 H 
ATOM     15  H   UNL A   1      49.190  19.219  35.833  1.00  0.00     0.070 H 
BRANCH   8  16
ATOM     16  C   UNL A   1      52.090  22.742  34.871  1.00  0.00    -0.008 A 
ATOM     17  C   UNL A   1      52.284  24.416  33.119  1.00  0.00     0.133 A 
ATOM     18  C   UNL A   1      53.672  24.409  33.220  1.00  0.00    -0.019 A 
ATOM     19  C   UNL A   1      51.493  23.608  33.938  1.00  0.00    -0.011 A 
ATOM     20  C   UNL A   1      54.279  23.582  34.157  1.00  0.00    -0.058 A 
ATOM     21  H   UNL A   1      54.243  25.011  32.606  1.00  0.00     0.066 H 
ATOM     22  H   UNL A   1      50.464  23.645  33.859  1.00  0.00     0.067 H 
ATOM     23  C   UNL A   1      53.496  22.750  34.964  1.00  0.00    -0.054 A 
ATOM     24  H   UNL A   1      55.307  23.582  34.259  1.00  0.00     0.062 H 
ATOM     25  H   UNL A   1      53.960  22.127  35.644  1.00  0.00     0.063 H 
BRANCH  17  26
ATOM     26  O   UNL A   1      51.732  25.144  32.052  1.00  0.00    -0.410 OA
BRANCH  26  27
ATOM     27  C   UNL A   1      51.411  26.481  32.232  1.00  0.00     0.412 C 
ATOM     28  N   UNL A   1      50.061  26.707  32.220  1.00  0.00    -0.321 N 
ATOM     29  H   UNL A   1      49.770  27.643  32.312  1.00  0.00     0.167 HD
ATOM     30  O   UNL A   1      52.208  27.398  32.382  1.00  0.00    -0.224 OA
BRANCH  28  31
ATOM     31  C   UNL A   1      49.016  25.711  32.086  1.00  0.00     0.021 C 
ATOM     32  H   UNL A   1      49.208  25.126  31.210  1.00  0.00     0.049 H 
ATOM     33  H   UNL A   1      49.025  25.103  32.967  1.00  0.00     0.049 H 
BRANCH  31  34
ATOM     34  C   UNL A   1      47.630  26.342  31.963  1.00  0.00    -0.036 C 
ATOM     35  H   UNL A   1      47.379  26.779  32.907  1.00  0.00     0.028 H 
ATOM     36  H   UNL A   1      47.696  27.057  31.170  1.00  0.00     0.028 H 
BRANCH  34  37
ATOM     37  C   UNL A   1      46.510  25.370  31.574  1.00  0.00    -0.052 C 
ATOM     38  H   UNL A   1      45.797  25.908  30.984  1.00  0.00     0.027 H 
ATOM     39  H   UNL A   1      46.986  24.567  31.050  1.00  0.00     0.027 H 
BRANCH  37  40
ATOM     40  C   UNL A   1      45.760  24.722  32.744  1.00  0.00    -0.054 C 
ATOM     41  H   UNL A   1      46.446  24.088  33.264  1.00  0.00     0.027 H 
ATOM     42  H   UNL A   1      45.386  25.531  33.337  1.00  0.00     0.027 H 
BRANCH  40  43
ATOM     43  C   UNL A   1      44.540  23.883  32.358  1.00  0.00    -0.056 C 
ATOM     44  H   UNL A   1      43.854  24.507  31.824  1.00  0.00     0.026 H 
ATOM     45  H   UNL A   1      44.892  23.068  31.761  1.00  0.00     0.026 H 
BRANCH  43  46
ATOM     46  C   UNL A   1      43.819  23.286  33.555  1.00  0.00    -0.065 C 
ATOM     47  H   UNL A   1      43.999  23.891  34.419  1.00  0.00     0.023 H 
ATOM     48  H   UNL A   1      44.182  22.295  33.733  1.00  0.00     0.023 H 
ATOM     49  H   UNL A   1      42.767  23.249  33.359  1.00  0.00     0.023 H 
ENDBRANCH  43  46
ENDBRANCH  40  43
ENDBRANCH  37  40
ENDBRANCH  34  37
ENDBRANCH  31  34
ENDBRANCH  28  31
ENDBRANCH  26  27
ENDBRANCH  17  26
ENDBRANCH   8  16
BRANCH  10  50
ATOM     50  N   UNL A   1      50.868  20.109  34.042  1.00  0.00     0.063 N 
ATOM     51  O   UNL A   1      51.978  19.717  33.750  1.00  0.00    -0.258 OA
ATOM     52  O   UNL A   1      49.906  20.098  33.059  1.00  0.00    -0.258 OA
ENDBRANCH  10  50
ENDBRANCH   5   7
BRANCH   5  53
ATOM     53  C   UNL A   1      49.048  19.173  39.709  1.00  0.00    -0.049 C 
ATOM     54  H   UNL A   1      48.309  19.292  40.475  1.00  0.00     0.024 H 
ATOM     55  H   UNL A   1      49.934  19.707  39.982  1.00  0.00     0.024 H 
ATOM     56  H   UNL A   1      49.278  18.134  39.595  1.00  0.00     0.024 H 
ENDBRANCH   5  53
ENDBRANCH   1   5
BRANCH   3  57
ATOM     57  C   UNL A   1      45.779  19.064  36.861  1.00  0.00     0.017 C 
ATOM     58  H   UNL A   1      44.755  18.768  36.962  1.00  0.00     0.049 H 
ATOM     59  H   UNL A   1      46.435  18.250  37.085  1.00  0.00     0.049 H 
BRANCH  57  60
ATOM     60  C   UNL A   1      46.030  19.496  35.413  1.00  0.00    -0.036 C 
ATOM     61  H   UNL A   1      45.317  19.002  34.786  1.00  0.00     0.028 H 
ATOM     62  H   UNL A   1      47.039  19.228  35.179  1.00  0.00     0.028 H 
BRANCH  60  63
ATOM     63  C   UNL A   1      45.907  21.006  35.187  1.00  0.00    -0.052 C 
ATOM     64  H   UNL A   1      45.782  21.475  36.140  1.00  0.00     0.027 H 
ATOM     65  H   UNL A   1      45.072  21.142  34.533  1.00  0.00     0.027 H 
BRANCH  63  66
ATOM     66  C   UNL A   1      47.107  21.660  34.489  1.00  0.00    -0.052 C 
ATOM     67  H   UNL A   1      46.797  21.953  33.508  1.00  0.00     0.027 H 
ATOM     68  H   UNL A   1      47.885  20.925  34.496  1.00  0.00     0.027 H 
BRANCH  66  69
ATOM     69  C   UNL A   1      47.687  22.893  35.190  1.00  0.00    -0.036 C 
ATOM     70  H   UNL A   1      48.000  23.587  34.437  1.00  0.00     0.028 H 
ATOM     71  H   UNL A   1      48.491  22.541  35.801  1.00  0.00     0.028 H 
BRANCH  69  72
ATOM     72  C   UNL A   1      46.718  23.612  36.125  1.00  0.00     0.018 C 
ATOM     73  H   UNL A   1      46.327  22.906  36.828  1.00  0.00     0.049 H 
ATOM     74  H   UNL A   1      45.936  24.037  35.531  1.00  0.00     0.049 H 
BRANCH  72  75
ATOM     75  N   UNL A   1      47.368  24.690  36.854  1.00  0.00    -0.352 N 
ATOM     76  C   UNL A   1      47.222  26.049  36.731  1.00  0.00     0.251 C 
ATOM     77  H   UNL A   1      48.011  24.401  37.540  1.00  0.00     0.163 HD
ATOM     78  O   UNL A   1      48.021  26.806  37.273  1.00  0.00    -0.269 OA
BRANCH  76  79
ATOM     79  C   UNL A   1      46.107  26.611  35.939  1.00  0.00     0.039 A 
ATOM     80  C   UNL A   1      44.839  26.035  36.055  1.00  0.00    -0.049 A 
ATOM     81  C   UNL A   1      46.317  27.671  35.052  1.00  0.00    -0.049 A 
ATOM     82  C   UNL A   1      43.769  26.558  35.324  1.00  0.00    -0.053 A 
ATOM     83  H   UNL A   1      44.693  25.227  36.679  1.00  0.00     0.063 H 
ATOM     84  C   UNL A   1      45.238  28.232  34.373  1.00  0.00    -0.053 A 
ATOM     85  H   UNL A   1      47.270  28.038  34.900  1.00  0.00     0.063 H 
ATOM     86  C   UNL A   1      43.954  27.677  34.498  1.00  0.00    -0.014 A 
ATOM     87  H   UNL A   1      42.838  26.117  35.391  1.00  0.00     0.063 H 
ATOM     88  H   UNL A   1      45.383  29.060  33.773  1.00  0.00     0.063 H 
BRANCH  86  89
ATOM     89  C   UNL A   1      42.819  28.285  33.761  1.00  0.00     0.031 A 
ATOM     90  C   UNL A   1      42.615  27.986  32.302  1.00  0.00     0.074 A 
ATOM     91  C   UNL A   1      42.016  29.165  34.388  1.00  0.00     0.049 A 
ATOM     92  N   UNL A   1      41.729  28.476  31.472  1.00  0.00    -0.248 NA
ATOM     93  C   UNL A   1      43.549  27.030  31.688  1.00  0.00    -0.034 C 
ATOM     94  C   UNL A   1      42.147  29.580  35.785  1.00  0.00    -0.036 A 
ATOM     95  N   UNL A   1      40.942  29.885  33.926  1.00  0.00    -0.354 N 
ATOM     96  C   UNL A   1      42.013  27.906  30.237  1.00  0.00     0.074 A 
ATOM     97  C   UNL A   1      43.179  27.069  30.416  1.00  0.00    -0.034 C 
ATOM     98  H   UNL A   1      44.297  26.475  32.132  1.00  0.00     0.065 H 
ATOM     99  C   UNL A   1      41.187  30.474  36.069  1.00  0.00    -0.036 A 
ATOM    100  H   UNL A   1      42.864  29.240  36.445  1.00  0.00     0.065 H 
ATOM    101  C   UNL A   1      40.393  30.719  34.869  1.00  0.00     0.049 A 
ATOM    102  H   UNL A   1      40.598  29.810  33.007  1.00  0.00     0.167 HD
ATOM    103  C   UNL A   1      41.349  28.056  29.066  1.00  0.00     0.037 A 
ATOM    104  H   UNL A   1      43.661  26.567  29.653  1.00  0.00     0.065 H 
ATOM    105  H   UNL A   1      41.034  30.917  36.989  1.00  0.00     0.065 H 
ATOM    106  C   UNL A   1      39.372  31.591  34.773  1.00  0.00     0.037 A 
ATOM    107  C   UNL A   1      40.169  28.865  28.901  1.00  0.00     0.049 A 
ATOM    108  C   UNL A   1      38.636  31.721  33.469  1.00  0.00     0.074 A 
ATOM    109  C   UNL A   1      39.375  29.013  27.778  1.00  0.00    -0.036 A 
ATOM    110  N   UNL A   1      39.619  29.669  29.889  1.00  0.00    -0.354 N 
ATOM    111  N   UNL A   1      38.861  31.114  32.328  1.00  0.00    -0.248 NA
ATOM    112  C   UNL A   1      37.497  32.648  33.439  1.00  0.00    -0.034 C 
ATOM    113  C   UNL A   1      38.371  29.942  28.073  1.00  0.00    -0.036 A 
ATOM    114  H   UNL A   1      39.500  28.523  26.879  1.00  0.00     0.065 H 
ATOM    115  C   UNL A   1      38.511  30.336  29.394  1.00  0.00     0.049 A 
ATOM    116  H   UNL A   1      39.966  29.752  30.807  1.00  0.00     0.167 HD
ATOM    117  C   UNL A   1      37.885  31.569  31.454  1.00  0.00     0.074 A 
ATOM    118  C   UNL A   1      37.052  32.490  32.201  1.00  0.00    -0.034 C 
ATOM    119  H   UNL A   1      37.137  33.262  34.187  1.00  0.00     0.065 H 
ATOM    120  H   UNL A   1      37.647  30.277  27.417  1.00  0.00     0.065 H 
ATOM    121  C   UNL A   1      37.694  31.252  30.149  1.00  0.00     0.037 A 
ATOM    122  H   UNL A   1      36.220  32.963  31.816  1.00  0.00     0.065 H 
BRANCH 103 123
ATOM    123  C   UNL A   1      41.885  27.328  27.867  1.00  0.00     0.064 A 
ATOM    124  C   UNL A   1      42.822  27.916  27.004  1.00  0.00     0.173 A 
ATOM    125  C   UNL A   1      41.478  26.013  27.594  1.00  0.00     0.173 A 
ATOM    126  F   UNL A   1      43.238  29.174  27.215  1.00  0.00    -0.203 F 
ATOM    127  C   UNL A   1      43.308  27.227  25.896  1.00  0.00     0.198 A 
ATOM    128  C   UNL A   1      41.988  25.317  26.502  1.00  0.00     0.198 A 
ATOM    129  F   UNL A   1      40.589  25.401  28.391  1.00  0.00    -0.203 F 
ATOM    130  F   UNL A   1      44.163  27.828  25.056  1.00  0.00    -0.200 F 
ATOM    131  C   UNL A   1      42.895  25.927  25.648  1.00  0.00     0.200 A 
ATOM    132  F   UNL A   1      41.598  24.055  26.271  1.00  0.00    -0.200 F 
ATOM    133  F   UNL A   1      43.365  25.263  24.584  1.00  0.00    -0.200 F 
ENDBRANCH 103 123
BRANCH 106 134
ATOM    134  C   UNL A   1      38.977  32.392  35.959  1.00  0.00     0.064 A 
ATOM    135  C   UNL A   1      38.161  31.847  36.959  1.00  0.00     0.173 A 
ATOM    136  C   UNL A   1      39.422  33.712  36.126  1.00  0.00     0.173 A 
ATOM    137  F   UNL A   1      37.696  30.595  36.834  1.00  0.00    -0.203 F 
ATOM    138  C   UNL A   1      37.791  32.596  38.074  1.00  0.00     0.198 A 
ATOM    139  C   UNL A   1      39.074  34.451  37.254  1.00  0.00     0.198 A 
ATOM    140  F   UNL A   1      40.211  34.277  35.200  1.00  0.00    -0.203 F 
ATOM    141  F   UNL A   1      36.980  32.063  38.998  1.00  0.00    -0.200 F 
ATOM    142  C   UNL A   1      38.254  33.895  38.225  1.00  0.00     0.200 A 
ATOM    143  F   UNL A   1      39.535  35.700  37.403  1.00  0.00    -0.200 F 
ATOM    144  F   UNL A   1      37.907  34.611  39.302  1.00  0.00    -0.200 F 
ENDBRANCH 106 134
BRANCH 121 145
ATOM    145  C   UNL A   1      36.531  31.892  29.451  1.00  0.00     0.064 A 
ATOM    146  C   UNL A   1      36.514  33.262  29.156  1.00  0.00     0.173 A 
ATOM    147  C   UNL A   1      35.437  31.115  29.035  1.00  0.00     0.173 A 
ATOM    148  F   UNL A   1      37.528  34.049  29.546  1.00  0.00    -0.203 F 
ATOM    149  C   UNL A   1      35.435  33.838  28.490  1.00  0.00     0.198 A 
ATOM    150  C   UNL A   1      34.373  31.688  28.344  1.00  0.00     0.198 A 
ATOM    151  F   UNL A   1      35.408  29.798  29.288  1.00  0.00    -0.203 F 
ATOM    152  F   UNL A   1      35.420  35.158  28.258  1.00  0.00    -0.200 F 
ATOM    153  C   UNL A   1      34.370  33.049  28.079  1.00  0.00     0.200 A 
ATOM    154  F   UNL A   1      33.351  30.925  27.937  1.00  0.00    -0.200 F 
ATOM    155  F   UNL A   1      33.336  33.604  27.432  1.00  0.00    -0.200 F 
ENDBRANCH 121 145
ENDBRANCH  86  89
ENDBRANCH  76  79
ENDBRANCH  72  75
ENDBRANCH  69  72
ENDBRANCH  66  69
ENDBRANCH  63  66
ENDBRANCH  60  63
ENDBRANCH  57  60
ENDBRANCH   3  57
TORSDOF 25
ENDMDL
MODEL 5
REMARK VINA RESULT:      -9.6      7.637     14.336
REMARK SMILES CCCCCCNC(=O)Oc1cccc(-c2ccc([C@@H](C)C(=O)NCCCCCCNC(=O)c3ccc(-c4c5nc(c(-c6c(F)c(F)c(F)c(F)c6F)c6ccc([nH]6)c(-c6c(F)c(F)c(F)c(F)c6F)c6nc(c(-c7c(F)c(F)c(F)c(F)c7F)c7ccc4[nH]7)C=C6)C=C5)cc3)cc2[N+](=O)[O-])c1
REMARK SMILES IDX 22 1 23 2 24 3 20 5 19 7 16 8 17 9 98 10 18 11 97 13 15 16
REMARK SMILES IDX 11 17 12 18 102 19 13 20 14 23 10 26 8 27 7 28 9 30 6 31
REMARK SMILES IDX 5 34 4 37 3 40 2 43 1 46 99 50 100 51 101 52 21 53 25 57
REMARK SMILES IDX 26 60 27 63 28 66 29 69 30 72 31 75 32 76 33 78 34 79 35 80
REMARK SMILES IDX 96 81 36 82 95 84 37 86 38 89 39 90 89 91 40 92 94 93 88 94
REMARK SMILES IDX 90 95 41 96 93 97 87 99 86 101 42 103 74 106 54 107 73 108
REMARK SMILES IDX 55 109 58 110 72 111 91 112 56 113 57 115 71 117 92 118
REMARK SMILES IDX 59 121 43 123 44 124 52 125 45 126 46 127 50 128 53 129
REMARK SMILES IDX 47 130 48 131 51 132 49 133 75 134 76 135 84 136 77 137
REMARK SMILES IDX 78 138 82 139 85 140 79 141 80 142 83 143 81 144 60 145
REMARK SMILES IDX 61 146 69 147 62 148 63 149 67 150 70 151 64 152 65 153
REMARK SMILES IDX 68 154 66 155
REMARK H PARENT 24 4 20 6 17 12 18 14 97 15 12 21 102 22 13 24 14 25 7 29 6 32
REMARK H PARENT 6 33 5 35 5 36 4 38 4 39 3 41 3 42 2 44 2 45 1 47 1 48 1 49
REMARK H PARENT 21 54 21 55 21 56 25 58 25 59 26 61 26 62 27 64 27 65 28 67
REMARK H PARENT 28 68 29 70 29 71 30 73 30 74 31 77 35 83 96 85 36 87 95 88
REMARK H PARENT 94 98 88 100 90 102 93 104 87 105 55 114 58 116 91 119 56 120
REMARK H PARENT 92 122
REMARK Flexibility Score: inf
ROOT
ATOM      1  C   UNL A   1      49.956  26.184  31.583  1.00  0.00     0.227 C 
ATOM      2  O   UNL A   1      51.090  25.745  31.352  1.00  0.00    -0.274 OA
ATOM      3  N   UNL A   1      49.218  26.538  30.496  1.00  0.00    -0.356 N 
ATOM      4  H   UNL A   1      49.648  26.332  29.635  1.00  0.00     0.163 HD
ENDROOT
BRANCH   1   5
ATOM      5  C   UNL A   1      49.454  26.280  33.033  1.00  0.00     0.060 C 
ATOM      6  H   UNL A   1      48.620  26.948  32.994  1.00  0.00     0.045 H 
BRANCH   5   7
ATOM      7  C   UNL A   1      48.840  24.992  33.561  1.00  0.00    -0.029 A 
ATOM      8  C   UNL A   1      47.725  22.626  34.744  1.00  0.00     0.060 A 
ATOM      9  C   UNL A   1      46.936  23.553  34.039  1.00  0.00    -0.047 A 
ATOM     10  C   UNL A   1      49.112  22.872  34.767  1.00  0.00     0.277 A 
ATOM     11  C   UNL A   1      47.486  24.682  33.426  1.00  0.00    -0.057 A 
ATOM     12  H   UNL A   1      45.918  23.393  33.973  1.00  0.00     0.063 H 
ATOM     13  C   UNL A   1      49.651  24.058  34.226  1.00  0.00     0.021 A 
ATOM     14  H   UNL A   1      46.879  25.298  32.863  1.00  0.00     0.063 H 
ATOM     15  H   UNL A   1      50.661  24.243  34.320  1.00  0.00     0.070 H 
BRANCH   8  16
ATOM     16  C   UNL A   1      47.055  21.506  35.439  1.00  0.00    -0.008 A 
ATOM     17  C   UNL A   1      46.152  20.484  37.451  1.00  0.00     0.133 A 
ATOM     18  C   UNL A   1      45.746  19.360  36.738  1.00  0.00    -0.019 A 
ATOM     19  C   UNL A   1      46.786  21.555  36.817  1.00  0.00    -0.011 A 
ATOM     20  C   UNL A   1      45.976  19.306  35.368  1.00  0.00    -0.058 A 
ATOM     21  H   UNL A   1      45.281  18.575  37.221  1.00  0.00     0.066 H 
ATOM     22  H   UNL A   1      47.060  22.387  37.364  1.00  0.00     0.067 H 
ATOM     23  C   UNL A   1      46.634  20.362  34.730  1.00  0.00    -0.054 A 
ATOM     24  H   UNL A   1      45.661  18.488  34.823  1.00  0.00     0.062 H 
ATOM     25  H   UNL A   1      46.815  20.304  33.715  1.00  0.00     0.063 H 
BRANCH  17  26
ATOM     26  O   UNL A   1      46.043  20.418  38.850  1.00  0.00    -0.410 OA
BRANCH  26  27
ATOM     27  C   UNL A   1      47.164  20.644  39.634  1.00  0.00     0.412 C 
ATOM     28  N   UNL A   1      47.758  19.484  40.054  1.00  0.00    -0.321 N 
ATOM     29  H   UNL A   1      48.542  19.579  40.641  1.00  0.00     0.167 HD
ATOM     30  O   UNL A   1      47.611  21.738  39.950  1.00  0.00    -0.224 OA
BRANCH  28  31
ATOM     31  C   UNL A   1      47.351  18.133  39.725  1.00  0.00     0.021 C 
ATOM     32  H   UNL A   1      46.935  18.129  38.738  1.00  0.00     0.049 H 
ATOM     33  H   UNL A   1      48.215  17.504  39.783  1.00  0.00     0.049 H 
BRANCH  31  34
ATOM     34  C   UNL A   1      46.307  17.591  40.702  1.00  0.00    -0.036 C 
ATOM     35  H   UNL A   1      46.814  17.000  41.435  1.00  0.00     0.028 H 
ATOM     36  H   UNL A   1      45.812  18.445  41.115  1.00  0.00     0.028 H 
BRANCH  34  37
ATOM     37  C   UNL A   1      45.214  16.726  40.065  1.00  0.00    -0.052 C 
ATOM     38  H   UNL A   1      44.961  17.158  39.119  1.00  0.00     0.027 H 
ATOM     39  H   UNL A   1      45.624  15.740  39.992  1.00  0.00     0.027 H 
BRANCH  37  40
ATOM     40  C   UNL A   1      43.923  16.585  40.879  1.00  0.00    -0.054 C 
ATOM     41  H   UNL A   1      44.078  15.822  41.612  1.00  0.00     0.027 H 
ATOM     42  H   UNL A   1      43.732  17.552  41.297  1.00  0.00     0.027 H 
BRANCH  40  43
ATOM     43  C   UNL A   1      42.674  16.221  40.074  1.00  0.00    -0.056 C 
ATOM     44  H   UNL A   1      41.841  16.756  40.478  1.00  0.00     0.026 H 
ATOM     45  H   UNL A   1      42.866  16.483  39.055  1.00  0.00     0.026 H 
BRANCH  43  46
ATOM     46  C   UNL A   1      42.353  14.735  40.102  1.00  0.00    -0.065 C 
ATOM     47  H   UNL A   1      41.407  14.565  39.633  1.00  0.00     0.023 H 
ATOM     48  H   UNL A   1      42.314  14.398  41.117  1.00  0.00     0.023 H 
ATOM     49  H   UNL A   1      43.113  14.194  39.577  1.00  0.00     0.023 H 
ENDBRANCH  43  46
ENDBRANCH  40  43
ENDBRANCH  37  40
ENDBRANCH  34  37
ENDBRANCH  31  34
ENDBRANCH  28  31
ENDBRANCH  26  27
ENDBRANCH  17  26
ENDBRANCH   8  16
BRANCH  10  50
ATOM     50  N   UNL A   1      50.044  21.898  35.288  1.00  0.00     0.063 N 
ATOM     51  O   UNL A   1      50.422  21.957  36.440  1.00  0.00    -0.258 OA
ATOM     52  O   UNL A   1      50.638  20.969  34.467  1.00  0.00    -0.258 OA
ENDBRANCH  10  50
ENDBRANCH   5   7
BRANCH   5  53
ATOM     53  C   UNL A   1      50.419  26.989  33.982  1.00  0.00    -0.049 C 
ATOM     54  H   UNL A   1      49.880  27.703  34.571  1.00  0.00     0.024 H 
ATOM     55  H   UNL A   1      51.173  27.492  33.414  1.00  0.00     0.024 H 
ATOM     56  H   UNL A   1      50.879  26.270  34.628  1.00  0.00     0.024 H 
ENDBRANCH   5  53
ENDBRANCH   1   5
BRANCH   3  57
ATOM     57  C   UNL A   1      47.918  27.160  30.371  1.00  0.00     0.017 C 
ATOM     58  H   UNL A   1      47.992  27.987  29.696  1.00  0.00     0.049 H 
ATOM     59  H   UNL A   1      47.608  27.487  31.341  1.00  0.00     0.049 H 
BRANCH  57  60
ATOM     60  C   UNL A   1      46.870  26.179  29.840  1.00  0.00    -0.036 C 
ATOM     61  H   UNL A   1      45.903  26.621  29.961  1.00  0.00     0.028 H 
ATOM     62  H   UNL A   1      46.980  25.273  30.400  1.00  0.00     0.028 H 
BRANCH  60  63
ATOM     63  C   UNL A   1      47.053  25.815  28.363  1.00  0.00    -0.052 C 
ATOM     64  H   UNL A   1      48.103  25.789  28.157  1.00  0.00     0.027 H 
ATOM     65  H   UNL A   1      46.527  26.560  27.806  1.00  0.00     0.027 H 
BRANCH  63  66
ATOM     66  C   UNL A   1      46.453  24.465  27.946  1.00  0.00    -0.052 C 
ATOM     67  H   UNL A   1      45.388  24.547  28.003  1.00  0.00     0.027 H 
ATOM     68  H   UNL A   1      46.868  23.741  28.615  1.00  0.00     0.027 H 
BRANCH  66  69
ATOM     69  C   UNL A   1      46.815  23.990  26.535  1.00  0.00    -0.036 C 
ATOM     70  H   UNL A   1      46.477  22.980  26.427  1.00  0.00     0.028 H 
ATOM     71  H   UNL A   1      47.875  24.093  26.445  1.00  0.00     0.028 H 
BRANCH  69  72
ATOM     72  C   UNL A   1      46.205  24.817  25.406  1.00  0.00     0.018 C 
ATOM     73  H   UNL A   1      46.952  24.987  24.658  1.00  0.00     0.049 H 
ATOM     74  H   UNL A   1      45.859  25.741  25.821  1.00  0.00     0.049 H 
BRANCH  72  75
ATOM     75  N   UNL A   1      45.071  24.145  24.792  1.00  0.00    -0.352 N 
ATOM     76  C   UNL A   1      43.760  24.083  25.196  1.00  0.00     0.251 C 
ATOM     77  H   UNL A   1      45.274  23.659  23.961  1.00  0.00     0.163 HD
ATOM     78  O   UNL A   1      42.993  23.280  24.675  1.00  0.00    -0.269 OA
BRANCH  76  79
ATOM     79  C   UNL A   1      43.266  24.976  26.265  1.00  0.00     0.039 A 
ATOM     80  C   UNL A   1      42.418  24.452  27.244  1.00  0.00    -0.049 A 
ATOM     81  C   UNL A   1      43.600  26.333  26.281  1.00  0.00    -0.049 A 
ATOM     82  C   UNL A   1      41.948  25.276  28.270  1.00  0.00    -0.053 A 
ATOM     83  H   UNL A   1      42.139  23.459  27.210  1.00  0.00     0.063 H 
ATOM     84  C   UNL A   1      43.185  27.138  27.339  1.00  0.00    -0.053 A 
ATOM     85  H   UNL A   1      44.154  26.739  25.510  1.00  0.00     0.063 H 
ATOM     86  C   UNL A   1      42.351  26.619  28.341  1.00  0.00    -0.014 A 
ATOM     87  H   UNL A   1      41.302  24.895  28.979  1.00  0.00     0.063 H 
ATOM     88  H   UNL A   1      43.491  28.123  27.386  1.00  0.00     0.063 H 
BRANCH  86  89
ATOM     89  C   UNL A   1      41.913  27.495  29.456  1.00  0.00     0.031 A 
ATOM     90  C   UNL A   1      42.603  27.428  30.789  1.00  0.00     0.074 A 
ATOM     91  C   UNL A   1      40.844  28.297  29.289  1.00  0.00     0.049 A 
ATOM     92  N   UNL A   1      42.318  28.056  31.902  1.00  0.00    -0.248 NA
ATOM     93  C   UNL A   1      43.747  26.510  30.894  1.00  0.00    -0.034 C 
ATOM     94  C   UNL A   1      40.056  28.407  28.061  1.00  0.00    -0.036 A 
ATOM     95  N   UNL A   1      40.224  29.156  30.162  1.00  0.00    -0.354 N 
ATOM     96  C   UNL A   1      43.233  27.594  32.841  1.00  0.00     0.074 A 
ATOM     97  C   UNL A   1      44.051  26.602  32.180  1.00  0.00    -0.034 C 
ATOM     98  H   UNL A   1      44.197  25.943  30.158  1.00  0.00     0.065 H 
ATOM     99  C   UNL A   1      39.063  29.289  28.255  1.00  0.00    -0.036 A 
ATOM    100  H   UNL A   1      40.235  27.889  27.186  1.00  0.00     0.065 H 
ATOM    101  C   UNL A   1      39.125  29.782  29.628  1.00  0.00     0.049 A 
ATOM    102  H   UNL A   1      40.538  29.310  31.082  1.00  0.00     0.167 HD
ATOM    103  C   UNL A   1      43.385  27.979  34.131  1.00  0.00     0.037 A 
ATOM    104  H   UNL A   1      44.778  26.037  32.650  1.00  0.00     0.065 H 
ATOM    105  H   UNL A   1      38.368  29.574  27.547  1.00  0.00     0.065 H 
ATOM    106  C   UNL A   1      38.257  30.647  30.185  1.00  0.00     0.037 A 
ATOM    107  C   UNL A   1      42.588  28.991  34.774  1.00  0.00     0.049 A 
ATOM    108  C   UNL A   1      38.462  31.077  31.612  1.00  0.00     0.074 A 
ATOM    109  C   UNL A   1      42.720  29.513  36.048  1.00  0.00    -0.036 A 
ATOM    110  N   UNL A   1      41.505  29.632  34.190  1.00  0.00    -0.354 N 
ATOM    111  N   UNL A   1      39.381  30.696  32.466  1.00  0.00    -0.248 NA
ATOM    112  C   UNL A   1      37.516  32.063  32.150  1.00  0.00    -0.034 C 
ATOM    113  C   UNL A   1      41.688  30.436  36.252  1.00  0.00    -0.036 A 
ATOM    114  H   UNL A   1      43.453  29.265  36.731  1.00  0.00     0.065 H 
ATOM    115  C   UNL A   1      40.942  30.525  35.087  1.00  0.00     0.049 A 
ATOM    116  H   UNL A   1      41.183  29.475  33.272  1.00  0.00     0.167 HD
ATOM    117  C   UNL A   1      39.138  31.408  33.632  1.00  0.00     0.074 A 
ATOM    118  C   UNL A   1      37.994  32.258  33.371  1.00  0.00    -0.034 C 
ATOM    119  H   UNL A   1      36.694  32.493  31.696  1.00  0.00     0.065 H 
ATOM    120  H   UNL A   1      41.512  30.962  37.123  1.00  0.00     0.065 H 
ATOM    121  C   UNL A   1      39.802  31.362  34.813  1.00  0.00     0.037 A 
ATOM    122  H   UNL A   1      37.602  32.929  34.049  1.00  0.00     0.065 H 
BRANCH 103 123
ATOM    123  C   UNL A   1      44.455  27.299  34.936  1.00  0.00     0.064 A 
ATOM    124  C   UNL A   1      45.743  27.842  35.060  1.00  0.00     0.173 A 
ATOM    125  C   UNL A   1      44.179  26.103  35.616  1.00  0.00     0.173 A 
ATOM    126  F   UNL A   1      46.060  28.978  34.421  1.00  0.00    -0.203 F 
ATOM    127  C   UNL A   1      46.724  27.197  35.809  1.00  0.00     0.198 A 
ATOM    128  C   UNL A   1      45.154  25.477  36.389  1.00  0.00     0.198 A 
ATOM    129  F   UNL A   1      42.962  25.545  35.538  1.00  0.00    -0.203 F 
ATOM    130  F   UNL A   1      47.962  27.707  35.870  1.00  0.00    -0.200 F 
ATOM    131  C   UNL A   1      46.428  26.019  36.477  1.00  0.00     0.200 A 
ATOM    132  F   UNL A   1      44.862  24.345  37.045  1.00  0.00    -0.200 F 
ATOM    133  F   UNL A   1      47.371  25.401  37.200  1.00  0.00    -0.200 F 
ENDBRANCH 103 123
BRANCH 106 134
ATOM    134  C   UNL A   1      37.129  31.179  29.380  1.00  0.00     0.064 A 
ATOM    135  C   UNL A   1      36.018  30.380  29.078  1.00  0.00     0.173 A 
ATOM    136  C   UNL A   1      37.130  32.501  28.912  1.00  0.00     0.173 A 
ATOM    137  F   UNL A   1      35.982  29.104  29.488  1.00  0.00    -0.203 F 
ATOM    138  C   UNL A   1      34.957  30.877  28.325  1.00  0.00     0.198 A 
ATOM    139  C   UNL A   1      36.056  33.006  28.182  1.00  0.00     0.198 A 
ATOM    140  F   UNL A   1      38.167  33.308  29.180  1.00  0.00    -0.203 F 
ATOM    141  F   UNL A   1      33.924  30.082  28.020  1.00  0.00    -0.200 F 
ATOM    142  C   UNL A   1      34.974  32.193  27.883  1.00  0.00     0.200 A 
ATOM    143  F   UNL A   1      36.069  34.282  27.771  1.00  0.00    -0.200 F 
ATOM    144  F   UNL A   1      33.948  32.674  27.168  1.00  0.00    -0.200 F 
ENDBRANCH 106 134
BRANCH 121 145
ATOM    145  C   UNL A   1      39.321  32.269  35.907  1.00  0.00     0.064 A 
ATOM    146  C   UNL A   1      38.379  31.843  36.853  1.00  0.00     0.173 A 
ATOM    147  C   UNL A   1      39.840  33.567  36.033  1.00  0.00     0.173 A 
ATOM    148  F   UNL A   1      37.841  30.617  36.766  1.00  0.00    -0.203 F 
ATOM    149  C   UNL A   1      37.956  32.691  37.874  1.00  0.00     0.198 A 
ATOM    150  C   UNL A   1      39.437  34.402  37.071  1.00  0.00     0.198 A 
ATOM    151  F   UNL A   1      40.749  34.021  35.156  1.00  0.00    -0.203 F 
ATOM    152  F   UNL A   1      37.021  32.278  38.741  1.00  0.00    -0.200 F 
ATOM    153  C   UNL A   1      38.491  33.966  37.986  1.00  0.00     0.200 A 
ATOM    154  F   UNL A   1      39.963  35.629  37.186  1.00  0.00    -0.200 F 
ATOM    155  F   UNL A   1      38.088  34.777  38.973  1.00  0.00    -0.200 F 
ENDBRANCH 121 145
ENDBRANCH  86  89
ENDBRANCH  76  79
ENDBRANCH  72  75
ENDBRANCH  69  72
ENDBRANCH  66  69
ENDBRANCH  63  66
ENDBRANCH  60  63
ENDBRANCH  57  60
ENDBRANCH   3  57
TORSDOF 25
ENDMDL
MODEL 6
REMARK VINA RESULT:      -9.4      5.276      8.736
REMARK SMILES CCCCCCNC(=O)Oc1cccc(-c2ccc([C@@H](C)C(=O)NCCCCCCNC(=O)c3ccc(-c4c5nc(c(-c6c(F)c(F)c(F)c(F)c6F)c6ccc([nH]6)c(-c6c(F)c(F)c(F)c(F)c6F)c6nc(c(-c7c(F)c(F)c(F)c(F)c7F)c7ccc4[nH]7)C=C6)C=C5)cc3)cc2[N+](=O)[O-])c1
REMARK SMILES IDX 22 1 23 2 24 3 20 5 19 7 16 8 17 9 98 10 18 11 97 13 15 16
REMARK SMILES IDX 11 17 12 18 102 19 13 20 14 23 10 26 8 27 7 28 9 30 6 31
REMARK SMILES IDX 5 34 4 37 3 40 2 43 1 46 99 50 100 51 101 52 21 53 25 57
REMARK SMILES IDX 26 60 27 63 28 66 29 69 30 72 31 75 32 76 33 78 34 79 35 80
REMARK SMILES IDX 96 81 36 82 95 84 37 86 38 89 39 90 89 91 40 92 94 93 88 94
REMARK SMILES IDX 90 95 41 96 93 97 87 99 86 101 42 103 74 106 54 107 73 108
REMARK SMILES IDX 55 109 58 110 72 111 91 112 56 113 57 115 71 117 92 118
REMARK SMILES IDX 59 121 43 123 44 124 52 125 45 126 46 127 50 128 53 129
REMARK SMILES IDX 47 130 48 131 51 132 49 133 75 134 76 135 84 136 77 137
REMARK SMILES IDX 78 138 82 139 85 140 79 141 80 142 83 143 81 144 60 145
REMARK SMILES IDX 61 146 69 147 62 148 63 149 67 150 70 151 64 152 65 153
REMARK SMILES IDX 68 154 66 155
REMARK H PARENT 24 4 20 6 17 12 18 14 97 15 12 21 102 22 13 24 14 25 7 29 6 32
REMARK H PARENT 6 33 5 35 5 36 4 38 4 39 3 41 3 42 2 44 2 45 1 47 1 48 1 49
REMARK H PARENT 21 54 21 55 21 56 25 58 25 59 26 61 26 62 27 64 27 65 28 67
REMARK H PARENT 28 68 29 70 29 71 30 73 30 74 31 77 35 83 96 85 36 87 95 88
REMARK H PARENT 94 98 88 100 90 102 93 104 87 105 55 114 58 116 91 119 56 120
REMARK H PARENT 92 122
REMARK Flexibility Score: inf
ROOT
ATOM      1  C   UNL A   1      35.111  32.366  30.506  1.00  0.00     0.227 C 
ATOM      2  O   UNL A   1      34.305  33.239  30.852  1.00  0.00    -0.274 OA
ATOM      3  N   UNL A   1      35.435  31.443  31.450  1.00  0.00    -0.356 N 
ATOM      4  H   UNL A   1      34.929  31.532  32.290  1.00  0.00     0.163 HD
ENDROOT
BRANCH   1   5
ATOM      5  C   UNL A   1      35.662  32.361  29.071  1.00  0.00     0.060 C 
ATOM      6  H   UNL A   1      36.706  32.159  29.176  1.00  0.00     0.045 H 
BRANCH   5   7
ATOM      7  C   UNL A   1      35.168  31.198  28.223  1.00  0.00    -0.029 A 
ATOM      8  C   UNL A   1      34.216  29.134  26.470  1.00  0.00     0.060 A 
ATOM      9  C   UNL A   1      35.524  29.131  26.988  1.00  0.00    -0.047 A 
ATOM     10  C   UNL A   1      33.364  30.159  26.925  1.00  0.00     0.277 A 
ATOM     11  C   UNL A   1      35.973  30.112  27.876  1.00  0.00    -0.057 A 
ATOM     12  H   UNL A   1      36.172  28.379  26.703  1.00  0.00     0.063 H 
ATOM     13  C   UNL A   1      33.847  31.197  27.749  1.00  0.00     0.021 A 
ATOM     14  H   UNL A   1      36.918  30.032  28.283  1.00  0.00     0.063 H 
ATOM     15  H   UNL A   1      33.216  31.972  28.008  1.00  0.00     0.070 H 
BRANCH   8  16
ATOM     16  C   UNL A   1      33.847  28.111  25.468  1.00  0.00    -0.008 A 
ATOM     17  C   UNL A   1      32.906  25.948  24.882  1.00  0.00     0.133 A 
ATOM     18  C   UNL A   1      33.124  26.183  23.527  1.00  0.00    -0.019 A 
ATOM     19  C   UNL A   1      33.245  26.899  25.846  1.00  0.00    -0.011 A 
ATOM     20  C   UNL A   1      33.690  27.389  23.131  1.00  0.00    -0.058 A 
ATOM     21  H   UNL A   1      32.870  25.469  22.826  1.00  0.00     0.066 H 
ATOM     22  H   UNL A   1      33.055  26.710  26.843  1.00  0.00     0.067 H 
ATOM     23  C   UNL A   1      34.057  28.336  24.092  1.00  0.00    -0.054 A 
ATOM     24  H   UNL A   1      33.838  27.586  22.128  1.00  0.00     0.062 H 
ATOM     25  H   UNL A   1      34.493  29.221  23.787  1.00  0.00     0.063 H 
BRANCH  17  26
ATOM     26  O   UNL A   1      32.484  24.656  25.239  1.00  0.00    -0.410 OA
BRANCH  26  27
ATOM     27  C   UNL A   1      31.454  24.503  26.153  1.00  0.00     0.412 C 
ATOM     28  N   UNL A   1      30.224  24.769  25.614  1.00  0.00    -0.321 N 
ATOM     29  H   UNL A   1      29.453  24.708  26.223  1.00  0.00     0.167 HD
ATOM     30  O   UNL A   1      31.576  24.174  27.326  1.00  0.00    -0.224 OA
BRANCH  28  31
ATOM     31  C   UNL A   1      29.941  25.131  24.239  1.00  0.00     0.021 C 
ATOM     32  H   UNL A   1      30.863  25.184  23.699  1.00  0.00     0.049 H 
ATOM     33  H   UNL A   1      29.293  24.385  23.828  1.00  0.00     0.049 H 
BRANCH  31  34
ATOM     34  C   UNL A   1      29.230  26.481  24.134  1.00  0.00    -0.036 C 
ATOM     35  H   UNL A   1      28.207  26.298  23.878  1.00  0.00     0.028 H 
ATOM     36  H   UNL A   1      29.350  26.957  25.084  1.00  0.00     0.028 H 
BRANCH  34  37
ATOM     37  C   UNL A   1      29.818  27.441  23.093  1.00  0.00    -0.052 C 
ATOM     38  H   UNL A   1      30.723  27.009  22.721  1.00  0.00     0.027 H 
ATOM     39  H   UNL A   1      29.061  27.566  22.347  1.00  0.00     0.027 H 
BRANCH  37  40
ATOM     40  C   UNL A   1      30.142  28.850  23.603  1.00  0.00    -0.054 C 
ATOM     41  H   UNL A   1      29.724  28.951  24.581  1.00  0.00     0.027 H 
ATOM     42  H   UNL A   1      31.209  28.933  23.580  1.00  0.00     0.027 H 
BRANCH  40  43
ATOM     43  C   UNL A   1      29.612  29.998  22.740  1.00  0.00    -0.056 C 
ATOM     44  H   UNL A   1      30.438  30.452  22.234  1.00  0.00     0.026 H 
ATOM     45  H   UNL A   1      28.901  29.580  22.059  1.00  0.00     0.026 H 
BRANCH  43  46
ATOM     46  C   UNL A   1      28.890  31.068  23.543  1.00  0.00    -0.065 C 
ATOM     47  H   UNL A   1      28.750  31.937  22.935  1.00  0.00     0.023 H 
ATOM     48  H   UNL A   1      29.475  31.326  24.402  1.00  0.00     0.023 H 
ATOM     49  H   UNL A   1      27.938  30.697  23.860  1.00  0.00     0.023 H 
ENDBRANCH  43  46
ENDBRANCH  40  43
ENDBRANCH  37  40
ENDBRANCH  34  37
ENDBRANCH  31  34
ENDBRANCH  28  31
ENDBRANCH  26  27
ENDBRANCH  17  26
ENDBRANCH   8  16
BRANCH  10  50
ATOM     50  N   UNL A   1      31.950  30.158  26.620  1.00  0.00     0.063 N 
ATOM     51  O   UNL A   1      31.465  31.034  25.936  1.00  0.00    -0.258 OA
ATOM     52  O   UNL A   1      31.095  29.255  27.206  1.00  0.00    -0.258 OA
ENDBRANCH  10  50
ENDBRANCH   5   7
BRANCH   5  53
ATOM     53  C   UNL A   1      35.644  33.729  28.390  1.00  0.00    -0.049 C 
ATOM     54  H   UNL A   1      36.204  33.681  27.479  1.00  0.00     0.024 H 
ATOM     55  H   UNL A   1      36.082  34.457  29.041  1.00  0.00     0.024 H 
ATOM     56  H   UNL A   1      34.634  34.007  28.172  1.00  0.00     0.024 H 
ENDBRANCH   5  53
ENDBRANCH   1   5
BRANCH   3  57
ATOM     57  C   UNL A   1      36.387  30.353  31.450  1.00  0.00     0.017 C 
ATOM     58  H   UNL A   1      36.090  29.633  30.715  1.00  0.00     0.049 H 
ATOM     59  H   UNL A   1      36.398  29.918  32.427  1.00  0.00     0.049 H 
BRANCH  57  60
ATOM     60  C   UNL A   1      37.802  30.838  31.126  1.00  0.00    -0.036 C 
ATOM     61  H   UNL A   1      38.224  31.262  32.014  1.00  0.00     0.028 H 
ATOM     62  H   UNL A   1      37.713  31.551  30.333  1.00  0.00     0.028 H 
BRANCH  60  63
ATOM     63  C   UNL A   1      38.738  29.732  30.628  1.00  0.00    -0.052 C 
ATOM     64  H   UNL A   1      38.134  28.918  30.284  1.00  0.00     0.027 H 
ATOM     65  H   UNL A   1      39.365  29.477  31.456  1.00  0.00     0.027 H 
BRANCH  63  66
ATOM     66  C   UNL A   1      39.679  30.141  29.487  1.00  0.00    -0.052 C 
ATOM     67  H   UNL A   1      40.654  29.760  29.713  1.00  0.00     0.027 H 
ATOM     68  H   UNL A   1      39.632  31.208  29.438  1.00  0.00     0.027 H 
BRANCH  66  69
ATOM     69  C   UNL A   1      39.288  29.637  28.094  1.00  0.00    -0.036 C 
ATOM     70  H   UNL A   1      39.409  30.444  27.402  1.00  0.00     0.028 H 
ATOM     71  H   UNL A   1      38.278  29.294  28.171  1.00  0.00     0.028 H 
BRANCH  69  72
ATOM     72  C   UNL A   1      40.106  28.451  27.590  1.00  0.00     0.018 C 
ATOM     73  H   UNL A   1      41.072  28.475  28.050  1.00  0.00     0.049 H 
ATOM     74  H   UNL A   1      40.185  28.531  26.525  1.00  0.00     0.049 H 
BRANCH  72  75
ATOM     75  N   UNL A   1      39.469  27.181  27.900  1.00  0.00    -0.352 N 
ATOM     76  C   UNL A   1      40.023  25.995  28.314  1.00  0.00     0.251 C 
ATOM     77  H   UNL A   1      38.490  27.169  27.797  1.00  0.00     0.163 HD
ATOM     78  O   UNL A   1      39.353  24.967  28.307  1.00  0.00    -0.269 OA
BRANCH  76  79
ATOM     79  C   UNL A   1      41.430  25.947  28.764  1.00  0.00     0.039 A 
ATOM     80  C   UNL A   1      41.951  27.033  29.473  1.00  0.00    -0.049 A 
ATOM     81  C   UNL A   1      42.248  24.857  28.453  1.00  0.00    -0.049 A 
ATOM     82  C   UNL A   1      43.275  27.003  29.918  1.00  0.00    -0.053 A 
ATOM     83  H   UNL A   1      41.358  27.855  29.669  1.00  0.00     0.063 H 
ATOM     84  C   UNL A   1      43.548  24.799  28.951  1.00  0.00    -0.053 A 
ATOM     85  H   UNL A   1      41.891  24.096  27.854  1.00  0.00     0.063 H 
ATOM     86  C   UNL A   1      44.075  25.874  29.684  1.00  0.00    -0.014 A 
ATOM     87  H   UNL A   1      43.666  27.815  30.420  1.00  0.00     0.063 H 
ATOM     88  H   UNL A   1      44.127  23.962  28.779  1.00  0.00     0.063 H 
BRANCH  86  89
ATOM     89  C   UNL A   1      45.465  25.797  30.200  1.00  0.00     0.031 A 
ATOM     90  C   UNL A   1      45.724  25.380  31.621  1.00  0.00     0.074 A 
ATOM     91  C   UNL A   1      46.488  26.174  29.411  1.00  0.00     0.049 A 
ATOM     92  N   UNL A   1      46.857  25.324  32.274  1.00  0.00    -0.248 NA
ATOM     93  C   UNL A   1      44.549  25.004  32.422  1.00  0.00    -0.034 C 
ATOM     94  C   UNL A   1      46.358  26.652  28.034  1.00  0.00    -0.036 A 
ATOM     95  N   UNL A   1      47.836  26.235  29.659  1.00  0.00    -0.354 N 
ATOM     96  C   UNL A   1      46.529  24.929  33.565  1.00  0.00     0.074 A 
ATOM     97  C   UNL A   1      45.090  24.802  33.615  1.00  0.00    -0.034 C 
ATOM     98  H   UNL A   1      43.563  24.920  32.132  1.00  0.00     0.065 H 
ATOM     99  C   UNL A   1      47.577  26.949  27.556  1.00  0.00    -0.036 A 
ATOM    100  H   UNL A   1      45.471  26.746  27.513  1.00  0.00     0.065 H 
ATOM    101  C   UNL A   1      48.569  26.713  28.601  1.00  0.00     0.049 A 
ATOM    102  H   UNL A   1      48.240  25.961  30.514  1.00  0.00     0.167 HD
ATOM    103  C   UNL A   1      47.359  24.678  34.606  1.00  0.00     0.037 A 
ATOM    104  H   UNL A   1      44.552  24.584  34.470  1.00  0.00     0.065 H 
ATOM    105  H   UNL A   1      47.780  27.289  26.603  1.00  0.00     0.065 H 
ATOM    106  C   UNL A   1      49.890  26.946  28.489  1.00  0.00     0.037 A 
ATOM    107  C   UNL A   1      48.794  24.774  34.541  1.00  0.00     0.049 A 
ATOM    108  C   UNL A   1      50.791  26.636  29.651  1.00  0.00     0.074 A 
ATOM    109  C   UNL A   1      49.725  24.457  35.514  1.00  0.00    -0.036 A 
ATOM    110  N   UNL A   1      49.505  25.227  33.439  1.00  0.00    -0.354 N 
ATOM    111  N   UNL A   1      50.481  26.184  30.842  1.00  0.00    -0.248 NA
ATOM    112  C   UNL A   1      52.230  26.860  29.453  1.00  0.00    -0.034 C 
ATOM    113  C   UNL A   1      50.997  24.762  35.018  1.00  0.00    -0.036 A 
ATOM    114  H   UNL A   1      49.518  24.064  36.445  1.00  0.00     0.065 H 
ATOM    115  C   UNL A   1      50.862  25.223  33.717  1.00  0.00     0.049 A 
ATOM    116  H   UNL A   1      49.104  25.509  32.585  1.00  0.00     0.167 HD
ATOM    117  C   UNL A   1      51.680  26.049  31.526  1.00  0.00     0.074 A 
ATOM    118  C   UNL A   1      52.729  26.452  30.611  1.00  0.00    -0.034 C 
ATOM    119  H   UNL A   1      52.724  27.236  28.627  1.00  0.00     0.065 H 
ATOM    120  H   UNL A   1      51.886  24.661  35.533  1.00  0.00     0.065 H 
ATOM    121  C   UNL A   1      51.894  25.630  32.798  1.00  0.00     0.037 A 
ATOM    122  H   UNL A   1      53.736  26.425  30.834  1.00  0.00     0.065 H 
BRANCH 103 123
ATOM    123  C   UNL A   1      46.732  24.275  35.911  1.00  0.00     0.064 A 
ATOM    124  C   UNL A   1      46.317  25.225  36.855  1.00  0.00     0.173 A 
ATOM    125  C   UNL A   1      46.516  22.920  36.205  1.00  0.00     0.173 A 
ATOM    126  F   UNL A   1      46.509  26.534  36.626  1.00  0.00    -0.203 F 
ATOM    127  C   UNL A   1      45.739  24.834  38.060  1.00  0.00     0.198 A 
ATOM    128  C   UNL A   1      45.910  22.534  37.398  1.00  0.00     0.198 A 
ATOM    129  F   UNL A   1      46.886  21.970  35.334  1.00  0.00    -0.203 F 
ATOM    130  F   UNL A   1      45.399  25.758  38.970  1.00  0.00    -0.200 F 
ATOM    131  C   UNL A   1      45.531  23.490  38.329  1.00  0.00     0.200 A 
ATOM    132  F   UNL A   1      45.697  21.235  37.650  1.00  0.00    -0.200 F 
ATOM    133  F   UNL A   1      44.971  23.115  39.486  1.00  0.00    -0.200 F 
ENDBRANCH 103 123
BRANCH 106 134
ATOM    134  C   UNL A   1      50.436  27.483  27.217  1.00  0.00     0.064 A 
ATOM    135  C   UNL A   1      50.761  26.629  26.154  1.00  0.00     0.173 A 
ATOM    136  C   UNL A   1      50.627  28.860  27.031  1.00  0.00     0.173 A 
ATOM    137  F   UNL A   1      50.614  25.303  26.292  1.00  0.00    -0.203 F 
ATOM    138  C   UNL A   1      51.272  27.130  24.958  1.00  0.00     0.198 A 
ATOM    139  C   UNL A   1      51.112  29.363  25.826  1.00  0.00     0.198 A 
ATOM    140  F   UNL A   1      50.325  29.719  28.016  1.00  0.00    -0.203 F 
ATOM    141  F   UNL A   1      51.609  26.290  23.971  1.00  0.00    -0.200 F 
ATOM    142  C   UNL A   1      51.440  28.498  24.793  1.00  0.00     0.200 A 
ATOM    143  F   UNL A   1      51.258  30.685  25.664  1.00  0.00    -0.200 F 
ATOM    144  F   UNL A   1      51.920  28.981  23.639  1.00  0.00    -0.200 F 
ENDBRANCH 106 134
BRANCH 121 145
ATOM    145  C   UNL A   1      53.317  25.567  33.269  1.00  0.00     0.064 A 
ATOM    146  C   UNL A   1      53.919  26.646  33.932  1.00  0.00     0.173 A 
ATOM    147  C   UNL A   1      54.073  24.398  33.092  1.00  0.00     0.173 A 
ATOM    148  F   UNL A   1      53.243  27.791  34.111  1.00  0.00    -0.203 F 
ATOM    149  C   UNL A   1      55.234  26.566  34.381  1.00  0.00     0.198 A 
ATOM    150  C   UNL A   1      55.378  24.311  33.567  1.00  0.00     0.198 A 
ATOM    151  F   UNL A   1      53.540  23.336  32.469  1.00  0.00    -0.203 F 
ATOM    152  F   UNL A   1      55.805  27.625  34.972  1.00  0.00    -0.200 F 
ATOM    153  C   UNL A   1      55.960  25.396  34.205  1.00  0.00     0.200 A 
ATOM    154  F   UNL A   1      56.074  23.177  33.408  1.00  0.00    -0.200 F 
ATOM    155  F   UNL A   1      57.223  25.319  34.644  1.00  0.00    -0.200 F 
ENDBRANCH 121 145
ENDBRANCH  86  89
ENDBRANCH  76  79
ENDBRANCH  72  75
ENDBRANCH  69  72
ENDBRANCH  66  69
ENDBRANCH  63  66
ENDBRANCH  60  63
ENDBRANCH  57  60
ENDBRANCH   3  57
TORSDOF 25
ENDMDL
MODEL 7
REMARK VINA RESULT:      -9.4      1.166      7.092
REMARK SMILES CCCCCCNC(=O)Oc1cccc(-c2ccc([C@@H](C)C(=O)NCCCCCCNC(=O)c3ccc(-c4c5nc(c(-c6c(F)c(F)c(F)c(F)c6F)c6ccc([nH]6)c(-c6c(F)c(F)c(F)c(F)c6F)c6nc(c(-c7c(F)c(F)c(F)c(F)c7F)c7ccc4[nH]7)C=C6)C=C5)cc3)cc2[N+](=O)[O-])c1
REMARK SMILES IDX 22 1 23 2 24 3 20 5 19 7 16 8 17 9 98 10 18 11 97 13 15 16
REMARK SMILES IDX 11 17 12 18 102 19 13 20 14 23 10 26 8 27 7 28 9 30 6 31
REMARK SMILES IDX 5 34 4 37 3 40 2 43 1 46 99 50 100 51 101 52 21 53 25 57
REMARK SMILES IDX 26 60 27 63 28 66 29 69 30 72 31 75 32 76 33 78 34 79 35 80
REMARK SMILES IDX 96 81 36 82 95 84 37 86 38 89 39 90 89 91 40 92 94 93 88 94
REMARK SMILES IDX 90 95 41 96 93 97 87 99 86 101 42 103 74 106 54 107 73 108
REMARK SMILES IDX 55 109 58 110 72 111 91 112 56 113 57 115 71 117 92 118
REMARK SMILES IDX 59 121 43 123 44 124 52 125 45 126 46 127 50 128 53 129
REMARK SMILES IDX 47 130 48 131 51 132 49 133 75 134 76 135 84 136 77 137
REMARK SMILES IDX 78 138 82 139 85 140 79 141 80 142 83 143 81 144 60 145
REMARK SMILES IDX 61 146 69 147 62 148 63 149 67 150 70 151 64 152 65 153
REMARK SMILES IDX 68 154 66 155
REMARK H PARENT 24 4 20 6 17 12 18 14 97 15 12 21 102 22 13 24 14 25 7 29 6 32
REMARK H PARENT 6 33 5 35 5 36 4 38 4 39 3 41 3 42 2 44 2 45 1 47 1 48 1 49
REMARK H PARENT 21 54 21 55 21 56 25 58 25 59 26 61 26 62 27 64 27 65 28 67
REMARK H PARENT 28 68 29 70 29 71 30 73 30 74 31 77 35 83 96 85 36 87 95 88
REMARK H PARENT 94 98 88 100 90 102 93 104 87 105 55 114 58 116 91 119 56 120
REMARK H PARENT 92 122
REMARK Flexibility Score: inf
ROOT
ATOM      1  C   UNL A   1      39.818  30.999  31.472  1.00  0.00     0.227 C 
ATOM      2  O   UNL A   1      40.035  31.576  32.546  1.00  0.00    -0.274 OA
ATOM      3  N   UNL A   1      39.813  29.640  31.513  1.00  0.00    -0.356 N 
ATOM      4  H   UNL A   1      39.911  29.265  32.418  1.00  0.00     0.163 HD
ENDROOT
BRANCH   1   5
ATOM      5  C   UNL A   1      39.552  31.824  30.202  1.00  0.00     0.060 C 
ATOM      6  H   UNL A   1      40.121  31.342  29.435  1.00  0.00     0.045 H 
BRANCH   5   7
ATOM      7  C   UNL A   1      38.123  31.723  29.688  1.00  0.00    -0.029 A 
ATOM      8  C   UNL A   1      35.445  31.726  28.657  1.00  0.00     0.060 A 
ATOM      9  C   UNL A   1      36.456  30.915  28.110  1.00  0.00    -0.047 A 
ATOM     10  C   UNL A   1      35.791  32.476  29.797  1.00  0.00     0.277 A 
ATOM     11  C   UNL A   1      37.749  30.881  28.640  1.00  0.00    -0.057 A 
ATOM     12  H   UNL A   1      36.235  30.326  27.291  1.00  0.00     0.063 H 
ATOM     13  C   UNL A   1      37.118  32.509  30.273  1.00  0.00     0.021 A 
ATOM     14  H   UNL A   1      38.440  30.221  28.248  1.00  0.00     0.063 H 
ATOM     15  H   UNL A   1      37.356  33.123  31.067  1.00  0.00     0.070 H 
BRANCH   8  16
ATOM     16  C   UNL A   1      34.129  31.771  27.984  1.00  0.00    -0.008 A 
ATOM     17  C   UNL A   1      32.260  30.668  26.887  1.00  0.00     0.133 A 
ATOM     18  C   UNL A   1      31.598  31.882  26.724  1.00  0.00    -0.019 A 
ATOM     19  C   UNL A   1      33.503  30.600  27.520  1.00  0.00    -0.011 A 
ATOM     20  C   UNL A   1      32.186  33.045  27.203  1.00  0.00    -0.058 A 
ATOM     21  H   UNL A   1      30.680  31.916  26.252  1.00  0.00     0.066 H 
ATOM     22  H   UNL A   1      33.966  29.687  27.648  1.00  0.00     0.067 H 
ATOM     23  C   UNL A   1      33.443  32.990  27.815  1.00  0.00    -0.054 A 
ATOM     24  H   UNL A   1      31.697  33.949  27.108  1.00  0.00     0.062 H 
ATOM     25  H   UNL A   1      33.879  33.864  28.151  1.00  0.00     0.063 H 
BRANCH  17  26
ATOM     26  O   UNL A   1      31.700  29.551  26.245  1.00  0.00    -0.410 OA
BRANCH  26  27
ATOM     27  C   UNL A   1      31.717  28.319  26.880  1.00  0.00     0.412 C 
ATOM     28  N   UNL A   1      32.487  27.397  26.224  1.00  0.00    -0.321 N 
ATOM     29  H   UNL A   1      32.515  26.492  26.609  1.00  0.00     0.167 HD
ATOM     30  O   UNL A   1      31.122  28.033  27.910  1.00  0.00    -0.224 OA
BRANCH  28  31
ATOM     31  C   UNL A   1      33.266  27.616  25.021  1.00  0.00     0.021 C 
ATOM     32  H   UNL A   1      32.728  28.283  24.379  1.00  0.00     0.049 H 
ATOM     33  H   UNL A   1      34.209  28.032  25.310  1.00  0.00     0.049 H 
BRANCH  31  34
ATOM     34  C   UNL A   1      33.538  26.315  24.265  1.00  0.00    -0.036 C 
ATOM     35  H   UNL A   1      34.128  26.548  23.404  1.00  0.00     0.028 H 
ATOM     36  H   UNL A   1      34.033  25.665  24.957  1.00  0.00     0.028 H 
BRANCH  34  37
ATOM     37  C   UNL A   1      32.284  25.567  23.796  1.00  0.00    -0.052 C 
ATOM     38  H   UNL A   1      32.600  24.678  23.291  1.00  0.00     0.027 H 
ATOM     39  H   UNL A   1      31.707  25.379  24.678  1.00  0.00     0.027 H 
BRANCH  37  40
ATOM     40  C   UNL A   1      31.365  26.346  22.850  1.00  0.00    -0.054 C 
ATOM     41  H   UNL A   1      31.905  27.196  22.490  1.00  0.00     0.027 H 
ATOM     42  H   UNL A   1      31.083  25.658  22.080  1.00  0.00     0.027 H 
BRANCH  40  43
ATOM     43  C   UNL A   1      30.056  26.845  23.468  1.00  0.00    -0.056 C 
ATOM     44  H   UNL A   1      29.240  26.376  22.960  1.00  0.00     0.026 H 
ATOM     45  H   UNL A   1      30.082  26.595  24.508  1.00  0.00     0.026 H 
BRANCH  43  46
ATOM     46  C   UNL A   1      29.883  28.352  23.372  1.00  0.00    -0.065 C 
ATOM     47  H   UNL A   1      29.492  28.726  24.295  1.00  0.00     0.023 H 
ATOM     48  H   UNL A   1      29.204  28.583  22.578  1.00  0.00     0.023 H 
ATOM     49  H   UNL A   1      30.830  28.810  23.175  1.00  0.00     0.023 H 
ENDBRANCH  43  46
ENDBRANCH  40  43
ENDBRANCH  37  40
ENDBRANCH  34  37
ENDBRANCH  31  34
ENDBRANCH  28  31
ENDBRANCH  26  27
ENDBRANCH  17  26
ENDBRANCH   8  16
BRANCH  10  50
ATOM     50  N   UNL A   1      34.795  33.193  30.562  1.00  0.00     0.063 N 
ATOM     51  O   UNL A   1      34.101  32.613  31.372  1.00  0.00    -0.258 OA
ATOM     52  O   UNL A   1      34.505  34.510  30.297  1.00  0.00    -0.258 OA
ENDBRANCH  10  50
ENDBRANCH   5   7
BRANCH   5  53
ATOM     53  C   UNL A   1      40.144  33.232  30.236  1.00  0.00    -0.049 C 
ATOM     54  H   UNL A   1      41.199  33.179  30.063  1.00  0.00     0.024 H 
ATOM     55  H   UNL A   1      39.961  33.673  31.194  1.00  0.00     0.024 H 
ATOM     56  H   UNL A   1      39.687  33.830  29.475  1.00  0.00     0.024 H 
ENDBRANCH   5  53
ENDBRANCH   1   5
BRANCH   3  57
ATOM     57  C   UNL A   1      39.691  28.641  30.473  1.00  0.00     0.017 C 
ATOM     58  H   UNL A   1      38.805  28.838  29.905  1.00  0.00     0.049 H 
ATOM     59  H   UNL A   1      39.640  27.679  30.937  1.00  0.00     0.049 H 
BRANCH  57  60
ATOM     60  C   UNL A   1      40.898  28.655  29.531  1.00  0.00    -0.036 C 
ATOM     61  H   UNL A   1      41.410  27.720  29.627  1.00  0.00     0.028 H 
ATOM     62  H   UNL A   1      41.506  29.488  29.818  1.00  0.00     0.028 H 
BRANCH  60  63
ATOM     63  C   UNL A   1      40.532  28.856  28.058  1.00  0.00    -0.052 C 
ATOM     64  H   UNL A   1      41.168  29.619  27.660  1.00  0.00     0.027 H 
ATOM     65  H   UNL A   1      39.494  29.115  28.041  1.00  0.00     0.027 H 
BRANCH  63  66
ATOM     66  C   UNL A   1      40.676  27.610  27.175  1.00  0.00    -0.052 C 
ATOM     67  H   UNL A   1      41.715  27.362  27.122  1.00  0.00     0.027 H 
ATOM     68  H   UNL A   1      40.244  27.868  26.231  1.00  0.00     0.027 H 
BRANCH  66  69
ATOM     69  C   UNL A   1      39.919  26.367  27.657  1.00  0.00    -0.036 C 
ATOM     70  H   UNL A   1      38.882  26.618  27.732  1.00  0.00     0.028 H 
ATOM     71  H   UNL A   1      40.357  26.094  28.594  1.00  0.00     0.028 H 
BRANCH  69  72
ATOM     72  C   UNL A   1      40.049  25.147  26.749  1.00  0.00     0.018 C 
ATOM     73  H   UNL A   1      40.635  25.411  25.894  1.00  0.00     0.049 H 
ATOM     74  H   UNL A   1      39.064  24.841  26.462  1.00  0.00     0.049 H 
BRANCH  72  75
ATOM     75  N   UNL A   1      40.687  24.030  27.430  1.00  0.00    -0.352 N 
ATOM     76  C   UNL A   1      42.008  23.830  27.745  1.00  0.00     0.251 C 
ATOM     77  H   UNL A   1      40.079  23.308  27.706  1.00  0.00     0.163 HD
ATOM     78  O   UNL A   1      42.391  22.725  28.115  1.00  0.00    -0.269 OA
BRANCH  76  79
ATOM     79  C   UNL A   1      42.978  24.939  27.632  1.00  0.00     0.039 A 
ATOM     80  C   UNL A   1      43.439  25.555  28.800  1.00  0.00    -0.049 A 
ATOM     81  C   UNL A   1      43.401  25.402  26.383  1.00  0.00    -0.049 A 
ATOM     82  C   UNL A   1      44.365  26.597  28.717  1.00  0.00    -0.053 A 
ATOM     83  H   UNL A   1      43.096  25.239  29.721  1.00  0.00     0.063 H 
ATOM     84  C   UNL A   1      44.372  26.397  26.303  1.00  0.00    -0.053 A 
ATOM     85  H   UNL A   1      42.995  25.007  25.520  1.00  0.00     0.063 H 
ATOM     86  C   UNL A   1      44.859  27.008  27.470  1.00  0.00    -0.014 A 
ATOM     87  H   UNL A   1      44.686  27.068  29.577  1.00  0.00     0.063 H 
ATOM     88  H   UNL A   1      44.735  26.688  25.382  1.00  0.00     0.063 H 
BRANCH  86  89
ATOM     89  C   UNL A   1      45.889  28.072  27.364  1.00  0.00     0.031 A 
ATOM     90  C   UNL A   1      45.506  29.517  27.523  1.00  0.00     0.074 A 
ATOM     91  C   UNL A   1      47.156  27.741  27.049  1.00  0.00     0.049 A 
ATOM     92  N   UNL A   1      46.246  30.589  27.391  1.00  0.00    -0.248 NA
ATOM     93  C   UNL A   1      44.098  29.794  27.844  1.00  0.00    -0.034 C 
ATOM     94  C   UNL A   1      47.637  26.379  26.814  1.00  0.00    -0.036 A 
ATOM     95  N   UNL A   1      48.264  28.525  26.854  1.00  0.00    -0.354 N 
ATOM     96  C   UNL A   1      45.389  31.664  27.591  1.00  0.00     0.074 A 
ATOM     97  C   UNL A   1      44.068  31.118  27.809  1.00  0.00    -0.034 C 
ATOM     98  H   UNL A   1      43.333  29.130  28.044  1.00  0.00     0.065 H 
ATOM     99  C   UNL A   1      48.945  26.422  26.514  1.00  0.00    -0.036 A 
ATOM    100  H   UNL A   1      47.063  25.523  26.869  1.00  0.00     0.065 H 
ATOM    101  C   UNL A   1      49.386  27.814  26.506  1.00  0.00     0.049 A 
ATOM    102  H   UNL A   1      48.257  29.504  26.955  1.00  0.00     0.167 HD
ATOM    103  C   UNL A   1      45.685  32.986  27.609  1.00  0.00     0.037 A 
ATOM    104  H   UNL A   1      43.212  31.685  27.922  1.00  0.00     0.065 H 
ATOM    105  H   UNL A   1      49.543  25.603  26.322  1.00  0.00     0.065 H 
ATOM    106  C   UNL A   1      50.628  28.236  26.201  1.00  0.00     0.037 A 
ATOM    107  C   UNL A   1      47.008  33.523  27.425  1.00  0.00     0.049 A 
ATOM    108  C   UNL A   1      50.936  29.707  26.252  1.00  0.00     0.074 A 
ATOM    109  C   UNL A   1      47.425  34.839  27.511  1.00  0.00    -0.036 A 
ATOM    110  N   UNL A   1      48.129  32.769  27.109  1.00  0.00    -0.354 N 
ATOM    111  N   UNL A   1      50.138  30.710  26.525  1.00  0.00    -0.248 NA
ATOM    112  C   UNL A   1      52.321  30.105  25.963  1.00  0.00    -0.034 C 
ATOM    113  C   UNL A   1      48.789  34.887  27.203  1.00  0.00    -0.036 A 
ATOM    114  H   UNL A   1      46.833  35.647  27.760  1.00  0.00     0.065 H 
ATOM    115  C   UNL A   1      49.232  33.594  26.972  1.00  0.00     0.049 A 
ATOM    116  H   UNL A   1      48.138  31.790  27.000  1.00  0.00     0.167 HD
ATOM    117  C   UNL A   1      50.923  31.852  26.460  1.00  0.00     0.074 A 
ATOM    118  C   UNL A   1      52.267  31.417  26.140  1.00  0.00    -0.034 C 
ATOM    119  H   UNL A   1      53.125  29.516  25.694  1.00  0.00     0.065 H 
ATOM    120  H   UNL A   1      49.368  35.741  27.155  1.00  0.00     0.065 H 
ATOM    121  C   UNL A   1      50.563  33.146  26.650  1.00  0.00     0.037 A 
ATOM    122  H   UNL A   1      53.079  32.049  26.059  1.00  0.00     0.065 H 
BRANCH 103 123
ATOM    123  C   UNL A   1      44.553  33.947  27.836  1.00  0.00     0.064 A 
ATOM    124  C   UNL A   1      44.134  34.304  29.127  1.00  0.00     0.173 A 
ATOM    125  C   UNL A   1      43.899  34.543  26.747  1.00  0.00     0.173 A 
ATOM    126  F   UNL A   1      44.721  33.756  30.202  1.00  0.00    -0.203 F 
ATOM    127  C   UNL A   1      43.082  35.195  29.319  1.00  0.00     0.198 A 
ATOM    128  C   UNL A   1      42.867  35.456  26.943  1.00  0.00     0.198 A 
ATOM    129  F   UNL A   1      44.264  34.243  25.491  1.00  0.00    -0.203 F 
ATOM    130  F   UNL A   1      42.665  35.479  30.561  1.00  0.00    -0.200 F 
ATOM    131  C   UNL A   1      42.453  35.775  28.228  1.00  0.00     0.200 A 
ATOM    132  F   UNL A   1      42.268  36.026  25.888  1.00  0.00    -0.200 F 
ATOM    133  F   UNL A   1      41.443  36.635  28.414  1.00  0.00    -0.200 F 
ENDBRANCH 103 123
BRANCH 106 134
ATOM    134  C   UNL A   1      51.674  27.245  25.843  1.00  0.00     0.064 A 
ATOM    135  C   UNL A   1      51.933  26.921  24.505  1.00  0.00     0.173 A 
ATOM    136  C   UNL A   1      52.449  26.618  26.830  1.00  0.00     0.173 A 
ATOM    137  F   UNL A   1      51.205  27.481  23.528  1.00  0.00    -0.203 F 
ATOM    138  C   UNL A   1      52.917  25.994  24.167  1.00  0.00     0.198 A 
ATOM    139  C   UNL A   1      53.450  25.712  26.490  1.00  0.00     0.198 A 
ATOM    140  F   UNL A   1      52.244  26.900  28.125  1.00  0.00    -0.203 F 
ATOM    141  F   UNL A   1      53.120  25.675  22.882  1.00  0.00    -0.200 F 
ATOM    142  C   UNL A   1      53.680  25.395  25.159  1.00  0.00     0.200 A 
ATOM    143  F   UNL A   1      54.196  25.147  27.450  1.00  0.00    -0.200 F 
ATOM    144  F   UNL A   1      54.633  24.512  24.833  1.00  0.00    -0.200 F 
ENDBRANCH 106 134
BRANCH 121 145
ATOM    145  C   UNL A   1      51.642  34.182  26.534  1.00  0.00     0.064 A 
ATOM    146  C   UNL A   1      51.869  34.875  25.337  1.00  0.00     0.173 A 
ATOM    147  C   UNL A   1      52.431  34.514  27.647  1.00  0.00     0.173 A 
ATOM    148  F   UNL A   1      51.153  34.583  24.241  1.00  0.00    -0.203 F 
ATOM    149  C   UNL A   1      52.862  35.848  25.250  1.00  0.00     0.198 A 
ATOM    150  C   UNL A   1      53.403  35.507  27.565  1.00  0.00     0.198 A 
ATOM    151  F   UNL A   1      52.249  33.884  28.817  1.00  0.00    -0.203 F 
ATOM    152  F   UNL A   1      53.092  36.467  24.083  1.00  0.00    -0.200 F 
ATOM    153  C   UNL A   1      53.623  36.168  26.366  1.00  0.00     0.200 A 
ATOM    154  F   UNL A   1      54.128  35.823  28.646  1.00  0.00    -0.200 F 
ATOM    155  F   UNL A   1      54.572  37.109  26.282  1.00  0.00    -0.200 F 
ENDBRANCH 121 145
ENDBRANCH  86  89
ENDBRANCH  76  79
ENDBRANCH  72  75
ENDBRANCH  69  72
ENDBRANCH  66  69
ENDBRANCH  63  66
ENDBRANCH  60  63
ENDBRANCH  57  60
ENDBRANCH   3  57
TORSDOF 25
ENDMDL
MODEL 8
REMARK VINA RESULT:      -9.3      5.284      9.213
REMARK SMILES CCCCCCNC(=O)Oc1cccc(-c2ccc([C@@H](C)C(=O)NCCCCCCNC(=O)c3ccc(-c4c5nc(c(-c6c(F)c(F)c(F)c(F)c6F)c6ccc([nH]6)c(-c6c(F)c(F)c(F)c(F)c6F)c6nc(c(-c7c(F)c(F)c(F)c(F)c7F)c7ccc4[nH]7)C=C6)C=C5)cc3)cc2[N+](=O)[O-])c1
REMARK SMILES IDX 22 1 23 2 24 3 20 5 19 7 16 8 17 9 98 10 18 11 97 13 15 16
REMARK SMILES IDX 11 17 12 18 102 19 13 20 14 23 10 26 8 27 7 28 9 30 6 31
REMARK SMILES IDX 5 34 4 37 3 40 2 43 1 46 99 50 100 51 101 52 21 53 25 57
REMARK SMILES IDX 26 60 27 63 28 66 29 69 30 72 31 75 32 76 33 78 34 79 35 80
REMARK SMILES IDX 96 81 36 82 95 84 37 86 38 89 39 90 89 91 40 92 94 93 88 94
REMARK SMILES IDX 90 95 41 96 93 97 87 99 86 101 42 103 74 106 54 107 73 108
REMARK SMILES IDX 55 109 58 110 72 111 91 112 56 113 57 115 71 117 92 118
REMARK SMILES IDX 59 121 43 123 44 124 52 125 45 126 46 127 50 128 53 129
REMARK SMILES IDX 47 130 48 131 51 132 49 133 75 134 76 135 84 136 77 137
REMARK SMILES IDX 78 138 82 139 85 140 79 141 80 142 83 143 81 144 60 145
REMARK SMILES IDX 61 146 69 147 62 148 63 149 67 150 70 151 64 152 65 153
REMARK SMILES IDX 68 154 66 155
REMARK H PARENT 24 4 20 6 17 12 18 14 97 15 12 21 102 22 13 24 14 25 7 29 6 32
REMARK H PARENT 6 33 5 35 5 36 4 38 4 39 3 41 3 42 2 44 2 45 1 47 1 48 1 49
REMARK H PARENT 21 54 21 55 21 56 25 58 25 59 26 61 26 62 27 64 27 65 28 67
REMARK H PARENT 28 68 29 70 29 71 30 73 30 74 31 77 35 83 96 85 36 87 95 88
REMARK H PARENT 94 98 88 100 90 102 93 104 87 105 55 114 58 116 91 119 56 120
REMARK H PARENT 92 122
REMARK Flexibility Score: inf
ROOT
ATOM      1  C   UNL A   1      41.679  26.526  28.613  1.00  0.00     0.227 C 
ATOM      2  O   UNL A   1      42.382  26.740  29.609  1.00  0.00    -0.274 OA
ATOM      3  N   UNL A   1      42.325  26.505  27.416  1.00  0.00    -0.356 N 
ATOM      4  H   UNL A   1      43.303  26.591  27.487  1.00  0.00     0.163 HD
ENDROOT
BRANCH   1   5
ATOM      5  C   UNL A   1      40.171  26.279  28.782  1.00  0.00     0.060 C 
ATOM      6  H   UNL A   1      40.064  25.882  29.770  1.00  0.00     0.045 H 
BRANCH   5   7
ATOM      7  C   UNL A   1      39.337  27.551  28.830  1.00  0.00    -0.029 A 
ATOM      8  C   UNL A   1      37.882  30.013  29.071  1.00  0.00     0.060 A 
ATOM      9  C   UNL A   1      38.627  29.694  27.921  1.00  0.00    -0.047 A 
ATOM     10  C   UNL A   1      37.814  29.022  30.069  1.00  0.00     0.277 A 
ATOM     11  C   UNL A   1      39.299  28.476  27.786  1.00  0.00    -0.057 A 
ATOM     12  H   UNL A   1      38.677  30.382  27.152  1.00  0.00     0.063 H 
ATOM     13  C   UNL A   1      38.567  27.834  29.969  1.00  0.00     0.021 A 
ATOM     14  H   UNL A   1      39.777  28.257  26.897  1.00  0.00     0.063 H 
ATOM     15  H   UNL A   1      38.552  27.158  30.749  1.00  0.00     0.070 H 
BRANCH   8  16
ATOM     16  C   UNL A   1      37.274  31.357  29.173  1.00  0.00    -0.008 A 
ATOM     17  C   UNL A   1      36.944  33.461  30.345  1.00  0.00     0.133 A 
ATOM     18  C   UNL A   1      36.119  33.936  29.329  1.00  0.00    -0.019 A 
ATOM     19  C   UNL A   1      37.530  32.196  30.271  1.00  0.00    -0.011 A 
ATOM     20  C   UNL A   1      35.879  33.134  28.220  1.00  0.00    -0.058 A 
ATOM     21  H   UNL A   1      35.692  34.873  29.399  1.00  0.00     0.066 H 
ATOM     22  H   UNL A   1      38.154  31.874  31.028  1.00  0.00     0.067 H 
ATOM     23  C   UNL A   1      36.441  31.854  28.150  1.00  0.00    -0.054 A 
ATOM     24  H   UNL A   1      35.287  33.481  27.449  1.00  0.00     0.062 H 
ATOM     25  H   UNL A   1      36.241  31.260  27.330  1.00  0.00     0.063 H 
BRANCH  17  26
ATOM     26  O   UNL A   1      37.023  34.241  31.511  1.00  0.00    -0.410 OA
BRANCH  26  27
ATOM     27  C   UNL A   1      35.913  34.352  32.334  1.00  0.00     0.412 C 
ATOM     28  N   UNL A   1      36.225  34.233  33.662  1.00  0.00    -0.321 N 
ATOM     29  H   UNL A   1      35.474  34.272  34.296  1.00  0.00     0.167 HD
ATOM     30  O   UNL A   1      34.760  34.530  31.966  1.00  0.00    -0.224 OA
BRANCH  28  31
ATOM     31  C   UNL A   1      37.548  34.056  34.228  1.00  0.00     0.021 C 
ATOM     32  H   UNL A   1      38.277  34.252  33.470  1.00  0.00     0.049 H 
ATOM     33  H   UNL A   1      37.649  34.737  35.048  1.00  0.00     0.049 H 
BRANCH  31  34
ATOM     34  C   UNL A   1      37.760  32.640  34.764  1.00  0.00    -0.036 C 
ATOM     35  H   UNL A   1      38.483  32.687  35.550  1.00  0.00     0.028 H 
ATOM     36  H   UNL A   1      36.800  32.297  35.091  1.00  0.00     0.028 H 
BRANCH  34  37
ATOM     37  C   UNL A   1      38.249  31.624  33.725  1.00  0.00    -0.052 C 
ATOM     38  H   UNL A   1      37.945  30.650  34.048  1.00  0.00     0.027 H 
ATOM     39  H   UNL A   1      37.816  31.924  32.794  1.00  0.00     0.027 H 
BRANCH  37  40
ATOM     40  C   UNL A   1      39.764  31.592  33.494  1.00  0.00    -0.054 C 
ATOM     41  H   UNL A   1      40.032  32.470  32.945  1.00  0.00     0.027 H 
ATOM     42  H   UNL A   1      40.209  31.539  34.466  1.00  0.00     0.027 H 
BRANCH  40  43
ATOM     43  C   UNL A   1      40.286  30.376  32.725  1.00  0.00    -0.056 C 
ATOM     44  H   UNL A   1      41.024  29.887  33.324  1.00  0.00     0.026 H 
ATOM     45  H   UNL A   1      39.446  29.744  32.524  1.00  0.00     0.026 H 
BRANCH  43  46
ATOM     46  C   UNL A   1      40.909  30.734  31.386  1.00  0.00    -0.065 C 
ATOM     47  H   UNL A   1      41.492  31.625  31.491  1.00  0.00     0.023 H 
ATOM     48  H   UNL A   1      40.136  30.897  30.664  1.00  0.00     0.023 H 
ATOM     49  H   UNL A   1      41.539  29.932  31.058  1.00  0.00     0.023 H 
ENDBRANCH  43  46
ENDBRANCH  40  43
ENDBRANCH  37  40
ENDBRANCH  34  37
ENDBRANCH  31  34
ENDBRANCH  28  31
ENDBRANCH  26  27
ENDBRANCH  17  26
ENDBRANCH   8  16
BRANCH  10  50
ATOM     50  N   UNL A   1      36.928  29.151  31.204  1.00  0.00     0.063 N 
ATOM     51  O   UNL A   1      35.880  29.756  31.106  1.00  0.00    -0.258 OA
ATOM     52  O   UNL A   1      37.303  28.722  32.455  1.00  0.00    -0.258 OA
ENDBRANCH  10  50
ENDBRANCH   5   7
BRANCH   5  53
ATOM     53  C   UNL A   1      39.618  25.159  27.901  1.00  0.00    -0.049 C 
ATOM     54  H   UNL A   1      40.026  25.247  26.915  1.00  0.00     0.024 H 
ATOM     55  H   UNL A   1      38.552  25.235  27.855  1.00  0.00     0.024 H 
ATOM     56  H   UNL A   1      39.891  24.211  28.316  1.00  0.00     0.024 H 
ENDBRANCH   5  53
ENDBRANCH   1   5
BRANCH   3  57
ATOM     57  C   UNL A   1      41.841  26.379  26.059  1.00  0.00     0.017 C 
ATOM     58  H   UNL A   1      41.913  27.331  25.575  1.00  0.00     0.049 H 
ATOM     59  H   UNL A   1      40.826  26.045  26.094  1.00  0.00     0.049 H 
BRANCH  57  60
ATOM     60  C   UNL A   1      42.654  25.355  25.262  1.00  0.00    -0.036 C 
ATOM     61  H   UNL A   1      43.653  25.724  25.160  1.00  0.00     0.028 H 
ATOM     62  H   UNL A   1      42.162  25.234  24.319  1.00  0.00     0.028 H 
BRANCH  60  63
ATOM     63  C   UNL A   1      42.715  23.970  25.913  1.00  0.00    -0.052 C 
ATOM     64  H   UNL A   1      42.054  23.322  25.376  1.00  0.00     0.027 H 
ATOM     65  H   UNL A   1      42.436  24.109  26.936  1.00  0.00     0.027 H 
BRANCH  63  66
ATOM     66  C   UNL A   1      44.105  23.320  25.933  1.00  0.00    -0.052 C 
ATOM     67  H   UNL A   1      43.985  22.280  25.714  1.00  0.00     0.027 H 
ATOM     68  H   UNL A   1      44.505  23.514  26.906  1.00  0.00     0.027 H 
BRANCH  66  69
ATOM     69  C   UNL A   1      45.119  23.898  24.939  1.00  0.00    -0.036 C 
ATOM     70  H   UNL A   1      44.620  24.636  24.347  1.00  0.00     0.028 H 
ATOM     71  H   UNL A   1      45.483  23.071  24.367  1.00  0.00     0.028 H 
BRANCH  69  72
ATOM     72  C   UNL A   1      46.342  24.549  25.579  1.00  0.00     0.018 C 
ATOM     73  H   UNL A   1      46.971  23.783  25.984  1.00  0.00     0.049 H 
ATOM     74  H   UNL A   1      46.001  25.213  26.346  1.00  0.00     0.049 H 
BRANCH  72  75
ATOM     75  N   UNL A   1      47.108  25.326  24.618  1.00  0.00    -0.352 N 
ATOM     76  C   UNL A   1      47.262  26.685  24.507  1.00  0.00     0.251 C 
ATOM     77  H   UNL A   1      47.590  24.796  23.943  1.00  0.00     0.163 HD
ATOM     78  O   UNL A   1      47.761  27.168  23.495  1.00  0.00    -0.269 OA
BRANCH  76  79
ATOM     79  C   UNL A   1      46.822  27.577  25.600  1.00  0.00     0.039 A 
ATOM     80  C   UNL A   1      45.462  27.876  25.721  1.00  0.00    -0.049 A 
ATOM     81  C   UNL A   1      47.746  28.153  26.476  1.00  0.00    -0.049 A 
ATOM     82  C   UNL A   1      45.022  28.708  26.754  1.00  0.00    -0.053 A 
ATOM     83  H   UNL A   1      44.783  27.483  25.049  1.00  0.00     0.063 H 
ATOM     84  C   UNL A   1      47.301  28.929  27.544  1.00  0.00    -0.053 A 
ATOM     85  H   UNL A   1      48.757  28.003  26.333  1.00  0.00     0.063 H 
ATOM     86  C   UNL A   1      45.935  29.219  27.689  1.00  0.00    -0.014 A 
ATOM     87  H   UNL A   1      44.021  28.949  26.828  1.00  0.00     0.063 H 
ATOM     88  H   UNL A   1      47.979  29.295  28.230  1.00  0.00     0.063 H 
BRANCH  86  89
ATOM     89  C   UNL A   1      45.481  30.054  28.829  1.00  0.00     0.031 A 
ATOM     90  C   UNL A   1      45.167  29.421  30.156  1.00  0.00     0.074 A 
ATOM     91  C   UNL A   1      45.280  31.373  28.647  1.00  0.00     0.049 A 
ATOM     92  N   UNL A   1      44.688  29.971  31.243  1.00  0.00    -0.248 NA
ATOM     93  C   UNL A   1      45.392  27.972  30.265  1.00  0.00    -0.034 C 
ATOM     94  C   UNL A   1      45.494  32.092  27.391  1.00  0.00    -0.036 A 
ATOM     95  N   UNL A   1      44.831  32.339  29.512  1.00  0.00    -0.354 N 
ATOM     96  C   UNL A   1      44.537  28.934  32.155  1.00  0.00     0.074 A 
ATOM     97  C   UNL A   1      44.931  27.717  31.480  1.00  0.00    -0.034 C 
ATOM     98  H   UNL A   1      45.803  27.324  29.575  1.00  0.00     0.065 H 
ATOM     99  C   UNL A   1      45.185  33.387  27.568  1.00  0.00    -0.036 A 
ATOM    100  H   UNL A   1      45.828  31.672  26.509  1.00  0.00     0.065 H 
ATOM    101  C   UNL A   1      44.722  33.582  28.939  1.00  0.00     0.049 A 
ATOM    102  H   UNL A   1      44.609  32.159  30.454  1.00  0.00     0.167 HD
ATOM    103  C   UNL A   1      44.123  28.997  33.444  1.00  0.00     0.037 A 
ATOM    104  H   UNL A   1      44.861  26.772  31.891  1.00  0.00     0.065 H 
ATOM    105  H   UNL A   1      45.263  34.125  26.851  1.00  0.00     0.065 H 
ATOM    106  C   UNL A   1      44.287  34.746  29.456  1.00  0.00     0.037 A 
ATOM    107  C   UNL A   1      43.763  30.216  34.120  1.00  0.00     0.049 A 
ATOM    108  C   UNL A   1      43.856  34.795  30.896  1.00  0.00     0.074 A 
ATOM    109  C   UNL A   1      43.415  30.396  35.447  1.00  0.00    -0.036 A 
ATOM    110  N   UNL A   1      43.700  31.464  33.517  1.00  0.00    -0.354 N 
ATOM    111  N   UNL A   1      43.796  33.824  31.774  1.00  0.00    -0.248 NA
ATOM    112  C   UNL A   1      43.442  36.103  31.421  1.00  0.00    -0.034 C 
ATOM    113  C   UNL A   1      43.096  31.745  35.636  1.00  0.00    -0.036 A 
ATOM    114  H   UNL A   1      43.394  29.662  36.172  1.00  0.00     0.065 H 
ATOM    115  C   UNL A   1      43.292  32.415  34.439  1.00  0.00     0.049 A 
ATOM    116  H   UNL A   1      43.913  31.647  32.574  1.00  0.00     0.167 HD
ATOM    117  C   UNL A   1      43.358  34.403  32.956  1.00  0.00     0.074 A 
ATOM    118  C   UNL A   1      43.185  35.816  32.689  1.00  0.00    -0.034 C 
ATOM    119  H   UNL A   1      43.371  37.009  30.930  1.00  0.00     0.065 H 
ATOM    120  H   UNL A   1      42.769  32.170  36.519  1.00  0.00     0.065 H 
ATOM    121  C   UNL A   1      43.121  33.817  34.156  1.00  0.00     0.037 A 
ATOM    122  H   UNL A   1      42.896  36.510  33.395  1.00  0.00     0.065 H 
BRANCH 103 123
ATOM    123  C   UNL A   1      44.036  27.707  34.208  1.00  0.00     0.064 A 
ATOM    124  C   UNL A   1      45.138  27.183  34.900  1.00  0.00     0.173 A 
ATOM    125  C   UNL A   1      42.825  27.002  34.274  1.00  0.00     0.173 A 
ATOM    126  F   UNL A   1      46.322  27.815  34.861  1.00  0.00    -0.203 F 
ATOM    127  C   UNL A   1      45.041  25.985  35.602  1.00  0.00     0.198 A 
ATOM    128  C   UNL A   1      42.723  25.820  35.002  1.00  0.00     0.198 A 
ATOM    129  F   UNL A   1      41.738  27.462  33.637  1.00  0.00    -0.203 F 
ATOM    130  F   UNL A   1      46.121  25.477  36.211  1.00  0.00    -0.200 F 
ATOM    131  C   UNL A   1      43.833  25.307  35.658  1.00  0.00     0.200 A 
ATOM    132  F   UNL A   1      41.551  25.172  35.065  1.00  0.00    -0.200 F 
ATOM    133  F   UNL A   1      43.738  24.156  36.337  1.00  0.00    -0.200 F 
ENDBRANCH 103 123
BRANCH 106 134
ATOM    134  C   UNL A   1      44.260  35.964  28.607  1.00  0.00     0.064 A 
ATOM    135  C   UNL A   1      45.392  36.780  28.479  1.00  0.00     0.173 A 
ATOM    136  C   UNL A   1      43.109  36.326  27.891  1.00  0.00     0.173 A 
ATOM    137  F   UNL A   1      46.510  36.484  29.159  1.00  0.00    -0.203 F 
ATOM    138  C   UNL A   1      45.370  37.921  27.680  1.00  0.00     0.198 A 
ATOM    139  C   UNL A   1      43.096  37.452  27.072  1.00  0.00     0.198 A 
ATOM    140  F   UNL A   1      42.002  35.574  27.975  1.00  0.00    -0.203 F 
ATOM    141  F   UNL A   1      46.455  38.704  27.604  1.00  0.00    -0.200 F 
ATOM    142  C   UNL A   1      44.224  38.252  26.971  1.00  0.00     0.200 A 
ATOM    143  F   UNL A   1      41.993  37.760  26.377  1.00  0.00    -0.200 F 
ATOM    144  F   UNL A   1      44.207  39.344  26.195  1.00  0.00    -0.200 F 
ENDBRANCH 106 134
BRANCH 121 145
ATOM    145  C   UNL A   1      42.667  34.707  35.276  1.00  0.00     0.064 A 
ATOM    146  C   UNL A   1      43.567  35.207  36.227  1.00  0.00     0.173 A 
ATOM    147  C   UNL A   1      41.322  35.096  35.373  1.00  0.00     0.173 A 
ATOM    148  F   UNL A   1      44.859  34.851  36.187  1.00  0.00    -0.203 F 
ATOM    149  C   UNL A   1      43.133  36.047  37.250  1.00  0.00     0.198 A 
ATOM    150  C   UNL A   1      40.897  35.959  36.380  1.00  0.00     0.198 A 
ATOM    151  F   UNL A   1      40.422  34.649  34.484  1.00  0.00    -0.203 F 
ATOM    152  F   UNL A   1      44.003  36.478  38.175  1.00  0.00    -0.200 F 
ATOM    153  C   UNL A   1      41.801  36.428  37.321  1.00  0.00     0.200 A 
ATOM    154  F   UNL A   1      39.613  36.335  36.440  1.00  0.00    -0.200 F 
ATOM    155  F   UNL A   1      41.387  37.242  38.301  1.00  0.00    -0.200 F 
ENDBRANCH 121 145
ENDBRANCH  86  89
ENDBRANCH  76  79
ENDBRANCH  72  75
ENDBRANCH  69  72
ENDBRANCH  66  69
ENDBRANCH  63  66
ENDBRANCH  60  63
ENDBRANCH  57  60
ENDBRANCH   3  57
TORSDOF 25
ENDMDL
MODEL 9
REMARK VINA RESULT:      -9.2      3.351      8.587
REMARK SMILES CCCCCCNC(=O)Oc1cccc(-c2ccc([C@@H](C)C(=O)NCCCCCCNC(=O)c3ccc(-c4c5nc(c(-c6c(F)c(F)c(F)c(F)c6F)c6ccc([nH]6)c(-c6c(F)c(F)c(F)c(F)c6F)c6nc(c(-c7c(F)c(F)c(F)c(F)c7F)c7ccc4[nH]7)C=C6)C=C5)cc3)cc2[N+](=O)[O-])c1
REMARK SMILES IDX 22 1 23 2 24 3 20 5 19 7 16 8 17 9 98 10 18 11 97 13 15 16
REMARK SMILES IDX 11 17 12 18 102 19 13 20 14 23 10 26 8 27 7 28 9 30 6 31
REMARK SMILES IDX 5 34 4 37 3 40 2 43 1 46 99 50 100 51 101 52 21 53 25 57
REMARK SMILES IDX 26 60 27 63 28 66 29 69 30 72 31 75 32 76 33 78 34 79 35 80
REMARK SMILES IDX 96 81 36 82 95 84 37 86 38 89 39 90 89 91 40 92 94 93 88 94
REMARK SMILES IDX 90 95 41 96 93 97 87 99 86 101 42 103 74 106 54 107 73 108
REMARK SMILES IDX 55 109 58 110 72 111 91 112 56 113 57 115 71 117 92 118
REMARK SMILES IDX 59 121 43 123 44 124 52 125 45 126 46 127 50 128 53 129
REMARK SMILES IDX 47 130 48 131 51 132 49 133 75 134 76 135 84 136 77 137
REMARK SMILES IDX 78 138 82 139 85 140 79 141 80 142 83 143 81 144 60 145
REMARK SMILES IDX 61 146 69 147 62 148 63 149 67 150 70 151 64 152 65 153
REMARK SMILES IDX 68 154 66 155
REMARK H PARENT 24 4 20 6 17 12 18 14 97 15 12 21 102 22 13 24 14 25 7 29 6 32
REMARK H PARENT 6 33 5 35 5 36 4 38 4 39 3 41 3 42 2 44 2 45 1 47 1 48 1 49
REMARK H PARENT 21 54 21 55 21 56 25 58 25 59 26 61 26 62 27 64 27 65 28 67
REMARK H PARENT 28 68 29 70 29 71 30 73 30 74 31 77 35 83 96 85 36 87 95 88
REMARK H PARENT 94 98 88 100 90 102 93 104 87 105 55 114 58 116 91 119 56 120
REMARK H PARENT 92 122
REMARK Flexibility Score: inf
ROOT
ATOM      1  C   UNL A   1      35.671  32.719  27.871  1.00  0.00     0.227 C 
ATOM      2  O   UNL A   1      36.017  33.830  27.450  1.00  0.00    -0.274 OA
ATOM      3  N   UNL A   1      36.649  31.777  27.951  1.00  0.00    -0.356 N 
ATOM      4  H   UNL A   1      37.548  32.112  27.731  1.00  0.00     0.163 HD
ENDROOT
BRANCH   1   5
ATOM      5  C   UNL A   1      34.210  32.482  28.289  1.00  0.00     0.060 C 
ATOM      6  H   UNL A   1      33.734  33.434  28.184  1.00  0.00     0.045 H 
BRANCH   5   7
ATOM      7  C   UNL A   1      33.428  31.597  27.329  1.00  0.00    -0.029 A 
ATOM      8  C   UNL A   1      31.952  29.786  25.663  1.00  0.00     0.060 A 
ATOM      9  C   UNL A   1      31.403  30.998  26.120  1.00  0.00    -0.047 A 
ATOM     10  C   UNL A   1      33.299  29.544  25.993  1.00  0.00     0.277 A 
ATOM     11  C   UNL A   1      32.137  31.900  26.895  1.00  0.00    -0.057 A 
ATOM     12  H   UNL A   1      30.427  31.228  25.874  1.00  0.00     0.063 H 
ATOM     13  C   UNL A   1      34.007  30.412  26.850  1.00  0.00     0.021 A 
ATOM     14  H   UNL A   1      31.716  32.807  27.151  1.00  0.00     0.063 H 
ATOM     15  H   UNL A   1      34.970  30.171  27.131  1.00  0.00     0.070 H 
BRANCH   8  16
ATOM     16  C   UNL A   1      31.081  28.847  24.923  1.00  0.00    -0.008 A 
ATOM     17  C   UNL A   1      30.186  26.618  24.551  1.00  0.00     0.133 A 
ATOM     18  C   UNL A   1      29.387  27.076  23.508  1.00  0.00    -0.019 A 
ATOM     19  C   UNL A   1      31.015  27.485  25.265  1.00  0.00    -0.011 A 
ATOM     20  C   UNL A   1      29.416  28.425  23.175  1.00  0.00    -0.058 A 
ATOM     21  H   UNL A   1      28.781  26.422  22.989  1.00  0.00     0.066 H 
ATOM     22  H   UNL A   1      31.584  27.125  26.048  1.00  0.00     0.067 H 
ATOM     23  C   UNL A   1      30.263  29.297  23.867  1.00  0.00    -0.054 A 
ATOM     24  H   UNL A   1      28.812  28.784  22.418  1.00  0.00     0.062 H 
ATOM     25  H   UNL A   1      30.289  30.293  23.599  1.00  0.00     0.063 H 
BRANCH  17  26
ATOM     26  O   UNL A   1      30.241  25.226  24.740  1.00  0.00    -0.410 OA
BRANCH  26  27
ATOM     27  C   UNL A   1      30.292  24.714  26.027  1.00  0.00     0.412 C 
ATOM     28  N   UNL A   1      31.459  24.045  26.284  1.00  0.00    -0.321 N 
ATOM     29  H   UNL A   1      31.542  23.630  27.173  1.00  0.00     0.167 HD
ATOM     30  O   UNL A   1      29.416  24.814  26.876  1.00  0.00    -0.224 OA
BRANCH  28  31
ATOM     31  C   UNL A   1      32.582  23.884  25.383  1.00  0.00     0.021 C 
ATOM     32  H   UNL A   1      32.555  24.668  24.655  1.00  0.00     0.049 H 
ATOM     33  H   UNL A   1      33.480  23.926  25.964  1.00  0.00     0.049 H 
BRANCH  31  34
ATOM     34  C   UNL A   1      32.553  22.538  24.659  1.00  0.00    -0.036 C 
ATOM     35  H   UNL A   1      32.148  21.809  25.329  1.00  0.00     0.028 H 
ATOM     36  H   UNL A   1      31.958  22.683  23.781  1.00  0.00     0.028 H 
BRANCH  34  37
ATOM     37  C   UNL A   1      33.918  22.035  24.175  1.00  0.00    -0.052 C 
ATOM     38  H   UNL A   1      34.315  21.384  24.926  1.00  0.00     0.027 H 
ATOM     39  H   UNL A   1      33.737  21.552  23.237  1.00  0.00     0.027 H 
BRANCH  37  40
ATOM     40  C   UNL A   1      34.961  23.122  23.894  1.00  0.00    -0.054 C 
ATOM     41  H   UNL A   1      34.595  23.732  23.096  1.00  0.00     0.027 H 
ATOM     42  H   UNL A   1      35.091  23.650  24.816  1.00  0.00     0.027 H 
BRANCH  40  43
ATOM     43  C   UNL A   1      36.350  22.613  23.501  1.00  0.00    -0.056 C 
ATOM     44  H   UNL A   1      36.235  21.836  22.775  1.00  0.00     0.026 H 
ATOM     45  H   UNL A   1      36.896  23.448  23.115  1.00  0.00     0.026 H 
BRANCH  43  46
ATOM     46  C   UNL A   1      37.143  22.062  24.676  1.00  0.00    -0.065 C 
ATOM     47  H   UNL A   1      37.974  22.705  24.877  1.00  0.00     0.023 H 
ATOM     48  H   UNL A   1      37.499  21.082  24.437  1.00  0.00     0.023 H 
ATOM     49  H   UNL A   1      36.513  22.012  25.540  1.00  0.00     0.023 H 
ENDBRANCH  43  46
ENDBRANCH  40  43
ENDBRANCH  37  40
ENDBRANCH  34  37
ENDBRANCH  31  34
ENDBRANCH  28  31
ENDBRANCH  26  27
ENDBRANCH  17  26
ENDBRANCH   8  16
BRANCH  10  50
ATOM     50  N   UNL A   1      34.030  28.435  25.422  1.00  0.00     0.063 N 
ATOM     51  O   UNL A   1      34.377  28.454  24.260  1.00  0.00    -0.258 OA
ATOM     52  O   UNL A   1      34.228  27.272  26.129  1.00  0.00    -0.258 OA
ENDBRANCH  10  50
ENDBRANCH   5   7
BRANCH   5  53
ATOM     53  C   UNL A   1      34.028  32.169  29.774  1.00  0.00    -0.049 C 
ATOM     54  H   UNL A   1      33.592  31.197  29.882  1.00  0.00     0.024 H 
ATOM     55  H   UNL A   1      33.385  32.901  30.216  1.00  0.00     0.024 H 
ATOM     56  H   UNL A   1      34.981  32.188  30.262  1.00  0.00     0.024 H 
ENDBRANCH   5  53
ENDBRANCH   1   5
BRANCH   3  57
ATOM     57  C   UNL A   1      36.613  30.373  28.300  1.00  0.00     0.017 C 
ATOM     58  H   UNL A   1      36.934  29.797  27.456  1.00  0.00     0.049 H 
ATOM     59  H   UNL A   1      35.610  30.121  28.573  1.00  0.00     0.049 H 
BRANCH  57  60
ATOM     60  C   UNL A   1      37.526  30.062  29.489  1.00  0.00    -0.036 C 
ATOM     61  H   UNL A   1      37.929  30.984  29.853  1.00  0.00     0.028 H 
ATOM     62  H   UNL A   1      38.283  29.394  29.133  1.00  0.00     0.028 H 
BRANCH  60  63
ATOM     63  C   UNL A   1      36.816  29.354  30.647  1.00  0.00    -0.052 C 
ATOM     64  H   UNL A   1      37.189  28.353  30.703  1.00  0.00     0.027 H 
ATOM     65  H   UNL A   1      35.769  29.407  30.432  1.00  0.00     0.027 H 
BRANCH  63  66
ATOM     66  C   UNL A   1      37.003  30.009  32.022  1.00  0.00    -0.052 C 
ATOM     67  H   UNL A   1      37.997  30.401  32.067  1.00  0.00     0.027 H 
ATOM     68  H   UNL A   1      36.808  29.240  32.741  1.00  0.00     0.027 H 
BRANCH  66  69
ATOM     69  C   UNL A   1      36.031  31.147  32.350  1.00  0.00    -0.036 C 
ATOM     70  H   UNL A   1      35.061  30.723  32.502  1.00  0.00     0.028 H 
ATOM     71  H   UNL A   1      36.073  31.825  31.524  1.00  0.00     0.028 H 
BRANCH  69  72
ATOM     72  C   UNL A   1      36.394  31.960  33.591  1.00  0.00     0.018 C 
ATOM     73  H   UNL A   1      37.332  31.613  33.971  1.00  0.00     0.049 H 
ATOM     74  H   UNL A   1      35.614  31.829  34.313  1.00  0.00     0.049 H 
BRANCH  72  75
ATOM     75  N   UNL A   1      36.503  33.380  33.296  1.00  0.00    -0.352 N 
ATOM     76  C   UNL A   1      37.526  34.082  32.711  1.00  0.00     0.251 C 
ATOM     77  H   UNL A   1      35.723  33.921  33.557  1.00  0.00     0.163 HD
ATOM     78  O   UNL A   1      37.534  35.308  32.752  1.00  0.00    -0.269 OA
BRANCH  76  79
ATOM     79  C   UNL A   1      38.629  33.367  32.034  1.00  0.00     0.039 A 
ATOM     80  C   UNL A   1      38.681  33.373  30.637  1.00  0.00    -0.049 A 
ATOM     81  C   UNL A   1      39.584  32.658  32.768  1.00  0.00    -0.049 A 
ATOM     82  C   UNL A   1      39.721  32.713  29.978  1.00  0.00    -0.053 A 
ATOM     83  H   UNL A   1      37.953  33.863  30.094  1.00  0.00     0.063 H 
ATOM     84  C   UNL A   1      40.656  32.056  32.113  1.00  0.00    -0.053 A 
ATOM     85  H   UNL A   1      39.496  32.580  33.793  1.00  0.00     0.063 H 
ATOM     86  C   UNL A   1      40.732  32.073  30.711  1.00  0.00    -0.014 A 
ATOM     87  H   UNL A   1      39.745  32.697  28.946  1.00  0.00     0.063 H 
ATOM     88  H   UNL A   1      41.398  31.593  32.661  1.00  0.00     0.063 H 
BRANCH  86  89
ATOM     89  C   UNL A   1      41.878  31.419  30.031  1.00  0.00     0.031 A 
ATOM     90  C   UNL A   1      43.128  32.199  29.734  1.00  0.00     0.074 A 
ATOM     91  C   UNL A   1      41.763  30.144  29.616  1.00  0.00     0.049 A 
ATOM     92  N   UNL A   1      44.202  31.825  29.085  1.00  0.00    -0.248 NA
ATOM     93  C   UNL A   1      43.164  33.592  30.203  1.00  0.00    -0.034 C 
ATOM     94  C   UNL A   1      40.579  29.303  29.795  1.00  0.00    -0.036 A 
ATOM     95  N   UNL A   1      42.645  29.339  28.939  1.00  0.00    -0.354 N 
ATOM     96  C   UNL A   1      45.029  32.941  29.050  1.00  0.00     0.074 A 
ATOM     97  C   UNL A   1      44.315  34.016  29.703  1.00  0.00    -0.034 C 
ATOM     98  H   UNL A   1      42.474  34.105  30.773  1.00  0.00     0.065 H 
ATOM     99  C   UNL A   1      40.811  28.098  29.249  1.00  0.00    -0.036 A 
ATOM    100  H   UNL A   1      39.706  29.590  30.264  1.00  0.00     0.065 H 
ATOM    101  C   UNL A   1      42.145  28.092  28.656  1.00  0.00     0.049 A 
ATOM    102  H   UNL A   1      43.550  29.628  28.681  1.00  0.00     0.167 HD
ATOM    103  C   UNL A   1      46.277  33.050  28.535  1.00  0.00     0.037 A 
ATOM    104  H   UNL A   1      44.657  34.988  29.770  1.00  0.00     0.065 H 
ATOM    105  H   UNL A   1      40.153  27.303  29.250  1.00  0.00     0.065 H 
ATOM    106  C   UNL A   1      42.695  27.063  27.984  1.00  0.00     0.037 A 
ATOM    107  C   UNL A   1      46.996  31.968  27.915  1.00  0.00     0.049 A 
ATOM    108  C   UNL A   1      44.091  27.202  27.444  1.00  0.00     0.074 A 
ATOM    109  C   UNL A   1      48.295  31.954  27.441  1.00  0.00    -0.036 A 
ATOM    110  N   UNL A   1      46.470  30.705  27.678  1.00  0.00    -0.354 N 
ATOM    111  N   UNL A   1      44.897  28.235  27.489  1.00  0.00    -0.248 NA
ATOM    112  C   UNL A   1      44.660  26.029  26.766  1.00  0.00    -0.034 C 
ATOM    113  C   UNL A   1      48.541  30.698  26.875  1.00  0.00    -0.036 A 
ATOM    114  H   UNL A   1      48.967  32.735  27.494  1.00  0.00     0.065 H 
ATOM    115  C   UNL A   1      47.411  29.913  27.041  1.00  0.00     0.049 A 
ATOM    116  H   UNL A   1      45.563  30.415  27.927  1.00  0.00     0.167 HD
ATOM    117  C   UNL A   1      46.070  27.833  26.867  1.00  0.00     0.074 A 
ATOM    118  C   UNL A   1      45.879  26.453  26.468  1.00  0.00    -0.034 C 
ATOM    119  H   UNL A   1      44.224  25.112  26.574  1.00  0.00     0.065 H 
ATOM    120  H   UNL A   1      49.417  30.405  26.412  1.00  0.00     0.065 H 
ATOM    121  C   UNL A   1      47.205  28.543  26.647  1.00  0.00     0.037 A 
ATOM    122  H   UNL A   1      46.600  25.877  26.008  1.00  0.00     0.065 H 
BRANCH 103 123
ATOM    123  C   UNL A   1      46.947  34.392  28.619  1.00  0.00     0.064 A 
ATOM    124  C   UNL A   1      46.752  35.377  27.640  1.00  0.00     0.173 A 
ATOM    125  C   UNL A   1      47.771  34.706  29.710  1.00  0.00     0.173 A 
ATOM    126  F   UNL A   1      45.981  35.124  26.571  1.00  0.00    -0.203 F 
ATOM    127  C   UNL A   1      47.383  36.615  27.732  1.00  0.00     0.198 A 
ATOM    128  C   UNL A   1      48.376  35.956  29.815  1.00  0.00     0.198 A 
ATOM    129  F   UNL A   1      47.986  33.803  30.679  1.00  0.00    -0.203 F 
ATOM    130  F   UNL A   1      47.223  37.522  26.758  1.00  0.00    -0.200 F 
ATOM    131  C   UNL A   1      48.189  36.906  28.822  1.00  0.00     0.200 A 
ATOM    132  F   UNL A   1      49.145  36.240  30.876  1.00  0.00    -0.200 F 
ATOM    133  F   UNL A   1      48.792  38.099  28.913  1.00  0.00    -0.200 F 
ENDBRANCH 103 123
BRANCH 106 134
ATOM    134  C   UNL A   1      41.926  25.805  27.808  1.00  0.00     0.064 A 
ATOM    135  C   UNL A   1      42.249  24.654  28.538  1.00  0.00     0.173 A 
ATOM    136  C   UNL A   1      40.842  25.735  26.920  1.00  0.00     0.173 A 
ATOM    137  F   UNL A   1      43.290  24.668  29.383  1.00  0.00    -0.203 F 
ATOM    138  C   UNL A   1      41.527  23.473  28.376  1.00  0.00     0.198 A 
ATOM    139  C   UNL A   1      40.104  24.562  26.779  1.00  0.00     0.198 A 
ATOM    140  F   UNL A   1      40.489  26.812  26.204  1.00  0.00    -0.203 F 
ATOM    141  F   UNL A   1      41.879  22.376  29.059  1.00  0.00    -0.200 F 
ATOM    142  C   UNL A   1      40.450  23.430  27.502  1.00  0.00     0.200 A 
ATOM    143  F   UNL A   1      39.055  24.529  25.946  1.00  0.00    -0.200 F 
ATOM    144  F   UNL A   1      39.750  22.298  27.354  1.00  0.00    -0.200 F 
ENDBRANCH 106 134
BRANCH 121 145
ATOM    145  C   UNL A   1      48.334  27.834  25.959  1.00  0.00     0.064 A 
ATOM    146  C   UNL A   1      48.371  27.691  24.565  1.00  0.00     0.173 A 
ATOM    147  C   UNL A   1      49.413  27.329  26.701  1.00  0.00     0.173 A 
ATOM    148  F   UNL A   1      47.356  28.143  23.813  1.00  0.00    -0.203 F 
ATOM    149  C   UNL A   1      49.435  27.048  23.939  1.00  0.00     0.198 A 
ATOM    150  C   UNL A   1      50.490  26.711  26.070  1.00  0.00     0.198 A 
ATOM    151  F   UNL A   1      49.428  27.445  28.037  1.00  0.00    -0.203 F 
ATOM    152  F   UNL A   1      49.428  26.883  22.608  1.00  0.00    -0.200 F 
ATOM    153  C   UNL A   1      50.497  26.565  24.691  1.00  0.00     0.200 A 
ATOM    154  F   UNL A   1      51.519  26.257  26.796  1.00  0.00    -0.200 F 
ATOM    155  F   UNL A   1      51.523  25.953  24.086  1.00  0.00    -0.200 F 
ENDBRANCH 121 145
ENDBRANCH  86  89
ENDBRANCH  76  79
ENDBRANCH  72  75
ENDBRANCH  69  72
ENDBRANCH  66  69
ENDBRANCH  63  66
ENDBRANCH  60  63
ENDBRANCH  57  60
ENDBRANCH   3  57
TORSDOF 25
ENDMDL
MODEL 10
REMARK VINA RESULT:      -9.2      5.636      9.226
REMARK SMILES CCCCCCNC(=O)Oc1cccc(-c2ccc([C@@H](C)C(=O)NCCCCCCNC(=O)c3ccc(-c4c5nc(c(-c6c(F)c(F)c(F)c(F)c6F)c6ccc([nH]6)c(-c6c(F)c(F)c(F)c(F)c6F)c6nc(c(-c7c(F)c(F)c(F)c(F)c7F)c7ccc4[nH]7)C=C6)C=C5)cc3)cc2[N+](=O)[O-])c1
REMARK SMILES IDX 22 1 23 2 24 3 20 5 19 7 16 8 17 9 98 10 18 11 97 13 15 16
REMARK SMILES IDX 11 17 12 18 102 19 13 20 14 23 10 26 8 27 7 28 9 30 6 31
REMARK SMILES IDX 5 34 4 37 3 40 2 43 1 46 99 50 100 51 101 52 21 53 25 57
REMARK SMILES IDX 26 60 27 63 28 66 29 69 30 72 31 75 32 76 33 78 34 79 35 80
REMARK SMILES IDX 96 81 36 82 95 84 37 86 38 89 39 90 89 91 40 92 94 93 88 94
REMARK SMILES IDX 90 95 41 96 93 97 87 99 86 101 42 103 74 106 54 107 73 108
REMARK SMILES IDX 55 109 58 110 72 111 91 112 56 113 57 115 71 117 92 118
REMARK SMILES IDX 59 121 43 123 44 124 52 125 45 126 46 127 50 128 53 129
REMARK SMILES IDX 47 130 48 131 51 132 49 133 75 134 76 135 84 136 77 137
REMARK SMILES IDX 78 138 82 139 85 140 79 141 80 142 83 143 81 144 60 145
REMARK SMILES IDX 61 146 69 147 62 148 63 149 67 150 70 151 64 152 65 153
REMARK SMILES IDX 68 154 66 155
REMARK H PARENT 24 4 20 6 17 12 18 14 97 15 12 21 102 22 13 24 14 25 7 29 6 32
REMARK H PARENT 6 33 5 35 5 36 4 38 4 39 3 41 3 42 2 44 2 45 1 47 1 48 1 49
REMARK H PARENT 21 54 21 55 21 56 25 58 25 59 26 61 26 62 27 64 27 65 28 67
REMARK H PARENT 28 68 29 70 29 71 30 73 30 74 31 77 35 83 96 85 36 87 95 88
REMARK H PARENT 94 98 88 100 90 102 93 104 87 105 55 114 58 116 91 119 56 120
REMARK H PARENT 92 122
REMARK Flexibility Score: inf
ROOT
ATOM      1  C   UNL A   1      34.927  32.467  30.375  1.00  0.00     0.227 C 
ATOM      2  O   UNL A   1      34.078  33.313  30.687  1.00  0.00    -0.274 OA
ATOM      3  N   UNL A   1      35.276  31.582  31.347  1.00  0.00    -0.356 N 
ATOM      4  H   UNL A   1      34.753  31.670  32.176  1.00  0.00     0.163 HD
ENDROOT
BRANCH   1   5
ATOM      5  C   UNL A   1      35.500  32.451  28.948  1.00  0.00     0.060 C 
ATOM      6  H   UNL A   1      36.554  32.322  29.075  1.00  0.00     0.045 H 
BRANCH   5   7
ATOM      7  C   UNL A   1      35.098  31.231  28.133  1.00  0.00    -0.029 A 
ATOM      8  C   UNL A   1      34.314  29.052  26.438  1.00  0.00     0.060 A 
ATOM      9  C   UNL A   1      35.606  29.147  26.984  1.00  0.00    -0.047 A 
ATOM     10  C   UNL A   1      33.391  30.038  26.837  1.00  0.00     0.277 A 
ATOM     11  C   UNL A   1      35.975  30.185  27.845  1.00  0.00    -0.057 A 
ATOM     12  H   UNL A   1      36.305  28.426  26.741  1.00  0.00     0.063 H 
ATOM     13  C   UNL A   1      33.790  31.132  27.631  1.00  0.00     0.021 A 
ATOM     14  H   UNL A   1      36.913  30.177  28.275  1.00  0.00     0.063 H 
ATOM     15  H   UNL A   1      33.109  31.876  27.848  1.00  0.00     0.070 H 
BRANCH   8  16
ATOM     16  C   UNL A   1      34.031  27.973  25.467  1.00  0.00    -0.008 A 
ATOM     17  C   UNL A   1      33.755  25.621  24.918  1.00  0.00     0.133 A 
ATOM     18  C   UNL A   1      33.458  25.931  23.594  1.00  0.00    -0.019 A 
ATOM     19  C   UNL A   1      34.024  26.622  25.854  1.00  0.00    -0.011 A 
ATOM     20  C   UNL A   1      33.429  27.263  23.199  1.00  0.00    -0.058 A 
ATOM     21  H   UNL A   1      33.263  25.179  22.914  1.00  0.00     0.066 H 
ATOM     22  H   UNL A   1      34.222  26.369  26.835  1.00  0.00     0.067 H 
ATOM     23  C   UNL A   1      33.725  28.270  24.123  1.00  0.00    -0.054 A 
ATOM     24  H   UNL A   1      33.190  27.508  22.226  1.00  0.00     0.062 H 
ATOM     25  H   UNL A   1      33.717  29.255  23.815  1.00  0.00     0.063 H 
BRANCH  17  26
ATOM     26  O   UNL A   1      33.929  24.261  25.225  1.00  0.00    -0.410 OA
BRANCH  26  27
ATOM     27  C   UNL A   1      32.900  23.562  25.836  1.00  0.00     0.412 C 
ATOM     28  N   UNL A   1      33.254  22.282  26.169  1.00  0.00    -0.321 N 
ATOM     29  H   UNL A   1      32.555  21.724  26.579  1.00  0.00     0.167 HD
ATOM     30  O   UNL A   1      31.778  23.992  26.069  1.00  0.00    -0.224 OA
BRANCH  28  31
ATOM     31  C   UNL A   1      34.553  21.666  25.981  1.00  0.00     0.021 C 
ATOM     32  H   UNL A   1      35.232  22.401  25.602  1.00  0.00     0.049 H 
ATOM     33  H   UNL A   1      34.879  21.288  26.928  1.00  0.00     0.049 H 
BRANCH  31  34
ATOM     34  C   UNL A   1      34.497  20.494  25.000  1.00  0.00    -0.036 C 
ATOM     35  H   UNL A   1      35.236  20.657  24.244  1.00  0.00     0.028 H 
ATOM     36  H   UNL A   1      34.672  19.611  25.580  1.00  0.00     0.028 H 
BRANCH  34  37
ATOM     37  C   UNL A   1      33.143  20.294  24.309  1.00  0.00    -0.052 C 
ATOM     38  H   UNL A   1      32.444  20.971  24.753  1.00  0.00     0.027 H 
ATOM     39  H   UNL A   1      33.316  20.472  23.268  1.00  0.00     0.027 H 
BRANCH  37  40
ATOM     40  C   UNL A   1      32.556  18.881  24.402  1.00  0.00    -0.054 C 
ATOM     41  H   UNL A   1      33.090  18.351  25.162  1.00  0.00     0.027 H 
ATOM     42  H   UNL A   1      31.515  19.009  24.617  1.00  0.00     0.027 H 
BRANCH  40  43
ATOM     43  C   UNL A   1      32.621  18.056  23.115  1.00  0.00    -0.056 C 
ATOM     44  H   UNL A   1      31.672  17.587  22.963  1.00  0.00     0.026 H 
ATOM     45  H   UNL A   1      32.870  18.728  22.320  1.00  0.00     0.026 H 
BRANCH  43  46
ATOM     46  C   UNL A   1      33.694  16.979  23.145  1.00  0.00    -0.065 C 
ATOM     47  H   UNL A   1      34.133  16.885  22.174  1.00  0.00     0.023 H 
ATOM     48  H   UNL A   1      33.254  16.046  23.430  1.00  0.00     0.023 H 
ATOM     49  H   UNL A   1      34.450  17.248  23.854  1.00  0.00     0.023 H 
ENDBRANCH  43  46
ENDBRANCH  40  43
ENDBRANCH  37  40
ENDBRANCH  34  37
ENDBRANCH  31  34
ENDBRANCH  28  31
ENDBRANCH  26  27
ENDBRANCH  17  26
ENDBRANCH   8  16
BRANCH  10  50
ATOM     50  N   UNL A   1      31.987  29.940  26.501  1.00  0.00     0.063 N 
ATOM     51  O   UNL A   1      31.400  30.884  26.016  1.00  0.00    -0.258 OA
ATOM     52  O   UNL A   1      31.246  28.835  26.849  1.00  0.00    -0.258 OA
ENDBRANCH  10  50
ENDBRANCH   5   7
BRANCH   5  53
ATOM     53  C   UNL A   1      35.404  33.792  28.221  1.00  0.00    -0.049 C 
ATOM     54  H   UNL A   1      34.816  33.676  27.335  1.00  0.00     0.024 H 
ATOM     55  H   UNL A   1      36.386  34.126  27.957  1.00  0.00     0.024 H 
ATOM     56  H   UNL A   1      34.942  34.514  28.863  1.00  0.00     0.024 H 
ENDBRANCH   5  53
ENDBRANCH   1   5
BRANCH   3  57
ATOM     57  C   UNL A   1      36.273  30.535  31.388  1.00  0.00     0.017 C 
ATOM     58  H   UNL A   1      36.038  29.802  30.643  1.00  0.00     0.049 H 
ATOM     59  H   UNL A   1      36.263  30.101  32.365  1.00  0.00     0.049 H 
BRANCH  57  60
ATOM     60  C   UNL A   1      37.678  31.081  31.120  1.00  0.00    -0.036 C 
ATOM     61  H   UNL A   1      38.073  31.459  32.041  1.00  0.00     0.028 H 
ATOM     62  H   UNL A   1      37.579  31.841  30.373  1.00  0.00     0.028 H 
BRANCH  60  63
ATOM     63  C   UNL A   1      38.654  30.037  30.568  1.00  0.00    -0.052 C 
ATOM     64  H   UNL A   1      38.095  29.160  30.320  1.00  0.00     0.027 H 
ATOM     65  H   UNL A   1      39.383  29.876  31.334  1.00  0.00     0.027 H 
BRANCH  63  66
ATOM     66  C   UNL A   1      39.435  30.472  29.320  1.00  0.00    -0.052 C 
ATOM     67  H   UNL A   1      40.478  30.358  29.529  1.00  0.00     0.027 H 
ATOM     68  H   UNL A   1      39.140  31.482  29.128  1.00  0.00     0.027 H 
BRANCH  66  69
ATOM     69  C   UNL A   1      39.121  29.691  28.040  1.00  0.00    -0.036 C 
ATOM     70  H   UNL A   1      39.167  30.372  27.215  1.00  0.00     0.028 H 
ATOM     71  H   UNL A   1      38.153  29.260  28.179  1.00  0.00     0.028 H 
BRANCH  69  72
ATOM     72  C   UNL A   1      40.070  28.530  27.751  1.00  0.00     0.018 C 
ATOM     73  H   UNL A   1      40.929  28.618  28.383  1.00  0.00     0.049 H 
ATOM     74  H   UNL A   1      40.345  28.576  26.717  1.00  0.00     0.049 H 
BRANCH  72  75
ATOM     75  N   UNL A   1      39.439  27.242  27.992  1.00  0.00    -0.352 N 
ATOM     76  C   UNL A   1      40.001  26.035  28.324  1.00  0.00     0.251 C 
ATOM     77  H   UNL A   1      38.459  27.234  27.903  1.00  0.00     0.163 HD
ATOM     78  O   UNL A   1      39.333  25.007  28.264  1.00  0.00    -0.269 OA
BRANCH  76  79
ATOM     79  C   UNL A   1      41.415  25.962  28.749  1.00  0.00     0.039 A 
ATOM     80  C   UNL A   1      41.956  27.023  29.480  1.00  0.00    -0.049 A 
ATOM     81  C   UNL A   1      42.218  24.875  28.393  1.00  0.00    -0.049 A 
ATOM     82  C   UNL A   1      43.287  26.970  29.902  1.00  0.00    -0.053 A 
ATOM     83  H   UNL A   1      41.374  27.844  29.709  1.00  0.00     0.063 H 
ATOM     84  C   UNL A   1      43.525  24.793  28.869  1.00  0.00    -0.053 A 
ATOM     85  H   UNL A   1      41.845  24.134  27.780  1.00  0.00     0.063 H 
ATOM     86  C   UNL A   1      44.074  25.842  29.623  1.00  0.00    -0.014 A 
ATOM     87  H   UNL A   1      43.693  27.765  30.420  1.00  0.00     0.063 H 
ATOM     88  H   UNL A   1      44.095  23.956  28.664  1.00  0.00     0.063 H 
BRANCH  86  89
ATOM     89  C   UNL A   1      45.471  25.739  30.114  1.00  0.00     0.031 A 
ATOM     90  C   UNL A   1      45.749  25.285  31.519  1.00  0.00     0.074 A 
ATOM     91  C   UNL A   1      46.484  26.126  29.317  1.00  0.00     0.049 A 
ATOM     92  N   UNL A   1      46.893  25.202  32.152  1.00  0.00    -0.248 NA
ATOM     93  C   UNL A   1      44.585  24.901  32.331  1.00  0.00    -0.034 C 
ATOM     94  C   UNL A   1      46.337  26.638  27.954  1.00  0.00    -0.036 A 
ATOM     95  N   UNL A   1      47.837  26.168  29.544  1.00  0.00    -0.354 N 
ATOM     96  C   UNL A   1      46.582  24.779  33.438  1.00  0.00     0.074 A 
ATOM     97  C   UNL A   1      45.142  24.665  33.510  1.00  0.00    -0.034 C 
ATOM     98  H   UNL A   1      43.593  24.833  32.055  1.00  0.00     0.065 H 
ATOM     99  C   UNL A   1      47.550  26.936  27.463  1.00  0.00    -0.036 A 
ATOM    100  H   UNL A   1      45.443  26.754  27.451  1.00  0.00     0.065 H 
ATOM    101  C   UNL A   1      48.557  26.665  28.485  1.00  0.00     0.049 A 
ATOM    102  H   UNL A   1      48.252  25.870  30.385  1.00  0.00     0.167 HD
ATOM    103  C   UNL A   1      47.426  24.494  34.459  1.00  0.00     0.037 A 
ATOM    104  H   UNL A   1      44.617  24.430  34.367  1.00  0.00     0.065 H 
ATOM    105  H   UNL A   1      47.742  27.297  26.516  1.00  0.00     0.065 H 
ATOM    106  C   UNL A   1      49.878  26.888  28.357  1.00  0.00     0.037 A 
ATOM    107  C   UNL A   1      48.861  24.578  34.372  1.00  0.00     0.049 A 
ATOM    108  C   UNL A   1      50.796  26.542  29.496  1.00  0.00     0.074 A 
ATOM    109  C   UNL A   1      49.805  24.229  35.321  1.00  0.00    -0.036 A 
ATOM    110  N   UNL A   1      49.558  25.052  33.270  1.00  0.00    -0.354 N 
ATOM    111  N   UNL A   1      50.500  26.063  30.680  1.00  0.00    -0.248 NA
ATOM    112  C   UNL A   1      52.233  26.756  29.280  1.00  0.00    -0.034 C 
ATOM    113  C   UNL A   1      51.071  24.534  34.811  1.00  0.00    -0.036 A 
ATOM    114  H   UNL A   1      49.609  23.815  36.246  1.00  0.00     0.065 H 
ATOM    115  C   UNL A   1      50.919  25.028  33.525  1.00  0.00     0.049 A 
ATOM    116  H   UNL A   1      49.146  25.358  32.430  1.00  0.00     0.167 HD
ATOM    117  C   UNL A   1      51.709  25.900  31.341  1.00  0.00     0.074 A 
ATOM    118  C   UNL A   1      52.747  26.316  30.419  1.00  0.00    -0.034 C 
ATOM    119  H   UNL A   1      52.717  27.148  28.455  1.00  0.00     0.065 H 
ATOM    120  H   UNL A   1      51.968  24.412  35.309  1.00  0.00     0.065 H 
ATOM    121  C   UNL A   1      51.940  25.448  32.598  1.00  0.00     0.037 A 
ATOM    122  H   UNL A   1      53.757  26.274  30.624  1.00  0.00     0.065 H 
BRANCH 103 123
ATOM    123  C   UNL A   1      46.817  24.066  35.763  1.00  0.00     0.064 A 
ATOM    124  C   UNL A   1      46.464  24.994  36.754  1.00  0.00     0.173 A 
ATOM    125  C   UNL A   1      46.555  22.710  36.012  1.00  0.00     0.173 A 
ATOM    126  F   UNL A   1      46.702  26.301  36.569  1.00  0.00    -0.203 F 
ATOM    127  C   UNL A   1      45.902  24.579  37.958  1.00  0.00     0.198 A 
ATOM    128  C   UNL A   1      45.965  22.301  37.205  1.00  0.00     0.198 A 
ATOM    129  F   UNL A   1      46.865  21.781  35.095  1.00  0.00    -0.203 F 
ATOM    130  F   UNL A   1      45.622  25.479  38.911  1.00  0.00    -0.200 F 
ATOM    131  C   UNL A   1      45.647  23.234  38.181  1.00  0.00     0.200 A 
ATOM    132  F   UNL A   1      45.707  21.002  37.413  1.00  0.00    -0.200 F 
ATOM    133  F   UNL A   1      45.103  22.836  39.338  1.00  0.00    -0.200 F 
ENDBRANCH 103 123
BRANCH 106 134
ATOM    134  C   UNL A   1      50.409  27.451  27.089  1.00  0.00     0.064 A 
ATOM    135  C   UNL A   1      50.627  28.827  26.946  1.00  0.00     0.173 A 
ATOM    136  C   UNL A   1      50.727  26.622  26.003  1.00  0.00     0.173 A 
ATOM    137  F   UNL A   1      50.320  29.661  27.951  1.00  0.00    -0.203 F 
ATOM    138  C   UNL A   1      51.128  29.357  25.759  1.00  0.00     0.198 A 
ATOM    139  C   UNL A   1      51.253  27.149  24.826  1.00  0.00     0.198 A 
ATOM    140  F   UNL A   1      50.543  25.296  26.093  1.00  0.00    -0.203 F 
ATOM    141  F   UNL A   1      51.293  30.681  25.635  1.00  0.00    -0.200 F 
ATOM    142  C   UNL A   1      51.447  28.516  24.702  1.00  0.00     0.200 A 
ATOM    143  F   UNL A   1      51.575  26.333  23.814  1.00  0.00    -0.200 F 
ATOM    144  F   UNL A   1      51.939  29.025  23.564  1.00  0.00    -0.200 F 
ENDBRANCH 106 134
BRANCH 121 145
ATOM    145  C   UNL A   1      53.370  25.360  33.045  1.00  0.00     0.064 A 
ATOM    146  C   UNL A   1      54.105  24.173  32.922  1.00  0.00     0.173 A 
ATOM    147  C   UNL A   1      54.023  26.489  33.563  1.00  0.00     0.173 A 
ATOM    148  F   UNL A   1      53.521  23.063  32.447  1.00  0.00    -0.203 F 
ATOM    149  C   UNL A   1      55.438  24.113  33.323  1.00  0.00     0.198 A 
ATOM    150  C   UNL A   1      55.363  26.433  33.936  1.00  0.00     0.198 A 
ATOM    151  F   UNL A   1      53.364  27.651  33.695  1.00  0.00    -0.203 F 
ATOM    152  F   UNL A   1      56.109  22.956  33.238  1.00  0.00    -0.200 F 
ATOM    153  C   UNL A   1      56.067  25.244  33.822  1.00  0.00     0.200 A 
ATOM    154  F   UNL A   1      55.972  27.529  34.407  1.00  0.00    -0.200 F 
ATOM    155  F   UNL A   1      57.350  25.185  34.200  1.00  0.00    -0.200 F 
ENDBRANCH 121 145
ENDBRANCH  86  89
ENDBRANCH  76  79
ENDBRANCH  72  75
ENDBRANCH  69  72
ENDBRANCH  66  69
ENDBRANCH  63  66
ENDBRANCH  60  63
ENDBRANCH  57  60
ENDBRANCH   3  57
TORSDOF 25
ENDMDL
