MODEL 1
REMARK VINA RESULT:     -12.5      0.000      0.000
REMARK SMILES Nc1c(CC(=O)NCCCCCCNC(=O)c2ccc(-c3c4nc(c(-c5c(F)c(F)c(F)c(F)c5F)c5ccc([nH]5)c(-c5c(F)c(F)c(F)c(F)c5F)c5nc(c(-c6c(F)c(F)c(F)c(F)c6F)c6ccc3[nH]6)C=C5)C=C4)cc2)cccc1C(=O)c1ccc(Br)cc1
REMARK SMILES IDX 10 1 9 4 8 7 7 10 5 11 6 12 4 14 3 17 2 18 83 19 80 20 82 21
REMARK SMILES IDX 81 22 1 26 84 29 85 30 86 31 87 32 92 33 88 34 91 36 89 38
REMARK SMILES IDX 90 41 11 42 12 45 13 48 14 51 15 52 16 54 17 55 18 56 79 57
REMARK SMILES IDX 19 58 78 60 20 62 21 65 22 66 72 67 23 68 77 69 71 70 73 71
REMARK SMILES IDX 24 72 76 73 70 75 69 77 25 79 57 82 37 83 56 84 38 85 41 86
REMARK SMILES IDX 55 87 74 88 39 89 40 91 54 93 75 94 42 97 26 99 27 100
REMARK SMILES IDX 35 101 28 102 29 103 33 104 36 105 30 106 31 107 34 108
REMARK SMILES IDX 32 109 58 110 59 111 67 112 60 113 61 114 65 115 68 116
REMARK SMILES IDX 62 117 63 118 66 119 64 120 43 121 44 122 52 123 45 124
REMARK SMILES IDX 46 125 50 126 53 127 47 128 48 129 51 130 49 131
REMARK H PARENT 10 2 10 3 9 5 9 6 8 8 8 9 7 13 4 15 4 16 80 23 82 24 81 25
REMARK H PARENT 1 27 1 28 87 35 92 37 88 39 91 40 11 43 11 44 12 46 12 47
REMARK H PARENT 13 49 13 50 14 53 18 59 79 61 19 63 78 64 77 74 71 76 73 78
REMARK H PARENT 76 80 70 81 38 90 41 92 74 95 39 96 75 98
REMARK Flexibility Score: inf
ROOT
ATOM      1  C   UNL A   1      32.712  30.023  26.408  1.00  0.00    -0.052 C 
ATOM      2  H   UNL A   1      33.291  29.776  25.543  1.00  0.00     0.027 H 
ATOM      3  H   UNL A   1      33.251  30.610  27.123  1.00  0.00     0.027 H 
ENDROOT
BRANCH   1   4
ATOM      4  C   UNL A   1      32.334  28.717  27.119  1.00  0.00    -0.036 C 
ATOM      5  H   UNL A   1      33.230  28.168  27.320  1.00  0.00     0.028 H 
ATOM      6  H   UNL A   1      31.816  28.982  28.017  1.00  0.00     0.028 H 
BRANCH   4   7
ATOM      7  C   UNL A   1      31.395  27.834  26.296  1.00  0.00     0.017 C 
ATOM      8  H   UNL A   1      30.448  28.321  26.205  1.00  0.00     0.049 H 
ATOM      9  H   UNL A   1      31.833  27.681  25.332  1.00  0.00     0.049 H 
BRANCH   7  10
ATOM     10  N   UNL A   1      31.207  26.544  26.926  1.00  0.00    -0.356 N 
ATOM     11  C   UNL A   1      31.779  25.345  26.616  1.00  0.00     0.224 C 
ATOM     12  O   UNL A   1      31.376  24.340  27.207  1.00  0.00    -0.275 OA
ATOM     13  H   UNL A   1      30.578  26.531  27.682  1.00  0.00     0.163 HD
BRANCH  11  14
ATOM     14  C   UNL A   1      32.938  25.268  25.635  1.00  0.00     0.054 C 
ATOM     15  H   UNL A   1      32.831  26.068  24.933  1.00  0.00     0.042 H 
ATOM     16  H   UNL A   1      33.829  25.334  26.224  1.00  0.00     0.042 H 
BRANCH  14  17
ATOM     17  C   UNL A   1      33.041  23.968  24.856  1.00  0.00    -0.015 A 
ATOM     18  C   UNL A   1      33.785  22.847  25.321  1.00  0.00     0.046 A 
ATOM     19  C   UNL A   1      33.893  21.704  24.487  1.00  0.00     0.046 A 
ATOM     20  C   UNL A   1      32.397  23.916  23.606  1.00  0.00    -0.056 A 
ATOM     21  C   UNL A   1      33.243  21.699  23.236  1.00  0.00    -0.049 A 
ATOM     22  C   UNL A   1      32.497  22.790  22.801  1.00  0.00    -0.061 A 
ATOM     23  H   UNL A   1      31.842  24.724  23.284  1.00  0.00     0.063 H 
ATOM     24  H   UNL A   1      33.322  20.868  22.630  1.00  0.00     0.063 H 
ATOM     25  H   UNL A   1      32.023  22.762  21.885  1.00  0.00     0.062 H 
BRANCH  18  26
ATOM     26  N   UNL A   1      34.414  22.941  26.557  1.00  0.00    -0.398 N 
ATOM     27  H   UNL A   1      35.262  22.467  26.716  1.00  0.00     0.156 HD
ATOM     28  H   UNL A   1      34.011  23.483  27.275  1.00  0.00     0.156 HD
ENDBRANCH  18  26
BRANCH  19  29
ATOM     29  C   UNL A   1      34.697  20.466  24.776  1.00  0.00     0.195 C 
ATOM     30  O   UNL A   1      35.902  20.554  25.017  1.00  0.00    -0.289 OA
BRANCH  29  31
ATOM     31  C   UNL A   1      34.113  19.117  24.877  1.00  0.00     0.023 A 
ATOM     32  C   UNL A   1      34.831  18.052  24.317  1.00  0.00    -0.050 A 
ATOM     33  C   UNL A   1      32.907  18.883  25.545  1.00  0.00    -0.050 A 
ATOM     34  C   UNL A   1      34.383  16.743  24.492  1.00  0.00    -0.047 A 
ATOM     35  H   UNL A   1      35.691  18.236  23.776  1.00  0.00     0.063 H 
ATOM     36  C   UNL A   1      32.467  17.570  25.729  1.00  0.00    -0.047 A 
ATOM     37  H   UNL A   1      32.345  19.674  25.898  1.00  0.00     0.063 H 
ATOM     38  C   UNL A   1      33.214  16.507  25.214  1.00  0.00     0.018 A 
ATOM     39  H   UNL A   1      34.913  15.954  24.088  1.00  0.00     0.063 H 
ATOM     40  H   UNL A   1      31.593  17.384  26.246  1.00  0.00     0.063 H 
ATOM     41  Br  UNL A   1      32.648  14.729  25.518  1.00  0.00    -0.051 Br
ENDBRANCH  29  31
ENDBRANCH  19  29
ENDBRANCH  14  17
ENDBRANCH  11  14
ENDBRANCH   7  10
ENDBRANCH   4   7
ENDBRANCH   1   4
BRANCH   1  42
ATOM     42  C   UNL A   1      31.521  30.877  25.956  1.00  0.00    -0.052 C 
ATOM     43  H   UNL A   1      30.633  30.289  26.059  1.00  0.00     0.027 H 
ATOM     44  H   UNL A   1      31.724  31.165  24.947  1.00  0.00     0.027 H 
BRANCH  42  45
ATOM     45  C   UNL A   1      31.324  32.176  26.742  1.00  0.00    -0.036 C 
ATOM     46  H   UNL A   1      30.725  31.960  27.601  1.00  0.00     0.028 H 
ATOM     47  H   UNL A   1      30.859  32.870  26.074  1.00  0.00     0.028 H 
BRANCH  45  48
ATOM     48  C   UNL A   1      32.620  32.825  27.215  1.00  0.00     0.018 C 
ATOM     49  H   UNL A   1      33.338  32.785  26.424  1.00  0.00     0.049 H 
ATOM     50  H   UNL A   1      32.964  32.291  28.076  1.00  0.00     0.049 H 
BRANCH  48  51
ATOM     51  N   UNL A   1      32.421  34.215  27.599  1.00  0.00    -0.352 N 
ATOM     52  C   UNL A   1      33.008  34.934  28.605  1.00  0.00     0.251 C 
ATOM     53  H   UNL A   1      31.767  34.712  27.055  1.00  0.00     0.163 HD
ATOM     54  O   UNL A   1      32.561  36.038  28.921  1.00  0.00    -0.269 OA
BRANCH  52  55
ATOM     55  C   UNL A   1      34.172  34.383  29.326  1.00  0.00     0.039 A 
ATOM     56  C   UNL A   1      33.957  33.620  30.477  1.00  0.00    -0.049 A 
ATOM     57  C   UNL A   1      35.473  34.634  28.880  1.00  0.00    -0.049 A 
ATOM     58  C   UNL A   1      35.045  33.062  31.150  1.00  0.00    -0.053 A 
ATOM     59  H   UNL A   1      32.999  33.471  30.827  1.00  0.00     0.063 H 
ATOM     60  C   UNL A   1      36.552  34.018  29.510  1.00  0.00    -0.053 A 
ATOM     61  H   UNL A   1      35.634  35.274  28.087  1.00  0.00     0.063 H 
ATOM     62  C   UNL A   1      36.348  33.231  30.654  1.00  0.00    -0.014 A 
ATOM     63  H   UNL A   1      34.892  32.523  32.016  1.00  0.00     0.063 H 
ATOM     64  H   UNL A   1      37.504  34.140  29.132  1.00  0.00     0.063 H 
BRANCH  62  65
ATOM     65  C   UNL A   1      37.513  32.599  31.321  1.00  0.00     0.031 A 
ATOM     66  C   UNL A   1      38.247  31.472  30.651  1.00  0.00     0.074 A 
ATOM     67  C   UNL A   1      37.871  32.999  32.557  1.00  0.00     0.049 A 
ATOM     68  N   UNL A   1      39.240  30.746  31.101  1.00  0.00    -0.248 NA
ATOM     69  C   UNL A   1      37.787  31.091  29.306  1.00  0.00    -0.034 C 
ATOM     70  C   UNL A   1      37.210  34.053  33.327  1.00  0.00    -0.036 A 
ATOM     71  N   UNL A   1      38.870  32.557  33.387  1.00  0.00    -0.354 N 
ATOM     72  C   UNL A   1      39.511  29.818  30.103  1.00  0.00     0.074 A 
ATOM     73  C   UNL A   1      38.545  30.036  29.049  1.00  0.00    -0.034 C 
ATOM     74  H   UNL A   1      37.062  31.532  28.718  1.00  0.00     0.065 H 
ATOM     75  C   UNL A   1      37.835  34.193  34.507  1.00  0.00    -0.036 A 
ATOM     76  H   UNL A   1      36.395  34.602  33.013  1.00  0.00     0.065 H 
ATOM     77  C   UNL A   1      38.913  33.212  34.593  1.00  0.00     0.049 A 
ATOM     78  H   UNL A   1      39.498  31.839  33.140  1.00  0.00     0.167 HD
ATOM     79  C   UNL A   1      40.492  28.885  30.061  1.00  0.00     0.037 A 
ATOM     80  H   UNL A   1      38.458  29.446  28.206  1.00  0.00     0.065 H 
ATOM     81  H   UNL A   1      37.592  34.882  35.236  1.00  0.00     0.065 H 
ATOM     82  C   UNL A   1      39.724  33.033  35.653  1.00  0.00     0.037 A 
ATOM     83  C   UNL A   1      41.465  28.687  31.103  1.00  0.00     0.049 A 
ATOM     84  C   UNL A   1      40.797  31.980  35.586  1.00  0.00     0.074 A 
ATOM     85  C   UNL A   1      42.534  27.808  31.132  1.00  0.00    -0.036 A 
ATOM     86  N   UNL A   1      41.484  29.378  32.307  1.00  0.00    -0.354 N 
ATOM     87  N   UNL A   1      41.088  31.155  34.610  1.00  0.00    -0.248 NA
ATOM     88  C   UNL A   1      41.660  31.838  36.768  1.00  0.00    -0.034 C 
ATOM     89  C   UNL A   1      43.169  27.931  32.372  1.00  0.00    -0.036 A 
ATOM     90  H   UNL A   1      42.813  27.171  30.369  1.00  0.00     0.065 H 
ATOM     91  C   UNL A   1      42.531  28.926  33.095  1.00  0.00     0.049 A 
ATOM     92  H   UNL A   1      40.847  30.083  32.563  1.00  0.00     0.167 HD
ATOM     93  C   UNL A   1      42.181  30.418  35.045  1.00  0.00     0.074 A 
ATOM     94  C   UNL A   1      42.512  30.905  36.369  1.00  0.00    -0.034 C 
ATOM     95  H   UNL A   1      41.613  32.335  37.671  1.00  0.00     0.065 H 
ATOM     96  H   UNL A   1      43.976  27.375  32.694  1.00  0.00     0.065 H 
ATOM     97  C   UNL A   1      42.851  29.427  34.407  1.00  0.00     0.037 A 
ATOM     98  H   UNL A   1      43.310  30.570  36.930  1.00  0.00     0.065 H 
BRANCH  79  99
ATOM     99  C   UNL A   1      40.564  28.008  28.844  1.00  0.00     0.064 A 
ATOM    100  C   UNL A   1      39.833  26.813  28.753  1.00  0.00     0.173 A 
ATOM    101  C   UNL A   1      41.345  28.383  27.740  1.00  0.00     0.173 A 
ATOM    102  F   UNL A   1      39.078  26.404  29.784  1.00  0.00    -0.203 F 
ATOM    103  C   UNL A   1      39.907  26.011  27.618  1.00  0.00     0.198 A 
ATOM    104  C   UNL A   1      41.392  27.594  26.593  1.00  0.00     0.198 A 
ATOM    105  F   UNL A   1      42.059  29.519  27.769  1.00  0.00    -0.203 F 
ATOM    106  F   UNL A   1      39.242  24.849  27.576  1.00  0.00    -0.200 F 
ATOM    107  C   UNL A   1      40.680  26.405  26.536  1.00  0.00     0.200 A 
ATOM    108  F   UNL A   1      42.127  27.984  25.543  1.00  0.00    -0.200 F 
ATOM    109  F   UNL A   1      40.745  25.636  25.441  1.00  0.00    -0.200 F 
ENDBRANCH  79  99
BRANCH  82 110
ATOM    110  C   UNL A   1      39.568  33.886  36.861  1.00  0.00     0.064 A 
ATOM    111  C   UNL A   1      38.811  33.449  37.957  1.00  0.00     0.173 A 
ATOM    112  C   UNL A   1      40.165  35.152  36.943  1.00  0.00     0.173 A 
ATOM    113  F   UNL A   1      38.204  32.253  37.917  1.00  0.00    -0.203 F 
ATOM    114  C   UNL A   1      38.637  34.255  39.079  1.00  0.00     0.198 A 
ATOM    115  C   UNL A   1      40.014  35.945  38.080  1.00  0.00     0.198 A 
ATOM    116  F   UNL A   1      40.905  35.615  35.926  1.00  0.00    -0.203 F 
ATOM    117  F   UNL A   1      37.868  33.831  40.092  1.00  0.00    -0.200 F 
ATOM    118  C   UNL A   1      39.243  35.500  39.143  1.00  0.00     0.200 A 
ATOM    119  F   UNL A   1      40.617  37.141  38.143  1.00  0.00    -0.200 F 
ATOM    120  F   UNL A   1      39.080  36.273  40.225  1.00  0.00    -0.200 F 
ENDBRANCH  82 110
BRANCH  97 121
ATOM    121  C   UNL A   1      44.033  28.830  35.114  1.00  0.00     0.064 A 
ATOM    122  C   UNL A   1      45.326  29.348  34.956  1.00  0.00     0.173 A 
ATOM    123  C   UNL A   1      43.861  27.750  35.994  1.00  0.00     0.173 A 
ATOM    124  F   UNL A   1      45.546  30.370  34.115  1.00  0.00    -0.203 F 
ATOM    125  C   UNL A   1      46.409  28.789  35.630  1.00  0.00     0.198 A 
ATOM    126  C   UNL A   1      44.940  27.214  36.691  1.00  0.00     0.198 A 
ATOM    127  F   UNL A   1      42.643  27.221  36.187  1.00  0.00    -0.203 F 
ATOM    128  F   UNL A   1      47.643  29.268  35.425  1.00  0.00    -0.200 F 
ATOM    129  C   UNL A   1      46.215  27.729  36.504  1.00  0.00     0.200 A 
ATOM    130  F   UNL A   1      44.747  26.199  37.545  1.00  0.00    -0.200 F 
ATOM    131  F   UNL A   1      47.256  27.198  37.158  1.00  0.00    -0.200 F 
ENDBRANCH  97 121
ENDBRANCH  62  65
ENDBRANCH  52  55
ENDBRANCH  48  51
ENDBRANCH  45  48
ENDBRANCH  42  45
ENDBRANCH   1  42
TORSDOF 17
ENDMDL
MODEL 2
REMARK VINA RESULT:     -12.3      1.103      7.476
REMARK SMILES Nc1c(CC(=O)NCCCCCCNC(=O)c2ccc(-c3c4nc(c(-c5c(F)c(F)c(F)c(F)c5F)c5ccc([nH]5)c(-c5c(F)c(F)c(F)c(F)c5F)c5nc(c(-c6c(F)c(F)c(F)c(F)c6F)c6ccc3[nH]6)C=C5)C=C4)cc2)cccc1C(=O)c1ccc(Br)cc1
REMARK SMILES IDX 10 1 9 4 8 7 7 10 5 11 6 12 4 14 3 17 2 18 83 19 80 20 82 21
REMARK SMILES IDX 81 22 1 26 84 29 85 30 86 31 87 32 92 33 88 34 91 36 89 38
REMARK SMILES IDX 90 41 11 42 12 45 13 48 14 51 15 52 16 54 17 55 18 56 79 57
REMARK SMILES IDX 19 58 78 60 20 62 21 65 22 66 72 67 23 68 77 69 71 70 73 71
REMARK SMILES IDX 24 72 76 73 70 75 69 77 25 79 57 82 37 83 56 84 38 85 41 86
REMARK SMILES IDX 55 87 74 88 39 89 40 91 54 93 75 94 42 97 26 99 27 100
REMARK SMILES IDX 35 101 28 102 29 103 33 104 36 105 30 106 31 107 34 108
REMARK SMILES IDX 32 109 58 110 59 111 67 112 60 113 61 114 65 115 68 116
REMARK SMILES IDX 62 117 63 118 66 119 64 120 43 121 44 122 52 123 45 124
REMARK SMILES IDX 46 125 50 126 53 127 47 128 48 129 51 130 49 131
REMARK H PARENT 10 2 10 3 9 5 9 6 8 8 8 9 7 13 4 15 4 16 80 23 82 24 81 25
REMARK H PARENT 1 27 1 28 87 35 92 37 88 39 91 40 11 43 11 44 12 46 12 47
REMARK H PARENT 13 49 13 50 14 53 18 59 79 61 19 63 78 64 77 74 71 76 73 78
REMARK H PARENT 76 80 70 81 38 90 41 92 74 95 39 96 75 98
REMARK Flexibility Score: inf
ROOT
ATOM      1  C   UNL A   1      32.358  30.169  26.688  1.00  0.00    -0.052 C 
ATOM      2  H   UNL A   1      33.066  29.824  25.964  1.00  0.00     0.027 H 
ATOM      3  H   UNL A   1      32.801  30.758  27.464  1.00  0.00     0.027 H 
ENDROOT
BRANCH   1   4
ATOM      4  C   UNL A   1      31.740  28.944  27.373  1.00  0.00    -0.036 C 
ATOM      5  H   UNL A   1      31.860  29.050  28.432  1.00  0.00     0.028 H 
ATOM      6  H   UNL A   1      30.709  28.905  27.088  1.00  0.00     0.028 H 
BRANCH   4   7
ATOM      7  C   UNL A   1      32.381  27.625  26.941  1.00  0.00     0.017 C 
ATOM      8  H   UNL A   1      32.736  27.722  25.937  1.00  0.00     0.049 H 
ATOM      9  H   UNL A   1      33.191  27.408  27.607  1.00  0.00     0.049 H 
BRANCH   7  10
ATOM     10  N   UNL A   1      31.429  26.536  27.004  1.00  0.00    -0.356 N 
ATOM     11  C   UNL A   1      30.942  25.761  25.993  1.00  0.00     0.224 C 
ATOM     12  O   UNL A   1      30.036  24.967  26.254  1.00  0.00    -0.275 OA
ATOM     13  H   UNL A   1      31.085  26.327  27.902  1.00  0.00     0.163 HD
BRANCH  11  14
ATOM     14  C   UNL A   1      31.561  25.817  24.605  1.00  0.00     0.054 C 
ATOM     15  H   UNL A   1      30.769  25.918  23.893  1.00  0.00     0.042 H 
ATOM     16  H   UNL A   1      32.235  26.648  24.614  1.00  0.00     0.042 H 
BRANCH  14  17
ATOM     17  C   UNL A   1      32.390  24.604  24.217  1.00  0.00    -0.015 A 
ATOM     18  C   UNL A   1      31.831  23.457  23.586  1.00  0.00     0.046 A 
ATOM     19  C   UNL A   1      32.667  22.338  23.335  1.00  0.00     0.046 A 
ATOM     20  C   UNL A   1      33.758  24.630  24.545  1.00  0.00    -0.056 A 
ATOM     21  C   UNL A   1      34.029  22.401  23.692  1.00  0.00    -0.049 A 
ATOM     22  C   UNL A   1      34.572  23.537  24.286  1.00  0.00    -0.061 A 
ATOM     23  H   UNL A   1      34.162  25.472  24.983  1.00  0.00     0.063 H 
ATOM     24  H   UNL A   1      34.636  21.588  23.510  1.00  0.00     0.063 H 
ATOM     25  H   UNL A   1      35.573  23.564  24.532  1.00  0.00     0.062 H 
BRANCH  18  26
ATOM     26  N   UNL A   1      30.473  23.468  23.285  1.00  0.00    -0.398 N 
ATOM     27  H   UNL A   1      29.813  23.242  23.981  1.00  0.00     0.156 HD
ATOM     28  H   UNL A   1      30.171  23.700  22.377  1.00  0.00     0.156 HD
ENDBRANCH  18  26
BRANCH  19  29
ATOM     29  C   UNL A   1      32.236  21.020  22.753  1.00  0.00     0.195 C 
ATOM     30  O   UNL A   1      31.689  20.981  21.650  1.00  0.00    -0.289 OA
BRANCH  29  31
ATOM     31  C   UNL A   1      32.501  19.719  23.391  1.00  0.00     0.023 A 
ATOM     32  C   UNL A   1      32.472  19.661  24.791  1.00  0.00    -0.050 A 
ATOM     33  C   UNL A   1      32.732  18.562  22.640  1.00  0.00    -0.050 A 
ATOM     34  C   UNL A   1      32.595  18.432  25.439  1.00  0.00    -0.047 A 
ATOM     35  H   UNL A   1      32.359  20.527  25.342  1.00  0.00     0.063 H 
ATOM     36  C   UNL A   1      32.843  17.330  23.292  1.00  0.00    -0.047 A 
ATOM     37  H   UNL A   1      32.821  18.617  21.614  1.00  0.00     0.063 H 
ATOM     38  C   UNL A   1      32.760  17.271  24.686  1.00  0.00     0.018 A 
ATOM     39  H   UNL A   1      32.565  18.383  26.470  1.00  0.00     0.063 H 
ATOM     40  H   UNL A   1      32.984  16.467  22.745  1.00  0.00     0.063 H 
ATOM     41  Br  UNL A   1      32.849  15.597  25.559  1.00  0.00    -0.051 Br
ENDBRANCH  29  31
ENDBRANCH  19  29
ENDBRANCH  14  17
ENDBRANCH  11  14
ENDBRANCH   7  10
ENDBRANCH   4   7
ENDBRANCH   1   4
BRANCH   1  42
ATOM     42  C   UNL A   1      31.352  31.081  25.974  1.00  0.00    -0.052 C 
ATOM     43  H   UNL A   1      30.383  30.635  26.055  1.00  0.00     0.027 H 
ATOM     44  H   UNL A   1      31.693  31.173  24.965  1.00  0.00     0.027 H 
BRANCH  42  45
ATOM     45  C   UNL A   1      31.267  32.506  26.530  1.00  0.00    -0.036 C 
ATOM     46  H   UNL A   1      30.446  32.550  27.214  1.00  0.00     0.028 H 
ATOM     47  H   UNL A   1      31.143  33.155  25.688  1.00  0.00     0.028 H 
BRANCH  45  48
ATOM     48  C   UNL A   1      32.522  32.970  27.260  1.00  0.00     0.018 C 
ATOM     49  H   UNL A   1      33.355  32.909  26.592  1.00  0.00     0.049 H 
ATOM     50  H   UNL A   1      32.664  32.338  28.112  1.00  0.00     0.049 H 
BRANCH  48  51
ATOM     51  N   UNL A   1      32.397  34.342  27.732  1.00  0.00    -0.352 N 
ATOM     52  C   UNL A   1      33.046  34.971  28.761  1.00  0.00     0.251 C 
ATOM     53  H   UNL A   1      31.752  34.899  27.239  1.00  0.00     0.163 HD
ATOM     54  O   UNL A   1      32.658  36.072  29.156  1.00  0.00    -0.269 OA
BRANCH  52  55
ATOM     55  C   UNL A   1      34.203  34.326  29.412  1.00  0.00     0.039 A 
ATOM     56  C   UNL A   1      33.982  33.471  30.494  1.00  0.00    -0.049 A 
ATOM     57  C   UNL A   1      35.504  34.579  28.968  1.00  0.00    -0.049 A 
ATOM     58  C   UNL A   1      35.063  32.826  31.098  1.00  0.00    -0.053 A 
ATOM     59  H   UNL A   1      33.025  33.318  30.846  1.00  0.00     0.063 H 
ATOM     60  C   UNL A   1      36.573  33.879  29.522  1.00  0.00    -0.053 A 
ATOM     61  H   UNL A   1      35.673  35.281  28.231  1.00  0.00     0.063 H 
ATOM     62  C   UNL A   1      36.363  33.001  30.596  1.00  0.00    -0.014 A 
ATOM     63  H   UNL A   1      34.905  32.216  31.915  1.00  0.00     0.063 H 
ATOM     64  H   UNL A   1      37.523  34.008  29.141  1.00  0.00     0.063 H 
BRANCH  62  65
ATOM     65  C   UNL A   1      37.518  32.280  31.186  1.00  0.00     0.031 A 
ATOM     66  C   UNL A   1      38.037  32.668  32.542  1.00  0.00     0.074 A 
ATOM     67  C   UNL A   1      38.137  31.319  30.474  1.00  0.00     0.049 A 
ATOM     68  N   UNL A   1      39.075  32.208  33.195  1.00  0.00    -0.248 NA
ATOM     69  C   UNL A   1      37.308  33.733  33.249  1.00  0.00    -0.034 C 
ATOM     70  C   UNL A   1      37.753  30.882  29.132  1.00  0.00    -0.036 A 
ATOM     71  N   UNL A   1      39.228  30.543  30.776  1.00  0.00    -0.354 N 
ATOM     72  C   UNL A   1      39.131  32.936  34.377  1.00  0.00     0.074 A 
ATOM     73  C   UNL A   1      38.057  33.904  34.328  1.00  0.00    -0.034 C 
ATOM     74  H   UNL A   1      36.441  34.220  32.973  1.00  0.00     0.065 H 
ATOM     75  C   UNL A   1      38.581  29.903  28.734  1.00  0.00    -0.036 A 
ATOM     76  H   UNL A   1      36.971  31.266  28.578  1.00  0.00     0.065 H 
ATOM     77  C   UNL A   1      39.577  29.670  29.775  1.00  0.00     0.049 A 
ATOM     78  H   UNL A   1      39.715  30.607  31.630  1.00  0.00     0.167 HD
ATOM     79  C   UNL A   1      39.985  32.794  35.417  1.00  0.00     0.037 A 
ATOM     80  H   UNL A   1      37.894  34.632  35.041  1.00  0.00     0.065 H 
ATOM     81  H   UNL A   1      38.522  29.397  27.837  1.00  0.00     0.065 H 
ATOM     82  C   UNL A   1      40.592  28.789  29.703  1.00  0.00     0.037 A 
ATOM     83  C   UNL A   1      41.039  31.815  35.470  1.00  0.00     0.049 A 
ATOM     84  C   UNL A   1      41.537  28.660  30.867  1.00  0.00     0.074 A 
ATOM     85  C   UNL A   1      41.923  31.551  36.502  1.00  0.00    -0.036 A 
ATOM     86  N   UNL A   1      41.355  30.939  34.441  1.00  0.00    -0.354 N 
ATOM     87  N   UNL A   1      41.538  29.306  32.008  1.00  0.00    -0.248 NA
ATOM     88  C   UNL A   1      42.618  27.673  30.736  1.00  0.00    -0.034 C 
ATOM     89  C   UNL A   1      42.804  30.550  36.080  1.00  0.00    -0.036 A 
ATOM     90  H   UNL A   1      41.930  32.014  37.425  1.00  0.00     0.065 H 
ATOM     91  C   UNL A   1      42.436  30.151  34.805  1.00  0.00     0.049 A 
ATOM     92  H   UNL A   1      40.882  30.886  33.579  1.00  0.00     0.167 HD
ATOM     93  C   UNL A   1      42.596  28.786  32.740  1.00  0.00     0.074 A 
ATOM     94  C   UNL A   1      43.207  27.759  31.920  1.00  0.00    -0.034 C 
ATOM     95  H   UNL A   1      42.857  27.072  29.932  1.00  0.00     0.065 H 
ATOM     96  H   UNL A   1      43.595  30.173  36.625  1.00  0.00     0.065 H 
ATOM     97  C   UNL A   1      43.026  29.128  33.980  1.00  0.00     0.037 A 
ATOM     98  H   UNL A   1      43.998  27.169  32.220  1.00  0.00     0.065 H 
BRANCH  79  99
ATOM     99  C   UNL A   1      39.814  33.719  36.588  1.00  0.00     0.064 A 
ATOM    100  C   UNL A   1      40.472  34.957  36.651  1.00  0.00     0.173 A 
ATOM    101  C   UNL A   1      38.954  33.380  37.644  1.00  0.00     0.173 A 
ATOM    102  F   UNL A   1      41.313  35.325  35.672  1.00  0.00    -0.203 F 
ATOM    103  C   UNL A   1      40.302  35.806  37.741  1.00  0.00     0.198 A 
ATOM    104  C   UNL A   1      38.761  34.246  38.718  1.00  0.00     0.198 A 
ATOM    105  F   UNL A   1      38.294  32.213  37.632  1.00  0.00    -0.203 F 
ATOM    106  F   UNL A   1      40.981  36.959  37.803  1.00  0.00    -0.200 F 
ATOM    107  C   UNL A   1      39.441  35.454  38.770  1.00  0.00     0.200 A 
ATOM    108  F   UNL A   1      37.918  33.911  39.704  1.00  0.00    -0.200 F 
ATOM    109  F   UNL A   1      39.273  36.275  39.815  1.00  0.00    -0.200 F 
ENDBRANCH  79  99
BRANCH  82 110
ATOM    110  C   UNL A   1      40.756  27.941  28.492  1.00  0.00     0.064 A 
ATOM    111  C   UNL A   1      41.520  28.384  27.403  1.00  0.00     0.173 A 
ATOM    112  C   UNL A   1      40.150  26.681  28.395  1.00  0.00     0.173 A 
ATOM    113  F   UNL A   1      42.103  29.592  27.441  1.00  0.00    -0.203 F 
ATOM    114  C   UNL A   1      41.654  27.608  26.254  1.00  0.00     0.198 A 
ATOM    115  C   UNL A   1      40.310  25.892  27.256  1.00  0.00     0.198 A 
ATOM    116  F   UNL A   1      39.415  26.207  29.411  1.00  0.00    -0.203 F 
ATOM    117  F   UNL A   1      42.351  28.076  25.210  1.00  0.00    -0.200 F 
ATOM    118  C   UNL A   1      41.054  26.360  26.184  1.00  0.00     0.200 A 
ATOM    119  F   UNL A   1      39.741  24.679  27.199  1.00  0.00    -0.200 F 
ATOM    120  F   UNL A   1      41.186  25.612  25.080  1.00  0.00    -0.200 F 
ENDBRANCH  82 110
BRANCH  97 121
ATOM    121  C   UNL A   1      44.187  28.360  34.542  1.00  0.00     0.064 A 
ATOM    122  C   UNL A   1      44.006  27.158  35.243  1.00  0.00     0.173 A 
ATOM    123  C   UNL A   1      45.500  28.812  34.341  1.00  0.00     0.173 A 
ATOM    124  F   UNL A   1      42.770  26.691  35.475  1.00  0.00    -0.203 F 
ATOM    125  C   UNL A   1      45.096  26.452  35.746  1.00  0.00     0.198 A 
ATOM    126  C   UNL A   1      46.589  28.087  34.817  1.00  0.00     0.198 A 
ATOM    127  F   UNL A   1      45.728  29.952  33.671  1.00  0.00    -0.203 F 
ATOM    128  F   UNL A   1      44.897  25.333  36.455  1.00  0.00    -0.200 F 
ATOM    129  C   UNL A   1      46.386  26.912  35.525  1.00  0.00     0.200 A 
ATOM    130  F   UNL A   1      47.835  28.526  34.591  1.00  0.00    -0.200 F 
ATOM    131  F   UNL A   1      47.434  26.227  36.003  1.00  0.00    -0.200 F 
ENDBRANCH  97 121
ENDBRANCH  62  65
ENDBRANCH  52  55
ENDBRANCH  48  51
ENDBRANCH  45  48
ENDBRANCH  42  45
ENDBRANCH   1  42
TORSDOF 17
ENDMDL
MODEL 3
REMARK VINA RESULT:     -12.2      4.028      7.554
REMARK SMILES Nc1c(CC(=O)NCCCCCCNC(=O)c2ccc(-c3c4nc(c(-c5c(F)c(F)c(F)c(F)c5F)c5ccc([nH]5)c(-c5c(F)c(F)c(F)c(F)c5F)c5nc(c(-c6c(F)c(F)c(F)c(F)c6F)c6ccc3[nH]6)C=C5)C=C4)cc2)cccc1C(=O)c1ccc(Br)cc1
REMARK SMILES IDX 10 1 9 4 8 7 7 10 5 11 6 12 4 14 3 17 2 18 83 19 80 20 82 21
REMARK SMILES IDX 81 22 1 26 84 29 85 30 86 31 87 32 92 33 88 34 91 36 89 38
REMARK SMILES IDX 90 41 11 42 12 45 13 48 14 51 15 52 16 54 17 55 18 56 79 57
REMARK SMILES IDX 19 58 78 60 20 62 21 65 22 66 72 67 23 68 77 69 71 70 73 71
REMARK SMILES IDX 24 72 76 73 70 75 69 77 25 79 57 82 37 83 56 84 38 85 41 86
REMARK SMILES IDX 55 87 74 88 39 89 40 91 54 93 75 94 42 97 26 99 27 100
REMARK SMILES IDX 35 101 28 102 29 103 33 104 36 105 30 106 31 107 34 108
REMARK SMILES IDX 32 109 58 110 59 111 67 112 60 113 61 114 65 115 68 116
REMARK SMILES IDX 62 117 63 118 66 119 64 120 43 121 44 122 52 123 45 124
REMARK SMILES IDX 46 125 50 126 53 127 47 128 48 129 51 130 49 131
REMARK H PARENT 10 2 10 3 9 5 9 6 8 8 8 9 7 13 4 15 4 16 80 23 82 24 81 25
REMARK H PARENT 1 27 1 28 87 35 92 37 88 39 91 40 11 43 11 44 12 46 12 47
REMARK H PARENT 13 49 13 50 14 53 18 59 79 61 19 63 78 64 77 74 71 76 73 78
REMARK H PARENT 76 80 70 81 38 90 41 92 74 95 39 96 75 98
REMARK Flexibility Score: inf
ROOT
ATOM      1  C   UNL A   1      33.888  25.780  25.782  1.00  0.00    -0.052 C 
ATOM      2  H   UNL A   1      32.933  25.339  25.977  1.00  0.00     0.027 H 
ATOM      3  H   UNL A   1      34.479  25.914  26.665  1.00  0.00     0.027 H 
ENDROOT
BRANCH   1   4
ATOM      4  C   UNL A   1      33.658  27.180  25.200  1.00  0.00    -0.036 C 
ATOM      5  H   UNL A   1      34.334  27.861  25.674  1.00  0.00     0.028 H 
ATOM      6  H   UNL A   1      33.826  27.117  24.145  1.00  0.00     0.028 H 
BRANCH   4   7
ATOM      7  C   UNL A   1      32.231  27.689  25.404  1.00  0.00     0.017 C 
ATOM      8  H   UNL A   1      31.651  26.925  25.877  1.00  0.00     0.049 H 
ATOM      9  H   UNL A   1      32.268  28.566  26.016  1.00  0.00     0.049 H 
BRANCH   7  10
ATOM     10  N   UNL A   1      31.615  28.037  24.140  1.00  0.00    -0.356 N 
ATOM     11  C   UNL A   1      30.558  27.448  23.509  1.00  0.00     0.224 C 
ATOM     12  O   UNL A   1      30.277  27.829  22.370  1.00  0.00    -0.275 OA
ATOM     13  H   UNL A   1      32.015  28.803  23.671  1.00  0.00     0.163 HD
BRANCH  11  14
ATOM     14  C   UNL A   1      29.703  26.416  24.226  1.00  0.00     0.054 C 
ATOM     15  H   UNL A   1      29.323  26.863  25.120  1.00  0.00     0.042 H 
ATOM     16  H   UNL A   1      28.938  26.132  23.533  1.00  0.00     0.042 H 
BRANCH  14  17
ATOM     17  C   UNL A   1      30.421  25.133  24.610  1.00  0.00    -0.015 A 
ATOM     18  C   UNL A   1      31.180  24.367  23.680  1.00  0.00     0.046 A 
ATOM     19  C   UNL A   1      31.749  23.139  24.109  1.00  0.00     0.046 A 
ATOM     20  C   UNL A   1      30.278  24.689  25.937  1.00  0.00    -0.056 A 
ATOM     21  C   UNL A   1      31.569  22.725  25.445  1.00  0.00    -0.049 A 
ATOM     22  C   UNL A   1      30.846  23.494  26.352  1.00  0.00    -0.061 A 
ATOM     23  H   UNL A   1      29.744  25.260  26.611  1.00  0.00     0.063 H 
ATOM     24  H   UNL A   1      31.982  21.833  25.756  1.00  0.00     0.063 H 
ATOM     25  H   UNL A   1      30.734  23.176  27.327  1.00  0.00     0.062 H 
BRANCH  18  26
ATOM     26  N   UNL A   1      31.292  24.835  22.376  1.00  0.00    -0.398 N 
ATOM     27  H   UNL A   1      32.050  24.553  21.814  1.00  0.00     0.156 HD
ATOM     28  H   UNL A   1      30.612  25.449  22.013  1.00  0.00     0.156 HD
ENDBRANCH  18  26
BRANCH  19  29
ATOM     29  C   UNL A   1      32.510  22.165  23.252  1.00  0.00     0.195 C 
ATOM     30  O   UNL A   1      32.903  22.502  22.135  1.00  0.00    -0.289 OA
BRANCH  29  31
ATOM     31  C   UNL A   1      32.903  20.817  23.699  1.00  0.00     0.023 A 
ATOM     32  C   UNL A   1      32.153  19.730  23.230  1.00  0.00    -0.050 A 
ATOM     33  C   UNL A   1      34.012  20.608  24.525  1.00  0.00    -0.050 A 
ATOM     34  C   UNL A   1      32.558  18.428  23.524  1.00  0.00    -0.047 A 
ATOM     35  H   UNL A   1      31.303  19.893  22.669  1.00  0.00     0.063 H 
ATOM     36  C   UNL A   1      34.422  19.302  24.807  1.00  0.00    -0.047 A 
ATOM     37  H   UNL A   1      34.523  21.411  24.924  1.00  0.00     0.063 H 
ATOM     38  C   UNL A   1      33.701  18.220  24.294  1.00  0.00     0.018 A 
ATOM     39  H   UNL A   1      32.014  17.624  23.174  1.00  0.00     0.063 H 
ATOM     40  H   UNL A   1      35.256  19.137  25.392  1.00  0.00     0.063 H 
ATOM     41  Br  UNL A   1      34.294  16.456  24.627  1.00  0.00    -0.051 Br
ENDBRANCH  29  31
ENDBRANCH  19  29
ENDBRANCH  14  17
ENDBRANCH  11  14
ENDBRANCH   7  10
ENDBRANCH   4   7
ENDBRANCH   1   4
BRANCH   1  42
ATOM     42  C   UNL A   1      34.677  24.828  24.875  1.00  0.00    -0.052 C 
ATOM     43  H   UNL A   1      35.178  25.415  24.133  1.00  0.00     0.027 H 
ATOM     44  H   UNL A   1      33.964  24.145  24.464  1.00  0.00     0.027 H 
BRANCH  42  45
ATOM     45  C   UNL A   1      35.726  23.974  25.592  1.00  0.00    -0.036 C 
ATOM     46  H   UNL A   1      35.279  23.034  25.840  1.00  0.00     0.028 H 
ATOM     47  H   UNL A   1      36.035  24.528  26.453  1.00  0.00     0.028 H 
BRANCH  45  48
ATOM     48  C   UNL A   1      36.982  23.703  24.772  1.00  0.00     0.018 C 
ATOM     49  H   UNL A   1      37.551  24.606  24.699  1.00  0.00     0.049 H 
ATOM     50  H   UNL A   1      36.680  23.359  23.805  1.00  0.00     0.049 H 
BRANCH  48  51
ATOM     51  N   UNL A   1      37.812  22.671  25.377  1.00  0.00    -0.352 N 
ATOM     52  C   UNL A   1      38.922  22.800  26.169  1.00  0.00     0.251 C 
ATOM     53  H   UNL A   1      37.535  21.745  25.190  1.00  0.00     0.163 HD
ATOM     54  O   UNL A   1      39.624  21.818  26.415  1.00  0.00    -0.269 OA
BRANCH  52  55
ATOM     55  C   UNL A   1      39.290  24.119  26.721  1.00  0.00     0.039 A 
ATOM     56  C   UNL A   1      38.903  24.440  28.024  1.00  0.00    -0.049 A 
ATOM     57  C   UNL A   1      39.998  25.043  25.948  1.00  0.00    -0.049 A 
ATOM     58  C   UNL A   1      39.275  25.669  28.573  1.00  0.00    -0.053 A 
ATOM     59  H   UNL A   1      38.346  23.773  28.579  1.00  0.00     0.063 H 
ATOM     60  C   UNL A   1      40.430  26.237  26.519  1.00  0.00    -0.053 A 
ATOM     61  H   UNL A   1      40.201  24.842  24.956  1.00  0.00     0.063 H 
ATOM     62  C   UNL A   1      40.067  26.564  27.835  1.00  0.00    -0.014 A 
ATOM     63  H   UNL A   1      38.967  25.921  29.524  1.00  0.00     0.063 H 
ATOM     64  H   UNL A   1      41.019  26.884  25.973  1.00  0.00     0.063 H 
BRANCH  62  65
ATOM     65  C   UNL A   1      40.521  27.850  28.419  1.00  0.00     0.031 A 
ATOM     66  C   UNL A   1      41.962  28.039  28.801  1.00  0.00     0.074 A 
ATOM     67  C   UNL A   1      39.623  28.824  28.663  1.00  0.00     0.049 A 
ATOM     68  N   UNL A   1      42.538  29.059  29.387  1.00  0.00    -0.248 NA
ATOM     69  C   UNL A   1      42.875  26.922  28.508  1.00  0.00    -0.034 C 
ATOM     70  C   UNL A   1      38.191  28.744  28.376  1.00  0.00    -0.036 A 
ATOM     71  N   UNL A   1      39.782  30.069  29.219  1.00  0.00    -0.354 N 
ATOM     72  C   UNL A   1      43.871  28.701  29.545  1.00  0.00     0.074 A 
ATOM     73  C   UNL A   1      44.008  27.351  29.044  1.00  0.00    -0.034 C 
ATOM     74  H   UNL A   1      42.681  26.037  28.014  1.00  0.00     0.065 H 
ATOM     75  C   UNL A   1      37.604  29.896  28.737  1.00  0.00    -0.036 A 
ATOM     76  H   UNL A   1      37.708  27.931  27.962  1.00  0.00     0.065 H 
ATOM     77  C   UNL A   1      38.611  30.780  29.318  1.00  0.00     0.049 A 
ATOM     78  H   UNL A   1      40.652  30.419  29.519  1.00  0.00     0.167 HD
ATOM     79  C   UNL A   1      44.891  29.440  30.041  1.00  0.00     0.037 A 
ATOM     80  H   UNL A   1      44.876  26.794  29.097  1.00  0.00     0.065 H 
ATOM     81  H   UNL A   1      36.604  30.120  28.624  1.00  0.00     0.065 H 
ATOM     82  C   UNL A   1      38.376  32.004  29.828  1.00  0.00     0.037 A 
ATOM     83  C   UNL A   1      44.753  30.791  30.519  1.00  0.00     0.049 A 
ATOM     84  C   UNL A   1      39.525  32.799  30.387  1.00  0.00     0.074 A 
ATOM     85  C   UNL A   1      45.735  31.646  30.989  1.00  0.00    -0.036 A 
ATOM     86  N   UNL A   1      43.552  31.483  30.593  1.00  0.00    -0.354 N 
ATOM     87  N   UNL A   1      40.793  32.477  30.468  1.00  0.00    -0.248 NA
ATOM     88  C   UNL A   1      39.209  34.132  30.919  1.00  0.00    -0.034 C 
ATOM     89  C   UNL A   1      45.123  32.837  31.392  1.00  0.00    -0.036 A 
ATOM     90  H   UNL A   1      46.746  31.439  31.034  1.00  0.00     0.065 H 
ATOM     91  C   UNL A   1      43.767  32.746  31.123  1.00  0.00     0.049 A 
ATOM     92  H   UNL A   1      42.678  31.129  30.311  1.00  0.00     0.167 HD
ATOM     93  C   UNL A   1      41.430  33.574  31.031  1.00  0.00     0.074 A 
ATOM     94  C   UNL A   1      40.411  34.578  31.258  1.00  0.00    -0.034 C 
ATOM     95  H   UNL A   1      38.293  34.599  31.006  1.00  0.00     0.065 H 
ATOM     96  H   UNL A   1      45.600  33.646  31.818  1.00  0.00     0.065 H 
ATOM     97  C   UNL A   1      42.742  33.737  31.334  1.00  0.00     0.037 A 
ATOM     98  H   UNL A   1      40.596  35.521  31.634  1.00  0.00     0.065 H 
BRANCH  79  99
ATOM     99  C   UNL A   1      46.250  28.803  30.090  1.00  0.00     0.064 A 
ATOM    100  C   UNL A   1      46.687  28.087  31.216  1.00  0.00     0.173 A 
ATOM    101  C   UNL A   1      47.113  28.878  28.987  1.00  0.00     0.173 A 
ATOM    102  F   UNL A   1      45.905  27.992  32.302  1.00  0.00    -0.203 F 
ATOM    103  C   UNL A   1      47.949  27.499  31.247  1.00  0.00     0.198 A 
ATOM    104  C   UNL A   1      48.362  28.261  29.008  1.00  0.00     0.198 A 
ATOM    105  F   UNL A   1      46.743  29.543  27.882  1.00  0.00    -0.203 F 
ATOM    106  F   UNL A   1      48.364  26.866  32.352  1.00  0.00    -0.200 F 
ATOM    107  C   UNL A   1      48.782  27.580  30.141  1.00  0.00     0.200 A 
ATOM    108  F   UNL A   1      49.159  28.328  27.934  1.00  0.00    -0.200 F 
ATOM    109  F   UNL A   1      49.993  27.008  30.169  1.00  0.00    -0.200 F 
ENDBRANCH  79  99
BRANCH  82 110
ATOM    110  C   UNL A   1      36.998  32.563  29.814  1.00  0.00     0.064 A 
ATOM    111  C   UNL A   1      36.519  33.266  28.699  1.00  0.00     0.173 A 
ATOM    112  C   UNL A   1      36.137  32.412  30.910  1.00  0.00     0.173 A 
ATOM    113  F   UNL A   1      37.313  33.453  27.634  1.00  0.00    -0.203 F 
ATOM    114  C   UNL A   1      35.239  33.816  28.691  1.00  0.00     0.198 A 
ATOM    115  C   UNL A   1      34.846  32.938  30.888  1.00  0.00     0.198 A 
ATOM    116  F   UNL A   1      36.543  31.742  31.998  1.00  0.00    -0.203 F 
ATOM    117  F   UNL A   1      34.825  34.524  27.631  1.00  0.00    -0.200 F 
ATOM    118  C   UNL A   1      34.402  33.647  29.782  1.00  0.00     0.200 A 
ATOM    119  F   UNL A   1      34.034  32.758  31.939  1.00  0.00    -0.200 F 
ATOM    120  F   UNL A   1      33.170  34.173  29.772  1.00  0.00    -0.200 F 
ENDBRANCH  82 110
BRANCH  97 121
ATOM    121  C   UNL A   1      43.157  35.060  31.908  1.00  0.00     0.064 A 
ATOM    122  C   UNL A   1      43.588  36.115  31.090  1.00  0.00     0.173 A 
ATOM    123  C   UNL A   1      43.083  35.288  33.290  1.00  0.00     0.173 A 
ATOM    124  F   UNL A   1      43.691  35.943  29.764  1.00  0.00    -0.203 F 
ATOM    125  C   UNL A   1      43.956  37.341  31.638  1.00  0.00     0.198 A 
ATOM    126  C   UNL A   1      43.421  36.526  33.832  1.00  0.00     0.198 A 
ATOM    127  F   UNL A   1      42.671  34.315  34.116  1.00  0.00    -0.203 F 
ATOM    128  F   UNL A   1      44.413  38.318  30.843  1.00  0.00    -0.200 F 
ATOM    129  C   UNL A   1      43.865  37.549  33.007  1.00  0.00     0.200 A 
ATOM    130  F   UNL A   1      43.319  36.728  35.153  1.00  0.00    -0.200 F 
ATOM    131  F   UNL A   1      44.212  38.732  33.532  1.00  0.00    -0.200 F 
ENDBRANCH  97 121
ENDBRANCH  62  65
ENDBRANCH  52  55
ENDBRANCH  48  51
ENDBRANCH  45  48
ENDBRANCH  42  45
ENDBRANCH   1  42
TORSDOF 17
ENDMDL
MODEL 4
REMARK VINA RESULT:     -12.2      1.844      7.634
REMARK SMILES Nc1c(CC(=O)NCCCCCCNC(=O)c2ccc(-c3c4nc(c(-c5c(F)c(F)c(F)c(F)c5F)c5ccc([nH]5)c(-c5c(F)c(F)c(F)c(F)c5F)c5nc(c(-c6c(F)c(F)c(F)c(F)c6F)c6ccc3[nH]6)C=C5)C=C4)cc2)cccc1C(=O)c1ccc(Br)cc1
REMARK SMILES IDX 10 1 9 4 8 7 7 10 5 11 6 12 4 14 3 17 2 18 83 19 80 20 82 21
REMARK SMILES IDX 81 22 1 26 84 29 85 30 86 31 87 32 92 33 88 34 91 36 89 38
REMARK SMILES IDX 90 41 11 42 12 45 13 48 14 51 15 52 16 54 17 55 18 56 79 57
REMARK SMILES IDX 19 58 78 60 20 62 21 65 22 66 72 67 23 68 77 69 71 70 73 71
REMARK SMILES IDX 24 72 76 73 70 75 69 77 25 79 57 82 37 83 56 84 38 85 41 86
REMARK SMILES IDX 55 87 74 88 39 89 40 91 54 93 75 94 42 97 26 99 27 100
REMARK SMILES IDX 35 101 28 102 29 103 33 104 36 105 30 106 31 107 34 108
REMARK SMILES IDX 32 109 58 110 59 111 67 112 60 113 61 114 65 115 68 116
REMARK SMILES IDX 62 117 63 118 66 119 64 120 43 121 44 122 52 123 45 124
REMARK SMILES IDX 46 125 50 126 53 127 47 128 48 129 51 130 49 131
REMARK H PARENT 10 2 10 3 9 5 9 6 8 8 8 9 7 13 4 15 4 16 80 23 82 24 81 25
REMARK H PARENT 1 27 1 28 87 35 92 37 88 39 91 40 11 43 11 44 12 46 12 47
REMARK H PARENT 13 49 13 50 14 53 18 59 79 61 19 63 78 64 77 74 71 76 73 78
REMARK H PARENT 76 80 70 81 38 90 41 92 74 95 39 96 75 98
REMARK Flexibility Score: inf
ROOT
ATOM      1  C   UNL A   1      34.833  32.625  27.921  1.00  0.00    -0.052 C 
ATOM      2  H   UNL A   1      34.320  32.949  27.041  1.00  0.00     0.027 H 
ATOM      3  H   UNL A   1      35.893  32.557  27.791  1.00  0.00     0.027 H 
ENDROOT
BRANCH   1   4
ATOM      4  C   UNL A   1      34.348  31.211  28.263  1.00  0.00    -0.036 C 
ATOM      5  H   UNL A   1      35.204  30.591  28.436  1.00  0.00     0.028 H 
ATOM      6  H   UNL A   1      33.727  31.288  29.132  1.00  0.00     0.028 H 
BRANCH   4   7
ATOM      7  C   UNL A   1      33.505  30.579  27.156  1.00  0.00     0.017 C 
ATOM      8  H   UNL A   1      32.783  31.291  26.817  1.00  0.00     0.049 H 
ATOM      9  H   UNL A   1      34.155  30.294  26.355  1.00  0.00     0.049 H 
BRANCH   7  10
ATOM     10  N   UNL A   1      32.818  29.397  27.632  1.00  0.00    -0.356 N 
ATOM     11  C   UNL A   1      31.985  28.556  26.954  1.00  0.00     0.224 C 
ATOM     12  O   UNL A   1      31.403  27.676  27.592  1.00  0.00    -0.275 OA
ATOM     13  H   UNL A   1      32.973  29.170  28.576  1.00  0.00     0.163 HD
BRANCH  11  14
ATOM     14  C   UNL A   1      31.849  28.650  25.442  1.00  0.00     0.054 C 
ATOM     15  H   UNL A   1      31.095  29.376  25.222  1.00  0.00     0.042 H 
ATOM     16  H   UNL A   1      32.818  28.915  25.073  1.00  0.00     0.042 H 
BRANCH  14  17
ATOM     17  C   UNL A   1      31.471  27.354  24.744  1.00  0.00    -0.015 A 
ATOM     18  C   UNL A   1      32.439  26.438  24.243  1.00  0.00     0.046 A 
ATOM     19  C   UNL A   1      31.994  25.293  23.532  1.00  0.00     0.046 A 
ATOM     20  C   UNL A   1      30.100  27.097  24.565  1.00  0.00    -0.056 A 
ATOM     21  C   UNL A   1      30.610  25.082  23.363  1.00  0.00    -0.049 A 
ATOM     22  C   UNL A   1      29.672  25.970  23.878  1.00  0.00    -0.061 A 
ATOM     23  H   UNL A   1      29.403  27.755  24.948  1.00  0.00     0.063 H 
ATOM     24  H   UNL A   1      30.287  24.250  22.846  1.00  0.00     0.063 H 
ATOM     25  H   UNL A   1      28.664  25.791  23.750  1.00  0.00     0.062 H 
BRANCH  18  26
ATOM     26  N   UNL A   1      33.785  26.732  24.434  1.00  0.00    -0.398 N 
ATOM     27  H   UNL A   1      34.447  26.004  24.474  1.00  0.00     0.156 HD
ATOM     28  H   UNL A   1      34.076  27.668  24.529  1.00  0.00     0.156 HD
ENDBRANCH  18  26
BRANCH  19  29
ATOM     29  C   UNL A   1      32.868  24.265  22.868  1.00  0.00     0.195 C 
ATOM     30  O   UNL A   1      33.652  24.602  21.980  1.00  0.00    -0.289 OA
BRANCH  29  31
ATOM     31  C   UNL A   1      32.914  22.849  23.271  1.00  0.00     0.023 A 
ATOM     32  C   UNL A   1      33.688  22.515  24.391  1.00  0.00    -0.050 A 
ATOM     33  C   UNL A   1      32.182  21.865  22.599  1.00  0.00    -0.050 A 
ATOM     34  C   UNL A   1      33.668  21.211  24.886  1.00  0.00    -0.047 A 
ATOM     35  H   UNL A   1      34.272  23.232  24.848  1.00  0.00     0.063 H 
ATOM     36  C   UNL A   1      32.154  20.563  23.104  1.00  0.00    -0.047 A 
ATOM     37  H   UNL A   1      31.666  22.099  21.735  1.00  0.00     0.063 H 
ATOM     38  C   UNL A   1      32.885  20.246  24.252  1.00  0.00     0.018 A 
ATOM     39  H   UNL A   1      34.229  20.961  25.715  1.00  0.00     0.063 H 
ATOM     40  H   UNL A   1      31.593  19.836  22.632  1.00  0.00     0.063 H 
ATOM     41  Br  UNL A   1      32.797  18.499  24.968  1.00  0.00    -0.051 Br
ENDBRANCH  29  31
ENDBRANCH  19  29
ENDBRANCH  14  17
ENDBRANCH  11  14
ENDBRANCH   7  10
ENDBRANCH   4   7
ENDBRANCH   1   4
BRANCH   1  42
ATOM     42  C   UNL A   1      34.599  33.668  29.021  1.00  0.00    -0.052 C 
ATOM     43  H   UNL A   1      35.402  34.375  28.985  1.00  0.00     0.027 H 
ATOM     44  H   UNL A   1      34.553  33.127  29.943  1.00  0.00     0.027 H 
BRANCH  42  45
ATOM     45  C   UNL A   1      33.281  34.438  28.909  1.00  0.00    -0.036 C 
ATOM     46  H   UNL A   1      32.565  33.973  29.554  1.00  0.00     0.028 H 
ATOM     47  H   UNL A   1      32.995  34.407  27.879  1.00  0.00     0.028 H 
BRANCH  45  48
ATOM     48  C   UNL A   1      33.380  35.911  29.291  1.00  0.00     0.018 C 
ATOM     49  H   UNL A   1      33.084  36.507  28.454  1.00  0.00     0.049 H 
ATOM     50  H   UNL A   1      34.393  36.114  29.569  1.00  0.00     0.049 H 
BRANCH  48  51
ATOM     51  N   UNL A   1      32.527  36.235  30.425  1.00  0.00    -0.352 N 
ATOM     52  C   UNL A   1      32.604  35.806  31.723  1.00  0.00     0.251 C 
ATOM     53  H   UNL A   1      31.786  36.854  30.231  1.00  0.00     0.163 HD
ATOM     54  O   UNL A   1      31.670  36.012  32.500  1.00  0.00    -0.269 OA
BRANCH  52  55
ATOM     55  C   UNL A   1      33.800  35.080  32.194  1.00  0.00     0.039 A 
ATOM     56  C   UNL A   1      33.653  33.784  32.696  1.00  0.00    -0.049 A 
ATOM     57  C   UNL A   1      35.061  35.683  32.158  1.00  0.00    -0.049 A 
ATOM     58  C   UNL A   1      34.779  33.072  33.111  1.00  0.00    -0.053 A 
ATOM     59  H   UNL A   1      32.717  33.357  32.759  1.00  0.00     0.063 H 
ATOM     60  C   UNL A   1      36.191  34.946  32.504  1.00  0.00    -0.053 A 
ATOM     61  H   UNL A   1      35.155  36.671  31.876  1.00  0.00     0.063 H 
ATOM     62  C   UNL A   1      36.060  33.635  32.989  1.00  0.00    -0.014 A 
ATOM     63  H   UNL A   1      34.670  32.126  33.508  1.00  0.00     0.063 H 
ATOM     64  H   UNL A   1      37.128  35.365  32.403  1.00  0.00     0.063 H 
BRANCH  62  65
ATOM     65  C   UNL A   1      37.275  32.874  33.371  1.00  0.00     0.031 A 
ATOM     66  C   UNL A   1      37.981  33.178  34.662  1.00  0.00     0.074 A 
ATOM     67  C   UNL A   1      37.776  31.952  32.526  1.00  0.00     0.049 A 
ATOM     68  N   UNL A   1      39.093  32.674  35.138  1.00  0.00    -0.248 NA
ATOM     69  C   UNL A   1      37.372  34.204  35.523  1.00  0.00    -0.034 C 
ATOM     70  C   UNL A   1      37.204  31.598  31.227  1.00  0.00    -0.036 A 
ATOM     71  N   UNL A   1      38.887  31.154  32.630  1.00  0.00    -0.354 N 
ATOM     72  C   UNL A   1      39.320  33.330  36.341  1.00  0.00     0.074 A 
ATOM     73  C   UNL A   1      38.264  34.306  36.496  1.00  0.00    -0.034 C 
ATOM     74  H   UNL A   1      36.482  34.711  35.399  1.00  0.00     0.065 H 
ATOM     75  C   UNL A   1      37.955  30.639  30.662  1.00  0.00    -0.036 A 
ATOM     76  H   UNL A   1      36.359  32.019  30.810  1.00  0.00     0.065 H 
ATOM     77  C   UNL A   1      39.082  30.339  31.541  1.00  0.00     0.049 A 
ATOM     78  H   UNL A   1      39.488  31.163  33.410  1.00  0.00     0.167 HD
ATOM     79  C   UNL A   1      40.308  33.121  37.243  1.00  0.00     0.037 A 
ATOM     80  H   UNL A   1      38.212  34.992  37.266  1.00  0.00     0.065 H 
ATOM     81  H   UNL A   1      37.767  30.187  29.755  1.00  0.00     0.065 H 
ATOM     82  C   UNL A   1      40.065  29.457  31.278  1.00  0.00     0.037 A 
ATOM     83  C   UNL A   1      41.345  32.134  37.093  1.00  0.00     0.049 A 
ATOM     84  C   UNL A   1      41.159  29.254  32.292  1.00  0.00     0.074 A 
ATOM     85  C   UNL A   1      42.358  31.805  37.976  1.00  0.00    -0.036 A 
ATOM     86  N   UNL A   1      41.503  31.318  35.981  1.00  0.00    -0.354 N 
ATOM     87  N   UNL A   1      41.327  29.831  33.456  1.00  0.00    -0.248 NA
ATOM     88  C   UNL A   1      42.197  28.270  31.955  1.00  0.00    -0.034 C 
ATOM     89  C   UNL A   1      43.159  30.825  37.379  1.00  0.00    -0.036 A 
ATOM     90  H   UNL A   1      42.499  32.212  38.914  1.00  0.00     0.065 H 
ATOM     91  C   UNL A   1      42.613  30.503  36.147  1.00  0.00     0.049 A 
ATOM     92  H   UNL A   1      40.915  31.319  35.192  1.00  0.00     0.167 HD
ATOM     93  C   UNL A   1      42.468  29.262  34.004  1.00  0.00     0.074 A 
ATOM     94  C   UNL A   1      42.945  28.282  33.050  1.00  0.00    -0.034 C 
ATOM     95  H   UNL A   1      42.314  27.715  31.093  1.00  0.00     0.065 H 
ATOM     96  H   UNL A   1      44.012  30.412  37.787  1.00  0.00     0.065 H 
ATOM     97  C   UNL A   1      43.069  29.527  35.190  1.00  0.00     0.037 A 
ATOM     98  H   UNL A   1      43.761  27.670  33.203  1.00  0.00     0.065 H 
BRANCH  79  99
ATOM     99  C   UNL A   1      40.313  33.977  38.477  1.00  0.00     0.064 A 
ATOM    100  C   UNL A   1      39.611  33.603  39.635  1.00  0.00     0.173 A 
ATOM    101  C   UNL A   1      41.055  35.167  38.518  1.00  0.00     0.173 A 
ATOM    102  F   UNL A   1      38.878  32.480  39.647  1.00  0.00    -0.203 F 
ATOM    103  C   UNL A   1      39.626  34.405  40.773  1.00  0.00     0.198 A 
ATOM    104  C   UNL A   1      41.094  35.950  39.669  1.00  0.00     0.198 A 
ATOM    105  F   UNL A   1      41.750  35.568  37.443  1.00  0.00    -0.203 F 
ATOM    106  F   UNL A   1      38.906  34.054  41.847  1.00  0.00    -0.200 F 
ATOM    107  C   UNL A   1      40.373  35.573  40.792  1.00  0.00     0.200 A 
ATOM    108  F   UNL A   1      41.827  37.071  39.691  1.00  0.00    -0.200 F 
ATOM    109  F   UNL A   1      40.392  36.340  41.890  1.00  0.00    -0.200 F 
ENDBRANCH  79  99
BRANCH  82 110
ATOM    110  C   UNL A   1      40.048  28.681  30.010  1.00  0.00     0.064 A 
ATOM    111  C   UNL A   1      39.442  27.419  29.947  1.00  0.00     0.173 A 
ATOM    112  C   UNL A   1      40.639  29.180  28.840  1.00  0.00     0.173 A 
ATOM    113  F   UNL A   1      38.880  26.891  31.046  1.00  0.00    -0.203 F 
ATOM    114  C   UNL A   1      39.447  26.675  28.770  1.00  0.00     0.198 A 
ATOM    115  C   UNL A   1      40.617  28.447  27.654  1.00  0.00     0.198 A 
ATOM    116  F   UNL A   1      41.225  30.386  28.844  1.00  0.00    -0.203 F 
ATOM    117  F   UNL A   1      38.903  25.451  28.752  1.00  0.00    -0.200 F 
ATOM    118  C   UNL A   1      40.030  27.191  27.623  1.00  0.00     0.200 A 
ATOM    119  F   UNL A   1      41.167  28.958  26.544  1.00  0.00    -0.200 F 
ATOM    120  F   UNL A   1      40.031  26.478  26.489  1.00  0.00    -0.200 F 
ENDBRANCH  82 110
BRANCH  97 121
ATOM    121  C   UNL A   1      44.285  28.720  35.541  1.00  0.00     0.064 A 
ATOM    122  C   UNL A   1      44.187  27.500  36.225  1.00  0.00     0.173 A 
ATOM    123  C   UNL A   1      45.561  29.156  35.152  1.00  0.00     0.173 A 
ATOM    124  F   UNL A   1      42.992  27.047  36.632  1.00  0.00    -0.203 F 
ATOM    125  C   UNL A   1      45.326  26.757  36.530  1.00  0.00     0.198 A 
ATOM    126  C   UNL A   1      46.694  28.396  35.431  1.00  0.00     0.198 A 
ATOM    127  F   UNL A   1      45.709  30.313  34.490  1.00  0.00    -0.203 F 
ATOM    128  F   UNL A   1      45.213  25.619  37.228  1.00  0.00    -0.200 F 
ATOM    129  C   UNL A   1      46.577  27.201  36.126  1.00  0.00     0.200 A 
ATOM    130  F   UNL A   1      47.900  28.820  35.027  1.00  0.00    -0.200 F 
ATOM    131  F   UNL A   1      47.670  26.482  36.414  1.00  0.00    -0.200 F 
ENDBRANCH  97 121
ENDBRANCH  62  65
ENDBRANCH  52  55
ENDBRANCH  48  51
ENDBRANCH  45  48
ENDBRANCH  42  45
ENDBRANCH   1  42
TORSDOF 17
ENDMDL
MODEL 5
REMARK VINA RESULT:     -12.1      4.012      7.687
REMARK SMILES Nc1c(CC(=O)NCCCCCCNC(=O)c2ccc(-c3c4nc(c(-c5c(F)c(F)c(F)c(F)c5F)c5ccc([nH]5)c(-c5c(F)c(F)c(F)c(F)c5F)c5nc(c(-c6c(F)c(F)c(F)c(F)c6F)c6ccc3[nH]6)C=C5)C=C4)cc2)cccc1C(=O)c1ccc(Br)cc1
REMARK SMILES IDX 10 1 9 4 8 7 7 10 5 11 6 12 4 14 3 17 2 18 83 19 80 20 82 21
REMARK SMILES IDX 81 22 1 26 84 29 85 30 86 31 87 32 92 33 88 34 91 36 89 38
REMARK SMILES IDX 90 41 11 42 12 45 13 48 14 51 15 52 16 54 17 55 18 56 79 57
REMARK SMILES IDX 19 58 78 60 20 62 21 65 22 66 72 67 23 68 77 69 71 70 73 71
REMARK SMILES IDX 24 72 76 73 70 75 69 77 25 79 57 82 37 83 56 84 38 85 41 86
REMARK SMILES IDX 55 87 74 88 39 89 40 91 54 93 75 94 42 97 26 99 27 100
REMARK SMILES IDX 35 101 28 102 29 103 33 104 36 105 30 106 31 107 34 108
REMARK SMILES IDX 32 109 58 110 59 111 67 112 60 113 61 114 65 115 68 116
REMARK SMILES IDX 62 117 63 118 66 119 64 120 43 121 44 122 52 123 45 124
REMARK SMILES IDX 46 125 50 126 53 127 47 128 48 129 51 130 49 131
REMARK H PARENT 10 2 10 3 9 5 9 6 8 8 8 9 7 13 4 15 4 16 80 23 82 24 81 25
REMARK H PARENT 1 27 1 28 87 35 92 37 88 39 91 40 11 43 11 44 12 46 12 47
REMARK H PARENT 13 49 13 50 14 53 18 59 79 61 19 63 78 64 77 74 71 76 73 78
REMARK H PARENT 76 80 70 81 38 90 41 92 74 95 39 96 75 98
REMARK Flexibility Score: inf
ROOT
ATOM      1  C   UNL A   1      34.141  25.897  25.296  1.00  0.00    -0.052 C 
ATOM      2  H   UNL A   1      35.155  26.049  24.989  1.00  0.00     0.027 H 
ATOM      3  H   UNL A   1      33.473  25.731  24.477  1.00  0.00     0.027 H 
ENDROOT
BRANCH   1   4
ATOM      4  C   UNL A   1      33.657  27.173  25.997  1.00  0.00    -0.036 C 
ATOM      5  H   UNL A   1      33.789  27.052  27.052  1.00  0.00     0.028 H 
ATOM      6  H   UNL A   1      34.235  27.987  25.611  1.00  0.00     0.028 H 
BRANCH   4   7
ATOM      7  C   UNL A   1      32.187  27.489  25.723  1.00  0.00     0.017 C 
ATOM      8  H   UNL A   1      31.659  26.575  25.552  1.00  0.00     0.049 H 
ATOM      9  H   UNL A   1      31.786  28.000  26.574  1.00  0.00     0.049 H 
BRANCH   7  10
ATOM     10  N   UNL A   1      32.043  28.344  24.564  1.00  0.00    -0.356 N 
ATOM     11  C   UNL A   1      31.400  28.094  23.387  1.00  0.00     0.224 C 
ATOM     12  O   UNL A   1      31.511  28.920  22.478  1.00  0.00    -0.275 OA
ATOM     13  H   UNL A   1      32.470  29.227  24.634  1.00  0.00     0.163 HD
BRANCH  11  14
ATOM     14  C   UNL A   1      30.503  26.876  23.235  1.00  0.00     0.054 C 
ATOM     15  H   UNL A   1      29.878  26.815  24.101  1.00  0.00     0.042 H 
ATOM     16  H   UNL A   1      29.958  27.019  22.325  1.00  0.00     0.042 H 
BRANCH  14  17
ATOM     17  C   UNL A   1      31.231  25.550  23.087  1.00  0.00    -0.015 A 
ATOM     18  C   UNL A   1      31.012  24.448  23.961  1.00  0.00     0.046 A 
ATOM     19  C   UNL A   1      31.798  23.277  23.796  1.00  0.00     0.046 A 
ATOM     20  C   UNL A   1      32.185  25.453  22.058  1.00  0.00    -0.056 A 
ATOM     21  C   UNL A   1      32.753  23.228  22.760  1.00  0.00    -0.049 A 
ATOM     22  C   UNL A   1      32.942  24.301  21.895  1.00  0.00    -0.061 A 
ATOM     23  H   UNL A   1      32.325  26.248  21.414  1.00  0.00     0.063 H 
ATOM     24  H   UNL A   1      33.324  22.377  22.641  1.00  0.00     0.063 H 
ATOM     25  H   UNL A   1      33.640  24.241  21.139  1.00  0.00     0.062 H 
BRANCH  18  26
ATOM     26  N   UNL A   1      30.067  24.586  24.971  1.00  0.00    -0.398 N 
ATOM     27  H   UNL A   1      29.712  25.477  25.195  1.00  0.00     0.156 HD
ATOM     28  H   UNL A   1      29.751  23.793  25.463  1.00  0.00     0.156 HD
ENDBRANCH  18  26
BRANCH  19  29
ATOM     29  C   UNL A   1      31.761  22.053  24.669  1.00  0.00     0.195 C 
ATOM     30  O   UNL A   1      31.130  22.067  25.727  1.00  0.00    -0.289 OA
BRANCH  29  31
ATOM     31  C   UNL A   1      32.379  20.768  24.300  1.00  0.00     0.023 A 
ATOM     32  C   UNL A   1      33.305  20.209  25.191  1.00  0.00    -0.050 A 
ATOM     33  C   UNL A   1      32.031  20.091  23.126  1.00  0.00    -0.050 A 
ATOM     34  C   UNL A   1      33.825  18.938  24.947  1.00  0.00    -0.047 A 
ATOM     35  H   UNL A   1      33.602  20.738  26.026  1.00  0.00     0.063 H 
ATOM     36  C   UNL A   1      32.544  18.813  22.891  1.00  0.00    -0.047 A 
ATOM     37  H   UNL A   1      31.401  20.533  22.438  1.00  0.00     0.063 H 
ATOM     38  C   UNL A   1      33.427  18.238  23.809  1.00  0.00     0.018 A 
ATOM     39  H   UNL A   1      34.501  18.519  25.605  1.00  0.00     0.063 H 
ATOM     40  H   UNL A   1      32.271  18.294  22.042  1.00  0.00     0.063 H 
ATOM     41  Br  UNL A   1      34.071  16.485  23.519  1.00  0.00    -0.051 Br
ENDBRANCH  29  31
ENDBRANCH  19  29
ENDBRANCH  14  17
ENDBRANCH  11  14
ENDBRANCH   7  10
ENDBRANCH   4   7
ENDBRANCH   1   4
BRANCH   1  42
ATOM     42  C   UNL A   1      34.089  24.631  26.160  1.00  0.00    -0.052 C 
ATOM     43  H   UNL A   1      33.098  24.230  26.102  1.00  0.00     0.027 H 
ATOM     44  H   UNL A   1      34.367  24.929  27.148  1.00  0.00     0.027 H 
BRANCH  42  45
ATOM     45  C   UNL A   1      35.072  23.530  25.751  1.00  0.00    -0.036 C 
ATOM     46  H   UNL A   1      34.761  23.137  24.807  1.00  0.00     0.028 H 
ATOM     47  H   UNL A   1      35.055  22.799  26.532  1.00  0.00     0.028 H 
BRANCH  45  48
ATOM     48  C   UNL A   1      36.517  23.998  25.621  1.00  0.00     0.018 C 
ATOM     49  H   UNL A   1      36.696  24.776  26.332  1.00  0.00     0.049 H 
ATOM     50  H   UNL A   1      36.664  24.348  24.621  1.00  0.00     0.049 H 
BRANCH  48  51
ATOM     51  N   UNL A   1      37.460  22.915  25.863  1.00  0.00    -0.352 N 
ATOM     52  C   UNL A   1      38.743  22.967  26.339  1.00  0.00     0.251 C 
ATOM     53  H   UNL A   1      37.127  22.013  25.653  1.00  0.00     0.163 HD
ATOM     54  O   UNL A   1      39.468  21.973  26.276  1.00  0.00    -0.269 OA
BRANCH  52  55
ATOM     55  C   UNL A   1      39.268  24.220  26.917  1.00  0.00     0.039 A 
ATOM     56  C   UNL A   1      40.006  25.084  26.104  1.00  0.00    -0.049 A 
ATOM     57  C   UNL A   1      39.049  24.533  28.262  1.00  0.00    -0.049 A 
ATOM     58  C   UNL A   1      40.478  26.289  26.626  1.00  0.00    -0.053 A 
ATOM     59  H   UNL A   1      40.200  24.832  25.124  1.00  0.00     0.063 H 
ATOM     60  C   UNL A   1      39.458  25.766  28.761  1.00  0.00    -0.053 A 
ATOM     61  H   UNL A   1      38.586  23.851  28.883  1.00  0.00     0.063 H 
ATOM     62  C   UNL A   1      40.181  26.653  27.950  1.00  0.00    -0.014 A 
ATOM     63  H   UNL A   1      41.047  26.916  26.037  1.00  0.00     0.063 H 
ATOM     64  H   UNL A   1      39.227  26.029  29.732  1.00  0.00     0.063 H 
BRANCH  62  65
ATOM     65  C   UNL A   1      40.625  27.956  28.507  1.00  0.00     0.031 A 
ATOM     66  C   UNL A   1      42.069  28.172  28.862  1.00  0.00     0.074 A 
ATOM     67  C   UNL A   1      39.717  28.920  28.751  1.00  0.00     0.049 A 
ATOM     68  N   UNL A   1      42.639  29.209  29.424  1.00  0.00    -0.248 NA
ATOM     69  C   UNL A   1      42.994  27.064  28.571  1.00  0.00    -0.034 C 
ATOM     70  C   UNL A   1      38.281  28.813  28.488  1.00  0.00    -0.036 A 
ATOM     71  N   UNL A   1      39.865  30.175  29.285  1.00  0.00    -0.354 N 
ATOM     72  C   UNL A   1      43.979  28.873  29.565  1.00  0.00     0.074 A 
ATOM     73  C   UNL A   1      44.129  27.518  29.082  1.00  0.00    -0.034 C 
ATOM     74  H   UNL A   1      42.806  26.169  28.094  1.00  0.00     0.065 H 
ATOM     75  C   UNL A   1      37.683  29.963  28.842  1.00  0.00    -0.036 A 
ATOM     76  H   UNL A   1      37.804  27.987  28.095  1.00  0.00     0.065 H 
ATOM     77  C   UNL A   1      38.686  30.870  29.392  1.00  0.00     0.049 A 
ATOM     78  H   UNL A   1      40.735  30.542  29.565  1.00  0.00     0.167 HD
ATOM     79  C   UNL A   1      44.996  29.635  30.034  1.00  0.00     0.037 A 
ATOM     80  H   UNL A   1      45.006  26.975  29.129  1.00  0.00     0.065 H 
ATOM     81  H   UNL A   1      36.678  30.170  28.741  1.00  0.00     0.065 H 
ATOM     82  C   UNL A   1      38.440  32.098  29.888  1.00  0.00     0.037 A 
ATOM     83  C   UNL A   1      44.845  30.990  30.494  1.00  0.00     0.049 A 
ATOM     84  C   UNL A   1      39.586  32.918  30.416  1.00  0.00     0.074 A 
ATOM     85  C   UNL A   1      45.822  31.867  30.934  1.00  0.00    -0.036 A 
ATOM     86  N   UNL A   1      43.636  31.666  30.576  1.00  0.00    -0.354 N 
ATOM     87  N   UNL A   1      40.860  32.617  30.481  1.00  0.00    -0.248 NA
ATOM     88  C   UNL A   1      39.259  34.255  30.933  1.00  0.00    -0.034 C 
ATOM     89  C   UNL A   1      45.198  33.055  31.329  1.00  0.00    -0.036 A 
ATOM     90  H   UNL A   1      46.836  31.677  30.965  1.00  0.00     0.065 H 
ATOM     91  C   UNL A   1      43.839  32.940  31.083  1.00  0.00     0.049 A 
ATOM     92  H   UNL A   1      42.763  31.295  30.314  1.00  0.00     0.167 HD
ATOM     93  C   UNL A   1      41.489  33.731  31.017  1.00  0.00     0.074 A 
ATOM     94  C   UNL A   1      40.458  34.724  31.245  1.00  0.00    -0.034 C 
ATOM     95  H   UNL A   1      38.337  34.709  31.028  1.00  0.00     0.065 H 
ATOM     96  H   UNL A   1      45.670  33.878  31.735  1.00  0.00     0.065 H 
ATOM     97  C   UNL A   1      42.803  33.918  31.297  1.00  0.00     0.037 A 
ATOM     98  H   UNL A   1      40.635  35.674  31.604  1.00  0.00     0.065 H 
BRANCH  79  99
ATOM     99  C   UNL A   1      46.365  29.019  30.070  1.00  0.00     0.064 A 
ATOM    100  C   UNL A   1      47.242  29.108  28.977  1.00  0.00     0.173 A 
ATOM    101  C   UNL A   1      46.821  28.361  31.223  1.00  0.00     0.173 A 
ATOM    102  F   UNL A   1      46.853  29.718  27.847  1.00  0.00    -0.203 F 
ATOM    103  C   UNL A   1      48.509  28.534  29.026  1.00  0.00     0.198 A 
ATOM    104  C   UNL A   1      48.101  27.816  31.280  1.00  0.00     0.198 A 
ATOM    105  F   UNL A   1      46.027  28.252  32.299  1.00  0.00    -0.203 F 
ATOM    106  F   UNL A   1      49.308  28.587  27.952  1.00  0.00    -0.200 F 
ATOM    107  C   UNL A   1      48.941  27.895  30.178  1.00  0.00     0.200 A 
ATOM    108  F   UNL A   1      48.522  27.212  32.399  1.00  0.00    -0.200 F 
ATOM    109  F   UNL A   1      50.163  27.350  30.226  1.00  0.00    -0.200 F 
ENDBRANCH  79  99
BRANCH  82 110
ATOM    110  C   UNL A   1      37.054  32.636  29.888  1.00  0.00     0.064 A 
ATOM    111  C   UNL A   1      36.552  33.330  28.777  1.00  0.00     0.173 A 
ATOM    112  C   UNL A   1      36.207  32.474  30.993  1.00  0.00     0.173 A 
ATOM    113  F   UNL A   1      37.332  33.527  27.703  1.00  0.00    -0.203 F 
ATOM    114  C   UNL A   1      35.265  33.860  28.782  1.00  0.00     0.198 A 
ATOM    115  C   UNL A   1      34.908  32.981  30.984  1.00  0.00     0.198 A 
ATOM    116  F   UNL A   1      36.635  31.812  32.078  1.00  0.00    -0.203 F 
ATOM    117  F   UNL A   1      34.828  34.561  27.726  1.00  0.00    -0.200 F 
ATOM    118  C   UNL A   1      34.442  33.681  29.882  1.00  0.00     0.200 A 
ATOM    119  F   UNL A   1      34.111  32.790  32.045  1.00  0.00    -0.200 F 
ATOM    120  F   UNL A   1      33.202  34.188  29.885  1.00  0.00    -0.200 F 
ENDBRANCH  82 110
BRANCH  97 121
ATOM    121  C   UNL A   1      43.207  35.257  31.843  1.00  0.00     0.064 A 
ATOM    122  C   UNL A   1      43.147  35.541  33.215  1.00  0.00     0.173 A 
ATOM    123  C   UNL A   1      43.699  36.253  30.986  1.00  0.00     0.173 A 
ATOM    124  F   UNL A   1      42.670  34.628  34.074  1.00  0.00    -0.203 F 
ATOM    125  C   UNL A   1      43.539  36.784  33.707  1.00  0.00     0.198 A 
ATOM    126  C   UNL A   1      44.120  37.483  31.484  1.00  0.00     0.198 A 
ATOM    127  F   UNL A   1      43.783  36.030  29.666  1.00  0.00    -0.203 F 
ATOM    128  F   UNL A   1      43.426  37.051  35.014  1.00  0.00    -0.200 F 
ATOM    129  C   UNL A   1      44.033  37.751  32.842  1.00  0.00     0.200 A 
ATOM    130  F   UNL A   1      44.610  38.410  30.649  1.00  0.00    -0.200 F 
ATOM    131  F   UNL A   1      44.417  38.943  33.318  1.00  0.00    -0.200 F 
ENDBRANCH  97 121
ENDBRANCH  62  65
ENDBRANCH  52  55
ENDBRANCH  48  51
ENDBRANCH  45  48
ENDBRANCH  42  45
ENDBRANCH   1  42
TORSDOF 17
ENDMDL
MODEL 6
REMARK VINA RESULT:     -12.0      3.753      8.613
REMARK SMILES Nc1c(CC(=O)NCCCCCCNC(=O)c2ccc(-c3c4nc(c(-c5c(F)c(F)c(F)c(F)c5F)c5ccc([nH]5)c(-c5c(F)c(F)c(F)c(F)c5F)c5nc(c(-c6c(F)c(F)c(F)c(F)c6F)c6ccc3[nH]6)C=C5)C=C4)cc2)cccc1C(=O)c1ccc(Br)cc1
REMARK SMILES IDX 10 1 9 4 8 7 7 10 5 11 6 12 4 14 3 17 2 18 83 19 80 20 82 21
REMARK SMILES IDX 81 22 1 26 84 29 85 30 86 31 87 32 92 33 88 34 91 36 89 38
REMARK SMILES IDX 90 41 11 42 12 45 13 48 14 51 15 52 16 54 17 55 18 56 79 57
REMARK SMILES IDX 19 58 78 60 20 62 21 65 22 66 72 67 23 68 77 69 71 70 73 71
REMARK SMILES IDX 24 72 76 73 70 75 69 77 25 79 57 82 37 83 56 84 38 85 41 86
REMARK SMILES IDX 55 87 74 88 39 89 40 91 54 93 75 94 42 97 26 99 27 100
REMARK SMILES IDX 35 101 28 102 29 103 33 104 36 105 30 106 31 107 34 108
REMARK SMILES IDX 32 109 58 110 59 111 67 112 60 113 61 114 65 115 68 116
REMARK SMILES IDX 62 117 63 118 66 119 64 120 43 121 44 122 52 123 45 124
REMARK SMILES IDX 46 125 50 126 53 127 47 128 48 129 51 130 49 131
REMARK H PARENT 10 2 10 3 9 5 9 6 8 8 8 9 7 13 4 15 4 16 80 23 82 24 81 25
REMARK H PARENT 1 27 1 28 87 35 92 37 88 39 91 40 11 43 11 44 12 46 12 47
REMARK H PARENT 13 49 13 50 14 53 18 59 79 61 19 63 78 64 77 74 71 76 73 78
REMARK H PARENT 76 80 70 81 38 90 41 92 74 95 39 96 75 98
REMARK Flexibility Score: inf
ROOT
ATOM      1  C   UNL A   1      31.541  29.484  24.550  1.00  0.00    -0.052 C 
ATOM      2  H   UNL A   1      31.582  30.546  24.674  1.00  0.00     0.027 H 
ATOM      3  H   UNL A   1      32.342  29.098  23.955  1.00  0.00     0.027 H 
ENDROOT
BRANCH   1   4
ATOM      4  C   UNL A   1      30.245  29.139  23.807  1.00  0.00    -0.036 C 
ATOM      5  H   UNL A   1      29.754  28.345  24.330  1.00  0.00     0.028 H 
ATOM      6  H   UNL A   1      29.649  30.028  23.776  1.00  0.00     0.028 H 
BRANCH   4   7
ATOM      7  C   UNL A   1      30.479  28.698  22.362  1.00  0.00     0.017 C 
ATOM      8  H   UNL A   1      29.882  27.835  22.159  1.00  0.00     0.049 H 
ATOM      9  H   UNL A   1      30.207  29.504  21.713  1.00  0.00     0.049 H 
BRANCH   7  10
ATOM     10  N   UNL A   1      31.872  28.375  22.134  1.00  0.00    -0.356 N 
ATOM     11  C   UNL A   1      32.483  27.155  22.145  1.00  0.00     0.224 C 
ATOM     12  O   UNL A   1      33.712  27.121  22.051  1.00  0.00    -0.275 OA
ATOM     13  H   UNL A   1      32.459  29.141  21.945  1.00  0.00     0.163 HD
BRANCH  11  14
ATOM     14  C   UNL A   1      31.663  25.876  22.185  1.00  0.00     0.054 C 
ATOM     15  H   UNL A   1      30.651  26.123  21.944  1.00  0.00     0.042 H 
ATOM     16  H   UNL A   1      32.118  25.209  21.482  1.00  0.00     0.042 H 
BRANCH  14  17
ATOM     17  C   UNL A   1      31.664  25.147  23.519  1.00  0.00    -0.015 A 
ATOM     18  C   UNL A   1      32.673  24.213  23.886  1.00  0.00     0.046 A 
ATOM     19  C   UNL A   1      32.547  23.519  25.118  1.00  0.00     0.046 A 
ATOM     20  C   UNL A   1      30.587  25.399  24.389  1.00  0.00    -0.056 A 
ATOM     21  C   UNL A   1      31.445  23.791  25.953  1.00  0.00    -0.049 A 
ATOM     22  C   UNL A   1      30.477  24.726  25.597  1.00  0.00    -0.061 A 
ATOM     23  H   UNL A   1      29.870  26.093  24.126  1.00  0.00     0.063 H 
ATOM     24  H   UNL A   1      31.354  23.287  26.848  1.00  0.00     0.063 H 
ATOM     25  H   UNL A   1      29.683  24.915  26.227  1.00  0.00     0.062 H 
BRANCH  18  26
ATOM     26  N   UNL A   1      33.716  23.986  22.996  1.00  0.00    -0.398 N 
ATOM     27  H   UNL A   1      34.602  23.716  23.332  1.00  0.00     0.156 HD
ATOM     28  H   UNL A   1      33.571  24.095  22.028  1.00  0.00     0.156 HD
ENDBRANCH  18  26
BRANCH  19  29
ATOM     29  C   UNL A   1      33.468  22.446  25.631  1.00  0.00     0.195 C 
ATOM     30  O   UNL A   1      34.154  22.647  26.633  1.00  0.00    -0.289 OA
BRANCH  29  31
ATOM     31  C   UNL A   1      33.551  21.095  25.049  1.00  0.00     0.023 A 
ATOM     32  C   UNL A   1      34.791  20.442  25.091  1.00  0.00    -0.050 A 
ATOM     33  C   UNL A   1      32.432  20.452  24.511  1.00  0.00    -0.050 A 
ATOM     34  C   UNL A   1      34.895  19.118  24.665  1.00  0.00    -0.047 A 
ATOM     35  H   UNL A   1      35.626  20.941  25.436  1.00  0.00     0.063 H 
ATOM     36  C   UNL A   1      32.536  19.121  24.097  1.00  0.00    -0.047 A 
ATOM     37  H   UNL A   1      31.536  20.956  24.419  1.00  0.00     0.063 H 
ATOM     38  C   UNL A   1      33.763  18.458  24.189  1.00  0.00     0.018 A 
ATOM     39  H   UNL A   1      35.804  18.630  24.702  1.00  0.00     0.063 H 
ATOM     40  H   UNL A   1      31.709  18.629  23.725  1.00  0.00     0.063 H 
ATOM     41  Br  UNL A   1      33.886  16.640  23.686  1.00  0.00    -0.051 Br
ENDBRANCH  29  31
ENDBRANCH  19  29
ENDBRANCH  14  17
ENDBRANCH  11  14
ENDBRANCH   7  10
ENDBRANCH   4   7
ENDBRANCH   1   4
BRANCH   1  42
ATOM     42  C   UNL A   1      31.680  28.837  25.934  1.00  0.00    -0.052 C 
ATOM     43  H   UNL A   1      30.764  28.332  26.157  1.00  0.00     0.027 H 
ATOM     44  H   UNL A   1      31.903  29.630  26.616  1.00  0.00     0.027 H 
BRANCH  42  45
ATOM     45  C   UNL A   1      32.824  27.827  26.062  1.00  0.00    -0.036 C 
ATOM     46  H   UNL A   1      33.230  27.656  25.087  1.00  0.00     0.028 H 
ATOM     47  H   UNL A   1      32.406  26.945  26.498  1.00  0.00     0.028 H 
BRANCH  45  48
ATOM     48  C   UNL A   1      33.957  28.275  26.979  1.00  0.00     0.018 C 
ATOM     49  H   UNL A   1      34.889  28.136  26.473  1.00  0.00     0.049 H 
ATOM     50  H   UNL A   1      33.912  27.689  27.872  1.00  0.00     0.049 H 
BRANCH  48  51
ATOM     51  N   UNL A   1      33.829  29.676  27.352  1.00  0.00    -0.352 N 
ATOM     52  C   UNL A   1      34.688  30.470  28.063  1.00  0.00     0.251 C 
ATOM     53  H   UNL A   1      33.003  30.118  27.048  1.00  0.00     0.163 HD
ATOM     54  O   UNL A   1      34.319  31.573  28.470  1.00  0.00    -0.269 OA
BRANCH  52  55
ATOM     55  C   UNL A   1      36.056  30.001  28.359  1.00  0.00     0.039 A 
ATOM     56  C   UNL A   1      37.046  30.141  27.383  1.00  0.00    -0.049 A 
ATOM     57  C   UNL A   1      36.358  29.409  29.589  1.00  0.00    -0.049 A 
ATOM     58  C   UNL A   1      38.353  29.735  27.661  1.00  0.00    -0.053 A 
ATOM     59  H   UNL A   1      36.813  30.541  26.462  1.00  0.00     0.063 H 
ATOM     60  C   UNL A   1      37.675  29.072  29.891  1.00  0.00    -0.053 A 
ATOM     61  H   UNL A   1      35.606  29.221  30.272  1.00  0.00     0.063 H 
ATOM     62  C   UNL A   1      38.683  29.227  28.928  1.00  0.00    -0.014 A 
ATOM     63  H   UNL A   1      39.079  29.811  26.933  1.00  0.00     0.063 H 
ATOM     64  H   UNL A   1      37.909  28.708  30.828  1.00  0.00     0.063 H 
BRANCH  62  65
ATOM     65  C   UNL A   1      40.077  28.844  29.263  1.00  0.00     0.031 A 
ATOM     66  C   UNL A   1      40.943  29.773  30.066  1.00  0.00     0.074 A 
ATOM     67  C   UNL A   1      40.582  27.687  28.792  1.00  0.00     0.049 A 
ATOM     68  N   UNL A   1      42.204  29.651  30.399  1.00  0.00    -0.248 NA
ATOM     69  C   UNL A   1      40.317  31.020  30.534  1.00  0.00    -0.034 C 
ATOM     70  C   UNL A   1      39.853  26.722  27.968  1.00  0.00    -0.036 A 
ATOM     71  N   UNL A   1      41.829  27.133  28.928  1.00  0.00    -0.354 N 
ATOM     72  C   UNL A   1      42.523  30.807  31.101  1.00  0.00     0.074 A 
ATOM     73  C   UNL A   1      41.342  31.642  31.098  1.00  0.00    -0.034 C 
ATOM     74  H   UNL A   1      39.337  31.328  30.445  1.00  0.00     0.065 H 
ATOM     75  C   UNL A   1      40.659  25.684  27.690  1.00  0.00    -0.036 A 
ATOM     76  H   UNL A   1      38.876  26.823  27.650  1.00  0.00     0.065 H 
ATOM     77  C   UNL A   1      41.971  25.930  28.282  1.00  0.00     0.049 A 
ATOM     78  H   UNL A   1      42.554  27.557  29.442  1.00  0.00     0.167 HD
ATOM     79  C   UNL A   1      43.687  31.130  31.711  1.00  0.00     0.037 A 
ATOM     80  H   UNL A   1      41.302  32.598  31.487  1.00  0.00     0.065 H 
ATOM     81  H   UNL A   1      40.393  24.849  27.146  1.00  0.00     0.065 H 
ATOM     82  C   UNL A   1      43.041  25.121  28.171  1.00  0.00     0.037 A 
ATOM     83  C   UNL A   1      44.853  30.286  31.728  1.00  0.00     0.049 A 
ATOM     84  C   UNL A   1      44.328  25.511  28.847  1.00  0.00     0.074 A 
ATOM     85  C   UNL A   1      46.063  30.497  32.367  1.00  0.00    -0.036 A 
ATOM     86  N   UNL A   1      44.955  29.068  31.071  1.00  0.00    -0.354 N 
ATOM     87  N   UNL A   1      44.598  26.573  29.565  1.00  0.00    -0.248 NA
ATOM     88  C   UNL A   1      45.459  24.583  28.701  1.00  0.00    -0.034 C 
ATOM     89  C   UNL A   1      46.914  29.431  32.056  1.00  0.00    -0.036 A 
ATOM     90  H   UNL A   1      46.297  31.302  32.968  1.00  0.00     0.065 H 
ATOM     91  C   UNL A   1      46.216  28.528  31.270  1.00  0.00     0.049 A 
ATOM     92  H   UNL A   1      44.238  28.650  30.543  1.00  0.00     0.167 HD
ATOM     93  C   UNL A   1      45.914  26.430  29.981  1.00  0.00     0.074 A 
ATOM     94  C   UNL A   1      46.385  25.168  29.447  1.00  0.00    -0.034 C 
ATOM     95  H   UNL A   1      45.517  23.706  28.159  1.00  0.00     0.065 H 
ATOM     96  H   UNL A   1      47.895  29.333  32.360  1.00  0.00     0.065 H 
ATOM     97  C   UNL A   1      46.667  27.267  30.737  1.00  0.00     0.037 A 
ATOM     98  H   UNL A   1      47.322  24.775  29.625  1.00  0.00     0.065 H 
BRANCH  79  99
ATOM     99  C   UNL A   1      43.757  32.455  32.415  1.00  0.00     0.064 A 
ATOM    100  C   UNL A   1      43.408  32.590  33.768  1.00  0.00     0.173 A 
ATOM    101  C   UNL A   1      44.212  33.598  31.739  1.00  0.00     0.173 A 
ATOM    102  F   UNL A   1      42.958  31.531  34.458  1.00  0.00    -0.203 F 
ATOM    103  C   UNL A   1      43.480  33.824  34.408  1.00  0.00     0.198 A 
ATOM    104  C   UNL A   1      44.314  34.825  32.391  1.00  0.00     0.198 A 
ATOM    105  F   UNL A   1      44.566  33.525  30.447  1.00  0.00    -0.203 F 
ATOM    106  F   UNL A   1      43.091  33.938  35.685  1.00  0.00    -0.200 F 
ATOM    107  C   UNL A   1      43.939  34.939  33.722  1.00  0.00     0.200 A 
ATOM    108  F   UNL A   1      44.772  35.897  31.732  1.00  0.00    -0.200 F 
ATOM    109  F   UNL A   1      44.015  36.124  34.341  1.00  0.00    -0.200 F 
ENDBRANCH  79  99
BRANCH  82 110
ATOM    110  C   UNL A   1      42.937  23.849  27.407  1.00  0.00     0.064 A 
ATOM    111  C   UNL A   1      42.461  22.681  28.019  1.00  0.00     0.173 A 
ATOM    112  C   UNL A   1      43.313  23.774  26.059  1.00  0.00     0.173 A 
ATOM    113  F   UNL A   1      42.107  22.699  29.313  1.00  0.00    -0.203 F 
ATOM    114  C   UNL A   1      42.387  21.480  27.317  1.00  0.00     0.198 A 
ATOM    115  C   UNL A   1      43.210  22.578  25.349  1.00  0.00     0.198 A 
ATOM    116  F   UNL A   1      43.768  24.864  25.425  1.00  0.00    -0.203 F 
ATOM    117  F   UNL A   1      41.974  20.368  27.940  1.00  0.00    -0.200 F 
ATOM    118  C   UNL A   1      42.756  21.430  25.982  1.00  0.00     0.200 A 
ATOM    119  F   UNL A   1      43.553  22.539  24.054  1.00  0.00    -0.200 F 
ATOM    120  F   UNL A   1      42.681  20.276  25.306  1.00  0.00    -0.200 F 
ENDBRANCH  82 110
BRANCH  97 121
ATOM    121  C   UNL A   1      48.065  26.829  31.064  1.00  0.00     0.064 A 
ATOM    122  C   UNL A   1      48.337  25.977  32.144  1.00  0.00     0.173 A 
ATOM    123  C   UNL A   1      49.141  27.236  30.261  1.00  0.00     0.173 A 
ATOM    124  F   UNL A   1      47.345  25.573  32.952  1.00  0.00    -0.203 F 
ATOM    125  C   UNL A   1      49.639  25.570  32.425  1.00  0.00     0.198 A 
ATOM    126  C   UNL A   1      50.437  26.802  30.525  1.00  0.00     0.198 A 
ATOM    127  F   UNL A   1      48.935  28.046  29.211  1.00  0.00    -0.203 F 
ATOM    128  F   UNL A   1      49.881  24.797  33.492  1.00  0.00    -0.200 F 
ATOM    129  C   UNL A   1      50.687  25.976  31.611  1.00  0.00     0.200 A 
ATOM    130  F   UNL A   1      51.446  27.184  29.729  1.00  0.00    -0.200 F 
ATOM    131  F   UNL A   1      51.938  25.577  31.878  1.00  0.00    -0.200 F 
ENDBRANCH  97 121
ENDBRANCH  62  65
ENDBRANCH  52  55
ENDBRANCH  48  51
ENDBRANCH  45  48
ENDBRANCH  42  45
ENDBRANCH   1  42
TORSDOF 17
ENDMDL
MODEL 7
REMARK VINA RESULT:     -12.0      3.980      8.790
REMARK SMILES Nc1c(CC(=O)NCCCCCCNC(=O)c2ccc(-c3c4nc(c(-c5c(F)c(F)c(F)c(F)c5F)c5ccc([nH]5)c(-c5c(F)c(F)c(F)c(F)c5F)c5nc(c(-c6c(F)c(F)c(F)c(F)c6F)c6ccc3[nH]6)C=C5)C=C4)cc2)cccc1C(=O)c1ccc(Br)cc1
REMARK SMILES IDX 10 1 9 4 8 7 7 10 5 11 6 12 4 14 3 17 2 18 83 19 80 20 82 21
REMARK SMILES IDX 81 22 1 26 84 29 85 30 86 31 87 32 92 33 88 34 91 36 89 38
REMARK SMILES IDX 90 41 11 42 12 45 13 48 14 51 15 52 16 54 17 55 18 56 79 57
REMARK SMILES IDX 19 58 78 60 20 62 21 65 22 66 72 67 23 68 77 69 71 70 73 71
REMARK SMILES IDX 24 72 76 73 70 75 69 77 25 79 57 82 37 83 56 84 38 85 41 86
REMARK SMILES IDX 55 87 74 88 39 89 40 91 54 93 75 94 42 97 26 99 27 100
REMARK SMILES IDX 35 101 28 102 29 103 33 104 36 105 30 106 31 107 34 108
REMARK SMILES IDX 32 109 58 110 59 111 67 112 60 113 61 114 65 115 68 116
REMARK SMILES IDX 62 117 63 118 66 119 64 120 43 121 44 122 52 123 45 124
REMARK SMILES IDX 46 125 50 126 53 127 47 128 48 129 51 130 49 131
REMARK H PARENT 10 2 10 3 9 5 9 6 8 8 8 9 7 13 4 15 4 16 80 23 82 24 81 25
REMARK H PARENT 1 27 1 28 87 35 92 37 88 39 91 40 11 43 11 44 12 46 12 47
REMARK H PARENT 13 49 13 50 14 53 18 59 79 61 19 63 78 64 77 74 71 76 73 78
REMARK H PARENT 76 80 70 81 38 90 41 92 74 95 39 96 75 98
REMARK Flexibility Score: inf
ROOT
ATOM      1  C   UNL A   1      31.988  28.714  24.569  1.00  0.00    -0.052 C 
ATOM      2  H   UNL A   1      32.698  29.507  24.467  1.00  0.00     0.027 H 
ATOM      3  H   UNL A   1      32.355  27.771  24.220  1.00  0.00     0.027 H 
ENDROOT
BRANCH   1   4
ATOM      4  C   UNL A   1      30.768  29.051  23.702  1.00  0.00    -0.036 C 
ATOM      5  H   UNL A   1      29.887  28.951  24.302  1.00  0.00     0.028 H 
ATOM      6  H   UNL A   1      30.898  30.051  23.343  1.00  0.00     0.028 H 
BRANCH   4   7
ATOM      7  C   UNL A   1      30.629  28.144  22.480  1.00  0.00     0.017 C 
ATOM      8  H   UNL A   1      30.052  27.284  22.746  1.00  0.00     0.049 H 
ATOM      9  H   UNL A   1      30.144  28.695  21.701  1.00  0.00     0.049 H 
BRANCH   7  10
ATOM     10  N   UNL A   1      31.925  27.713  21.999  1.00  0.00    -0.356 N 
ATOM     11  C   UNL A   1      32.469  26.462  21.999  1.00  0.00     0.224 C 
ATOM     12  O   UNL A   1      33.647  26.341  21.655  1.00  0.00    -0.275 OA
ATOM     13  H   UNL A   1      32.493  28.422  21.621  1.00  0.00     0.163 HD
BRANCH  11  14
ATOM     14  C   UNL A   1      31.620  25.246  22.330  1.00  0.00     0.054 C 
ATOM     15  H   UNL A   1      30.593  25.508  22.182  1.00  0.00     0.042 H 
ATOM     16  H   UNL A   1      31.957  24.463  21.683  1.00  0.00     0.042 H 
BRANCH  14  17
ATOM     17  C   UNL A   1      31.770  24.717  23.747  1.00  0.00    -0.015 A 
ATOM     18  C   UNL A   1      32.805  23.817  24.128  1.00  0.00     0.046 A 
ATOM     19  C   UNL A   1      32.818  23.312  25.454  1.00  0.00     0.046 A 
ATOM     20  C   UNL A   1      30.806  25.120  24.688  1.00  0.00    -0.056 A 
ATOM     21  C   UNL A   1      31.825  23.732  26.362  1.00  0.00    -0.049 A 
ATOM     22  C   UNL A   1      30.832  24.631  25.986  1.00  0.00    -0.061 A 
ATOM     23  H   UNL A   1      30.070  25.789  24.411  1.00  0.00     0.063 H 
ATOM     24  H   UNL A   1      31.834  23.364  27.325  1.00  0.00     0.063 H 
ATOM     25  H   UNL A   1      30.119  24.931  26.669  1.00  0.00     0.062 H 
BRANCH  18  26
ATOM     26  N   UNL A   1      33.734  23.436  23.166  1.00  0.00    -0.398 N 
ATOM     27  H   UNL A   1      34.479  22.841  23.409  1.00  0.00     0.156 HD
ATOM     28  H   UNL A   1      33.647  23.762  22.240  1.00  0.00     0.156 HD
ENDBRANCH  18  26
BRANCH  19  29
ATOM     29  C   UNL A   1      33.781  22.299  26.009  1.00  0.00     0.195 C 
ATOM     30  O   UNL A   1      34.488  22.583  26.977  1.00  0.00    -0.289 OA
BRANCH  29  31
ATOM     31  C   UNL A   1      33.887  20.915  25.513  1.00  0.00     0.023 A 
ATOM     32  C   UNL A   1      32.698  20.207  25.296  1.00  0.00    -0.050 A 
ATOM     33  C   UNL A   1      35.123  20.328  25.221  1.00  0.00    -0.050 A 
ATOM     34  C   UNL A   1      32.739  18.941  24.713  1.00  0.00    -0.047 A 
ATOM     35  H   UNL A   1      31.792  20.623  25.566  1.00  0.00     0.063 H 
ATOM     36  C   UNL A   1      35.160  19.065  24.625  1.00  0.00    -0.047 A 
ATOM     37  H   UNL A   1      36.000  20.824  25.444  1.00  0.00     0.063 H 
ATOM     38  C   UNL A   1      33.968  18.384  24.362  1.00  0.00     0.018 A 
ATOM     39  H   UNL A   1      31.864  18.419  24.542  1.00  0.00     0.063 H 
ATOM     40  H   UNL A   1      36.065  18.635  24.379  1.00  0.00     0.063 H 
ATOM     41  Br  UNL A   1      34.019  16.702  23.501  1.00  0.00    -0.051 Br
ENDBRANCH  29  31
ENDBRANCH  19  29
ENDBRANCH  14  17
ENDBRANCH  11  14
ENDBRANCH   7  10
ENDBRANCH   4   7
ENDBRANCH   1   4
BRANCH   1  42
ATOM     42  C   UNL A   1      31.685  28.534  26.062  1.00  0.00    -0.052 C 
ATOM     43  H   UNL A   1      30.752  28.018  26.151  1.00  0.00     0.027 H 
ATOM     44  H   UNL A   1      31.669  29.515  26.486  1.00  0.00     0.027 H 
BRANCH  42  45
ATOM     45  C   UNL A   1      32.741  27.747  26.843  1.00  0.00    -0.036 C 
ATOM     46  H   UNL A   1      32.884  26.805  26.357  1.00  0.00     0.028 H 
ATOM     47  H   UNL A   1      32.370  27.647  27.842  1.00  0.00     0.028 H 
BRANCH  45  48
ATOM     48  C   UNL A   1      34.093  28.442  26.945  1.00  0.00     0.018 C 
ATOM     49  H   UNL A   1      34.538  28.481  25.973  1.00  0.00     0.049 H 
ATOM     50  H   UNL A   1      34.703  27.885  27.626  1.00  0.00     0.049 H 
BRANCH  48  51
ATOM     51  N   UNL A   1      33.967  29.798  27.460  1.00  0.00    -0.352 N 
ATOM     52  C   UNL A   1      34.836  30.520  28.233  1.00  0.00     0.251 C 
ATOM     53  H   UNL A   1      33.135  30.264  27.216  1.00  0.00     0.163 HD
ATOM     54  O   UNL A   1      34.471  31.575  28.755  1.00  0.00    -0.269 OA
BRANCH  52  55
ATOM     55  C   UNL A   1      36.211  30.031  28.457  1.00  0.00     0.039 A 
ATOM     56  C   UNL A   1      37.142  30.129  27.420  1.00  0.00    -0.049 A 
ATOM     57  C   UNL A   1      36.575  29.461  29.680  1.00  0.00    -0.049 A 
ATOM     58  C   UNL A   1      38.456  29.704  27.628  1.00  0.00    -0.053 A 
ATOM     59  H   UNL A   1      36.861  30.514  26.506  1.00  0.00     0.063 H 
ATOM     60  C   UNL A   1      37.902  29.104  29.910  1.00  0.00    -0.053 A 
ATOM     61  H   UNL A   1      35.864  29.303  30.411  1.00  0.00     0.063 H 
ATOM     62  C   UNL A   1      38.853  29.218  28.884  1.00  0.00    -0.014 A 
ATOM     63  H   UNL A   1      39.138  29.749  26.856  1.00  0.00     0.063 H 
ATOM     64  H   UNL A   1      38.186  28.756  30.839  1.00  0.00     0.063 H 
BRANCH  62  65
ATOM     65  C   UNL A   1      40.257  28.814  29.144  1.00  0.00     0.031 A 
ATOM     66  C   UNL A   1      41.197  29.758  29.840  1.00  0.00     0.074 A 
ATOM     67  C   UNL A   1      40.701  27.624  28.697  1.00  0.00     0.049 A 
ATOM     68  N   UNL A   1      42.474  29.619  30.094  1.00  0.00    -0.248 NA
ATOM     69  C   UNL A   1      40.633  31.041  30.288  1.00  0.00    -0.034 C 
ATOM     70  C   UNL A   1      39.896  26.640  27.972  1.00  0.00    -0.036 A 
ATOM     71  N   UNL A   1      41.943  27.044  28.777  1.00  0.00    -0.354 N 
ATOM     72  C   UNL A   1      42.866  30.797  30.716  1.00  0.00     0.074 A 
ATOM     73  C   UNL A   1      41.708  31.662  30.751  1.00  0.00    -0.034 C 
ATOM     74  H   UNL A   1      39.656  31.370  30.250  1.00  0.00     0.065 H 
ATOM     75  C   UNL A   1      40.657  25.570  27.692  1.00  0.00    -0.036 A 
ATOM     76  H   UNL A   1      38.903  26.751  27.716  1.00  0.00     0.065 H 
ATOM     77  C   UNL A   1      42.012  25.808  28.182  1.00  0.00     0.049 A 
ATOM     78  H   UNL A   1      42.711  27.473  29.220  1.00  0.00     0.167 HD
ATOM     79  C   UNL A   1      44.077  31.119  31.230  1.00  0.00     0.037 A 
ATOM     80  H   UNL A   1      41.716  32.636  31.094  1.00  0.00     0.065 H 
ATOM     81  H   UNL A   1      40.336  24.717  27.208  1.00  0.00     0.065 H 
ATOM     82  C   UNL A   1      43.054  24.967  28.040  1.00  0.00     0.037 A 
ATOM     83  C   UNL A   1      45.222  30.246  31.210  1.00  0.00     0.049 A 
ATOM     84  C   UNL A   1      44.392  25.355  28.608  1.00  0.00     0.074 A 
ATOM     85  C   UNL A   1      46.477  30.455  31.755  1.00  0.00    -0.036 A 
ATOM     86  N   UNL A   1      45.250  28.995  30.609  1.00  0.00    -0.354 N 
ATOM     87  N   UNL A   1      44.734  26.443  29.254  1.00  0.00    -0.248 NA
ATOM     88  C   UNL A   1      45.489  24.392  28.432  1.00  0.00    -0.034 C 
ATOM     89  C   UNL A   1      47.280  29.353  31.441  1.00  0.00    -0.036 A 
ATOM     90  H   UNL A   1      46.770  31.281  32.300  1.00  0.00     0.065 H 
ATOM     91  C   UNL A   1      46.510  28.432  30.748  1.00  0.00     0.049 A 
ATOM     92  H   UNL A   1      44.490  28.572  30.150  1.00  0.00     0.167 HD
ATOM     93  C   UNL A   1      46.072  26.285  29.587  1.00  0.00     0.074 A 
ATOM     94  C   UNL A   1      46.477  24.988  29.085  1.00  0.00    -0.034 C 
ATOM     95  H   UNL A   1      45.489  23.490  27.932  1.00  0.00     0.065 H 
ATOM     96  H   UNL A   1      48.277  29.244  31.683  1.00  0.00     0.065 H 
ATOM     97  C   UNL A   1      46.894  27.137  30.249  1.00  0.00     0.037 A 
ATOM     98  H   UNL A   1      47.414  24.578  29.219  1.00  0.00     0.065 H 
BRANCH  79  99
ATOM     99  C   UNL A   1      44.225  32.473  31.861  1.00  0.00     0.064 A 
ATOM    100  C   UNL A   1      44.616  33.595  31.114  1.00  0.00     0.173 A 
ATOM    101  C   UNL A   1      43.940  32.661  33.222  1.00  0.00     0.173 A 
ATOM    102  F   UNL A   1      44.911  33.470  29.811  1.00  0.00    -0.203 F 
ATOM    103  C   UNL A   1      44.747  34.846  31.712  1.00  0.00     0.198 A 
ATOM    104  C   UNL A   1      44.040  33.919  33.810  1.00  0.00     0.198 A 
ATOM    105  F   UNL A   1      43.555  31.625  33.982  1.00  0.00    -0.203 F 
ATOM    106  F   UNL A   1      45.173  35.891  30.989  1.00  0.00    -0.200 F 
ATOM    107  C   UNL A   1      44.453  35.009  33.057  1.00  0.00     0.200 A 
ATOM    108  F   UNL A   1      43.741  34.078  35.106  1.00  0.00    -0.200 F 
ATOM    109  F   UNL A   1      44.572  36.214  33.629  1.00  0.00    -0.200 F 
ENDBRANCH  79  99
BRANCH  82 110
ATOM    110  C   UNL A   1      42.868  23.664  27.348  1.00  0.00     0.064 A 
ATOM    111  C   UNL A   1      43.261  23.498  26.012  1.00  0.00     0.173 A 
ATOM    112  C   UNL A   1      42.293  22.565  28.001  1.00  0.00     0.173 A 
ATOM    113  F   UNL A   1      43.798  24.526  25.339  1.00  0.00    -0.203 F 
ATOM    114  C   UNL A   1      43.064  22.289  25.349  1.00  0.00     0.198 A 
ATOM    115  C   UNL A   1      42.123  21.347  27.345  1.00  0.00     0.198 A 
ATOM    116  F   UNL A   1      41.907  22.669  29.280  1.00  0.00    -0.203 F 
ATOM    117  F   UNL A   1      43.404  22.172  24.058  1.00  0.00    -0.200 F 
ATOM    118  C   UNL A   1      42.500  21.212  26.017  1.00  0.00     0.200 A 
ATOM    119  F   UNL A   1      41.594  20.304  28.000  1.00  0.00    -0.200 F 
ATOM    120  F   UNL A   1      42.315  20.048  25.381  1.00  0.00    -0.200 F 
ENDBRANCH  82 110
BRANCH  97 121
ATOM    121  C   UNL A   1      48.301  26.679  30.503  1.00  0.00     0.064 A 
ATOM    122  C   UNL A   1      49.352  27.014  29.637  1.00  0.00     0.173 A 
ATOM    123  C   UNL A   1      48.606  25.929  31.649  1.00  0.00     0.173 A 
ATOM    124  F   UNL A   1      49.110  27.715  28.520  1.00  0.00    -0.203 F 
ATOM    125  C   UNL A   1      50.654  26.591  29.896  1.00  0.00     0.198 A 
ATOM    126  C   UNL A   1      49.914  25.536  31.922  1.00  0.00     0.198 A 
ATOM    127  F   UNL A   1      47.638  25.588  32.513  1.00  0.00    -0.203 F 
ATOM    128  F   UNL A   1      51.634  26.880  29.030  1.00  0.00    -0.200 F 
ATOM    129  C   UNL A   1      50.935  25.860  31.041  1.00  0.00     0.200 A 
ATOM    130  F   UNL A   1      50.185  24.842  33.036  1.00  0.00    -0.200 F 
ATOM    131  F   UNL A   1      52.190  25.462  31.293  1.00  0.00    -0.200 F 
ENDBRANCH  97 121
ENDBRANCH  62  65
ENDBRANCH  52  55
ENDBRANCH  48  51
ENDBRANCH  45  48
ENDBRANCH  42  45
ENDBRANCH   1  42
TORSDOF 17
ENDMDL
MODEL 8
REMARK VINA RESULT:     -12.0      1.788      2.249
REMARK SMILES Nc1c(CC(=O)NCCCCCCNC(=O)c2ccc(-c3c4nc(c(-c5c(F)c(F)c(F)c(F)c5F)c5ccc([nH]5)c(-c5c(F)c(F)c(F)c(F)c5F)c5nc(c(-c6c(F)c(F)c(F)c(F)c6F)c6ccc3[nH]6)C=C5)C=C4)cc2)cccc1C(=O)c1ccc(Br)cc1
REMARK SMILES IDX 10 1 9 4 8 7 7 10 5 11 6 12 4 14 3 17 2 18 83 19 80 20 82 21
REMARK SMILES IDX 81 22 1 26 84 29 85 30 86 31 87 32 92 33 88 34 91 36 89 38
REMARK SMILES IDX 90 41 11 42 12 45 13 48 14 51 15 52 16 54 17 55 18 56 79 57
REMARK SMILES IDX 19 58 78 60 20 62 21 65 22 66 72 67 23 68 77 69 71 70 73 71
REMARK SMILES IDX 24 72 76 73 70 75 69 77 25 79 57 82 37 83 56 84 38 85 41 86
REMARK SMILES IDX 55 87 74 88 39 89 40 91 54 93 75 94 42 97 26 99 27 100
REMARK SMILES IDX 35 101 28 102 29 103 33 104 36 105 30 106 31 107 34 108
REMARK SMILES IDX 32 109 58 110 59 111 67 112 60 113 61 114 65 115 68 116
REMARK SMILES IDX 62 117 63 118 66 119 64 120 43 121 44 122 52 123 45 124
REMARK SMILES IDX 46 125 50 126 53 127 47 128 48 129 51 130 49 131
REMARK H PARENT 10 2 10 3 9 5 9 6 8 8 8 9 7 13 4 15 4 16 80 23 82 24 81 25
REMARK H PARENT 1 27 1 28 87 35 92 37 88 39 91 40 11 43 11 44 12 46 12 47
REMARK H PARENT 13 49 13 50 14 53 18 59 79 61 19 63 78 64 77 74 71 76 73 78
REMARK H PARENT 76 80 70 81 38 90 41 92 74 95 39 96 75 98
REMARK Flexibility Score: inf
ROOT
ATOM      1  C   UNL A   1      32.522  30.206  27.196  1.00  0.00    -0.052 C 
ATOM      2  H   UNL A   1      33.475  30.446  26.772  1.00  0.00     0.027 H 
ATOM      3  H   UNL A   1      32.418  30.528  28.211  1.00  0.00     0.027 H 
ENDROOT
BRANCH   1   4
ATOM      4  C   UNL A   1      32.378  28.678  27.210  1.00  0.00    -0.036 C 
ATOM      5  H   UNL A   1      32.391  28.346  28.227  1.00  0.00     0.028 H 
ATOM      6  H   UNL A   1      31.455  28.441  26.722  1.00  0.00     0.028 H 
BRANCH   4   7
ATOM      7  C   UNL A   1      33.493  27.961  26.449  1.00  0.00     0.017 C 
ATOM      8  H   UNL A   1      34.367  27.923  27.064  1.00  0.00     0.049 H 
ATOM      9  H   UNL A   1      33.159  26.974  26.209  1.00  0.00     0.049 H 
BRANCH   7  10
ATOM     10  N   UNL A   1      33.811  28.651  25.217  1.00  0.00    -0.356 N 
ATOM     11  C   UNL A   1      33.155  28.619  24.020  1.00  0.00     0.224 C 
ATOM     12  O   UNL A   1      33.675  29.188  23.058  1.00  0.00    -0.275 OA
ATOM     13  H   UNL A   1      34.611  29.222  25.246  1.00  0.00     0.163 HD
BRANCH  11  14
ATOM     14  C   UNL A   1      31.783  27.974  23.904  1.00  0.00     0.054 C 
ATOM     15  H   UNL A   1      31.125  28.471  24.585  1.00  0.00     0.042 H 
ATOM     16  H   UNL A   1      31.493  28.077  22.879  1.00  0.00     0.042 H 
BRANCH  14  17
ATOM     17  C   UNL A   1      31.739  26.486  24.208  1.00  0.00    -0.015 A 
ATOM     18  C   UNL A   1      32.617  25.548  23.594  1.00  0.00     0.046 A 
ATOM     19  C   UNL A   1      32.448  24.167  23.877  1.00  0.00     0.046 A 
ATOM     20  C   UNL A   1      30.752  26.043  25.106  1.00  0.00    -0.056 A 
ATOM     21  C   UNL A   1      31.437  23.765  24.773  1.00  0.00    -0.049 A 
ATOM     22  C   UNL A   1      30.601  24.693  25.387  1.00  0.00    -0.061 A 
ATOM     23  H   UNL A   1      30.132  26.730  25.563  1.00  0.00     0.063 H 
ATOM     24  H   UNL A   1      31.315  22.762  24.978  1.00  0.00     0.063 H 
ATOM     25  H   UNL A   1      29.872  24.377  26.045  1.00  0.00     0.062 H 
BRANCH  18  26
ATOM     26  N   UNL A   1      33.574  26.025  22.706  1.00  0.00    -0.398 N 
ATOM     27  H   UNL A   1      34.277  25.423  22.368  1.00  0.00     0.156 HD
ATOM     28  H   UNL A   1      33.550  26.965  22.414  1.00  0.00     0.156 HD
ENDBRANCH  18  26
BRANCH  19  29
ATOM     29  C   UNL A   1      33.225  23.034  23.265  1.00  0.00     0.195 C 
ATOM     30  O   UNL A   1      32.824  22.497  22.232  1.00  0.00    -0.289 OA
BRANCH  29  31
ATOM     31  C   UNL A   1      34.519  22.556  23.784  1.00  0.00     0.023 A 
ATOM     32  C   UNL A   1      35.677  23.227  23.366  1.00  0.00    -0.050 A 
ATOM     33  C   UNL A   1      34.604  21.501  24.697  1.00  0.00    -0.050 A 
ATOM     34  C   UNL A   1      36.912  22.894  23.922  1.00  0.00    -0.047 A 
ATOM     35  H   UNL A   1      35.615  23.967  22.649  1.00  0.00     0.063 H 
ATOM     36  C   UNL A   1      35.841  21.177  25.261  1.00  0.00    -0.047 A 
ATOM     37  H   UNL A   1      33.760  20.964  24.952  1.00  0.00     0.063 H 
ATOM     38  C   UNL A   1      36.985  21.884  24.881  1.00  0.00     0.018 A 
ATOM     39  H   UNL A   1      37.766  23.390  23.624  1.00  0.00     0.063 H 
ATOM     40  H   UNL A   1      35.910  20.419  25.957  1.00  0.00     0.063 H 
ATOM     41  Br  UNL A   1      38.646  21.485  25.690  1.00  0.00    -0.051 Br
ENDBRANCH  29  31
ENDBRANCH  19  29
ENDBRANCH  14  17
ENDBRANCH  11  14
ENDBRANCH   7  10
ENDBRANCH   4   7
ENDBRANCH   1   4
BRANCH   1  42
ATOM     42  C   UNL A   1      31.443  30.945  26.395  1.00  0.00    -0.052 C 
ATOM     43  H   UNL A   1      30.490  30.551  26.680  1.00  0.00     0.027 H 
ATOM     44  H   UNL A   1      31.675  30.789  25.363  1.00  0.00     0.027 H 
BRANCH  42  45
ATOM     45  C   UNL A   1      31.412  32.462  26.604  1.00  0.00    -0.036 C 
ATOM     46  H   UNL A   1      30.556  32.700  27.200  1.00  0.00     0.028 H 
ATOM     47  H   UNL A   1      31.376  32.904  25.630  1.00  0.00     0.028 H 
BRANCH  45  48
ATOM     48  C   UNL A   1      32.648  33.026  27.295  1.00  0.00     0.018 C 
ATOM     49  H   UNL A   1      33.475  32.979  26.619  1.00  0.00     0.049 H 
ATOM     50  H   UNL A   1      32.833  32.441  28.172  1.00  0.00     0.049 H 
BRANCH  48  51
ATOM     51  N   UNL A   1      32.454  34.408  27.708  1.00  0.00    -0.352 N 
ATOM     52  C   UNL A   1      33.040  35.102  28.732  1.00  0.00     0.251 C 
ATOM     53  H   UNL A   1      31.807  34.920  27.170  1.00  0.00     0.163 HD
ATOM     54  O   UNL A   1      32.597  36.201  29.070  1.00  0.00    -0.269 OA
BRANCH  52  55
ATOM     55  C   UNL A   1      34.196  34.528  29.449  1.00  0.00     0.039 A 
ATOM     56  C   UNL A   1      33.987  33.895  30.677  1.00  0.00    -0.049 A 
ATOM     57  C   UNL A   1      35.487  34.630  28.920  1.00  0.00    -0.049 A 
ATOM     58  C   UNL A   1      35.065  33.317  31.349  1.00  0.00    -0.053 A 
ATOM     59  H   UNL A   1      33.041  33.857  31.084  1.00  0.00     0.063 H 
ATOM     60  C   UNL A   1      36.548  33.991  29.555  1.00  0.00    -0.053 A 
ATOM     61  H   UNL A   1      35.652  35.179  28.062  1.00  0.00     0.063 H 
ATOM     62  C   UNL A   1      36.348  33.333  30.778  1.00  0.00    -0.014 A 
ATOM     63  H   UNL A   1      34.918  32.874  32.269  1.00  0.00     0.063 H 
ATOM     64  H   UNL A   1      37.485  34.000  29.123  1.00  0.00     0.063 H 
BRANCH  62  65
ATOM     65  C   UNL A   1      37.496  32.674  31.449  1.00  0.00     0.031 A 
ATOM     66  C   UNL A   1      38.186  31.510  30.794  1.00  0.00     0.074 A 
ATOM     67  C   UNL A   1      37.877  33.084  32.674  1.00  0.00     0.049 A 
ATOM     68  N   UNL A   1      39.158  30.759  31.249  1.00  0.00    -0.248 NA
ATOM     69  C   UNL A   1      37.703  31.121  29.459  1.00  0.00    -0.034 C 
ATOM     70  C   UNL A   1      37.258  34.174  33.429  1.00  0.00    -0.036 A 
ATOM     71  N   UNL A   1      38.867  32.623  33.504  1.00  0.00    -0.354 N 
ATOM     72  C   UNL A   1      39.390  29.805  30.266  1.00  0.00     0.074 A 
ATOM     73  C   UNL A   1      38.423  30.037  29.216  1.00  0.00    -0.034 C 
ATOM     74  H   UNL A   1      36.989  31.576  28.869  1.00  0.00     0.065 H 
ATOM     75  C   UNL A   1      37.897  34.313  34.603  1.00  0.00    -0.036 A 
ATOM     76  H   UNL A   1      36.459  34.744  33.112  1.00  0.00     0.065 H 
ATOM     77  C   UNL A   1      38.942  33.298  34.699  1.00  0.00     0.049 A 
ATOM     78  H   UNL A   1      39.468  31.881  33.266  1.00  0.00     0.167 HD
ATOM     79  C   UNL A   1      40.338  28.840  30.234  1.00  0.00     0.037 A 
ATOM     80  H   UNL A   1      38.309  29.435  28.384  1.00  0.00     0.065 H 
ATOM     81  H   UNL A   1      37.683  35.023  35.320  1.00  0.00     0.065 H 
ATOM     82  C   UNL A   1      39.755  33.111  35.755  1.00  0.00     0.037 A 
ATOM     83  C   UNL A   1      41.312  28.627  31.273  1.00  0.00     0.049 A 
ATOM     84  C   UNL A   1      40.791  32.021  35.700  1.00  0.00     0.074 A 
ATOM     85  C   UNL A   1      42.350  27.713  31.310  1.00  0.00    -0.036 A 
ATOM     86  N   UNL A   1      41.363  29.338  32.464  1.00  0.00    -0.354 N 
ATOM     87  N   UNL A   1      41.046  31.169  34.737  1.00  0.00    -0.248 NA
ATOM     88  C   UNL A   1      41.658  31.872  36.877  1.00  0.00    -0.034 C 
ATOM     89  C   UNL A   1      43.000  27.837  32.543  1.00  0.00    -0.036 A 
ATOM     90  H   UNL A   1      42.602  27.053  30.557  1.00  0.00     0.065 H 
ATOM     91  C   UNL A   1      42.401  28.866  33.252  1.00  0.00     0.049 A 
ATOM     92  H   UNL A   1      40.753  30.069  32.712  1.00  0.00     0.167 HD
ATOM     93  C   UNL A   1      42.117  30.404  35.178  1.00  0.00     0.074 A 
ATOM     94  C   UNL A   1      42.475  30.903  36.490  1.00  0.00    -0.034 C 
ATOM     95  H   UNL A   1      41.635  32.386  37.772  1.00  0.00     0.065 H 
ATOM     96  H   UNL A   1      43.790  27.260  32.869  1.00  0.00     0.065 H 
ATOM     97  C   UNL A   1      42.749  29.379  34.553  1.00  0.00     0.037 A 
ATOM     98  H   UNL A   1      43.266  30.551  37.051  1.00  0.00     0.065 H 
BRANCH  79  99
ATOM     99  C   UNL A   1      40.371  27.939  29.033  1.00  0.00     0.064 A 
ATOM    100  C   UNL A   1      39.636  26.743  28.989  1.00  0.00     0.173 A 
ATOM    101  C   UNL A   1      41.117  28.291  27.898  1.00  0.00     0.173 A 
ATOM    102  F   UNL A   1      38.914  26.355  30.051  1.00  0.00    -0.203 F 
ATOM    103  C   UNL A   1      39.674  25.919  27.868  1.00  0.00     0.198 A 
ATOM    104  C   UNL A   1      41.126  27.480  26.765  1.00  0.00     0.198 A 
ATOM    105  F   UNL A   1      41.831  29.426  27.882  1.00  0.00    -0.203 F 
ATOM    106  F   UNL A   1      39.007  24.757  27.870  1.00  0.00    -0.200 F 
ATOM    107  C   UNL A   1      40.412  26.291  26.754  1.00  0.00     0.200 A 
ATOM    108  F   UNL A   1      41.828  27.848  25.685  1.00  0.00    -0.200 F 
ATOM    109  F   UNL A   1      40.442  25.500  25.674  1.00  0.00    -0.200 F 
ENDBRANCH  79  99
BRANCH  82 110
ATOM    110  C   UNL A   1      39.637  33.990  36.948  1.00  0.00     0.064 A 
ATOM    111  C   UNL A   1      38.854  33.610  38.047  1.00  0.00     0.173 A 
ATOM    112  C   UNL A   1      40.297  35.226  37.014  1.00  0.00     0.173 A 
ATOM    113  F   UNL A   1      38.188  32.446  38.023  1.00  0.00    -0.203 F 
ATOM    114  C   UNL A   1      38.717  34.442  39.156  1.00  0.00     0.198 A 
ATOM    115  C   UNL A   1      40.183  36.044  38.137  1.00  0.00     0.198 A 
ATOM    116  F   UNL A   1      41.065  35.633  35.993  1.00  0.00    -0.203 F 
ATOM    117  F   UNL A   1      37.923  34.075  40.171  1.00  0.00    -0.200 F 
ATOM    118  C   UNL A   1      39.385  35.655  39.203  1.00  0.00     0.200 A 
ATOM    119  F   UNL A   1      40.845  37.208  38.184  1.00  0.00    -0.200 F 
ATOM    120  F   UNL A   1      39.257  36.453  40.271  1.00  0.00    -0.200 F 
ENDBRANCH  82 110
BRANCH  97 121
ATOM    121  C   UNL A   1      43.915  28.755  35.262  1.00  0.00     0.064 A 
ATOM    122  C   UNL A   1      45.225  29.222  35.080  1.00  0.00     0.173 A 
ATOM    123  C   UNL A   1      43.713  27.702  36.167  1.00  0.00     0.173 A 
ATOM    124  F   UNL A   1      45.473  30.217  34.214  1.00  0.00    -0.203 F 
ATOM    125  C   UNL A   1      46.294  28.639  35.756  1.00  0.00     0.198 A 
ATOM    126  C   UNL A   1      44.779  27.142  36.866  1.00  0.00     0.198 A 
ATOM    127  F   UNL A   1      42.479  27.222  36.383  1.00  0.00    -0.203 F 
ATOM    128  F   UNL A   1      47.542  29.069  35.529  1.00  0.00    -0.200 F 
ATOM    129  C   UNL A   1      46.070  27.606  36.655  1.00  0.00     0.200 A 
ATOM    130  F   UNL A   1      44.558  26.154  37.744  1.00  0.00    -0.200 F 
ATOM    131  F   UNL A   1      47.098  27.052  37.312  1.00  0.00    -0.200 F 
ENDBRANCH  97 121
ENDBRANCH  62  65
ENDBRANCH  52  55
ENDBRANCH  48  51
ENDBRANCH  45  48
ENDBRANCH  42  45
ENDBRANCH   1  42
TORSDOF 17
ENDMDL
MODEL 9
REMARK VINA RESULT:     -11.8      1.339      7.290
REMARK SMILES Nc1c(CC(=O)NCCCCCCNC(=O)c2ccc(-c3c4nc(c(-c5c(F)c(F)c(F)c(F)c5F)c5ccc([nH]5)c(-c5c(F)c(F)c(F)c(F)c5F)c5nc(c(-c6c(F)c(F)c(F)c(F)c6F)c6ccc3[nH]6)C=C5)C=C4)cc2)cccc1C(=O)c1ccc(Br)cc1
REMARK SMILES IDX 10 1 9 4 8 7 7 10 5 11 6 12 4 14 3 17 2 18 83 19 80 20 82 21
REMARK SMILES IDX 81 22 1 26 84 29 85 30 86 31 87 32 92 33 88 34 91 36 89 38
REMARK SMILES IDX 90 41 11 42 12 45 13 48 14 51 15 52 16 54 17 55 18 56 79 57
REMARK SMILES IDX 19 58 78 60 20 62 21 65 22 66 72 67 23 68 77 69 71 70 73 71
REMARK SMILES IDX 24 72 76 73 70 75 69 77 25 79 57 82 37 83 56 84 38 85 41 86
REMARK SMILES IDX 55 87 74 88 39 89 40 91 54 93 75 94 42 97 26 99 27 100
REMARK SMILES IDX 35 101 28 102 29 103 33 104 36 105 30 106 31 107 34 108
REMARK SMILES IDX 32 109 58 110 59 111 67 112 60 113 61 114 65 115 68 116
REMARK SMILES IDX 62 117 63 118 66 119 64 120 43 121 44 122 52 123 45 124
REMARK SMILES IDX 46 125 50 126 53 127 47 128 48 129 51 130 49 131
REMARK H PARENT 10 2 10 3 9 5 9 6 8 8 8 9 7 13 4 15 4 16 80 23 82 24 81 25
REMARK H PARENT 1 27 1 28 87 35 92 37 88 39 91 40 11 43 11 44 12 46 12 47
REMARK H PARENT 13 49 13 50 14 53 18 59 79 61 19 63 78 64 77 74 71 76 73 78
REMARK H PARENT 76 80 70 81 38 90 41 92 74 95 39 96 75 98
REMARK Flexibility Score: inf
ROOT
ATOM      1  C   UNL A   1      31.708  29.710  26.790  1.00  0.00    -0.052 C 
ATOM      2  H   UNL A   1      32.633  29.874  27.302  1.00  0.00     0.027 H 
ATOM      3  H   UNL A   1      30.873  29.611  27.451  1.00  0.00     0.027 H 
ENDROOT
BRANCH   1   4
ATOM      4  C   UNL A   1      31.814  28.385  26.025  1.00  0.00    -0.036 C 
ATOM      5  H   UNL A   1      32.312  27.672  26.648  1.00  0.00     0.028 H 
ATOM      6  H   UNL A   1      30.818  28.078  25.780  1.00  0.00     0.028 H 
BRANCH   4   7
ATOM      7  C   UNL A   1      32.587  28.509  24.712  1.00  0.00     0.017 C 
ATOM      8  H   UNL A   1      33.249  29.347  24.773  1.00  0.00     0.049 H 
ATOM      9  H   UNL A   1      33.139  27.605  24.556  1.00  0.00     0.049 H 
BRANCH   7  10
ATOM     10  N   UNL A   1      31.688  28.697  23.592  1.00  0.00    -0.356 N 
ATOM     11  C   UNL A   1      30.797  27.819  23.049  1.00  0.00     0.224 C 
ATOM     12  O   UNL A   1      30.218  28.146  22.011  1.00  0.00    -0.275 OA
ATOM     13  H   UNL A   1      31.727  29.582  23.163  1.00  0.00     0.163 HD
BRANCH  11  14
ATOM     14  C   UNL A   1      30.465  26.513  23.755  1.00  0.00     0.054 C 
ATOM     15  H   UNL A   1      30.406  26.710  24.805  1.00  0.00     0.042 H 
ATOM     16  H   UNL A   1      29.542  26.174  23.332  1.00  0.00     0.042 H 
BRANCH  14  17
ATOM     17  C   UNL A   1      31.466  25.390  23.542  1.00  0.00    -0.015 A 
ATOM     18  C   UNL A   1      31.832  24.479  24.572  1.00  0.00     0.046 A 
ATOM     19  C   UNL A   1      32.837  23.512  24.305  1.00  0.00     0.046 A 
ATOM     20  C   UNL A   1      32.068  25.298  22.274  1.00  0.00    -0.056 A 
ATOM     21  C   UNL A   1      33.424  23.464  23.025  1.00  0.00    -0.049 A 
ATOM     22  C   UNL A   1      33.041  24.343  22.017  1.00  0.00    -0.061 A 
ATOM     23  H   UNL A   1      31.783  25.949  21.525  1.00  0.00     0.063 H 
ATOM     24  H   UNL A   1      34.155  22.762  22.831  1.00  0.00     0.063 H 
ATOM     25  H   UNL A   1      33.479  24.285  21.084  1.00  0.00     0.062 H 
BRANCH  18  26
ATOM     26  N   UNL A   1      31.220  24.608  25.814  1.00  0.00    -0.398 N 
ATOM     27  H   UNL A   1      31.769  24.686  26.628  1.00  0.00     0.156 HD
ATOM     28  H   UNL A   1      30.237  24.620  25.880  1.00  0.00     0.156 HD
ENDBRANCH  18  26
BRANCH  19  29
ATOM     29  C   UNL A   1      33.404  22.526  25.289  1.00  0.00     0.195 C 
ATOM     30  O   UNL A   1      33.712  22.893  26.424  1.00  0.00    -0.289 OA
BRANCH  29  31
ATOM     31  C   UNL A   1      33.549  21.086  25.011  1.00  0.00     0.023 A 
ATOM     32  C   UNL A   1      32.393  20.366  24.682  1.00  0.00    -0.050 A 
ATOM     33  C   UNL A   1      34.796  20.453  25.027  1.00  0.00    -0.050 A 
ATOM     34  C   UNL A   1      32.493  19.031  24.292  1.00  0.00    -0.047 A 
ATOM     35  H   UNL A   1      31.469  20.823  24.728  1.00  0.00     0.063 H 
ATOM     36  C   UNL A   1      34.895  19.119  24.624  1.00  0.00    -0.047 A 
ATOM     37  H   UNL A   1      35.637  20.967  25.334  1.00  0.00     0.063 H 
ATOM     38  C   UNL A   1      33.745  18.419  24.246  1.00  0.00     0.018 A 
ATOM     39  H   UNL A   1      31.645  18.498  24.041  1.00  0.00     0.063 H 
ATOM     40  H   UNL A   1      35.814  18.651  24.605  1.00  0.00     0.063 H 
ATOM     41  Br  UNL A   1      33.890  16.633  23.643  1.00  0.00    -0.051 Br
ENDBRANCH  29  31
ENDBRANCH  19  29
ENDBRANCH  14  17
ENDBRANCH  11  14
ENDBRANCH   7  10
ENDBRANCH   4   7
ENDBRANCH   1   4
BRANCH   1  42
ATOM     42  C   UNL A   1      31.423  30.937  25.915  1.00  0.00    -0.052 C 
ATOM     43  H   UNL A   1      30.499  30.772  25.403  1.00  0.00     0.027 H 
ATOM     44  H   UNL A   1      32.260  31.037  25.256  1.00  0.00     0.027 H 
BRANCH  42  45
ATOM     45  C   UNL A   1      31.316  32.261  26.676  1.00  0.00    -0.036 C 
ATOM     46  H   UNL A   1      30.725  32.096  27.553  1.00  0.00     0.028 H 
ATOM     47  H   UNL A   1      30.874  32.966  26.003  1.00  0.00     0.028 H 
BRANCH  45  48
ATOM     48  C   UNL A   1      32.655  32.848  27.106  1.00  0.00     0.018 C 
ATOM     49  H   UNL A   1      33.316  32.859  26.265  1.00  0.00     0.049 H 
ATOM     50  H   UNL A   1      33.046  32.240  27.895  1.00  0.00     0.049 H 
BRANCH  48  51
ATOM     51  N   UNL A   1      32.514  34.206  27.612  1.00  0.00    -0.352 N 
ATOM     52  C   UNL A   1      33.136  34.810  28.672  1.00  0.00     0.251 C 
ATOM     53  H   UNL A   1      31.879  34.774  27.119  1.00  0.00     0.163 HD
ATOM     54  O   UNL A   1      32.735  35.898  29.087  1.00  0.00    -0.269 OA
BRANCH  52  55
ATOM     55  C   UNL A   1      34.281  34.151  29.332  1.00  0.00     0.039 A 
ATOM     56  C   UNL A   1      34.035  33.224  30.348  1.00  0.00    -0.049 A 
ATOM     57  C   UNL A   1      35.593  34.461  28.963  1.00  0.00    -0.049 A 
ATOM     58  C   UNL A   1      35.106  32.566  30.957  1.00  0.00    -0.053 A 
ATOM     59  H   UNL A   1      33.068  33.027  30.647  1.00  0.00     0.063 H 
ATOM     60  C   UNL A   1      36.654  33.753  29.520  1.00  0.00    -0.053 A 
ATOM     61  H   UNL A   1      35.775  35.213  28.280  1.00  0.00     0.063 H 
ATOM     62  C   UNL A   1      36.421  32.803  30.526  1.00  0.00    -0.014 A 
ATOM     63  H   UNL A   1      34.929  31.903  31.727  1.00  0.00     0.063 H 
ATOM     64  H   UNL A   1      37.617  33.927  29.190  1.00  0.00     0.063 H 
BRANCH  62  65
ATOM     65  C   UNL A   1      37.568  32.073  31.121  1.00  0.00     0.031 A 
ATOM     66  C   UNL A   1      38.051  32.421  32.501  1.00  0.00     0.074 A 
ATOM     67  C   UNL A   1      38.213  31.140  30.394  1.00  0.00     0.049 A 
ATOM     68  N   UNL A   1      39.077  31.949  33.164  1.00  0.00    -0.248 NA
ATOM     69  C   UNL A   1      37.295  33.457  33.223  1.00  0.00    -0.034 C 
ATOM     70  C   UNL A   1      37.865  30.745  29.029  1.00  0.00    -0.036 A 
ATOM     71  N   UNL A   1      39.303  30.364  30.697  1.00  0.00    -0.354 N 
ATOM     72  C   UNL A   1      39.097  32.639  34.369  1.00  0.00     0.074 A 
ATOM     73  C   UNL A   1      38.016  33.599  34.325  1.00  0.00    -0.034 C 
ATOM     74  H   UNL A   1      36.431  33.945  32.943  1.00  0.00     0.065 H 
ATOM     75  C   UNL A   1      38.710  29.785  28.620  1.00  0.00    -0.036 A 
ATOM     76  H   UNL A   1      37.093  31.140  28.469  1.00  0.00     0.065 H 
ATOM     77  C   UNL A   1      39.683  29.527  29.677  1.00  0.00     0.049 A 
ATOM     78  H   UNL A   1      39.768  30.404  31.564  1.00  0.00     0.167 HD
ATOM     79  C   UNL A   1      39.928  32.469  35.425  1.00  0.00     0.037 A 
ATOM     80  H   UNL A   1      37.831  34.302  35.058  1.00  0.00     0.065 H 
ATOM     81  H   UNL A   1      38.678  29.308  27.706  1.00  0.00     0.065 H 
ATOM     82  C   UNL A   1      40.708  28.656  29.601  1.00  0.00     0.037 A 
ATOM     83  C   UNL A   1      40.989  31.498  35.472  1.00  0.00     0.049 A 
ATOM     84  C   UNL A   1      41.625  28.498  30.784  1.00  0.00     0.074 A 
ATOM     85  C   UNL A   1      41.849  31.208  36.516  1.00  0.00    -0.036 A 
ATOM     86  N   UNL A   1      41.337  30.658  34.423  1.00  0.00    -0.354 N 
ATOM     87  N   UNL A   1      41.593  29.106  31.944  1.00  0.00    -0.248 NA
ATOM     88  C   UNL A   1      42.718  27.525  30.647  1.00  0.00    -0.034 C 
ATOM     89  C   UNL A   1      42.750  30.228  36.084  1.00  0.00    -0.036 A 
ATOM     90  H   UNL A   1      41.831  31.640  37.454  1.00  0.00     0.065 H 
ATOM     91  C   UNL A   1      42.416  29.867  34.788  1.00  0.00     0.049 A 
ATOM     92  H   UNL A   1      40.885  30.629  33.549  1.00  0.00     0.167 HD
ATOM     93  C   UNL A   1      42.638  28.572  32.684  1.00  0.00     0.074 A 
ATOM     94  C   UNL A   1      43.277  27.577  31.847  1.00  0.00    -0.034 C 
ATOM     95  H   UNL A   1      42.981  26.951  29.830  1.00  0.00     0.065 H 
ATOM     96  H   UNL A   1      43.531  29.840  36.635  1.00  0.00     0.065 H 
ATOM     97  C   UNL A   1      43.035  28.876  33.945  1.00  0.00     0.037 A 
ATOM     98  H   UNL A   1      44.066  26.984  32.147  1.00  0.00     0.065 H 
BRANCH  79  99
ATOM     99  C   UNL A   1      39.720  33.354  36.620  1.00  0.00     0.064 A 
ATOM    100  C   UNL A   1      38.813  33.017  37.637  1.00  0.00     0.173 A 
ATOM    101  C   UNL A   1      40.461  34.537  36.770  1.00  0.00     0.173 A 
ATOM    102  F   UNL A   1      38.072  31.903  37.539  1.00  0.00    -0.203 F 
ATOM    103  C   UNL A   1      38.632  33.846  38.741  1.00  0.00     0.198 A 
ATOM    104  C   UNL A   1      40.301  35.347  37.891  1.00  0.00     0.198 A 
ATOM    105  F   UNL A   1      41.347  34.903  35.832  1.00  0.00    -0.203 F 
ATOM    106  F   UNL A   1      37.722  33.530  39.672  1.00  0.00    -0.200 F 
ATOM    107  C   UNL A   1      39.380  35.007  38.871  1.00  0.00     0.200 A 
ATOM    108  F   UNL A   1      41.036  36.460  38.022  1.00  0.00    -0.200 F 
ATOM    109  F   UNL A   1      39.210  35.799  39.937  1.00  0.00    -0.200 F 
ENDBRANCH  79  99
BRANCH  82 110
ATOM    110  C   UNL A   1      40.908  27.850  28.368  1.00  0.00     0.064 A 
ATOM    111  C   UNL A   1      40.275  26.609  28.210  1.00  0.00     0.173 A 
ATOM    112  C   UNL A   1      41.736  28.297  27.329  1.00  0.00     0.173 A 
ATOM    113  F   UNL A   1      39.488  26.130  29.186  1.00  0.00    -0.203 F 
ATOM    114  C   UNL A   1      40.480  25.836  27.070  1.00  0.00     0.198 A 
ATOM    115  C   UNL A   1      41.917  27.535  26.175  1.00  0.00     0.198 A 
ATOM    116  F   UNL A   1      42.359  29.480  27.426  1.00  0.00    -0.203 F 
ATOM    117  F   UNL A   1      39.901  24.632  26.967  1.00  0.00    -0.200 F 
ATOM    118  C   UNL A   1      41.297  26.301  26.051  1.00  0.00     0.200 A 
ATOM    119  F   UNL A   1      42.694  27.998  25.186  1.00  0.00    -0.200 F 
ATOM    120  F   UNL A   1      41.491  25.560  24.953  1.00  0.00    -0.200 F 
ENDBRANCH  82 110
BRANCH  97 121
ATOM    121  C   UNL A   1      44.189  28.100  34.510  1.00  0.00     0.064 A 
ATOM    122  C   UNL A   1      45.508  28.567  34.415  1.00  0.00     0.173 A 
ATOM    123  C   UNL A   1      43.965  26.894  35.192  1.00  0.00     0.173 A 
ATOM    124  F   UNL A   1      45.776  29.706  33.760  1.00  0.00    -0.203 F 
ATOM    125  C   UNL A   1      46.565  27.840  34.957  1.00  0.00     0.198 A 
ATOM    126  C   UNL A   1      45.021  26.186  35.761  1.00  0.00     0.198 A 
ATOM    127  F   UNL A   1      42.722  26.407  35.317  1.00  0.00    -0.203 F 
ATOM    128  F   UNL A   1      47.822  28.279  34.811  1.00  0.00    -0.200 F 
ATOM    129  C   UNL A   1      46.320  26.655  35.637  1.00  0.00     0.200 A 
ATOM    130  F   UNL A   1      44.780  25.049  36.428  1.00  0.00    -0.200 F 
ATOM    131  F   UNL A   1      47.338  25.961  36.165  1.00  0.00    -0.200 F 
ENDBRANCH  97 121
ENDBRANCH  62  65
ENDBRANCH  52  55
ENDBRANCH  48  51
ENDBRANCH  45  48
ENDBRANCH  42  45
ENDBRANCH   1  42
TORSDOF 17
ENDMDL
MODEL 10
REMARK VINA RESULT:     -11.8      1.697      7.548
REMARK SMILES Nc1c(CC(=O)NCCCCCCNC(=O)c2ccc(-c3c4nc(c(-c5c(F)c(F)c(F)c(F)c5F)c5ccc([nH]5)c(-c5c(F)c(F)c(F)c(F)c5F)c5nc(c(-c6c(F)c(F)c(F)c(F)c6F)c6ccc3[nH]6)C=C5)C=C4)cc2)cccc1C(=O)c1ccc(Br)cc1
REMARK SMILES IDX 10 1 9 4 8 7 7 10 5 11 6 12 4 14 3 17 2 18 83 19 80 20 82 21
REMARK SMILES IDX 81 22 1 26 84 29 85 30 86 31 87 32 92 33 88 34 91 36 89 38
REMARK SMILES IDX 90 41 11 42 12 45 13 48 14 51 15 52 16 54 17 55 18 56 79 57
REMARK SMILES IDX 19 58 78 60 20 62 21 65 22 66 72 67 23 68 77 69 71 70 73 71
REMARK SMILES IDX 24 72 76 73 70 75 69 77 25 79 57 82 37 83 56 84 38 85 41 86
REMARK SMILES IDX 55 87 74 88 39 89 40 91 54 93 75 94 42 97 26 99 27 100
REMARK SMILES IDX 35 101 28 102 29 103 33 104 36 105 30 106 31 107 34 108
REMARK SMILES IDX 32 109 58 110 59 111 67 112 60 113 61 114 65 115 68 116
REMARK SMILES IDX 62 117 63 118 66 119 64 120 43 121 44 122 52 123 45 124
REMARK SMILES IDX 46 125 50 126 53 127 47 128 48 129 51 130 49 131
REMARK H PARENT 10 2 10 3 9 5 9 6 8 8 8 9 7 13 4 15 4 16 80 23 82 24 81 25
REMARK H PARENT 1 27 1 28 87 35 92 37 88 39 91 40 11 43 11 44 12 46 12 47
REMARK H PARENT 13 49 13 50 14 53 18 59 79 61 19 63 78 64 77 74 71 76 73 78
REMARK H PARENT 76 80 70 81 38 90 41 92 74 95 39 96 75 98
REMARK Flexibility Score: inf
ROOT
ATOM      1  C   UNL A   1      34.300  32.491  27.791  1.00  0.00    -0.052 C 
ATOM      2  H   UNL A   1      33.321  32.543  28.220  1.00  0.00     0.027 H 
ATOM      3  H   UNL A   1      34.315  32.719  26.746  1.00  0.00     0.027 H 
ENDROOT
BRANCH   1   4
ATOM      4  C   UNL A   1      34.803  31.048  27.926  1.00  0.00    -0.036 C 
ATOM      5  H   UNL A   1      35.836  31.021  27.645  1.00  0.00     0.028 H 
ATOM      6  H   UNL A   1      34.657  30.753  28.944  1.00  0.00     0.028 H 
BRANCH   4   7
ATOM      7  C   UNL A   1      34.035  30.058  27.050  1.00  0.00     0.017 C 
ATOM      8  H   UNL A   1      33.572  30.589  26.246  1.00  0.00     0.049 H 
ATOM      9  H   UNL A   1      34.724  29.332  26.674  1.00  0.00     0.049 H 
BRANCH   7  10
ATOM     10  N   UNL A   1      33.014  29.370  27.813  1.00  0.00    -0.356 N 
ATOM     11  C   UNL A   1      32.047  28.512  27.376  1.00  0.00     0.224 C 
ATOM     12  O   UNL A   1      31.195  28.137  28.185  1.00  0.00    -0.275 OA
ATOM     13  H   UNL A   1      33.018  29.547  28.780  1.00  0.00     0.163 HD
BRANCH  11  14
ATOM     14  C   UNL A   1      32.074  27.970  25.956  1.00  0.00     0.054 C 
ATOM     15  H   UNL A   1      31.064  27.886  25.614  1.00  0.00     0.042 H 
ATOM     16  H   UNL A   1      32.661  28.660  25.386  1.00  0.00     0.042 H 
BRANCH  14  17
ATOM     17  C   UNL A   1      32.740  26.614  25.794  1.00  0.00    -0.015 A 
ATOM     18  C   UNL A   1      32.077  25.389  26.088  1.00  0.00     0.046 A 
ATOM     19  C   UNL A   1      32.805  24.175  25.985  1.00  0.00     0.046 A 
ATOM     20  C   UNL A   1      34.082  26.604  25.371  1.00  0.00    -0.056 A 
ATOM     21  C   UNL A   1      34.152  24.212  25.572  1.00  0.00    -0.049 A 
ATOM     22  C   UNL A   1      34.784  25.412  25.262  1.00  0.00    -0.061 A 
ATOM     23  H   UNL A   1      34.551  27.493  25.139  1.00  0.00     0.063 H 
ATOM     24  H   UNL A   1      34.681  23.329  25.498  1.00  0.00     0.063 H 
ATOM     25  H   UNL A   1      35.768  25.415  24.954  1.00  0.00     0.062 H 
BRANCH  18  26
ATOM     26  N   UNL A   1      30.753  25.442  26.510  1.00  0.00    -0.398 N 
ATOM     27  H   UNL A   1      30.540  25.378  27.470  1.00  0.00     0.156 HD
ATOM     28  H   UNL A   1      30.029  25.542  25.850  1.00  0.00     0.156 HD
ENDBRANCH  18  26
BRANCH  19  29
ATOM     29  C   UNL A   1      32.296  22.802  26.330  1.00  0.00     0.195 C 
ATOM     30  O   UNL A   1      31.574  22.640  27.315  1.00  0.00    -0.289 OA
BRANCH  29  31
ATOM     31  C   UNL A   1      32.540  21.608  25.502  1.00  0.00     0.023 A 
ATOM     32  C   UNL A   1      33.104  20.487  26.124  1.00  0.00    -0.050 A 
ATOM     33  C   UNL A   1      32.184  21.563  24.150  1.00  0.00    -0.050 A 
ATOM     34  C   UNL A   1      33.242  19.294  25.415  1.00  0.00    -0.047 A 
ATOM     35  H   UNL A   1      33.418  20.544  27.106  1.00  0.00     0.063 H 
ATOM     36  C   UNL A   1      32.311  20.362  23.446  1.00  0.00    -0.047 A 
ATOM     37  H   UNL A   1      31.832  22.409  23.676  1.00  0.00     0.063 H 
ATOM     38  C   UNL A   1      32.826  19.231  24.086  1.00  0.00     0.018 A 
ATOM     39  H   UNL A   1      33.649  18.462  25.872  1.00  0.00     0.063 H 
ATOM     40  H   UNL A   1      32.025  20.310  22.456  1.00  0.00     0.063 H 
ATOM     41  Br  UNL A   1      32.940  17.594  23.148  1.00  0.00    -0.051 Br
ENDBRANCH  29  31
ENDBRANCH  19  29
ENDBRANCH  14  17
ENDBRANCH  11  14
ENDBRANCH   7  10
ENDBRANCH   4   7
ENDBRANCH   1   4
BRANCH   1  42
ATOM     42  C   UNL A   1      35.178  33.544  28.477  1.00  0.00    -0.052 C 
ATOM     43  H   UNL A   1      35.978  33.793  27.811  1.00  0.00     0.027 H 
ATOM     44  H   UNL A   1      35.512  33.107  29.394  1.00  0.00     0.027 H 
BRANCH  42  45
ATOM     45  C   UNL A   1      34.455  34.839  28.857  1.00  0.00    -0.036 C 
ATOM     46  H   UNL A   1      34.505  35.508  28.024  1.00  0.00     0.028 H 
ATOM     47  H   UNL A   1      34.947  35.220  29.727  1.00  0.00     0.028 H 
BRANCH  45  48
ATOM     48  C   UNL A   1      32.989  34.651  29.231  1.00  0.00     0.018 C 
ATOM     49  H   UNL A   1      32.847  33.655  29.592  1.00  0.00     0.049 H 
ATOM     50  H   UNL A   1      32.398  34.833  28.357  1.00  0.00     0.049 H 
BRANCH  48  51
ATOM     51  N   UNL A   1      32.569  35.589  30.262  1.00  0.00    -0.352 N 
ATOM     52  C   UNL A   1      32.980  35.695  31.563  1.00  0.00     0.251 C 
ATOM     53  H   UNL A   1      31.888  36.244  29.982  1.00  0.00     0.163 HD
ATOM     54  O   UNL A   1      32.361  36.410  32.353  1.00  0.00    -0.269 OA
BRANCH  52  55
ATOM     55  C   UNL A   1      34.161  34.942  32.030  1.00  0.00     0.039 A 
ATOM     56  C   UNL A   1      34.016  33.592  32.360  1.00  0.00    -0.049 A 
ATOM     57  C   UNL A   1      35.403  35.569  32.159  1.00  0.00    -0.049 A 
ATOM     58  C   UNL A   1      35.130  32.856  32.769  1.00  0.00    -0.053 A 
ATOM     59  H   UNL A   1      33.090  33.141  32.302  1.00  0.00     0.063 H 
ATOM     60  C   UNL A   1      36.526  34.818  32.497  1.00  0.00    -0.053 A 
ATOM     61  H   UNL A   1      35.488  36.586  32.006  1.00  0.00     0.063 H 
ATOM     62  C   UNL A   1      36.399  33.456  32.810  1.00  0.00    -0.014 A 
ATOM     63  H   UNL A   1      35.020  31.867  33.040  1.00  0.00     0.063 H 
ATOM     64  H   UNL A   1      37.456  35.265  32.516  1.00  0.00     0.063 H 
BRANCH  62  65
ATOM     65  C   UNL A   1      37.606  32.678  33.186  1.00  0.00     0.031 A 
ATOM     66  C   UNL A   1      38.318  32.967  34.478  1.00  0.00     0.074 A 
ATOM     67  C   UNL A   1      38.094  31.754  32.336  1.00  0.00     0.049 A 
ATOM     68  N   UNL A   1      39.424  32.448  34.949  1.00  0.00    -0.248 NA
ATOM     69  C   UNL A   1      37.722  33.997  35.344  1.00  0.00    -0.034 C 
ATOM     70  C   UNL A   1      37.516  31.414  31.036  1.00  0.00    -0.036 A 
ATOM     71  N   UNL A   1      39.196  30.942  32.433  1.00  0.00    -0.354 N 
ATOM     72  C   UNL A   1      39.662  33.096  36.154  1.00  0.00     0.074 A 
ATOM     73  C   UNL A   1      38.618  34.083  36.316  1.00  0.00    -0.034 C 
ATOM     74  H   UNL A   1      36.838  34.516  35.224  1.00  0.00     0.065 H 
ATOM     75  C   UNL A   1      38.254  30.448  30.466  1.00  0.00    -0.036 A 
ATOM     76  H   UNL A   1      36.675  31.847  30.623  1.00  0.00     0.065 H 
ATOM     77  C   UNL A   1      39.379  30.130  31.341  1.00  0.00     0.049 A 
ATOM     78  H   UNL A   1      39.797  30.941  33.213  1.00  0.00     0.167 HD
ATOM     79  C   UNL A   1      40.649  32.870  37.053  1.00  0.00     0.037 A 
ATOM     80  H   UNL A   1      38.575  34.766  37.089  1.00  0.00     0.065 H 
ATOM     81  H   UNL A   1      38.058  30.003  29.556  1.00  0.00     0.065 H 
ATOM     82  C   UNL A   1      40.350  29.237  31.072  1.00  0.00     0.037 A 
ATOM     83  C   UNL A   1      41.673  31.872  36.897  1.00  0.00     0.049 A 
ATOM     84  C   UNL A   1      41.443  29.016  32.083  1.00  0.00     0.074 A 
ATOM     85  C   UNL A   1      42.684  31.526  37.777  1.00  0.00    -0.036 A 
ATOM     86  N   UNL A   1      41.820  31.059  35.781  1.00  0.00    -0.354 N 
ATOM     87  N   UNL A   1      41.620  29.586  33.249  1.00  0.00    -0.248 NA
ATOM     88  C   UNL A   1      42.469  28.021  31.740  1.00  0.00    -0.034 C 
ATOM     89  C   UNL A   1      43.471  30.539  37.173  1.00  0.00    -0.036 A 
ATOM     90  H   UNL A   1      42.832  31.927  38.716  1.00  0.00     0.065 H 
ATOM     91  C   UNL A   1      42.919  30.230  35.941  1.00  0.00     0.049 A 
ATOM     92  H   UNL A   1      41.230  31.071  34.993  1.00  0.00     0.167 HD
ATOM     93  C   UNL A   1      42.755  29.001  33.792  1.00  0.00     0.074 A 
ATOM     94  C   UNL A   1      43.218  28.019  32.833  1.00  0.00    -0.034 C 
ATOM     95  H   UNL A   1      42.578  27.470  30.874  1.00  0.00     0.065 H 
ATOM     96  H   UNL A   1      44.320  30.114  37.577  1.00  0.00     0.065 H 
ATOM     97  C   UNL A   1      43.362  29.253  34.979  1.00  0.00     0.037 A 
ATOM     98  H   UNL A   1      44.028  27.397  32.981  1.00  0.00     0.065 H 
BRANCH  79  99
ATOM     99  C   UNL A   1      40.666  33.720  38.292  1.00  0.00     0.064 A 
ATOM    100  C   UNL A   1      39.885  33.401  39.415  1.00  0.00     0.173 A 
ATOM    101  C   UNL A   1      41.497  34.847  38.372  1.00  0.00     0.173 A 
ATOM    102  F   UNL A   1      39.065  32.339  39.387  1.00  0.00    -0.203 F 
ATOM    103  C   UNL A   1      39.913  34.196  40.557  1.00  0.00     0.198 A 
ATOM    104  C   UNL A   1      41.547  35.622  39.528  1.00  0.00     0.198 A 
ATOM    105  F   UNL A   1      42.270  35.194  37.331  1.00  0.00    -0.203 F 
ATOM    106  F   UNL A   1      39.120  33.901  41.596  1.00  0.00    -0.200 F 
ATOM    107  C   UNL A   1      40.749  35.301  40.616  1.00  0.00     0.200 A 
ATOM    108  F   UNL A   1      42.366  36.681  39.589  1.00  0.00    -0.200 F 
ATOM    109  F   UNL A   1      40.779  36.061  41.719  1.00  0.00    -0.200 F 
ENDBRANCH  79  99
BRANCH  82 110
ATOM    110  C   UNL A   1      40.321  28.468  29.800  1.00  0.00     0.064 A 
ATOM    111  C   UNL A   1      41.011  28.926  28.668  1.00  0.00     0.173 A 
ATOM    112  C   UNL A   1      39.604  27.269  29.686  1.00  0.00     0.173 A 
ATOM    113  F   UNL A   1      41.697  30.078  28.722  1.00  0.00    -0.203 F 
ATOM    114  C   UNL A   1      40.966  28.225  27.465  1.00  0.00     0.198 A 
ATOM    115  C   UNL A   1      39.583  26.554  28.490  1.00  0.00     0.198 A 
ATOM    116  F   UNL A   1      38.933  26.784  30.741  1.00  0.00    -0.203 F 
ATOM    117  F   UNL A   1      41.595  28.710  26.386  1.00  0.00    -0.200 F 
ATOM    118  C   UNL A   1      40.256  27.037  27.378  1.00  0.00     0.200 A 
ATOM    119  F   UNL A   1      38.910  25.397  28.416  1.00  0.00    -0.200 F 
ATOM    120  F   UNL A   1      40.216  26.361  26.222  1.00  0.00    -0.200 F 
ENDBRANCH  82 110
BRANCH  97 121
ATOM    121  C   UNL A   1      44.569  28.430  35.324  1.00  0.00     0.064 A 
ATOM    122  C   UNL A   1      45.866  28.850  34.995  1.00  0.00     0.173 A 
ATOM    123  C   UNL A   1      44.427  27.224  36.028  1.00  0.00     0.173 A 
ATOM    124  F   UNL A   1      46.054  29.987  34.309  1.00  0.00    -0.203 F 
ATOM    125  C   UNL A   1      46.976  28.080  35.335  1.00  0.00     0.198 A 
ATOM    126  C   UNL A   1      45.540  26.473  36.395  1.00  0.00     0.198 A 
ATOM    127  F   UNL A   1      43.209  26.781  36.372  1.00  0.00    -0.203 F 
ATOM    128  F   UNL A   1      48.201  28.476  34.968  1.00  0.00    -0.200 F 
ATOM    129  C   UNL A   1      46.813  26.897  36.041  1.00  0.00     0.200 A 
ATOM    130  F   UNL A   1      45.381  25.337  37.089  1.00  0.00    -0.200 F 
ATOM    131  F   UNL A   1      47.882  26.161  36.375  1.00  0.00    -0.200 F 
ENDBRANCH  97 121
ENDBRANCH  62  65
ENDBRANCH  52  55
ENDBRANCH  48  51
ENDBRANCH  45  48
ENDBRANCH  42  45
ENDBRANCH   1  42
TORSDOF 17
ENDMDL
