MODEL 1
REMARK VINA RESULT:     -13.1      0.000      0.000
REMARK SMILES O=C(NCCCCCCNC(=O)[C@@H]1CCn2c(C(=O)c3ccccc3)ccc21)c1ccc(-c2c3nc(c(-c4c(F)c(F)c(F)c(F)c4F)c4ccc([nH]4)c(-c4c(F)c(F)c(F)c(F)c4F)c4nc(c(-c5c(F)c(F)c(F)c(F)c5F)c5ccc2[nH]5)C=C4)C=C3)cc1
REMARK SMILES IDX 6 1 5 4 4 7 3 10 1 11 2 12 29 14 30 15 91 16 31 17 90 19
REMARK SMILES IDX 32 21 33 24 34 25 84 26 35 27 89 28 83 29 85 30 36 31 88 32
REMARK SMILES IDX 82 34 81 36 37 38 69 41 49 42 68 43 50 44 53 45 67 46 86 47
REMARK SMILES IDX 51 48 52 50 66 52 87 53 54 56 38 58 39 59 47 60 40 61 41 62
REMARK SMILES IDX 45 63 48 64 42 65 43 66 46 67 44 68 70 69 71 70 79 71 72 72
REMARK SMILES IDX 73 73 77 74 80 75 74 76 75 77 78 78 76 79 55 80 56 81 64 82
REMARK SMILES IDX 57 83 58 84 62 85 65 86 59 87 60 88 63 89 61 90 7 91 8 94
REMARK SMILES IDX 9 97 10 100 11 101 12 103 13 104 14 105 28 106 15 108 16 111
REMARK SMILES IDX 27 112 17 115 26 116 18 119 19 120 20 121 21 122 25 123
REMARK SMILES IDX 22 124 24 126 23 128
REMARK H PARENT 6 2 6 3 5 5 5 6 4 8 4 9 3 13 30 18 91 20 31 22 90 23 89 33
REMARK H PARENT 83 35 85 37 88 39 82 40 50 49 53 51 86 54 51 55 87 57 7 92
REMARK H PARENT 7 93 8 95 8 96 9 98 9 99 10 102 13 107 14 109 14 110 15 113
REMARK H PARENT 15 114 27 117 26 118 21 125 25 127 22 129 24 130 23 131
REMARK Flexibility Score: inf
ROOT
ATOM      1  C   UNL A   1      31.497  30.692  26.214  1.00  0.00    -0.052 C 
ATOM      2  H   UNL A   1      31.925  30.605  25.237  1.00  0.00     0.027 H 
ATOM      3  H   UNL A   1      30.511  30.283  26.280  1.00  0.00     0.027 H 
ENDROOT
BRANCH   1   4
ATOM      4  C   UNL A   1      31.369  32.179  26.544  1.00  0.00    -0.036 C 
ATOM      5  H   UNL A   1      31.170  32.709  25.636  1.00  0.00     0.028 H 
ATOM      6  H   UNL A   1      30.577  32.269  27.258  1.00  0.00     0.028 H 
BRANCH   4   7
ATOM      7  C   UNL A   1      32.609  32.783  27.186  1.00  0.00     0.018 C 
ATOM      8  H   UNL A   1      32.874  32.197  28.042  1.00  0.00     0.049 H 
ATOM      9  H   UNL A   1      33.393  32.779  26.458  1.00  0.00     0.049 H 
BRANCH   7  10
ATOM     10  N   UNL A   1      32.393  34.156  27.606  1.00  0.00    -0.352 N 
ATOM     11  O   UNL A   1      32.577  35.942  28.979  1.00  0.00    -0.269 OA
ATOM     12  C   UNL A   1      33.007  34.851  28.616  1.00  0.00     0.251 C 
ATOM     13  H   UNL A   1      31.714  34.656  27.098  1.00  0.00     0.163 HD
BRANCH  12  14
ATOM     14  C   UNL A   1      34.190  34.266  29.279  1.00  0.00     0.039 A 
ATOM     15  C   UNL A   1      34.032  33.415  30.378  1.00  0.00    -0.049 A 
ATOM     16  C   UNL A   1      35.465  34.561  28.791  1.00  0.00    -0.049 A 
ATOM     17  C   UNL A   1      35.150  32.956  31.061  1.00  0.00    -0.053 A 
ATOM     18  H   UNL A   1      33.087  33.131  30.679  1.00  0.00     0.063 H 
ATOM     19  C   UNL A   1      36.587  34.022  29.424  1.00  0.00    -0.053 A 
ATOM     20  H   UNL A   1      35.577  35.172  27.968  1.00  0.00     0.063 H 
ATOM     21  C   UNL A   1      36.437  33.225  30.571  1.00  0.00    -0.014 A 
ATOM     22  H   UNL A   1      35.033  32.413  31.931  1.00  0.00     0.063 H 
ATOM     23  H   UNL A   1      37.529  34.212  29.049  1.00  0.00     0.063 H 
BRANCH  21  24
ATOM     24  C   UNL A   1      37.606  32.569  31.203  1.00  0.00     0.031 A 
ATOM     25  C   UNL A   1      38.331  31.443  30.526  1.00  0.00     0.074 A 
ATOM     26  C   UNL A   1      37.998  33.002  32.417  1.00  0.00     0.049 A 
ATOM     27  N   UNL A   1      39.343  30.737  30.962  1.00  0.00    -0.248 NA
ATOM     28  C   UNL A   1      37.857  31.050  29.191  1.00  0.00    -0.034 C 
ATOM     29  C   UNL A   1      37.354  34.082  33.172  1.00  0.00    -0.036 A 
ATOM     30  N   UNL A   1      39.021  32.595  33.232  1.00  0.00    -0.354 N 
ATOM     31  C   UNL A   1      39.614  29.805  29.971  1.00  0.00     0.074 A 
ATOM     32  C   UNL A   1      38.649  30.022  28.914  1.00  0.00    -0.034 C 
ATOM     33  H   UNL A   1      37.105  31.465  28.619  1.00  0.00     0.065 H 
ATOM     34  C   UNL A   1      38.010  34.268  34.324  1.00  0.00    -0.036 A 
ATOM     35  H   UNL A   1      36.526  34.615  32.863  1.00  0.00     0.065 H 
ATOM     36  C   UNL A   1      39.072  33.274  34.426  1.00  0.00     0.049 A 
ATOM     37  H   UNL A   1      39.659  31.887  32.988  1.00  0.00     0.167 HD
ATOM     38  C   UNL A   1      40.584  28.859  29.952  1.00  0.00     0.037 A 
ATOM     39  H   UNL A   1      38.584  29.451  28.057  1.00  0.00     0.065 H 
ATOM     40  H   UNL A   1      37.800  34.995  35.025  1.00  0.00     0.065 H 
ATOM     41  C   UNL A   1      39.858  33.092  35.502  1.00  0.00     0.037 A 
ATOM     42  C   UNL A   1      41.546  28.665  31.009  1.00  0.00     0.049 A 
ATOM     43  C   UNL A   1      40.892  32.005  35.466  1.00  0.00     0.074 A 
ATOM     44  C   UNL A   1      42.609  27.780  31.053  1.00  0.00    -0.036 A 
ATOM     45  N   UNL A   1      41.551  29.356  32.212  1.00  0.00    -0.354 N 
ATOM     46  N   UNL A   1      41.183  31.174  34.495  1.00  0.00    -0.248 NA
ATOM     47  C   UNL A   1      41.705  31.824  36.675  1.00  0.00    -0.034 C 
ATOM     48  C   UNL A   1      43.214  27.885  32.309  1.00  0.00    -0.036 A 
ATOM     49  H   UNL A   1      42.903  27.150  30.290  1.00  0.00     0.065 H 
ATOM     50  C   UNL A   1      42.572  28.883  33.023  1.00  0.00     0.049 A 
ATOM     51  H   UNL A   1      40.924  30.075  32.454  1.00  0.00     0.167 HD
ATOM     52  C   UNL A   1      42.222  30.385  34.967  1.00  0.00     0.074 A 
ATOM     53  C   UNL A   1      42.527  30.854  36.303  1.00  0.00    -0.034 C 
ATOM     54  H   UNL A   1      41.650  32.323  37.577  1.00  0.00     0.065 H 
ATOM     55  H   UNL A   1      44.005  27.315  32.646  1.00  0.00     0.065 H 
ATOM     56  C   UNL A   1      42.862  29.361  34.352  1.00  0.00     0.037 A 
ATOM     57  H   UNL A   1      43.287  30.479  36.891  1.00  0.00     0.065 H 
BRANCH  38  58
ATOM     58  C   UNL A   1      40.648  27.934  28.770  1.00  0.00     0.064 A 
ATOM     59  C   UNL A   1      39.900  26.749  28.711  1.00  0.00     0.173 A 
ATOM     60  C   UNL A   1      41.414  28.280  27.645  1.00  0.00     0.173 A 
ATOM     61  F   UNL A   1      39.157  26.368  29.761  1.00  0.00    -0.203 F 
ATOM     62  C   UNL A   1      39.930  25.937  27.579  1.00  0.00     0.198 A 
ATOM     63  C   UNL A   1      41.418  27.481  26.504  1.00  0.00     0.198 A 
ATOM     64  F   UNL A   1      42.143  29.407  27.643  1.00  0.00    -0.203 F 
ATOM     65  F   UNL A   1      39.233  24.792  27.560  1.00  0.00    -0.200 F 
ATOM     66  C   UNL A   1      40.680  26.308  26.474  1.00  0.00     0.200 A 
ATOM     67  F   UNL A   1      42.132  27.851  25.431  1.00  0.00    -0.200 F 
ATOM     68  F   UNL A   1      40.694  25.535  25.380  1.00  0.00    -0.200 F 
ENDBRANCH  38  58
BRANCH  41  69
ATOM     69  C   UNL A   1      39.666  33.934  36.711  1.00  0.00     0.064 A 
ATOM     70  C   UNL A   1      40.294  35.181  36.834  1.00  0.00     0.173 A 
ATOM     71  C   UNL A   1      38.852  33.508  37.773  1.00  0.00     0.173 A 
ATOM     72  F   UNL A   1      41.094  35.626  35.854  1.00  0.00    -0.203 F 
ATOM     73  C   UNL A   1      40.137  35.955  37.981  1.00  0.00     0.198 A 
ATOM     74  C   UNL A   1      38.667  34.298  38.902  1.00  0.00     0.198 A 
ATOM     75  F   UNL A   1      38.221  32.326  37.703  1.00  0.00    -0.203 F 
ATOM     76  F   UNL A   1      40.792  37.118  38.094  1.00  0.00    -0.200 F 
ATOM     77  C   UNL A   1      39.319  35.517  39.011  1.00  0.00     0.200 A 
ATOM     78  F   UNL A   1      37.857  33.880  39.886  1.00  0.00    -0.200 F 
ATOM     79  F   UNL A   1      39.166  36.265  40.112  1.00  0.00    -0.200 F 
ENDBRANCH  41  69
BRANCH  56  80
ATOM     80  C   UNL A   1      43.972  28.693  35.109  1.00  0.00     0.064 A 
ATOM     81  C   UNL A   1      45.294  29.157  35.037  1.00  0.00     0.173 A 
ATOM     82  C   UNL A   1      43.703  27.604  35.951  1.00  0.00     0.173 A 
ATOM     83  F   UNL A   1      45.606  30.183  34.231  1.00  0.00    -0.203 F 
ATOM     84  C   UNL A   1      46.308  28.541  35.764  1.00  0.00     0.198 A 
ATOM     85  C   UNL A   1      44.713  27.012  36.702  1.00  0.00     0.198 A 
ATOM     86  F   UNL A   1      42.455  27.124  36.058  1.00  0.00    -0.203 F 
ATOM     87  F   UNL A   1      47.573  28.971  35.643  1.00  0.00    -0.200 F 
ATOM     88  C   UNL A   1      46.016  27.476  36.604  1.00  0.00     0.200 A 
ATOM     89  F   UNL A   1      44.426  25.994  37.524  1.00  0.00    -0.200 F 
ATOM     90  F   UNL A   1      46.992  26.893  37.313  1.00  0.00    -0.200 F 
ENDBRANCH  56  80
ENDBRANCH  21  24
ENDBRANCH  12  14
ENDBRANCH   7  10
ENDBRANCH   4   7
ENDBRANCH   1   4
BRANCH   1  91
ATOM     91  C   UNL A   1      32.365  29.889  27.188  1.00  0.00    -0.052 C 
ATOM     92  H   UNL A   1      32.424  30.435  28.107  1.00  0.00     0.027 H 
ATOM     93  H   UNL A   1      33.313  29.761  26.708  1.00  0.00     0.027 H 
BRANCH  91  94
ATOM     94  C   UNL A   1      31.850  28.480  27.504  1.00  0.00    -0.036 C 
ATOM     95  H   UNL A   1      30.893  28.570  27.975  1.00  0.00     0.028 H 
ATOM     96  H   UNL A   1      32.580  28.020  28.136  1.00  0.00     0.028 H 
BRANCH  94  97
ATOM     97  C   UNL A   1      31.700  27.580  26.279  1.00  0.00     0.017 C 
ATOM     98  H   UNL A   1      32.670  27.347  25.895  1.00  0.00     0.049 H 
ATOM     99  H   UNL A   1      31.121  28.098  25.543  1.00  0.00     0.049 H 
BRANCH  97 100
ATOM    100  N   UNL A   1      31.016  26.350  26.623  1.00  0.00    -0.356 N 
ATOM    101  C   UNL A   1      31.423  25.055  26.505  1.00  0.00     0.229 C 
ATOM    102  H   UNL A   1      30.115  26.469  27.000  1.00  0.00     0.163 HD
ATOM    103  O   UNL A   1      30.590  24.174  26.723  1.00  0.00    -0.274 OA
BRANCH 101 104
ATOM    104  C   UNL A   1      32.859  24.757  26.100  1.00  0.00     0.080 C 
ATOM    105  C   UNL A   1      33.002  24.665  24.565  1.00  0.00    -0.018 C 
ATOM    106  C   UNL A   1      33.285  23.403  26.537  1.00  0.00     0.031 A 
ATOM    107  H   UNL A   1      33.432  25.547  26.540  1.00  0.00     0.047 H 
ATOM    108  C   UNL A   1      33.993  23.518  24.310  1.00  0.00     0.024 C 
ATOM    109  H   UNL A   1      33.384  25.584  24.170  1.00  0.00     0.030 H 
ATOM    110  H   UNL A   1      32.060  24.488  24.089  1.00  0.00     0.030 H 
ATOM    111  N   UNL A   1      33.933  22.738  25.536  1.00  0.00    -0.341 N 
ATOM    112  C   UNL A   1      33.230  22.596  27.638  1.00  0.00    -0.040 A 
ATOM    113  H   UNL A   1      34.979  23.896  24.145  1.00  0.00     0.050 H 
ATOM    114  H   UNL A   1      33.751  22.945  23.440  1.00  0.00     0.050 H 
ATOM    115  C   UNL A   1      34.352  21.508  25.944  1.00  0.00     0.090 A 
ATOM    116  C   UNL A   1      33.897  21.401  27.262  1.00  0.00    -0.033 A 
ATOM    117  H   UNL A   1      32.795  22.811  28.549  1.00  0.00     0.064 H 
ATOM    118  H   UNL A   1      34.025  20.576  27.870  1.00  0.00     0.065 H 
BRANCH 115 119
ATOM    119  C   UNL A   1      35.064  20.469  25.218  1.00  0.00     0.209 C 
ATOM    120  O   UNL A   1      36.290  20.446  25.118  1.00  0.00    -0.287 OA
BRANCH 119 121
ATOM    121  C   UNL A   1      34.338  19.358  24.569  1.00  0.00     0.024 A 
ATOM    122  C   UNL A   1      34.979  18.120  24.465  1.00  0.00    -0.051 A 
ATOM    123  C   UNL A   1      33.066  19.543  24.020  1.00  0.00    -0.051 A 
ATOM    124  C   UNL A   1      34.324  17.049  23.858  1.00  0.00    -0.062 A 
ATOM    125  H   UNL A   1      35.934  17.997  24.838  1.00  0.00     0.063 H 
ATOM    126  C   UNL A   1      32.408  18.466  23.425  1.00  0.00    -0.062 A 
ATOM    127  H   UNL A   1      32.615  20.471  24.055  1.00  0.00     0.063 H 
ATOM    128  C   UNL A   1      33.036  17.221  23.349  1.00  0.00    -0.062 A 
ATOM    129  H   UNL A   1      34.791  16.132  23.785  1.00  0.00     0.062 H 
ATOM    130  H   UNL A   1      31.459  18.588  23.041  1.00  0.00     0.062 H 
ATOM    131  H   UNL A   1      32.545  16.423  22.915  1.00  0.00     0.062 H 
ENDBRANCH 119 121
ENDBRANCH 115 119
ENDBRANCH 101 104
ENDBRANCH  97 100
ENDBRANCH  94  97
ENDBRANCH  91  94
ENDBRANCH   1  91
TORSDOF 15
ENDMDL
MODEL 2
REMARK VINA RESULT:     -13.0      2.677      4.863
REMARK SMILES O=C(NCCCCCCNC(=O)[C@@H]1CCn2c(C(=O)c3ccccc3)ccc21)c1ccc(-c2c3nc(c(-c4c(F)c(F)c(F)c(F)c4F)c4ccc([nH]4)c(-c4c(F)c(F)c(F)c(F)c4F)c4nc(c(-c5c(F)c(F)c(F)c(F)c5F)c5ccc2[nH]5)C=C4)C=C3)cc1
REMARK SMILES IDX 6 1 5 4 4 7 3 10 1 11 2 12 29 14 30 15 91 16 31 17 90 19
REMARK SMILES IDX 32 21 33 24 34 25 84 26 35 27 89 28 83 29 85 30 36 31 88 32
REMARK SMILES IDX 82 34 81 36 37 38 69 41 49 42 68 43 50 44 53 45 67 46 86 47
REMARK SMILES IDX 51 48 52 50 66 52 87 53 54 56 38 58 39 59 47 60 40 61 41 62
REMARK SMILES IDX 45 63 48 64 42 65 43 66 46 67 44 68 70 69 71 70 79 71 72 72
REMARK SMILES IDX 73 73 77 74 80 75 74 76 75 77 78 78 76 79 55 80 56 81 64 82
REMARK SMILES IDX 57 83 58 84 62 85 65 86 59 87 60 88 63 89 61 90 7 91 8 94
REMARK SMILES IDX 9 97 10 100 11 101 12 103 13 104 14 105 28 106 15 108 16 111
REMARK SMILES IDX 27 112 17 115 26 116 18 119 19 120 20 121 21 122 25 123
REMARK SMILES IDX 22 124 24 126 23 128
REMARK H PARENT 6 2 6 3 5 5 5 6 4 8 4 9 3 13 30 18 91 20 31 22 90 23 89 33
REMARK H PARENT 83 35 85 37 88 39 82 40 50 49 53 51 86 54 51 55 87 57 7 92
REMARK H PARENT 7 93 8 95 8 96 9 98 9 99 10 102 13 107 14 109 14 110 15 113
REMARK H PARENT 15 114 27 117 26 118 21 125 25 127 22 129 24 130 23 131
REMARK Flexibility Score: inf
ROOT
ATOM      1  C   UNL A   1      31.405  30.863  26.105  1.00  0.00    -0.052 C 
ATOM      2  H   UNL A   1      31.473  30.795  25.038  1.00  0.00     0.027 H 
ATOM      3  H   UNL A   1      30.529  30.393  26.501  1.00  0.00     0.027 H 
ENDROOT
BRANCH   1   4
ATOM      4  C   UNL A   1      31.306  32.342  26.480  1.00  0.00    -0.036 C 
ATOM      5  H   UNL A   1      31.216  32.912  25.579  1.00  0.00     0.028 H 
ATOM      6  H   UNL A   1      30.453  32.441  27.119  1.00  0.00     0.028 H 
BRANCH   4   7
ATOM      7  C   UNL A   1      32.502  32.866  27.260  1.00  0.00     0.018 C 
ATOM      8  H   UNL A   1      32.618  32.280  28.148  1.00  0.00     0.049 H 
ATOM      9  H   UNL A   1      33.365  32.792  26.632  1.00  0.00     0.049 H 
BRANCH   7  10
ATOM     10  N   UNL A   1      32.340  34.261  27.636  1.00  0.00    -0.352 N 
ATOM     11  O   UNL A   1      32.609  36.085  28.942  1.00  0.00    -0.269 OA
ATOM     12  C   UNL A   1      32.995  34.968  28.611  1.00  0.00     0.251 C 
ATOM     13  H   UNL A   1      31.669  34.766  27.122  1.00  0.00     0.163 HD
BRANCH  12  14
ATOM     14  C   UNL A   1      34.169  34.365  29.273  1.00  0.00     0.039 A 
ATOM     15  C   UNL A   1      34.005  33.590  30.426  1.00  0.00    -0.049 A 
ATOM     16  C   UNL A   1      35.440  34.566  28.731  1.00  0.00    -0.049 A 
ATOM     17  C   UNL A   1      35.121  33.118  31.104  1.00  0.00    -0.053 A 
ATOM     18  H   UNL A   1      33.058  33.372  30.772  1.00  0.00     0.063 H 
ATOM     19  C   UNL A   1      36.555  34.012  29.364  1.00  0.00    -0.053 A 
ATOM     20  H   UNL A   1      35.555  35.121  27.870  1.00  0.00     0.063 H 
ATOM     21  C   UNL A   1      36.404  33.293  30.561  1.00  0.00    -0.014 A 
ATOM     22  H   UNL A   1      35.007  32.635  32.009  1.00  0.00     0.063 H 
ATOM     23  H   UNL A   1      37.493  34.131  28.951  1.00  0.00     0.063 H 
BRANCH  21  24
ATOM     24  C   UNL A   1      37.560  32.618  31.198  1.00  0.00     0.031 A 
ATOM     25  C   UNL A   1      38.276  31.489  30.519  1.00  0.00     0.074 A 
ATOM     26  C   UNL A   1      37.946  33.039  32.418  1.00  0.00     0.049 A 
ATOM     27  N   UNL A   1      39.276  30.767  30.959  1.00  0.00    -0.248 NA
ATOM     28  C   UNL A   1      37.808  31.110  29.178  1.00  0.00    -0.034 C 
ATOM     29  C   UNL A   1      37.310  34.122  33.175  1.00  0.00    -0.036 A 
ATOM     30  N   UNL A   1      38.959  32.614  33.239  1.00  0.00    -0.354 N 
ATOM     31  C   UNL A   1      39.544  29.838  29.963  1.00  0.00     0.074 A 
ATOM     32  C   UNL A   1      38.590  30.074  28.901  1.00  0.00    -0.034 C 
ATOM     33  H   UNL A   1      37.066  31.538  28.603  1.00  0.00     0.065 H 
ATOM     34  C   UNL A   1      37.959  34.292  34.334  1.00  0.00    -0.036 A 
ATOM     35  H   UNL A   1      36.491  34.667  32.863  1.00  0.00     0.065 H 
ATOM     36  C   UNL A   1      39.007  33.284  34.438  1.00  0.00     0.049 A 
ATOM     37  H   UNL A   1      39.589  31.900  32.995  1.00  0.00     0.167 HD
ATOM     38  C   UNL A   1      40.502  28.880  29.946  1.00  0.00     0.037 A 
ATOM     39  H   UNL A   1      38.525  29.509  28.039  1.00  0.00     0.065 H 
ATOM     40  H   UNL A   1      37.752  35.017  35.038  1.00  0.00     0.065 H 
ATOM     41  C   UNL A   1      39.783  33.086  35.518  1.00  0.00     0.037 A 
ATOM     42  C   UNL A   1      41.453  28.668  31.009  1.00  0.00     0.049 A 
ATOM     43  C   UNL A   1      40.804  31.986  35.483  1.00  0.00     0.074 A 
ATOM     44  C   UNL A   1      42.505  27.770  31.056  1.00  0.00    -0.036 A 
ATOM     45  N   UNL A   1      41.457  29.351  32.217  1.00  0.00    -0.354 N 
ATOM     46  N   UNL A   1      41.093  31.159  34.509  1.00  0.00    -0.248 NA
ATOM     47  C   UNL A   1      41.605  31.788  36.698  1.00  0.00    -0.034 C 
ATOM     48  C   UNL A   1      43.101  27.859  32.317  1.00  0.00    -0.036 A 
ATOM     49  H   UNL A   1      42.798  27.141  30.292  1.00  0.00     0.065 H 
ATOM     50  C   UNL A   1      42.465  28.860  33.034  1.00  0.00     0.049 A 
ATOM     51  H   UNL A   1      40.837  30.076  32.459  1.00  0.00     0.167 HD
ATOM     52  C   UNL A   1      42.118  30.353  34.984  1.00  0.00     0.074 A 
ATOM     53  C   UNL A   1      42.418  30.810  36.326  1.00  0.00    -0.034 C 
ATOM     54  H   UNL A   1      41.549  32.281  37.603  1.00  0.00     0.065 H 
ATOM     55  H   UNL A   1      43.883  27.277  32.658  1.00  0.00     0.065 H 
ATOM     56  C   UNL A   1      42.750  29.326  34.367  1.00  0.00     0.037 A 
ATOM     57  H   UNL A   1      43.169  30.422  36.918  1.00  0.00     0.065 H 
BRANCH  38  58
ATOM     58  C   UNL A   1      40.565  27.963  28.759  1.00  0.00     0.064 A 
ATOM     59  C   UNL A   1      39.834  26.767  28.704  1.00  0.00     0.173 A 
ATOM     60  C   UNL A   1      41.311  28.326  27.625  1.00  0.00     0.173 A 
ATOM     61  F   UNL A   1      39.110  26.370  29.761  1.00  0.00    -0.203 F 
ATOM     62  C   UNL A   1      39.861  25.962  27.567  1.00  0.00     0.198 A 
ATOM     63  C   UNL A   1      41.312  27.533  26.481  1.00  0.00     0.198 A 
ATOM     64  F   UNL A   1      42.022  29.464  27.620  1.00  0.00    -0.203 F 
ATOM     65  F   UNL A   1      39.181  24.806  27.551  1.00  0.00    -0.200 F 
ATOM     66  C   UNL A   1      40.591  26.349  26.454  1.00  0.00     0.200 A 
ATOM     67  F   UNL A   1      42.006  27.919  25.401  1.00  0.00    -0.200 F 
ATOM     68  F   UNL A   1      40.602  25.582  25.356  1.00  0.00    -0.200 F 
ENDBRANCH  38  58
BRANCH  41  69
ATOM     69  C   UNL A   1      39.592  33.922  36.731  1.00  0.00     0.064 A 
ATOM     70  C   UNL A   1      38.793  33.484  37.796  1.00  0.00     0.173 A 
ATOM     71  C   UNL A   1      40.204  35.180  36.851  1.00  0.00     0.173 A 
ATOM     72  F   UNL A   1      38.174  32.297  37.723  1.00  0.00    -0.203 F 
ATOM     73  C   UNL A   1      38.591  34.284  38.920  1.00  0.00     0.198 A 
ATOM     74  C   UNL A   1      40.031  35.961  37.989  1.00  0.00     0.198 A 
ATOM     75  F   UNL A   1      40.986  35.644  35.864  1.00  0.00    -0.203 F 
ATOM     76  F   UNL A   1      37.778  33.863  39.898  1.00  0.00    -0.200 F 
ATOM     77  C   UNL A   1      39.215  35.517  39.018  1.00  0.00     0.200 A 
ATOM     78  F   UNL A   1      40.655  37.144  38.089  1.00  0.00    -0.200 F 
ATOM     79  F   UNL A   1      39.024  36.282  40.101  1.00  0.00    -0.200 F 
ENDBRANCH  41  69
BRANCH  56  80
ATOM     80  C   UNL A   1      43.846  28.640  35.129  1.00  0.00     0.064 A 
ATOM     81  C   UNL A   1      43.594  27.516  35.928  1.00  0.00     0.173 A 
ATOM     82  C   UNL A   1      45.172  29.086  35.022  1.00  0.00     0.173 A 
ATOM     83  F   UNL A   1      42.340  27.062  36.079  1.00  0.00    -0.203 F 
ATOM     84  C   UNL A   1      44.626  26.877  36.610  1.00  0.00     0.198 A 
ATOM     85  C   UNL A   1      46.206  28.424  35.676  1.00  0.00     0.198 A 
ATOM     86  F   UNL A   1      45.468  30.154  34.266  1.00  0.00    -0.203 F 
ATOM     87  F   UNL A   1      44.355  25.833  37.407  1.00  0.00    -0.200 F 
ATOM     88  C   UNL A   1      45.932  27.324  36.476  1.00  0.00     0.200 A 
ATOM     89  F   UNL A   1      47.469  28.849  35.534  1.00  0.00    -0.200 F 
ATOM     90  F   UNL A   1      46.926  26.699  37.121  1.00  0.00    -0.200 F 
ENDBRANCH  56  80
ENDBRANCH  21  24
ENDBRANCH  12  14
ENDBRANCH   7  10
ENDBRANCH   4   7
ENDBRANCH   1   4
BRANCH   1  91
ATOM     91  C   UNL A   1      32.604  30.125  26.708  1.00  0.00    -0.052 C 
ATOM     92  H   UNL A   1      32.992  30.721  27.507  1.00  0.00     0.027 H 
ATOM     93  H   UNL A   1      33.300  29.982  25.907  1.00  0.00     0.027 H 
BRANCH  91  94
ATOM     94  C   UNL A   1      32.294  28.730  27.262  1.00  0.00    -0.036 C 
ATOM     95  H   UNL A   1      31.582  28.833  28.054  1.00  0.00     0.028 H 
ATOM     96  H   UNL A   1      33.223  28.316  27.593  1.00  0.00     0.028 H 
BRANCH  94  97
ATOM     97  C   UNL A   1      31.724  27.759  26.229  1.00  0.00     0.017 C 
ATOM     98  H   UNL A   1      31.314  28.317  25.414  1.00  0.00     0.049 H 
ATOM     99  H   UNL A   1      30.965  27.168  26.697  1.00  0.00     0.049 H 
BRANCH  97 100
ATOM    100  N   UNL A   1      32.756  26.875  25.728  1.00  0.00    -0.356 N 
ATOM    101  C   UNL A   1      32.996  26.430  24.462  1.00  0.00     0.229 C 
ATOM    102  H   UNL A   1      33.383  26.541  26.410  1.00  0.00     0.163 HD
ATOM    103  O   UNL A   1      33.848  25.552  24.318  1.00  0.00    -0.274 OA
BRANCH 101 104
ATOM    104  C   UNL A   1      32.203  27.015  23.303  1.00  0.00     0.080 C 
ATOM    105  C   UNL A   1      32.352  28.551  23.240  1.00  0.00    -0.018 C 
ATOM    106  C   UNL A   1      30.740  26.849  23.497  1.00  0.00     0.031 A 
ATOM    107  H   UNL A   1      32.578  26.509  22.438  1.00  0.00     0.047 H 
ATOM    108  C   UNL A   1      30.966  29.085  22.846  1.00  0.00     0.024 C 
ATOM    109  H   UNL A   1      33.081  28.826  22.505  1.00  0.00     0.030 H 
ATOM    110  H   UNL A   1      32.682  28.957  24.174  1.00  0.00     0.030 H 
ATOM    111  N   UNL A   1      30.066  28.005  23.216  1.00  0.00    -0.341 N 
ATOM    112  C   UNL A   1      29.838  25.896  23.877  1.00  0.00    -0.040 A 
ATOM    113  H   UNL A   1      30.916  29.281  21.796  1.00  0.00     0.050 H 
ATOM    114  H   UNL A   1      30.724  30.010  23.326  1.00  0.00     0.050 H 
ATOM    115  C   UNL A   1      28.722  27.845  23.363  1.00  0.00     0.090 A 
ATOM    116  C   UNL A   1      28.568  26.525  23.798  1.00  0.00    -0.033 A 
ATOM    117  H   UNL A   1      30.039  24.924  24.161  1.00  0.00     0.064 H 
ATOM    118  H   UNL A   1      27.668  26.076  24.028  1.00  0.00     0.065 H 
BRANCH 115 119
ATOM    119  C   UNL A   1      27.639  28.798  23.182  1.00  0.00     0.209 C 
ATOM    120  O   UNL A   1      26.465  28.530  23.439  1.00  0.00    -0.287 OA
BRANCH 119 121
ATOM    121  C   UNL A   1      27.900  30.167  22.692  1.00  0.00     0.024 A 
ATOM    122  C   UNL A   1      27.945  30.379  21.311  1.00  0.00    -0.051 A 
ATOM    123  C   UNL A   1      28.152  31.220  23.577  1.00  0.00    -0.051 A 
ATOM    124  C   UNL A   1      28.191  31.659  20.814  1.00  0.00    -0.062 A 
ATOM    125  H   UNL A   1      27.797  29.592  20.660  1.00  0.00     0.063 H 
ATOM    126  C   UNL A   1      28.384  32.502  23.077  1.00  0.00    -0.062 A 
ATOM    127  H   UNL A   1      28.166  31.050  24.596  1.00  0.00     0.063 H 
ATOM    128  C   UNL A   1      28.398  32.719  21.697  1.00  0.00    -0.062 A 
ATOM    129  H   UNL A   1      28.219  31.821  19.796  1.00  0.00     0.062 H 
ATOM    130  H   UNL A   1      28.544  33.288  23.724  1.00  0.00     0.062 H 
ATOM    131  H   UNL A   1      28.563  33.670  21.329  1.00  0.00     0.062 H 
ENDBRANCH 119 121
ENDBRANCH 115 119
ENDBRANCH 101 104
ENDBRANCH  97 100
ENDBRANCH  94  97
ENDBRANCH  91  94
ENDBRANCH   1  91
TORSDOF 15
ENDMDL
MODEL 3
REMARK VINA RESULT:     -12.8      0.327      1.628
REMARK SMILES O=C(NCCCCCCNC(=O)[C@@H]1CCn2c(C(=O)c3ccccc3)ccc21)c1ccc(-c2c3nc(c(-c4c(F)c(F)c(F)c(F)c4F)c4ccc([nH]4)c(-c4c(F)c(F)c(F)c(F)c4F)c4nc(c(-c5c(F)c(F)c(F)c(F)c5F)c5ccc2[nH]5)C=C4)C=C3)cc1
REMARK SMILES IDX 6 1 5 4 4 7 3 10 1 11 2 12 29 14 30 15 91 16 31 17 90 19
REMARK SMILES IDX 32 21 33 24 34 25 84 26 35 27 89 28 83 29 85 30 36 31 88 32
REMARK SMILES IDX 82 34 81 36 37 38 69 41 49 42 68 43 50 44 53 45 67 46 86 47
REMARK SMILES IDX 51 48 52 50 66 52 87 53 54 56 38 58 39 59 47 60 40 61 41 62
REMARK SMILES IDX 45 63 48 64 42 65 43 66 46 67 44 68 70 69 71 70 79 71 72 72
REMARK SMILES IDX 73 73 77 74 80 75 74 76 75 77 78 78 76 79 55 80 56 81 64 82
REMARK SMILES IDX 57 83 58 84 62 85 65 86 59 87 60 88 63 89 61 90 7 91 8 94
REMARK SMILES IDX 9 97 10 100 11 101 12 103 13 104 14 105 28 106 15 108 16 111
REMARK SMILES IDX 27 112 17 115 26 116 18 119 19 120 20 121 21 122 25 123
REMARK SMILES IDX 22 124 24 126 23 128
REMARK H PARENT 6 2 6 3 5 5 5 6 4 8 4 9 3 13 30 18 91 20 31 22 90 23 89 33
REMARK H PARENT 83 35 85 37 88 39 82 40 50 49 53 51 86 54 51 55 87 57 7 92
REMARK H PARENT 7 93 8 95 8 96 9 98 9 99 10 102 13 107 14 109 14 110 15 113
REMARK H PARENT 15 114 27 117 26 118 21 125 25 127 22 129 24 130 23 131
REMARK Flexibility Score: inf
ROOT
ATOM      1  C   UNL A   1      31.532  30.622  26.707  1.00  0.00    -0.052 C 
ATOM      2  H   UNL A   1      30.737  30.232  27.309  1.00  0.00     0.027 H 
ATOM      3  H   UNL A   1      32.504  30.384  27.086  1.00  0.00     0.027 H 
ENDROOT
BRANCH   1   4
ATOM      4  C   UNL A   1      31.429  32.147  26.715  1.00  0.00    -0.036 C 
ATOM      5  H   UNL A   1      31.171  32.472  25.728  1.00  0.00     0.028 H 
ATOM      6  H   UNL A   1      30.686  32.401  27.442  1.00  0.00     0.028 H 
BRANCH   4   7
ATOM      7  C   UNL A   1      32.710  32.854  27.131  1.00  0.00     0.018 C 
ATOM      8  H   UNL A   1      33.184  32.284  27.903  1.00  0.00     0.049 H 
ATOM      9  H   UNL A   1      33.338  32.935  26.269  1.00  0.00     0.049 H 
BRANCH   7  10
ATOM     10  N   UNL A   1      32.456  34.196  27.628  1.00  0.00    -0.352 N 
ATOM     11  O   UNL A   1      32.563  35.894  29.115  1.00  0.00    -0.269 OA
ATOM     12  C   UNL A   1      33.023  34.835  28.701  1.00  0.00     0.251 C 
ATOM     13  H   UNL A   1      31.787  34.716  27.128  1.00  0.00     0.163 HD
BRANCH  12  14
ATOM     14  C   UNL A   1      34.193  34.226  29.366  1.00  0.00     0.039 A 
ATOM     15  C   UNL A   1      34.015  33.384  30.468  1.00  0.00    -0.049 A 
ATOM     16  C   UNL A   1      35.474  34.492  28.879  1.00  0.00    -0.049 A 
ATOM     17  C   UNL A   1      35.122  32.903  31.155  1.00  0.00    -0.053 A 
ATOM     18  H   UNL A   1      33.064  33.121  30.771  1.00  0.00     0.063 H 
ATOM     19  C   UNL A   1      36.584  33.932  29.515  1.00  0.00    -0.053 A 
ATOM     20  H   UNL A   1      35.600  35.098  28.054  1.00  0.00     0.063 H 
ATOM     21  C   UNL A   1      36.416  33.143  30.665  1.00  0.00    -0.014 A 
ATOM     22  H   UNL A   1      34.993  32.367  32.027  1.00  0.00     0.063 H 
ATOM     23  H   UNL A   1      37.530  34.099  29.140  1.00  0.00     0.063 H 
BRANCH  21  24
ATOM     24  C   UNL A   1      37.570  32.464  31.301  1.00  0.00     0.031 A 
ATOM     25  C   UNL A   1      38.273  31.323  30.626  1.00  0.00     0.074 A 
ATOM     26  C   UNL A   1      37.966  32.891  32.515  1.00  0.00     0.049 A 
ATOM     27  N   UNL A   1      39.270  30.597  31.066  1.00  0.00    -0.248 NA
ATOM     28  C   UNL A   1      37.795  30.938  29.291  1.00  0.00    -0.034 C 
ATOM     29  C   UNL A   1      37.343  33.984  33.267  1.00  0.00    -0.036 A 
ATOM     30  N   UNL A   1      38.980  32.464  33.334  1.00  0.00    -0.354 N 
ATOM     31  C   UNL A   1      39.525  29.659  30.076  1.00  0.00     0.074 A 
ATOM     32  C   UNL A   1      38.567  29.894  29.017  1.00  0.00    -0.034 C 
ATOM     33  H   UNL A   1      37.053  31.368  28.717  1.00  0.00     0.065 H 
ATOM     34  C   UNL A   1      38.000  34.158  34.421  1.00  0.00    -0.036 A 
ATOM     35  H   UNL A   1      36.527  34.533  32.955  1.00  0.00     0.065 H 
ATOM     36  C   UNL A   1      39.040  33.143  34.527  1.00  0.00     0.049 A 
ATOM     37  H   UNL A   1      39.603  31.743  33.092  1.00  0.00     0.167 HD
ATOM     38  C   UNL A   1      40.476  28.693  30.061  1.00  0.00     0.037 A 
ATOM     39  H   UNL A   1      38.493  29.323  28.160  1.00  0.00     0.065 H 
ATOM     40  H   UNL A   1      37.802  34.890  35.121  1.00  0.00     0.065 H 
ATOM     41  C   UNL A   1      39.820  32.946  35.605  1.00  0.00     0.037 A 
ATOM     42  C   UNL A   1      41.431  28.482  31.121  1.00  0.00     0.049 A 
ATOM     43  C   UNL A   1      40.833  31.839  35.573  1.00  0.00     0.074 A 
ATOM     44  C   UNL A   1      42.476  27.575  31.169  1.00  0.00    -0.036 A 
ATOM     45  N   UNL A   1      41.447  29.173  32.323  1.00  0.00    -0.354 N 
ATOM     46  N   UNL A   1      41.110  31.001  34.603  1.00  0.00    -0.248 NA
ATOM     47  C   UNL A   1      41.639  31.643  36.784  1.00  0.00    -0.034 C 
ATOM     48  C   UNL A   1      43.080  27.670  32.426  1.00  0.00    -0.036 A 
ATOM     49  H   UNL A   1      42.759  26.939  30.407  1.00  0.00     0.065 H 
ATOM     50  C   UNL A   1      42.456  28.681  33.138  1.00  0.00     0.049 A 
ATOM     51  H   UNL A   1      40.833  29.906  32.563  1.00  0.00     0.167 HD
ATOM     52  C   UNL A   1      42.131  30.192  35.079  1.00  0.00     0.074 A 
ATOM     53  C   UNL A   1      42.442  30.656  36.415  1.00  0.00    -0.034 C 
ATOM     54  H   UNL A   1      41.592  32.144  37.686  1.00  0.00     0.065 H 
ATOM     55  H   UNL A   1      43.858  27.084  32.766  1.00  0.00     0.065 H 
ATOM     56  C   UNL A   1      42.752  29.155  34.466  1.00  0.00     0.037 A 
ATOM     57  H   UNL A   1      43.193  30.267  37.006  1.00  0.00     0.065 H 
BRANCH  38  58
ATOM     58  C   UNL A   1      40.524  27.766  28.880  1.00  0.00     0.064 A 
ATOM     59  C   UNL A   1      41.390  27.984  27.799  1.00  0.00     0.173 A 
ATOM     60  C   UNL A   1      39.744  26.598  28.868  1.00  0.00     0.173 A 
ATOM     61  F   UNL A   1      42.153  29.087  27.757  1.00  0.00    -0.203 F 
ATOM     62  C   UNL A   1      41.462  27.078  26.743  1.00  0.00     0.198 A 
ATOM     63  C   UNL A   1      39.840  25.680  27.826  1.00  0.00     0.198 A 
ATOM     64  F   UNL A   1      38.905  26.335  29.882  1.00  0.00    -0.203 F 
ATOM     65  F   UNL A   1      42.272  27.325  25.704  1.00  0.00    -0.200 F 
ATOM     66  C   UNL A   1      40.695  25.923  26.762  1.00  0.00     0.200 A 
ATOM     67  F   UNL A   1      39.109  24.557  27.855  1.00  0.00    -0.200 F 
ATOM     68  F   UNL A   1      40.777  25.045  25.754  1.00  0.00    -0.200 F 
ENDBRANCH  38  58
BRANCH  41  69
ATOM     69  C   UNL A   1      39.643  33.793  36.813  1.00  0.00     0.064 A 
ATOM     70  C   UNL A   1      40.323  35.010  36.952  1.00  0.00     0.173 A 
ATOM     71  C   UNL A   1      38.789  33.401  37.857  1.00  0.00     0.173 A 
ATOM     72  F   UNL A   1      41.162  35.421  35.989  1.00  0.00    -0.203 F 
ATOM     73  C   UNL A   1      40.178  35.788  38.098  1.00  0.00     0.198 A 
ATOM     74  C   UNL A   1      38.617  34.197  38.985  1.00  0.00     0.198 A 
ATOM     75  F   UNL A   1      38.107  32.249  37.771  1.00  0.00    -0.203 F 
ATOM     76  F   UNL A   1      40.882  36.920  38.228  1.00  0.00    -0.200 F 
ATOM     77  C   UNL A   1      39.321  35.385  39.110  1.00  0.00     0.200 A 
ATOM     78  F   UNL A   1      37.770  33.813  39.951  1.00  0.00    -0.200 F 
ATOM     79  F   UNL A   1      39.179  36.136  40.210  1.00  0.00    -0.200 F 
ENDBRANCH  41  69
BRANCH  56  80
ATOM     80  C   UNL A   1      43.847  28.466  35.227  1.00  0.00     0.064 A 
ATOM     81  C   UNL A   1      43.581  27.388  36.084  1.00  0.00     0.173 A 
ATOM     82  C   UNL A   1      45.183  28.860  35.062  1.00  0.00     0.173 A 
ATOM     83  F   UNL A   1      42.318  26.986  36.291  1.00  0.00    -0.203 F 
ATOM     84  C   UNL A   1      44.611  26.745  36.764  1.00  0.00     0.198 A 
ATOM     85  C   UNL A   1      46.213  28.193  35.717  1.00  0.00     0.198 A 
ATOM     86  F   UNL A   1      45.491  29.883  34.250  1.00  0.00    -0.203 F 
ATOM     87  F   UNL A   1      44.329  25.748  37.616  1.00  0.00    -0.200 F 
ATOM     88  C   UNL A   1      45.927  27.140  36.573  1.00  0.00     0.200 A 
ATOM     89  F   UNL A   1      47.484  28.567  35.519  1.00  0.00    -0.200 F 
ATOM     90  F   UNL A   1      46.918  26.511  37.218  1.00  0.00    -0.200 F 
ENDBRANCH  56  80
ENDBRANCH  21  24
ENDBRANCH  12  14
ENDBRANCH   7  10
ENDBRANCH   4   7
ENDBRANCH   1   4
BRANCH   1  91
ATOM     91  C   UNL A   1      31.439  29.979  25.320  1.00  0.00    -0.052 C 
ATOM     92  H   UNL A   1      32.222  30.383  24.713  1.00  0.00     0.027 H 
ATOM     93  H   UNL A   1      30.459  30.201  24.952  1.00  0.00     0.027 H 
BRANCH  91  94
ATOM     94  C   UNL A   1      31.566  28.451  25.305  1.00  0.00    -0.036 C 
ATOM     95  H   UNL A   1      32.368  28.187  24.647  1.00  0.00     0.028 H 
ATOM     96  H   UNL A   1      30.622  28.066  24.979  1.00  0.00     0.028 H 
BRANCH  94  97
ATOM     97  C   UNL A   1      31.843  27.832  26.673  1.00  0.00     0.017 C 
ATOM     98  H   UNL A   1      31.547  28.521  27.435  1.00  0.00     0.049 H 
ATOM     99  H   UNL A   1      32.890  27.621  26.747  1.00  0.00     0.049 H 
BRANCH  97 100
ATOM    100  N   UNL A   1      31.109  26.595  26.840  1.00  0.00    -0.356 N 
ATOM    101  C   UNL A   1      31.458  25.316  26.528  1.00  0.00     0.229 C 
ATOM    102  H   UNL A   1      30.215  26.695  27.241  1.00  0.00     0.163 HD
ATOM    103  O   UNL A   1      30.589  24.448  26.623  1.00  0.00    -0.274 OA
BRANCH 101 104
ATOM    104  C   UNL A   1      32.878  25.020  26.068  1.00  0.00     0.080 C 
ATOM    105  C   UNL A   1      32.955  24.898  24.530  1.00  0.00    -0.018 C 
ATOM    106  C   UNL A   1      33.333  23.678  26.513  1.00  0.00     0.031 A 
ATOM    107  H   UNL A   1      33.463  25.823  26.467  1.00  0.00     0.047 H 
ATOM    108  C   UNL A   1      33.944  23.754  24.256  1.00  0.00     0.024 C 
ATOM    109  H   UNL A   1      33.312  25.811  24.100  1.00  0.00     0.030 H 
ATOM    110  H   UNL A   1      31.995  24.704  24.099  1.00  0.00     0.030 H 
ATOM    111  N   UNL A   1      33.944  22.998  25.498  1.00  0.00    -0.341 N 
ATOM    112  C   UNL A   1      33.332  22.893  27.631  1.00  0.00    -0.040 A 
ATOM    113  H   UNL A   1      34.920  24.135  24.041  1.00  0.00     0.050 H 
ATOM    114  H   UNL A   1      33.670  23.161  23.409  1.00  0.00     0.050 H 
ATOM    115  C   UNL A   1      34.389  21.780  25.912  1.00  0.00     0.090 A 
ATOM    116  C   UNL A   1      33.992  21.696  27.251  1.00  0.00    -0.033 A 
ATOM    117  H   UNL A   1      32.935  23.123  28.556  1.00  0.00     0.064 H 
ATOM    118  H   UNL A   1      34.153  20.884  27.869  1.00  0.00     0.065 H 
BRANCH 115 119
ATOM    119  C   UNL A   1      35.078  20.732  25.177  1.00  0.00     0.209 C 
ATOM    120  O   UNL A   1      36.294  20.741  24.984  1.00  0.00    -0.287 OA
BRANCH 119 121
ATOM    121  C   UNL A   1      34.342  19.572  24.632  1.00  0.00     0.024 A 
ATOM    122  C   UNL A   1      34.995  18.336  24.588  1.00  0.00    -0.051 A 
ATOM    123  C   UNL A   1      33.048  19.707  24.121  1.00  0.00    -0.051 A 
ATOM    124  C   UNL A   1      34.330  17.221  24.079  1.00  0.00    -0.062 A 
ATOM    125  H   UNL A   1      35.964  18.248  24.930  1.00  0.00     0.063 H 
ATOM    126  C   UNL A   1      32.382  18.585  23.625  1.00  0.00    -0.062 A 
ATOM    127  H   UNL A   1      32.588  20.631  24.111  1.00  0.00     0.063 H 
ATOM    128  C   UNL A   1      33.022  17.344  23.610  1.00  0.00    -0.062 A 
ATOM    129  H   UNL A   1      34.805  16.305  24.050  1.00  0.00     0.062 H 
ATOM    130  H   UNL A   1      31.417  18.673  23.271  1.00  0.00     0.062 H 
ATOM    131  H   UNL A   1      32.524  16.514  23.249  1.00  0.00     0.062 H 
ENDBRANCH 119 121
ENDBRANCH 115 119
ENDBRANCH 101 104
ENDBRANCH  97 100
ENDBRANCH  94  97
ENDBRANCH  91  94
ENDBRANCH   1  91
TORSDOF 15
ENDMDL
MODEL 4
REMARK VINA RESULT:     -12.7      0.526      7.336
REMARK SMILES O=C(NCCCCCCNC(=O)[C@@H]1CCn2c(C(=O)c3ccccc3)ccc21)c1ccc(-c2c3nc(c(-c4c(F)c(F)c(F)c(F)c4F)c4ccc([nH]4)c(-c4c(F)c(F)c(F)c(F)c4F)c4nc(c(-c5c(F)c(F)c(F)c(F)c5F)c5ccc2[nH]5)C=C4)C=C3)cc1
REMARK SMILES IDX 6 1 5 4 4 7 3 10 1 11 2 12 29 14 30 15 91 16 31 17 90 19
REMARK SMILES IDX 32 21 33 24 34 25 84 26 35 27 89 28 83 29 85 30 36 31 88 32
REMARK SMILES IDX 82 34 81 36 37 38 69 41 49 42 68 43 50 44 53 45 67 46 86 47
REMARK SMILES IDX 51 48 52 50 66 52 87 53 54 56 38 58 39 59 47 60 40 61 41 62
REMARK SMILES IDX 45 63 48 64 42 65 43 66 46 67 44 68 70 69 71 70 79 71 72 72
REMARK SMILES IDX 73 73 77 74 80 75 74 76 75 77 78 78 76 79 55 80 56 81 64 82
REMARK SMILES IDX 57 83 58 84 62 85 65 86 59 87 60 88 63 89 61 90 7 91 8 94
REMARK SMILES IDX 9 97 10 100 11 101 12 103 13 104 14 105 28 106 15 108 16 111
REMARK SMILES IDX 27 112 17 115 26 116 18 119 19 120 20 121 21 122 25 123
REMARK SMILES IDX 22 124 24 126 23 128
REMARK H PARENT 6 2 6 3 5 5 5 6 4 8 4 9 3 13 30 18 91 20 31 22 90 23 89 33
REMARK H PARENT 83 35 85 37 88 39 82 40 50 49 53 51 86 54 51 55 87 57 7 92
REMARK H PARENT 7 93 8 95 8 96 9 98 9 99 10 102 13 107 14 109 14 110 15 113
REMARK H PARENT 15 114 27 117 26 118 21 125 25 127 22 129 24 130 23 131
REMARK Flexibility Score: inf
ROOT
ATOM      1  C   UNL A   1      31.506  30.428  26.140  1.00  0.00    -0.052 C 
ATOM      2  H   UNL A   1      32.174  30.316  25.312  1.00  0.00     0.027 H 
ATOM      3  H   UNL A   1      30.509  30.102  25.925  1.00  0.00     0.027 H 
ENDROOT
BRANCH   1   4
ATOM      4  C   UNL A   1      31.409  31.916  26.474  1.00  0.00    -0.036 C 
ATOM      5  H   UNL A   1      31.201  32.450  25.571  1.00  0.00     0.028 H 
ATOM      6  H   UNL A   1      30.633  32.018  27.204  1.00  0.00     0.028 H 
BRANCH   4   7
ATOM      7  C   UNL A   1      32.672  32.498  27.093  1.00  0.00     0.018 C 
ATOM      8  H   UNL A   1      32.936  31.914  27.950  1.00  0.00     0.049 H 
ATOM      9  H   UNL A   1      33.445  32.471  26.353  1.00  0.00     0.049 H 
BRANCH   7  10
ATOM     10  N   UNL A   1      32.492  33.880  27.503  1.00  0.00    -0.352 N 
ATOM     11  O   UNL A   1      32.711  35.666  28.871  1.00  0.00    -0.269 OA
ATOM     12  C   UNL A   1      33.112  34.560  28.520  1.00  0.00     0.251 C 
ATOM     13  H   UNL A   1      31.838  34.398  26.982  1.00  0.00     0.163 HD
BRANCH  12  14
ATOM     14  C   UNL A   1      34.266  33.941  29.203  1.00  0.00     0.039 A 
ATOM     15  C   UNL A   1      34.060  33.004  30.221  1.00  0.00    -0.049 A 
ATOM     16  C   UNL A   1      35.561  34.291  28.816  1.00  0.00    -0.049 A 
ATOM     17  C   UNL A   1      35.145  32.508  30.932  1.00  0.00    -0.053 A 
ATOM     18  H   UNL A   1      33.105  32.684  30.444  1.00  0.00     0.063 H 
ATOM     19  C   UNL A   1      36.654  33.720  29.470  1.00  0.00    -0.053 A 
ATOM     20  H   UNL A   1      35.708  34.967  28.051  1.00  0.00     0.063 H 
ATOM     21  C   UNL A   1      36.453  32.834  30.541  1.00  0.00    -0.014 A 
ATOM     22  H   UNL A   1      34.989  31.898  31.749  1.00  0.00     0.063 H 
ATOM     23  H   UNL A   1      37.613  33.952  29.167  1.00  0.00     0.063 H 
BRANCH  21  24
ATOM     24  C   UNL A   1      37.596  32.146  31.188  1.00  0.00     0.031 A 
ATOM     25  C   UNL A   1      38.063  32.528  32.561  1.00  0.00     0.074 A 
ATOM     26  C   UNL A   1      38.219  31.168  30.501  1.00  0.00     0.049 A 
ATOM     27  N   UNL A   1      39.071  32.054  33.249  1.00  0.00    -0.248 NA
ATOM     28  C   UNL A   1      37.311  33.586  33.252  1.00  0.00    -0.034 C 
ATOM     29  C   UNL A   1      37.854  30.726  29.152  1.00  0.00    -0.036 A 
ATOM     30  N   UNL A   1      39.284  30.372  30.833  1.00  0.00    -0.354 N 
ATOM     31  C   UNL A   1      39.089  32.765  34.440  1.00  0.00     0.074 A 
ATOM     32  C   UNL A   1      38.001  33.717  34.378  1.00  0.00    -0.034 C 
ATOM     33  H   UNL A   1      36.466  34.092  32.943  1.00  0.00     0.065 H 
ATOM     34  C   UNL A   1      38.663  29.725  28.781  1.00  0.00    -0.036 A 
ATOM     35  H   UNL A   1      37.094  31.123  28.578  1.00  0.00     0.065 H 
ATOM     36  C   UNL A   1      39.650  29.505  29.832  1.00  0.00     0.049 A 
ATOM     37  H   UNL A   1      39.743  30.416  31.702  1.00  0.00     0.167 HD
ATOM     38  C   UNL A   1      39.939  32.626  35.486  1.00  0.00     0.037 A 
ATOM     39  H   UNL A   1      37.790  34.410  35.114  1.00  0.00     0.065 H 
ATOM     40  H   UNL A   1      38.599  29.196  27.898  1.00  0.00     0.065 H 
ATOM     41  C   UNL A   1      40.688  28.654  29.750  1.00  0.00     0.037 A 
ATOM     42  C   UNL A   1      41.010  31.662  35.536  1.00  0.00     0.049 A 
ATOM     43  C   UNL A   1      41.638  28.558  30.908  1.00  0.00     0.074 A 
ATOM     44  C   UNL A   1      41.882  31.398  36.578  1.00  0.00    -0.036 A 
ATOM     45  N   UNL A   1      41.365  30.817  34.495  1.00  0.00    -0.354 N 
ATOM     46  N   UNL A   1      41.604  29.187  32.057  1.00  0.00    -0.248 NA
ATOM     47  C   UNL A   1      42.773  27.639  30.759  1.00  0.00    -0.034 C 
ATOM     48  C   UNL A   1      42.807  30.444  36.143  1.00  0.00    -0.036 A 
ATOM     49  H   UNL A   1      41.855  31.831  37.514  1.00  0.00     0.065 H 
ATOM     50  C   UNL A   1      42.472  30.063  34.854  1.00  0.00     0.049 A 
ATOM     51  H   UNL A   1      40.899  30.760  33.629  1.00  0.00     0.167 HD
ATOM     52  C   UNL A   1      42.700  28.730  32.774  1.00  0.00     0.074 A 
ATOM     53  C   UNL A   1      43.364  27.750  31.940  1.00  0.00    -0.034 C 
ATOM     54  H   UNL A   1      43.040  27.059  29.948  1.00  0.00     0.065 H 
ATOM     55  H   UNL A   1      43.605  30.085  36.690  1.00  0.00     0.065 H 
ATOM     56  C   UNL A   1      43.122  29.091  34.010  1.00  0.00     0.037 A 
ATOM     57  H   UNL A   1      44.194  27.207  32.227  1.00  0.00     0.065 H 
BRANCH  38  58
ATOM     58  C   UNL A   1      39.776  33.551  36.658  1.00  0.00     0.064 A 
ATOM     59  C   UNL A   1      40.406  34.803  36.711  1.00  0.00     0.173 A 
ATOM     60  C   UNL A   1      38.913  33.209  37.712  1.00  0.00     0.173 A 
ATOM     61  F   UNL A   1      41.246  35.177  35.734  1.00  0.00    -0.203 F 
ATOM     62  C   UNL A   1      40.192  35.669  37.781  1.00  0.00     0.198 A 
ATOM     63  C   UNL A   1      38.679  34.089  38.765  1.00  0.00     0.198 A 
ATOM     64  F   UNL A   1      38.278  32.027  37.709  1.00  0.00    -0.203 F 
ATOM     65  F   UNL A   1      40.833  36.847  37.825  1.00  0.00    -0.200 F 
ATOM     66  C   UNL A   1      39.322  35.317  38.801  1.00  0.00     0.200 A 
ATOM     67  F   UNL A   1      37.825  33.752  39.742  1.00  0.00    -0.200 F 
ATOM     68  F   UNL A   1      39.105  36.158  39.821  1.00  0.00    -0.200 F 
ENDBRANCH  38  58
BRANCH  41  69
ATOM     69  C   UNL A   1      40.900  27.860  28.512  1.00  0.00     0.064 A 
ATOM     70  C   UNL A   1      40.311  26.599  28.349  1.00  0.00     0.173 A 
ATOM     71  C   UNL A   1      41.699  28.345  27.464  1.00  0.00     0.173 A 
ATOM     72  F   UNL A   1      39.551  26.084  29.328  1.00  0.00    -0.203 F 
ATOM     73  C   UNL A   1      40.535  25.843  27.200  1.00  0.00     0.198 A 
ATOM     74  C   UNL A   1      41.892  27.605  26.301  1.00  0.00     0.198 A 
ATOM     75  F   UNL A   1      42.280  29.550  27.564  1.00  0.00    -0.203 F 
ATOM     76  F   UNL A   1      40.004  24.618  27.096  1.00  0.00    -0.200 F 
ATOM     77  C   UNL A   1      41.319  26.349  26.176  1.00  0.00     0.200 A 
ATOM     78  F   UNL A   1      42.633  28.108  25.304  1.00  0.00    -0.200 F 
ATOM     79  F   UNL A   1      41.530  25.623  25.070  1.00  0.00    -0.200 F 
ENDBRANCH  41  69
BRANCH  56  80
ATOM     80  C   UNL A   1      44.345  28.407  34.545  1.00  0.00     0.064 A 
ATOM     81  C   UNL A   1      45.624  28.962  34.393  1.00  0.00     0.173 A 
ATOM     82  C   UNL A   1      44.232  27.203  35.257  1.00  0.00     0.173 A 
ATOM     83  F   UNL A   1      45.788  30.101  33.703  1.00  0.00    -0.203 F 
ATOM     84  C   UNL A   1      46.746  28.326  34.915  1.00  0.00     0.198 A 
ATOM     85  C   UNL A   1      45.351  26.588  35.807  1.00  0.00     0.198 A 
ATOM     86  F   UNL A   1      43.031  26.633  35.434  1.00  0.00    -0.203 F 
ATOM     87  F   UNL A   1      47.964  28.850  34.716  1.00  0.00    -0.200 F 
ATOM     88  C   UNL A   1      46.609  27.145  35.631  1.00  0.00     0.200 A 
ATOM     89  F   UNL A   1      45.215  25.456  36.510  1.00  0.00    -0.200 F 
ATOM     90  F   UNL A   1      47.689  26.542  36.144  1.00  0.00    -0.200 F 
ENDBRANCH  56  80
ENDBRANCH  21  24
ENDBRANCH  12  14
ENDBRANCH   7  10
ENDBRANCH   4   7
ENDBRANCH   1   4
BRANCH   1  91
ATOM     91  C   UNL A   1      32.012  29.543  27.284  1.00  0.00    -0.052 C 
ATOM     92  H   UNL A   1      31.226  29.452  28.005  1.00  0.00     0.027 H 
ATOM     93  H   UNL A   1      32.887  30.024  27.668  1.00  0.00     0.027 H 
BRANCH  91  94
ATOM     94  C   UNL A   1      32.445  28.132  26.869  1.00  0.00    -0.036 C 
ATOM     95  H   UNL A   1      32.574  27.546  27.756  1.00  0.00     0.028 H 
ATOM     96  H   UNL A   1      33.350  28.240  26.309  1.00  0.00     0.028 H 
BRANCH  94  97
ATOM     97  C   UNL A   1      31.449  27.414  25.961  1.00  0.00     0.017 C 
ATOM     98  H   UNL A   1      31.938  27.146  25.049  1.00  0.00     0.049 H 
ATOM     99  H   UNL A   1      30.628  28.073  25.766  1.00  0.00     0.049 H 
BRANCH  97 100
ATOM    100  N   UNL A   1      30.940  26.217  26.597  1.00  0.00    -0.356 N 
ATOM    101  C   UNL A   1      31.453  24.955  26.636  1.00  0.00     0.229 C 
ATOM    102  H   UNL A   1      30.088  26.332  27.077  1.00  0.00     0.163 HD
ATOM    103  O   UNL A   1      30.747  24.066  27.114  1.00  0.00    -0.274 OA
BRANCH 101 104
ATOM    104  C   UNL A   1      32.847  24.699  26.082  1.00  0.00     0.080 C 
ATOM    105  C   UNL A   1      32.818  24.534  24.546  1.00  0.00    -0.018 C 
ATOM    106  C   UNL A   1      33.384  23.388  26.528  1.00  0.00     0.031 A 
ATOM    107  H   UNL A   1      33.427  25.534  26.415  1.00  0.00     0.047 H 
ATOM    108  C   UNL A   1      33.828  23.419  24.231  1.00  0.00     0.024 C 
ATOM    109  H   UNL A   1      33.108  25.446  24.067  1.00  0.00     0.030 H 
ATOM    110  H   UNL A   1      31.838  24.292  24.191  1.00  0.00     0.030 H 
ATOM    111  N   UNL A   1      33.946  22.701  25.490  1.00  0.00    -0.341 N 
ATOM    112  C   UNL A   1      33.494  22.637  27.664  1.00  0.00    -0.040 A 
ATOM    113  H   UNL A   1      34.771  23.829  23.936  1.00  0.00     0.050 H 
ATOM    114  H   UNL A   1      33.517  22.791  23.423  1.00  0.00     0.050 H 
ATOM    115  C   UNL A   1      34.468  21.513  25.904  1.00  0.00     0.090 A 
ATOM    116  C   UNL A   1      34.171  21.454  27.269  1.00  0.00    -0.033 A 
ATOM    117  H   UNL A   1      33.156  22.880  28.609  1.00  0.00     0.064 H 
ATOM    118  H   UNL A   1      34.408  20.668  27.895  1.00  0.00     0.065 H 
BRANCH 115 119
ATOM    119  C   UNL A   1      35.142  20.469  25.148  1.00  0.00     0.209 C 
ATOM    120  O   UNL A   1      36.359  20.461  24.962  1.00  0.00    -0.287 OA
BRANCH 119 121
ATOM    121  C   UNL A   1      34.390  19.335  24.575  1.00  0.00     0.024 A 
ATOM    122  C   UNL A   1      35.042  18.105  24.446  1.00  0.00    -0.051 A 
ATOM    123  C   UNL A   1      33.077  19.490  24.118  1.00  0.00    -0.051 A 
ATOM    124  C   UNL A   1      34.362  17.013  23.908  1.00  0.00    -0.062 A 
ATOM    125  H   UNL A   1      36.023  18.004  24.749  1.00  0.00     0.063 H 
ATOM    126  C   UNL A   1      32.396  18.391  23.592  1.00  0.00    -0.062 A 
ATOM    127  H   UNL A   1      32.615  20.412  24.170  1.00  0.00     0.063 H 
ATOM    128  C   UNL A   1      33.037  17.155  23.493  1.00  0.00    -0.062 A 
ATOM    129  H   UNL A   1      34.837  16.102  23.816  1.00  0.00     0.062 H 
ATOM    130  H   UNL A   1      31.419  18.492  23.278  1.00  0.00     0.062 H 
ATOM    131  H   UNL A   1      32.528  16.342  23.110  1.00  0.00     0.062 H 
ENDBRANCH 119 121
ENDBRANCH 115 119
ENDBRANCH 101 104
ENDBRANCH  97 100
ENDBRANCH  94  97
ENDBRANCH  91  94
ENDBRANCH   1  91
TORSDOF 15
ENDMDL
MODEL 5
REMARK VINA RESULT:     -12.7      5.299     11.105
REMARK SMILES O=C(NCCCCCCNC(=O)[C@@H]1CCn2c(C(=O)c3ccccc3)ccc21)c1ccc(-c2c3nc(c(-c4c(F)c(F)c(F)c(F)c4F)c4ccc([nH]4)c(-c4c(F)c(F)c(F)c(F)c4F)c4nc(c(-c5c(F)c(F)c(F)c(F)c5F)c5ccc2[nH]5)C=C4)C=C3)cc1
REMARK SMILES IDX 6 1 5 4 4 7 3 10 1 11 2 12 29 14 30 15 91 16 31 17 90 19
REMARK SMILES IDX 32 21 33 24 34 25 84 26 35 27 89 28 83 29 85 30 36 31 88 32
REMARK SMILES IDX 82 34 81 36 37 38 69 41 49 42 68 43 50 44 53 45 67 46 86 47
REMARK SMILES IDX 51 48 52 50 66 52 87 53 54 56 38 58 39 59 47 60 40 61 41 62
REMARK SMILES IDX 45 63 48 64 42 65 43 66 46 67 44 68 70 69 71 70 79 71 72 72
REMARK SMILES IDX 73 73 77 74 80 75 74 76 75 77 78 78 76 79 55 80 56 81 64 82
REMARK SMILES IDX 57 83 58 84 62 85 65 86 59 87 60 88 63 89 61 90 7 91 8 94
REMARK SMILES IDX 9 97 10 100 11 101 12 103 13 104 14 105 28 106 15 108 16 111
REMARK SMILES IDX 27 112 17 115 26 116 18 119 19 120 20 121 21 122 25 123
REMARK SMILES IDX 22 124 24 126 23 128
REMARK H PARENT 6 2 6 3 5 5 5 6 4 8 4 9 3 13 30 18 91 20 31 22 90 23 89 33
REMARK H PARENT 83 35 85 37 88 39 82 40 50 49 53 51 86 54 51 55 87 57 7 92
REMARK H PARENT 7 93 8 95 8 96 9 98 9 99 10 102 13 107 14 109 14 110 15 113
REMARK H PARENT 15 114 27 117 26 118 21 125 25 127 22 129 24 130 23 131
REMARK Flexibility Score: inf
ROOT
ATOM      1  C   UNL A   1      36.802  20.630  25.008  1.00  0.00    -0.052 C 
ATOM      2  H   UNL A   1      36.568  20.866  26.025  1.00  0.00     0.027 H 
ATOM      3  H   UNL A   1      36.016  20.107  24.504  1.00  0.00     0.027 H 
ENDROOT
BRANCH   1   4
ATOM      4  C   UNL A   1      38.011  19.695  25.004  1.00  0.00    -0.036 C 
ATOM      5  H   UNL A   1      37.689  18.728  25.330  1.00  0.00     0.028 H 
ATOM      6  H   UNL A   1      38.393  19.690  24.004  1.00  0.00     0.028 H 
BRANCH   4   7
ATOM      7  C   UNL A   1      39.150  20.148  25.905  1.00  0.00     0.018 C 
ATOM      8  H   UNL A   1      39.540  21.072  25.530  1.00  0.00     0.049 H 
ATOM      9  H   UNL A   1      38.761  20.265  26.895  1.00  0.00     0.049 H 
BRANCH   7  10
ATOM     10  N   UNL A   1      40.226  19.173  25.958  1.00  0.00    -0.352 N 
ATOM     11  O   UNL A   1      42.376  18.478  25.958  1.00  0.00    -0.269 OA
ATOM     12  C   UNL A   1      41.568  19.386  26.135  1.00  0.00     0.251 C 
ATOM     13  H   UNL A   1      39.954  18.232  25.852  1.00  0.00     0.163 HD
BRANCH  12  14
ATOM     14  C   UNL A   1      42.040  20.728  26.528  1.00  0.00     0.039 A 
ATOM     15  C   UNL A   1      42.373  21.671  25.551  1.00  0.00    -0.049 A 
ATOM     16  C   UNL A   1      42.139  21.050  27.884  1.00  0.00    -0.049 A 
ATOM     17  C   UNL A   1      42.917  22.892  25.927  1.00  0.00    -0.053 A 
ATOM     18  H   UNL A   1      42.215  21.460  24.553  1.00  0.00     0.063 H 
ATOM     19  C   UNL A   1      42.601  22.313  28.261  1.00  0.00    -0.053 A 
ATOM     20  H   UNL A   1      41.874  20.358  28.602  1.00  0.00     0.063 H 
ATOM     21  C   UNL A   1      43.004  23.239  27.284  1.00  0.00    -0.014 A 
ATOM     22  H   UNL A   1      43.258  23.547  25.205  1.00  0.00     0.063 H 
ATOM     23  H   UNL A   1      42.646  22.566  29.260  1.00  0.00     0.063 H 
BRANCH  21  24
ATOM     24  C   UNL A   1      43.407  24.615  27.657  1.00  0.00     0.031 A 
ATOM     25  C   UNL A   1      42.389  25.660  28.008  1.00  0.00     0.074 A 
ATOM     26  C   UNL A   1      44.722  24.912  27.661  1.00  0.00     0.049 A 
ATOM     27  N   UNL A   1      42.576  26.919  28.316  1.00  0.00    -0.248 NA
ATOM     28  C   UNL A   1      40.979  25.246  28.006  1.00  0.00    -0.034 C 
ATOM     29  C   UNL A   1      45.796  23.973  27.323  1.00  0.00    -0.036 A 
ATOM     30  N   UNL A   1      45.382  26.076  27.955  1.00  0.00    -0.354 N 
ATOM     31  C   UNL A   1      41.312  27.453  28.522  1.00  0.00     0.074 A 
ATOM     32  C   UNL A   1      40.362  26.387  28.289  1.00  0.00    -0.034 C 
ATOM     33  H   UNL A   1      40.575  24.313  27.832  1.00  0.00     0.065 H 
ATOM     34  C   UNL A   1      46.978  24.589  27.451  1.00  0.00    -0.036 A 
ATOM     35  H   UNL A   1      45.662  22.992  27.032  1.00  0.00     0.065 H 
ATOM     36  C   UNL A   1      46.745  25.984  27.807  1.00  0.00     0.049 A 
ATOM     37  H   UNL A   1      44.925  26.899  28.245  1.00  0.00     0.167 HD
ATOM     38  C   UNL A   1      40.985  28.719  28.876  1.00  0.00     0.037 A 
ATOM     39  H   UNL A   1      39.336  26.498  28.336  1.00  0.00     0.065 H 
ATOM     40  H   UNL A   1      47.902  24.150  27.321  1.00  0.00     0.065 H 
ATOM     41  C   UNL A   1      47.700  26.926  27.905  1.00  0.00     0.037 A 
ATOM     42  C   UNL A   1      41.947  29.766  29.117  1.00  0.00     0.049 A 
ATOM     43  C   UNL A   1      47.298  28.329  28.255  1.00  0.00     0.074 A 
ATOM     44  C   UNL A   1      41.718  31.062  29.546  1.00  0.00    -0.036 A 
ATOM     45  N   UNL A   1      43.316  29.642  28.934  1.00  0.00    -0.354 N 
ATOM     46  N   UNL A   1      46.105  28.806  28.515  1.00  0.00    -0.248 NA
ATOM     47  C   UNL A   1      48.372  29.328  28.320  1.00  0.00    -0.034 C 
ATOM     48  C   UNL A   1      42.940  31.741  29.556  1.00  0.00    -0.036 A 
ATOM     49  H   UNL A   1      40.803  31.459  29.812  1.00  0.00     0.065 H 
ATOM     50  C   UNL A   1      43.940  30.852  29.198  1.00  0.00     0.049 A 
ATOM     51  H   UNL A   1      43.778  28.816  28.659  1.00  0.00     0.167 HD
ATOM     52  C   UNL A   1      46.285  30.153  28.790  1.00  0.00     0.074 A 
ATOM     53  C   UNL A   1      47.707  30.412  28.691  1.00  0.00    -0.034 C 
ATOM     54  H   UNL A   1      49.380  29.215  28.128  1.00  0.00     0.065 H 
ATOM     55  H   UNL A   1      43.074  32.738  29.789  1.00  0.00     0.065 H 
ATOM     56  C   UNL A   1      45.357  31.093  29.094  1.00  0.00     0.037 A 
ATOM     57  H   UNL A   1      48.147  31.326  28.884  1.00  0.00     0.065 H 
BRANCH  38  58
ATOM     58  C   UNL A   1      39.528  29.066  29.001  1.00  0.00     0.064 A 
ATOM     59  C   UNL A   1      38.755  29.438  27.892  1.00  0.00     0.173 A 
ATOM     60  C   UNL A   1      38.879  28.948  30.241  1.00  0.00     0.173 A 
ATOM     61  F   UNL A   1      39.327  29.572  26.686  1.00  0.00    -0.203 F 
ATOM     62  C   UNL A   1      37.392  29.697  28.022  1.00  0.00     0.198 A 
ATOM     63  C   UNL A   1      37.511  29.178  30.361  1.00  0.00     0.198 A 
ATOM     64  F   UNL A   1      39.569  28.586  31.334  1.00  0.00    -0.203 F 
ATOM     65  F   UNL A   1      36.681  30.085  26.953  1.00  0.00    -0.200 F 
ATOM     66  C   UNL A   1      36.770  29.557  29.253  1.00  0.00     0.200 A 
ATOM     67  F   UNL A   1      36.910  29.026  31.549  1.00  0.00    -0.200 F 
ATOM     68  F   UNL A   1      35.456  29.790  29.372  1.00  0.00    -0.200 F 
ENDBRANCH  38  58
BRANCH  41  69
ATOM     69  C   UNL A   1      49.117  26.575  27.632  1.00  0.00     0.064 A 
ATOM     70  C   UNL A   1      49.990  26.221  28.669  1.00  0.00     0.173 A 
ATOM     71  C   UNL A   1      49.630  26.589  26.324  1.00  0.00     0.173 A 
ATOM     72  F   UNL A   1      49.553  26.209  29.937  1.00  0.00    -0.203 F 
ATOM     73  C   UNL A   1      51.327  25.922  28.413  1.00  0.00     0.198 A 
ATOM     74  C   UNL A   1      50.956  26.254  26.066  1.00  0.00     0.198 A 
ATOM     75  F   UNL A   1      48.835  26.912  25.293  1.00  0.00    -0.203 F 
ATOM     76  F   UNL A   1      52.152  25.641  29.430  1.00  0.00    -0.200 F 
ATOM     77  C   UNL A   1      51.807  25.933  27.112  1.00  0.00     0.200 A 
ATOM     78  F   UNL A   1      51.409  26.244  24.805  1.00  0.00    -0.200 F 
ATOM     79  F   UNL A   1      53.091  25.640  26.868  1.00  0.00    -0.200 F 
ENDBRANCH  41  69
BRANCH  56  80
ATOM     80  C   UNL A   1      45.852  32.484  29.364  1.00  0.00     0.064 A 
ATOM     81  C   UNL A   1      45.951  33.440  28.343  1.00  0.00     0.173 A 
ATOM     82  C   UNL A   1      46.190  32.876  30.668  1.00  0.00     0.173 A 
ATOM     83  F   UNL A   1      45.658  33.109  27.077  1.00  0.00    -0.203 F 
ATOM     84  C   UNL A   1      46.390  34.733  28.615  1.00  0.00     0.198 A 
ATOM     85  C   UNL A   1      46.596  34.178  30.942  1.00  0.00     0.198 A 
ATOM     86  F   UNL A   1      46.110  32.000  31.681  1.00  0.00    -0.203 F 
ATOM     87  F   UNL A   1      46.522  35.617  27.616  1.00  0.00    -0.200 F 
ATOM     88  C   UNL A   1      46.702  35.105  29.915  1.00  0.00     0.200 A 
ATOM     89  F   UNL A   1      46.883  34.539  32.200  1.00  0.00    -0.200 F 
ATOM     90  F   UNL A   1      47.111  36.353  30.177  1.00  0.00    -0.200 F 
ENDBRANCH  56  80
ENDBRANCH  21  24
ENDBRANCH  12  14
ENDBRANCH   7  10
ENDBRANCH   4   7
ENDBRANCH   1   4
BRANCH   1  91
ATOM     91  C   UNL A   1      37.003  21.944  24.247  1.00  0.00    -0.052 C 
ATOM     92  H   UNL A   1      36.191  22.058  23.560  1.00  0.00     0.027 H 
ATOM     93  H   UNL A   1      37.957  21.870  23.769  1.00  0.00     0.027 H 
BRANCH  91  94
ATOM     94  C   UNL A   1      37.060  23.199  25.127  1.00  0.00    -0.036 C 
ATOM     95  H   UNL A   1      37.487  23.994  24.551  1.00  0.00     0.028 H 
ATOM     96  H   UNL A   1      37.649  22.948  25.984  1.00  0.00     0.028 H 
BRANCH  94  97
ATOM     97  C   UNL A   1      35.701  23.661  25.647  1.00  0.00     0.017 C 
ATOM     98  H   UNL A   1      35.812  24.614  26.118  1.00  0.00     0.049 H 
ATOM     99  H   UNL A   1      35.338  22.937  26.347  1.00  0.00     0.049 H 
BRANCH  97 100
ATOM    100  N   UNL A   1      34.745  23.776  24.564  1.00  0.00    -0.356 N 
ATOM    101  C   UNL A   1      33.690  24.623  24.408  1.00  0.00     0.229 C 
ATOM    102  H   UNL A   1      34.880  23.141  23.824  1.00  0.00     0.163 HD
ATOM    103  O   UNL A   1      32.927  24.416  23.463  1.00  0.00    -0.274 OA
BRANCH 101 104
ATOM    104  C   UNL A   1      33.491  25.759  25.400  1.00  0.00     0.080 C 
ATOM    105  C   UNL A   1      32.150  25.619  26.153  1.00  0.00    -0.018 C 
ATOM    106  C   UNL A   1      33.332  27.067  24.715  1.00  0.00     0.031 A 
ATOM    107  H   UNL A   1      34.350  25.714  26.037  1.00  0.00     0.047 H 
ATOM    108  C   UNL A   1      31.601  27.048  26.289  1.00  0.00     0.024 C 
ATOM    109  H   UNL A   1      32.307  25.186  27.119  1.00  0.00     0.030 H 
ATOM    110  H   UNL A   1      31.467  24.981  25.632  1.00  0.00     0.030 H 
ATOM    111  N   UNL A   1      32.290  27.779  25.238  1.00  0.00    -0.341 N 
ATOM    112  C   UNL A   1      33.901  27.795  23.709  1.00  0.00    -0.040 A 
ATOM    113  H   UNL A   1      31.830  27.456  27.251  1.00  0.00     0.050 H 
ATOM    114  H   UNL A   1      30.536  27.095  26.199  1.00  0.00     0.050 H 
ATOM    115  C   UNL A   1      32.162  28.992  24.631  1.00  0.00     0.090 A 
ATOM    116  C   UNL A   1      33.160  29.004  23.653  1.00  0.00    -0.033 A 
ATOM    117  H   UNL A   1      34.701  27.522  23.116  1.00  0.00     0.064 H 
ATOM    118  H   UNL A   1      33.333  29.776  22.989  1.00  0.00     0.065 H 
BRANCH 115 119
ATOM    119  C   UNL A   1      31.198  30.057  24.857  1.00  0.00     0.209 C 
ATOM    120  O   UNL A   1      31.349  30.920  25.722  1.00  0.00    -0.287 OA
BRANCH 119 121
ATOM    121  C   UNL A   1      29.979  30.171  24.031  1.00  0.00     0.024 A 
ATOM    122  C   UNL A   1      29.272  31.377  24.057  1.00  0.00    -0.051 A 
ATOM    123  C   UNL A   1      29.505  29.090  23.282  1.00  0.00    -0.051 A 
ATOM    124  C   UNL A   1      28.116  31.519  23.290  1.00  0.00    -0.062 A 
ATOM    125  H   UNL A   1      29.604  32.160  24.641  1.00  0.00     0.063 H 
ATOM    126  C   UNL A   1      28.355  29.241  22.505  1.00  0.00    -0.062 A 
ATOM    127  H   UNL A   1      30.002  28.186  23.303  1.00  0.00     0.063 H 
ATOM    128  C   UNL A   1      27.666  30.455  22.507  1.00  0.00    -0.062 A 
ATOM    129  H   UNL A   1      27.594  32.409  23.302  1.00  0.00     0.062 H 
ATOM    130  H   UNL A   1      28.014  28.456  21.930  1.00  0.00     0.062 H 
ATOM    131  H   UNL A   1      26.819  30.566  21.926  1.00  0.00     0.062 H 
ENDBRANCH 119 121
ENDBRANCH 115 119
ENDBRANCH 101 104
ENDBRANCH  97 100
ENDBRANCH  94  97
ENDBRANCH  91  94
ENDBRANCH   1  91
TORSDOF 15
ENDMDL
MODEL 6
REMARK VINA RESULT:     -12.5      2.719      8.514
REMARK SMILES O=C(NCCCCCCNC(=O)[C@@H]1CCn2c(C(=O)c3ccccc3)ccc21)c1ccc(-c2c3nc(c(-c4c(F)c(F)c(F)c(F)c4F)c4ccc([nH]4)c(-c4c(F)c(F)c(F)c(F)c4F)c4nc(c(-c5c(F)c(F)c(F)c(F)c5F)c5ccc2[nH]5)C=C4)C=C3)cc1
REMARK SMILES IDX 6 1 5 4 4 7 3 10 1 11 2 12 29 14 30 15 91 16 31 17 90 19
REMARK SMILES IDX 32 21 33 24 34 25 84 26 35 27 89 28 83 29 85 30 36 31 88 32
REMARK SMILES IDX 82 34 81 36 37 38 69 41 49 42 68 43 50 44 53 45 67 46 86 47
REMARK SMILES IDX 51 48 52 50 66 52 87 53 54 56 38 58 39 59 47 60 40 61 41 62
REMARK SMILES IDX 45 63 48 64 42 65 43 66 46 67 44 68 70 69 71 70 79 71 72 72
REMARK SMILES IDX 73 73 77 74 80 75 74 76 75 77 78 78 76 79 55 80 56 81 64 82
REMARK SMILES IDX 57 83 58 84 62 85 65 86 59 87 60 88 63 89 61 90 7 91 8 94
REMARK SMILES IDX 9 97 10 100 11 101 12 103 13 104 14 105 28 106 15 108 16 111
REMARK SMILES IDX 27 112 17 115 26 116 18 119 19 120 20 121 21 122 25 123
REMARK SMILES IDX 22 124 24 126 23 128
REMARK H PARENT 6 2 6 3 5 5 5 6 4 8 4 9 3 13 30 18 91 20 31 22 90 23 89 33
REMARK H PARENT 83 35 85 37 88 39 82 40 50 49 53 51 86 54 51 55 87 57 7 92
REMARK H PARENT 7 93 8 95 8 96 9 98 9 99 10 102 13 107 14 109 14 110 15 113
REMARK H PARENT 15 114 27 117 26 118 21 125 25 127 22 129 24 130 23 131
REMARK Flexibility Score: inf
ROOT
ATOM      1  C   UNL A   1      31.331  30.975  26.253  1.00  0.00    -0.052 C 
ATOM      2  H   UNL A   1      30.890  30.791  25.295  1.00  0.00     0.027 H 
ATOM      3  H   UNL A   1      30.780  30.540  27.061  1.00  0.00     0.027 H 
ENDROOT
BRANCH   1   4
ATOM      4  C   UNL A   1      31.329  32.484  26.495  1.00  0.00    -0.036 C 
ATOM      5  H   UNL A   1      31.302  32.976  25.545  1.00  0.00     0.028 H 
ATOM      6  H   UNL A   1      30.470  32.698  27.097  1.00  0.00     0.028 H 
BRANCH   4   7
ATOM      7  C   UNL A   1      32.540  32.993  27.263  1.00  0.00     0.018 C 
ATOM      8  H   UNL A   1      32.691  32.370  28.120  1.00  0.00     0.049 H 
ATOM      9  H   UNL A   1      33.384  32.960  26.606  1.00  0.00     0.049 H 
BRANCH   7  10
ATOM     10  N   UNL A   1      32.369  34.366  27.705  1.00  0.00    -0.352 N 
ATOM     11  O   UNL A   1      32.618  36.125  29.102  1.00  0.00    -0.269 OA
ATOM     12  C   UNL A   1      33.012  35.026  28.720  1.00  0.00     0.251 C 
ATOM     13  H   UNL A   1      31.702  34.894  27.209  1.00  0.00     0.163 HD
BRANCH  12  14
ATOM     14  C   UNL A   1      34.181  34.395  29.364  1.00  0.00     0.039 A 
ATOM     15  C   UNL A   1      34.017  33.629  30.522  1.00  0.00    -0.049 A 
ATOM     16  C   UNL A   1      35.448  34.562  28.800  1.00  0.00    -0.049 A 
ATOM     17  C   UNL A   1      35.133  33.129  31.182  1.00  0.00    -0.053 A 
ATOM     18  H   UNL A   1      33.071  33.436  30.885  1.00  0.00     0.063 H 
ATOM     19  C   UNL A   1      36.558  33.981  29.414  1.00  0.00    -0.053 A 
ATOM     20  H   UNL A   1      35.562  35.112  27.934  1.00  0.00     0.063 H 
ATOM     21  C   UNL A   1      36.409  33.270  30.617  1.00  0.00    -0.014 A 
ATOM     22  H   UNL A   1      35.021  32.652  32.090  1.00  0.00     0.063 H 
ATOM     23  H   UNL A   1      37.492  34.075  28.985  1.00  0.00     0.063 H 
BRANCH  21  24
ATOM     24  C   UNL A   1      37.558  32.567  31.236  1.00  0.00     0.031 A 
ATOM     25  C   UNL A   1      38.138  33.019  32.543  1.00  0.00     0.074 A 
ATOM     26  C   UNL A   1      38.081  31.510  30.584  1.00  0.00     0.049 A 
ATOM     27  N   UNL A   1      39.167  32.539  33.196  1.00  0.00    -0.248 NA
ATOM     28  C   UNL A   1      37.491  34.162  33.202  1.00  0.00    -0.034 C 
ATOM     29  C   UNL A   1      37.601  30.995  29.298  1.00  0.00    -0.036 A 
ATOM     30  N   UNL A   1      39.126  30.682  30.902  1.00  0.00    -0.354 N 
ATOM     31  C   UNL A   1      39.305  33.330  34.328  1.00  0.00     0.074 A 
ATOM     32  C   UNL A   1      38.265  34.335  34.267  1.00  0.00    -0.034 C 
ATOM     33  H   UNL A   1      36.654  34.692  32.913  1.00  0.00     0.065 H 
ATOM     34  C   UNL A   1      38.331  29.927  28.950  1.00  0.00    -0.036 A 
ATOM     35  H   UNL A   1      36.824  31.392  28.748  1.00  0.00     0.065 H 
ATOM     36  C   UNL A   1      39.376  29.727  29.946  1.00  0.00     0.049 A 
ATOM     37  H   UNL A   1      39.645  30.762  31.734  1.00  0.00     0.167 HD
ATOM     38  C   UNL A   1      40.218  33.219  35.322  1.00  0.00     0.037 A 
ATOM     39  H   UNL A   1      38.141  35.089  34.962  1.00  0.00     0.065 H 
ATOM     40  H   UNL A   1      38.178  29.341  28.114  1.00  0.00     0.065 H 
ATOM     41  C   UNL A   1      40.362  28.816  29.859  1.00  0.00     0.037 A 
ATOM     42  C   UNL A   1      41.240  32.202  35.373  1.00  0.00     0.049 A 
ATOM     43  C   UNL A   1      41.384  28.750  30.956  1.00  0.00     0.074 A 
ATOM     44  C   UNL A   1      42.168  31.964  36.371  1.00  0.00    -0.036 A 
ATOM     45  N   UNL A   1      41.477  31.267  34.376  1.00  0.00    -0.354 N 
ATOM     46  N   UNL A   1      41.463  29.459  32.055  1.00  0.00    -0.248 NA
ATOM     47  C   UNL A   1      42.458  27.761  30.801  1.00  0.00    -0.034 C 
ATOM     48  C   UNL A   1      43.010  30.932  35.948  1.00  0.00    -0.036 A 
ATOM     49  H   UNL A   1      42.228  32.463  37.272  1.00  0.00     0.065 H 
ATOM     50  C   UNL A   1      42.567  30.480  34.716  1.00  0.00     0.049 A 
ATOM     51  H   UNL A   1      40.950  31.175  33.549  1.00  0.00     0.167 HD
ATOM     52  C   UNL A   1      42.582  28.993  32.730  1.00  0.00     0.074 A 
ATOM     53  C   UNL A   1      43.135  27.922  31.928  1.00  0.00    -0.034 C 
ATOM     54  H   UNL A   1      42.637  27.111  30.019  1.00  0.00     0.065 H 
ATOM     55  H   UNL A   1      43.826  30.569  36.467  1.00  0.00     0.065 H 
ATOM     56  C   UNL A   1      43.106  29.417  33.905  1.00  0.00     0.037 A 
ATOM     57  H   UNL A   1      43.954  27.356  32.200  1.00  0.00     0.065 H 
BRANCH  38  58
ATOM     58  C   UNL A   1      40.184  34.232  36.431  1.00  0.00     0.064 A 
ATOM     59  C   UNL A   1      39.345  34.087  37.545  1.00  0.00     0.173 A 
ATOM     60  C   UNL A   1      41.064  35.327  36.412  1.00  0.00     0.173 A 
ATOM     61  F   UNL A   1      38.481  33.063  37.610  1.00  0.00    -0.203 F 
ATOM     62  C   UNL A   1      39.375  35.008  38.590  1.00  0.00     0.198 A 
ATOM     63  C   UNL A   1      41.112  36.229  37.472  1.00  0.00     0.198 A 
ATOM     64  F   UNL A   1      41.895  35.509  35.374  1.00  0.00    -0.203 F 
ATOM     65  F   UNL A   1      38.539  34.867  39.629  1.00  0.00    -0.200 F 
ATOM     66  C   UNL A   1      40.264  36.072  38.558  1.00  0.00     0.200 A 
ATOM     67  F   UNL A   1      41.984  37.246  37.445  1.00  0.00    -0.200 F 
ATOM     68  F   UNL A   1      40.303  36.947  39.571  1.00  0.00    -0.200 F 
ENDBRANCH  38  58
BRANCH  41  69
ATOM     69  C   UNL A   1      40.445  27.926  28.672  1.00  0.00     0.064 A 
ATOM     70  C   UNL A   1      41.168  28.303  27.533  1.00  0.00     0.173 A 
ATOM     71  C   UNL A   1      39.801  26.679  28.652  1.00  0.00     0.173 A 
ATOM     72  F   UNL A   1      41.789  29.491  27.497  1.00  0.00    -0.203 F 
ATOM     73  C   UNL A   1      41.221  27.479  26.410  1.00  0.00     0.198 A 
ATOM     74  C   UNL A   1      39.884  25.841  27.544  1.00  0.00     0.198 A 
ATOM     75  F   UNL A   1      39.102  26.265  29.720  1.00  0.00    -0.203 F 
ATOM     76  F   UNL A   1      41.874  27.889  25.314  1.00  0.00    -0.200 F 
ATOM     77  C   UNL A   1      40.584  26.248  26.419  1.00  0.00     0.200 A 
ATOM     78  F   UNL A   1      39.286  24.642  27.565  1.00  0.00    -0.200 F 
ATOM     79  F   UNL A   1      40.640  25.455  25.340  1.00  0.00    -0.200 F 
ENDBRANCH  41  69
BRANCH  56  80
ATOM     80  C   UNL A   1      44.328  28.705  34.407  1.00  0.00     0.064 A 
ATOM     81  C   UNL A   1      45.619  29.171  34.121  1.00  0.00     0.173 A 
ATOM     82  C   UNL A   1      44.204  27.569  35.221  1.00  0.00     0.173 A 
ATOM     83  F   UNL A   1      45.792  30.242  33.331  1.00  0.00    -0.203 F 
ATOM     84  C   UNL A   1      46.742  28.512  34.614  1.00  0.00     0.198 A 
ATOM     85  C   UNL A   1      45.327  26.933  35.740  1.00  0.00     0.198 A 
ATOM     86  F   UNL A   1      42.991  27.086  35.527  1.00  0.00    -0.203 F 
ATOM     87  F   UNL A   1      47.968  28.946  34.288  1.00  0.00    -0.200 F 
ATOM     88  C   UNL A   1      46.596  27.400  35.431  1.00  0.00     0.200 A 
ATOM     89  F   UNL A   1      45.183  25.869  36.541  1.00  0.00    -0.200 F 
ATOM     90  F   UNL A   1      47.678  26.776  35.916  1.00  0.00    -0.200 F 
ENDBRANCH  56  80
ENDBRANCH  21  24
ENDBRANCH  12  14
ENDBRANCH   7  10
ENDBRANCH   4   7
ENDBRANCH   1   4
BRANCH   1  91
ATOM     91  C   UNL A   1      32.717  30.322  26.274  1.00  0.00    -0.052 C 
ATOM     92  H   UNL A   1      33.363  30.935  26.867  1.00  0.00     0.027 H 
ATOM     93  H   UNL A   1      33.025  30.243  25.252  1.00  0.00     0.027 H 
BRANCH  91  94
ATOM     94  C   UNL A   1      32.754  28.899  26.844  1.00  0.00    -0.036 C 
ATOM     95  H   UNL A   1      32.313  28.917  27.820  1.00  0.00     0.028 H 
ATOM     96  H   UNL A   1      33.781  28.601  26.860  1.00  0.00     0.028 H 
BRANCH  94  97
ATOM     97  C   UNL A   1      32.010  27.867  26.000  1.00  0.00     0.017 C 
ATOM     98  H   UNL A   1      31.533  28.363  25.182  1.00  0.00     0.049 H 
ATOM     99  H   UNL A   1      31.283  27.381  26.617  1.00  0.00     0.049 H 
BRANCH  97 100
ATOM    100  N   UNL A   1      32.922  26.868  25.484  1.00  0.00    -0.356 N 
ATOM    101  C   UNL A   1      33.021  26.328  24.237  1.00  0.00     0.229 C 
ATOM    102  H   UNL A   1      33.572  26.523  26.137  1.00  0.00     0.163 HD
ATOM    103  O   UNL A   1      33.784  25.372  24.088  1.00  0.00    -0.274 OA
BRANCH 101 104
ATOM    104  C   UNL A   1      32.188  26.908  23.103  1.00  0.00     0.080 C 
ATOM    105  C   UNL A   1      32.370  28.438  22.999  1.00  0.00    -0.018 C 
ATOM    106  C   UNL A   1      30.733  26.782  23.370  1.00  0.00     0.031 A 
ATOM    107  H   UNL A   1      32.510  26.375  22.233  1.00  0.00     0.047 H 
ATOM    108  C   UNL A   1      30.980  28.998  22.660  1.00  0.00     0.024 C 
ATOM    109  H   UNL A   1      33.069  28.679  22.226  1.00  0.00     0.030 H 
ATOM    110  H   UNL A   1      32.754  28.855  23.908  1.00  0.00     0.030 H 
ATOM    111  N   UNL A   1      30.074  27.947  23.095  1.00  0.00    -0.341 N 
ATOM    112  C   UNL A   1      29.828  25.859  23.812  1.00  0.00    -0.040 A 
ATOM    113  H   UNL A   1      30.885  29.172  21.609  1.00  0.00     0.050 H 
ATOM    114  H   UNL A   1      30.783  29.938  23.130  1.00  0.00     0.050 H 
ATOM    115  C   UNL A   1      28.735  27.824  23.309  1.00  0.00     0.090 A 
ATOM    116  C   UNL A   1      28.571  26.517  23.780  1.00  0.00    -0.033 A 
ATOM    117  H   UNL A   1      30.020  24.889  24.108  1.00  0.00     0.064 H 
ATOM    118  H   UNL A   1      27.672  26.095  24.061  1.00  0.00     0.065 H 
BRANCH 115 119
ATOM    119  C   UNL A   1      27.666  28.799  23.158  1.00  0.00     0.209 C 
ATOM    120  O   UNL A   1      26.496  28.557  23.454  1.00  0.00    -0.287 OA
BRANCH 119 121
ATOM    121  C   UNL A   1      27.941  30.160  22.653  1.00  0.00     0.024 A 
ATOM    122  C   UNL A   1      28.150  31.182  23.584  1.00  0.00    -0.051 A 
ATOM    123  C   UNL A   1      27.939  30.441  21.284  1.00  0.00    -0.051 A 
ATOM    124  C   UNL A   1      28.410  32.478  23.143  1.00  0.00    -0.062 A 
ATOM    125  H   UNL A   1      28.113  30.978  24.595  1.00  0.00     0.063 H 
ATOM    126  C   UNL A   1      28.213  31.737  20.845  1.00  0.00    -0.062 A 
ATOM    127  H   UNL A   1      27.736  29.694  20.601  1.00  0.00     0.063 H 
ATOM    128  C   UNL A   1      28.453  32.752  21.775  1.00  0.00    -0.062 A 
ATOM    129  H   UNL A   1      28.571  33.235  23.826  1.00  0.00     0.062 H 
ATOM    130  H   UNL A   1      28.239  31.946  19.836  1.00  0.00     0.062 H 
ATOM    131  H   UNL A   1      28.662  33.709  21.448  1.00  0.00     0.062 H 
ENDBRANCH 119 121
ENDBRANCH 115 119
ENDBRANCH 101 104
ENDBRANCH  97 100
ENDBRANCH  94  97
ENDBRANCH  91  94
ENDBRANCH   1  91
TORSDOF 15
ENDMDL
MODEL 7
REMARK VINA RESULT:     -12.5      1.790      2.582
REMARK SMILES O=C(NCCCCCCNC(=O)[C@@H]1CCn2c(C(=O)c3ccccc3)ccc21)c1ccc(-c2c3nc(c(-c4c(F)c(F)c(F)c(F)c4F)c4ccc([nH]4)c(-c4c(F)c(F)c(F)c(F)c4F)c4nc(c(-c5c(F)c(F)c(F)c(F)c5F)c5ccc2[nH]5)C=C4)C=C3)cc1
REMARK SMILES IDX 6 1 5 4 4 7 3 10 1 11 2 12 29 14 30 15 91 16 31 17 90 19
REMARK SMILES IDX 32 21 33 24 34 25 84 26 35 27 89 28 83 29 85 30 36 31 88 32
REMARK SMILES IDX 82 34 81 36 37 38 69 41 49 42 68 43 50 44 53 45 67 46 86 47
REMARK SMILES IDX 51 48 52 50 66 52 87 53 54 56 38 58 39 59 47 60 40 61 41 62
REMARK SMILES IDX 45 63 48 64 42 65 43 66 46 67 44 68 70 69 71 70 79 71 72 72
REMARK SMILES IDX 73 73 77 74 80 75 74 76 75 77 78 78 76 79 55 80 56 81 64 82
REMARK SMILES IDX 57 83 58 84 62 85 65 86 59 87 60 88 63 89 61 90 7 91 8 94
REMARK SMILES IDX 9 97 10 100 11 101 12 103 13 104 14 105 28 106 15 108 16 111
REMARK SMILES IDX 27 112 17 115 26 116 18 119 19 120 20 121 21 122 25 123
REMARK SMILES IDX 22 124 24 126 23 128
REMARK H PARENT 6 2 6 3 5 5 5 6 4 8 4 9 3 13 30 18 91 20 31 22 90 23 89 33
REMARK H PARENT 83 35 85 37 88 39 82 40 50 49 53 51 86 54 51 55 87 57 7 92
REMARK H PARENT 7 93 8 95 8 96 9 98 9 99 10 102 13 107 14 109 14 110 15 113
REMARK H PARENT 15 114 27 117 26 118 21 125 25 127 22 129 24 130 23 131
REMARK Flexibility Score: inf
ROOT
ATOM      1  C   UNL A   1      31.689  30.739  26.882  1.00  0.00    -0.052 C 
ATOM      2  H   UNL A   1      30.917  30.307  27.484  1.00  0.00     0.027 H 
ATOM      3  H   UNL A   1      32.672  30.564  27.266  1.00  0.00     0.027 H 
ENDROOT
BRANCH   1   4
ATOM      4  C   UNL A   1      31.493  32.255  26.878  1.00  0.00    -0.036 C 
ATOM      5  H   UNL A   1      31.094  32.540  25.927  1.00  0.00     0.028 H 
ATOM      6  H   UNL A   1      30.833  32.483  27.689  1.00  0.00     0.028 H 
BRANCH   4   7
ATOM      7  C   UNL A   1      32.769  33.048  27.117  1.00  0.00     0.018 C 
ATOM      8  H   UNL A   1      33.381  32.514  27.814  1.00  0.00     0.049 H 
ATOM      9  H   UNL A   1      33.267  33.164  26.176  1.00  0.00     0.049 H 
BRANCH   7  10
ATOM     10  N   UNL A   1      32.498  34.373  27.647  1.00  0.00    -0.352 N 
ATOM     11  O   UNL A   1      32.568  36.028  29.184  1.00  0.00    -0.269 OA
ATOM     12  C   UNL A   1      33.042  34.984  28.748  1.00  0.00     0.251 C 
ATOM     13  H   UNL A   1      31.835  34.904  27.150  1.00  0.00     0.163 HD
BRANCH  12  14
ATOM     14  C   UNL A   1      34.203  34.363  29.417  1.00  0.00     0.039 A 
ATOM     15  C   UNL A   1      34.011  33.494  30.496  1.00  0.00    -0.049 A 
ATOM     16  C   UNL A   1      35.491  34.644  28.956  1.00  0.00    -0.049 A 
ATOM     17  C   UNL A   1      35.109  33.000  31.188  1.00  0.00    -0.053 A 
ATOM     18  H   UNL A   1      33.056  33.222  30.777  1.00  0.00     0.063 H 
ATOM     19  C   UNL A   1      36.592  34.072  29.596  1.00  0.00    -0.053 A 
ATOM     20  H   UNL A   1      35.628  35.269  28.148  1.00  0.00     0.063 H 
ATOM     21  C   UNL A   1      36.409  33.255  30.724  1.00  0.00    -0.014 A 
ATOM     22  H   UNL A   1      34.968  32.443  32.045  1.00  0.00     0.063 H 
ATOM     23  H   UNL A   1      37.544  34.251  29.240  1.00  0.00     0.063 H 
BRANCH  21  24
ATOM     24  C   UNL A   1      37.555  32.564  31.362  1.00  0.00     0.031 A 
ATOM     25  C   UNL A   1      38.238  31.407  30.695  1.00  0.00     0.074 A 
ATOM     26  C   UNL A   1      37.963  32.996  32.571  1.00  0.00     0.049 A 
ATOM     27  N   UNL A   1      39.226  30.670  31.138  1.00  0.00    -0.248 NA
ATOM     28  C   UNL A   1      37.748  31.016  29.366  1.00  0.00    -0.034 C 
ATOM     29  C   UNL A   1      37.360  34.106  33.314  1.00  0.00    -0.036 A 
ATOM     30  N   UNL A   1      38.974  32.562  33.389  1.00  0.00    -0.354 N 
ATOM     31  C   UNL A   1      39.461  29.718  30.156  1.00  0.00     0.074 A 
ATOM     32  C   UNL A   1      38.503  29.958  29.099  1.00  0.00    -0.034 C 
ATOM     33  H   UNL A   1      37.010  31.452  28.790  1.00  0.00     0.065 H 
ATOM     34  C   UNL A   1      38.024  34.281  34.464  1.00  0.00    -0.036 A 
ATOM     35  H   UNL A   1      36.551  34.665  33.001  1.00  0.00     0.065 H 
ATOM     36  C   UNL A   1      39.050  33.251  34.575  1.00  0.00     0.049 A 
ATOM     37  H   UNL A   1      39.585  31.829  33.151  1.00  0.00     0.167 HD
ATOM     38  C   UNL A   1      40.397  28.738  30.146  1.00  0.00     0.037 A 
ATOM     39  H   UNL A   1      38.417  29.380  28.247  1.00  0.00     0.065 H 
ATOM     40  H   UNL A   1      37.841  35.022  35.158  1.00  0.00     0.065 H 
ATOM     41  C   UNL A   1      39.831  33.052  35.652  1.00  0.00     0.037 A 
ATOM     42  C   UNL A   1      41.354  28.521  31.203  1.00  0.00     0.049 A 
ATOM     43  C   UNL A   1      40.826  31.929  35.626  1.00  0.00     0.074 A 
ATOM     44  C   UNL A   1      42.384  27.600  31.256  1.00  0.00    -0.036 A 
ATOM     45  N   UNL A   1      41.385  29.224  32.399  1.00  0.00    -0.354 N 
ATOM     46  N   UNL A   1      41.086  31.078  34.663  1.00  0.00    -0.248 NA
ATOM     47  C   UNL A   1      41.634  31.732  36.836  1.00  0.00    -0.034 C 
ATOM     48  C   UNL A   1      42.995  27.697  32.509  1.00  0.00    -0.036 A 
ATOM     49  H   UNL A   1      42.655  26.951  30.500  1.00  0.00     0.065 H 
ATOM     50  C   UNL A   1      42.390  28.724  33.215  1.00  0.00     0.049 A 
ATOM     51  H   UNL A   1      40.784  29.968  32.635  1.00  0.00     0.167 HD
ATOM     52  C   UNL A   1      42.096  30.258  35.142  1.00  0.00     0.074 A 
ATOM     53  C   UNL A   1      42.420  30.729  36.473  1.00  0.00    -0.034 C 
ATOM     54  H   UNL A   1      41.598  32.242  37.733  1.00  0.00     0.065 H 
ATOM     55  H   UNL A   1      43.766  27.102  32.852  1.00  0.00     0.065 H 
ATOM     56  C   UNL A   1      42.699  29.205  34.537  1.00  0.00     0.037 A 
ATOM     57  H   UNL A   1      43.168  30.334  37.064  1.00  0.00     0.065 H 
BRANCH  38  58
ATOM     58  C   UNL A   1      40.427  27.799  28.974  1.00  0.00     0.064 A 
ATOM     59  C   UNL A   1      39.663  26.623  28.944  1.00  0.00     0.173 A 
ATOM     60  C   UNL A   1      41.175  28.123  27.830  1.00  0.00     0.173 A 
ATOM     61  F   UNL A   1      38.936  26.263  30.012  1.00  0.00    -0.203 F 
ATOM     62  C   UNL A   1      39.660  25.798  27.821  1.00  0.00     0.198 A 
ATOM     63  C   UNL A   1      41.146  27.311  26.699  1.00  0.00     0.198 A 
ATOM     64  F   UNL A   1      41.917  29.240  27.801  1.00  0.00    -0.203 F 
ATOM     65  F   UNL A   1      38.949  24.661  27.829  1.00  0.00    -0.200 F 
ATOM     66  C   UNL A   1      40.393  26.147  26.697  1.00  0.00     0.200 A 
ATOM     67  F   UNL A   1      41.843  27.660  25.608  1.00  0.00    -0.200 F 
ATOM     68  F   UNL A   1      40.375  25.361  25.612  1.00  0.00    -0.200 F 
ENDBRANCH  38  58
BRANCH  41  69
ATOM     69  C   UNL A   1      39.671  33.913  36.852  1.00  0.00     0.064 A 
ATOM     70  C   UNL A   1      40.343  35.138  36.961  1.00  0.00     0.173 A 
ATOM     71  C   UNL A   1      38.844  33.528  37.919  1.00  0.00     0.173 A 
ATOM     72  F   UNL A   1      41.158  35.544  35.976  1.00  0.00    -0.203 F 
ATOM     73  C   UNL A   1      40.216  35.930  38.101  1.00  0.00     0.198 A 
ATOM     74  C   UNL A   1      38.688  34.336  39.041  1.00  0.00     0.198 A 
ATOM     75  F   UNL A   1      38.171  32.368  37.863  1.00  0.00    -0.203 F 
ATOM     76  F   UNL A   1      40.913  37.069  38.201  1.00  0.00    -0.200 F 
ATOM     77  C   UNL A   1      39.384  35.531  39.136  1.00  0.00     0.200 A 
ATOM     78  F   UNL A   1      37.866  33.958  40.029  1.00  0.00    -0.200 F 
ATOM     79  F   UNL A   1      39.259  36.296  40.229  1.00  0.00    -0.200 F 
ENDBRANCH  41  69
BRANCH  56  80
ATOM     80  C   UNL A   1      43.786  28.507  35.300  1.00  0.00     0.064 A 
ATOM     81  C   UNL A   1      45.128  28.897  35.190  1.00  0.00     0.173 A 
ATOM     82  C   UNL A   1      43.475  27.464  36.185  1.00  0.00     0.173 A 
ATOM     83  F   UNL A   1      45.480  29.876  34.343  1.00  0.00    -0.203 F 
ATOM     84  C   UNL A   1      46.122  28.254  35.923  1.00  0.00     0.198 A 
ATOM     85  C   UNL A   1      44.466  26.846  36.941  1.00  0.00     0.198 A 
ATOM     86  F   UNL A   1      42.206  27.055  36.330  1.00  0.00    -0.203 F 
ATOM     87  F   UNL A   1      47.405  28.611  35.765  1.00  0.00    -0.200 F 
ATOM     88  C   UNL A   1      45.790  27.236  36.805  1.00  0.00     0.200 A 
ATOM     89  F   UNL A   1      44.141  25.873  37.803  1.00  0.00    -0.200 F 
ATOM     90  F   UNL A   1      46.747  26.627  37.519  1.00  0.00    -0.200 F 
ENDBRANCH  56  80
ENDBRANCH  21  24
ENDBRANCH  12  14
ENDBRANCH   7  10
ENDBRANCH   4   7
ENDBRANCH   1   4
BRANCH   1  91
ATOM     91  C   UNL A   1      31.641  30.081  25.499  1.00  0.00    -0.052 C 
ATOM     92  H   UNL A   1      31.494  30.851  24.770  1.00  0.00     0.027 H 
ATOM     93  H   UNL A   1      30.841  29.371  25.535  1.00  0.00     0.027 H 
BRANCH  91  94
ATOM     94  C   UNL A   1      32.898  29.293  25.113  1.00  0.00    -0.036 C 
ATOM     95  H   UNL A   1      33.041  28.515  25.834  1.00  0.00     0.028 H 
ATOM     96  H   UNL A   1      33.707  29.993  25.095  1.00  0.00     0.028 H 
BRANCH  94  97
ATOM     97  C   UNL A   1      32.836  28.656  23.727  1.00  0.00     0.017 C 
ATOM     98  H   UNL A   1      32.647  27.609  23.830  1.00  0.00     0.049 H 
ATOM     99  H   UNL A   1      33.771  28.821  23.233  1.00  0.00     0.049 H 
BRANCH  97 100
ATOM    100  N   UNL A   1      31.782  29.252  22.932  1.00  0.00    -0.356 N 
ATOM    101  C   UNL A   1      30.663  28.692  22.392  1.00  0.00     0.229 C 
ATOM    102  H   UNL A   1      31.891  30.214  22.753  1.00  0.00     0.163 HD
ATOM    103  O   UNL A   1      29.997  29.381  21.618  1.00  0.00    -0.274 OA
BRANCH 101 104
ATOM    104  C   UNL A   1      30.300  27.259  22.748  1.00  0.00     0.080 C 
ATOM    105  C   UNL A   1      30.266  27.052  24.279  1.00  0.00    -0.018 C 
ATOM    106  C   UNL A   1      31.354  26.301  22.325  1.00  0.00     0.031 A 
ATOM    107  H   UNL A   1      29.357  27.093  22.270  1.00  0.00     0.047 H 
ATOM    108  C   UNL A   1      30.865  25.657  24.521  1.00  0.00     0.024 C 
ATOM    109  H   UNL A   1      29.259  27.094  24.639  1.00  0.00     0.030 H 
ATOM    110  H   UNL A   1      30.815  27.813  24.794  1.00  0.00     0.030 H 
ATOM    111  N   UNL A   1      31.638  25.405  23.316  1.00  0.00    -0.341 N 
ATOM    112  C   UNL A   1      32.145  26.030  21.245  1.00  0.00    -0.040 A 
ATOM    113  H   UNL A   1      30.094  24.926  24.640  1.00  0.00     0.050 H 
ATOM    114  H   UNL A   1      31.455  25.607  25.412  1.00  0.00     0.050 H 
ATOM    115  C   UNL A   1      32.582  24.507  22.918  1.00  0.00     0.090 A 
ATOM    116  C   UNL A   1      32.922  24.904  21.621  1.00  0.00    -0.033 A 
ATOM    117  H   UNL A   1      32.171  26.537  20.346  1.00  0.00     0.064 H 
ATOM    118  H   UNL A   1      33.633  24.447  21.027  1.00  0.00     0.065 H 
BRANCH 115 119
ATOM    119  C   UNL A   1      33.187  23.399  23.640  1.00  0.00     0.209 C 
ATOM    120  O   UNL A   1      32.594  22.342  23.857  1.00  0.00    -0.287 OA
BRANCH 119 121
ATOM    121  C   UNL A   1      34.575  23.480  24.139  1.00  0.00     0.024 A 
ATOM    122  C   UNL A   1      35.588  22.889  23.378  1.00  0.00    -0.051 A 
ATOM    123  C   UNL A   1      34.872  24.080  25.367  1.00  0.00    -0.051 A 
ATOM    124  C   UNL A   1      36.909  22.946  23.820  1.00  0.00    -0.062 A 
ATOM    125  H   UNL A   1      35.360  22.414  22.491  1.00  0.00     0.063 H 
ATOM    126  C   UNL A   1      36.197  24.146  25.799  1.00  0.00    -0.062 A 
ATOM    127  H   UNL A   1      34.115  24.472  25.949  1.00  0.00     0.063 H 
ATOM    128  C   UNL A   1      37.213  23.584  25.023  1.00  0.00    -0.062 A 
ATOM    129  H   UNL A   1      37.661  22.517  23.258  1.00  0.00     0.062 H 
ATOM    130  H   UNL A   1      36.426  24.611  26.691  1.00  0.00     0.062 H 
ATOM    131  H   UNL A   1      38.194  23.641  25.342  1.00  0.00     0.062 H 
ENDBRANCH 119 121
ENDBRANCH 115 119
ENDBRANCH 101 104
ENDBRANCH  97 100
ENDBRANCH  94  97
ENDBRANCH  91  94
ENDBRANCH   1  91
TORSDOF 15
ENDMDL
MODEL 8
REMARK VINA RESULT:     -12.4      5.661     10.885
REMARK SMILES O=C(NCCCCCCNC(=O)[C@@H]1CCn2c(C(=O)c3ccccc3)ccc21)c1ccc(-c2c3nc(c(-c4c(F)c(F)c(F)c(F)c4F)c4ccc([nH]4)c(-c4c(F)c(F)c(F)c(F)c4F)c4nc(c(-c5c(F)c(F)c(F)c(F)c5F)c5ccc2[nH]5)C=C4)C=C3)cc1
REMARK SMILES IDX 6 1 5 4 4 7 3 10 1 11 2 12 29 14 30 15 91 16 31 17 90 19
REMARK SMILES IDX 32 21 33 24 34 25 84 26 35 27 89 28 83 29 85 30 36 31 88 32
REMARK SMILES IDX 82 34 81 36 37 38 69 41 49 42 68 43 50 44 53 45 67 46 86 47
REMARK SMILES IDX 51 48 52 50 66 52 87 53 54 56 38 58 39 59 47 60 40 61 41 62
REMARK SMILES IDX 45 63 48 64 42 65 43 66 46 67 44 68 70 69 71 70 79 71 72 72
REMARK SMILES IDX 73 73 77 74 80 75 74 76 75 77 78 78 76 79 55 80 56 81 64 82
REMARK SMILES IDX 57 83 58 84 62 85 65 86 59 87 60 88 63 89 61 90 7 91 8 94
REMARK SMILES IDX 9 97 10 100 11 101 12 103 13 104 14 105 28 106 15 108 16 111
REMARK SMILES IDX 27 112 17 115 26 116 18 119 19 120 20 121 21 122 25 123
REMARK SMILES IDX 22 124 24 126 23 128
REMARK H PARENT 6 2 6 3 5 5 5 6 4 8 4 9 3 13 30 18 91 20 31 22 90 23 89 33
REMARK H PARENT 83 35 85 37 88 39 82 40 50 49 53 51 86 54 51 55 87 57 7 92
REMARK H PARENT 7 93 8 95 8 96 9 98 9 99 10 102 13 107 14 109 14 110 15 113
REMARK H PARENT 15 114 27 117 26 118 21 125 25 127 22 129 24 130 23 131
REMARK Flexibility Score: inf
ROOT
ATOM      1  C   UNL A   1      36.935  20.266  24.978  1.00  0.00    -0.052 C 
ATOM      2  H   UNL A   1      36.274  19.935  25.752  1.00  0.00     0.027 H 
ATOM      3  H   UNL A   1      36.509  20.189  23.999  1.00  0.00     0.027 H 
ENDROOT
BRANCH   1   4
ATOM      4  C   UNL A   1      38.164  19.357  24.983  1.00  0.00    -0.036 C 
ATOM      5  H   UNL A   1      37.897  18.434  25.453  1.00  0.00     0.028 H 
ATOM      6  H   UNL A   1      38.460  19.233  23.962  1.00  0.00     0.028 H 
BRANCH   4   7
ATOM      7  C   UNL A   1      39.363  19.938  25.718  1.00  0.00     0.018 C 
ATOM      8  H   UNL A   1      39.747  20.762  25.153  1.00  0.00     0.049 H 
ATOM      9  H   UNL A   1      39.036  20.251  26.687  1.00  0.00     0.049 H 
BRANCH   7  10
ATOM     10  N   UNL A   1      40.421  18.958  25.897  1.00  0.00    -0.352 N 
ATOM     11  O   UNL A   1      42.559  18.243  26.054  1.00  0.00    -0.269 OA
ATOM     12  C   UNL A   1      41.757  19.170  26.121  1.00  0.00     0.251 C 
ATOM     13  H   UNL A   1      40.142  18.015  25.850  1.00  0.00     0.163 HD
BRANCH  12  14
ATOM     14  C   UNL A   1      42.228  20.534  26.433  1.00  0.00     0.039 A 
ATOM     15  C   UNL A   1      42.648  21.385  25.405  1.00  0.00    -0.049 A 
ATOM     16  C   UNL A   1      42.241  20.968  27.760  1.00  0.00    -0.049 A 
ATOM     17  C   UNL A   1      43.191  22.625  25.716  1.00  0.00    -0.053 A 
ATOM     18  H   UNL A   1      42.554  21.092  24.421  1.00  0.00     0.063 H 
ATOM     19  C   UNL A   1      42.702  22.251  28.062  1.00  0.00    -0.053 A 
ATOM     20  H   UNL A   1      41.913  20.344  28.513  1.00  0.00     0.063 H 
ATOM     21  C   UNL A   1      43.191  23.084  27.042  1.00  0.00    -0.014 A 
ATOM     22  H   UNL A   1      43.594  23.211  24.967  1.00  0.00     0.063 H 
ATOM     23  H   UNL A   1      42.684  22.588  29.037  1.00  0.00     0.063 H 
BRANCH  21  24
ATOM     24  C   UNL A   1      43.597  24.482  27.326  1.00  0.00     0.031 A 
ATOM     25  C   UNL A   1      42.616  25.489  27.849  1.00  0.00     0.074 A 
ATOM     26  C   UNL A   1      44.876  24.831  27.088  1.00  0.00     0.049 A 
ATOM     27  N   UNL A   1      42.802  26.759  28.108  1.00  0.00    -0.248 NA
ATOM     28  C   UNL A   1      41.248  25.019  28.107  1.00  0.00    -0.034 C 
ATOM     29  C   UNL A   1      45.910  23.932  26.566  1.00  0.00    -0.036 A 
ATOM     30  N   UNL A   1      45.529  26.026  27.249  1.00  0.00    -0.354 N 
ATOM     31  C   UNL A   1      41.575  27.244  28.538  1.00  0.00     0.074 A 
ATOM     32  C   UNL A   1      40.644  26.137  28.490  1.00  0.00    -0.034 C 
ATOM     33  H   UNL A   1      40.858  24.067  28.015  1.00  0.00     0.065 H 
ATOM     34  C   UNL A   1      47.068  24.597  26.473  1.00  0.00    -0.036 A 
ATOM     35  H   UNL A   1      45.767  22.942  26.311  1.00  0.00     0.065 H 
ATOM     36  C   UNL A   1      46.844  25.986  26.855  1.00  0.00     0.049 A 
ATOM     37  H   UNL A   1      45.098  26.833  27.611  1.00  0.00     0.167 HD
ATOM     38  C   UNL A   1      41.264  28.501  28.937  1.00  0.00     0.037 A 
ATOM     39  H   UNL A   1      39.641  26.208  28.721  1.00  0.00     0.065 H 
ATOM     40  H   UNL A   1      47.971  24.194  26.179  1.00  0.00     0.065 H 
ATOM     41  C   UNL A   1      47.761  26.967  26.772  1.00  0.00     0.037 A 
ATOM     42  C   UNL A   1      42.208  29.590  28.992  1.00  0.00     0.049 A 
ATOM     43  C   UNL A   1      47.370  28.358  27.179  1.00  0.00     0.074 A 
ATOM     44  C   UNL A   1      42.007  30.882  29.446  1.00  0.00    -0.036 A 
ATOM     45  N   UNL A   1      43.526  29.518  28.563  1.00  0.00    -0.354 N 
ATOM     46  N   UNL A   1      46.225  28.790  27.648  1.00  0.00    -0.248 NA
ATOM     47  C   UNL A   1      48.395  29.401  27.040  1.00  0.00    -0.034 C 
ATOM     48  C   UNL A   1      43.180  31.610  29.228  1.00  0.00    -0.036 A 
ATOM     49  H   UNL A   1      41.140  31.245  29.872  1.00  0.00     0.065 H 
ATOM     50  C   UNL A   1      44.135  30.757  28.700  1.00  0.00     0.049 A 
ATOM     51  H   UNL A   1      43.964  28.708  28.214  1.00  0.00     0.167 HD
ATOM     52  C   UNL A   1      46.395  30.148  27.877  1.00  0.00     0.074 A 
ATOM     53  C   UNL A   1      47.763  30.462  27.519  1.00  0.00    -0.034 C 
ATOM     54  H   UNL A   1      49.355  29.325  26.669  1.00  0.00     0.065 H 
ATOM     55  H   UNL A   1      43.312  32.615  29.426  1.00  0.00     0.065 H 
ATOM     56  C   UNL A   1      45.498  31.053  28.338  1.00  0.00     0.037 A 
ATOM     57  H   UNL A   1      48.191  31.395  27.623  1.00  0.00     0.065 H 
BRANCH  38  58
ATOM     58  C   UNL A   1      39.841  28.790  29.322  1.00  0.00     0.064 A 
ATOM     59  C   UNL A   1      38.905  29.278  28.399  1.00  0.00     0.173 A 
ATOM     60  C   UNL A   1      39.389  28.500  30.621  1.00  0.00     0.173 A 
ATOM     61  F   UNL A   1      39.285  29.578  27.148  1.00  0.00    -0.203 F 
ATOM     62  C   UNL A   1      37.576  29.482  28.765  1.00  0.00     0.198 A 
ATOM     63  C   UNL A   1      38.054  28.677  30.974  1.00  0.00     0.198 A 
ATOM     64  F   UNL A   1      40.241  28.023  31.542  1.00  0.00    -0.203 F 
ATOM     65  F   UNL A   1      36.708  29.982  27.874  1.00  0.00    -0.200 F 
ATOM     66  C   UNL A   1      37.150  29.172  30.047  1.00  0.00     0.200 A 
ATOM     67  F   UNL A   1      37.642  28.362  32.209  1.00  0.00    -0.200 F 
ATOM     68  F   UNL A   1      35.868  29.353  30.391  1.00  0.00    -0.200 F 
ENDBRANCH  38  58
BRANCH  41  69
ATOM     69  C   UNL A   1      49.119  26.670  26.247  1.00  0.00     0.064 A 
ATOM     70  C   UNL A   1      49.443  26.900  24.903  1.00  0.00     0.173 A 
ATOM     71  C   UNL A   1      50.122  26.147  27.079  1.00  0.00     0.173 A 
ATOM     72  F   UNL A   1      48.515  27.383  24.064  1.00  0.00    -0.203 F 
ATOM     73  C   UNL A   1      50.708  26.592  24.407  1.00  0.00     0.198 A 
ATOM     74  C   UNL A   1      51.396  25.876  26.590  1.00  0.00     0.198 A 
ATOM     75  F   UNL A   1      49.867  25.917  28.376  1.00  0.00    -0.203 F 
ATOM     76  F   UNL A   1      50.974  26.771  23.106  1.00  0.00    -0.200 F 
ATOM     77  C   UNL A   1      51.685  26.087  25.251  1.00  0.00     0.200 A 
ATOM     78  F   UNL A   1      52.343  25.408  27.416  1.00  0.00    -0.200 F 
ATOM     79  F   UNL A   1      52.902  25.797  24.773  1.00  0.00    -0.200 F 
ENDBRANCH  41  69
BRANCH  56  80
ATOM     80  C   UNL A   1      45.975  32.466  28.504  1.00  0.00     0.064 A 
ATOM     81  C   UNL A   1      46.587  32.901  29.688  1.00  0.00     0.173 A 
ATOM     82  C   UNL A   1      45.858  33.384  27.449  1.00  0.00     0.173 A 
ATOM     83  F   UNL A   1      46.706  32.068  30.733  1.00  0.00    -0.203 F 
ATOM     84  C   UNL A   1      47.046  34.210  29.817  1.00  0.00     0.198 A 
ATOM     85  C   UNL A   1      46.347  34.680  27.570  1.00  0.00     0.198 A 
ATOM     86  F   UNL A   1      45.283  33.016  26.294  1.00  0.00    -0.203 F 
ATOM     87  F   UNL A   1      47.584  34.618  30.975  1.00  0.00    -0.200 F 
ATOM     88  C   UNL A   1      46.935  35.095  28.755  1.00  0.00     0.200 A 
ATOM     89  F   UNL A   1      46.252  35.530  26.538  1.00  0.00    -0.200 F 
ATOM     90  F   UNL A   1      47.388  36.350  28.877  1.00  0.00    -0.200 F 
ENDBRANCH  56  80
ENDBRANCH  21  24
ENDBRANCH  12  14
ENDBRANCH   7  10
ENDBRANCH   4   7
ENDBRANCH   1   4
BRANCH   1  91
ATOM     91  C   UNL A   1      37.232  21.751  25.206  1.00  0.00    -0.052 C 
ATOM     92  H   UNL A   1      38.280  21.855  25.395  1.00  0.00     0.027 H 
ATOM     93  H   UNL A   1      36.619  22.055  26.029  1.00  0.00     0.027 H 
BRANCH  91  94
ATOM     94  C   UNL A   1      36.865  22.672  24.036  1.00  0.00    -0.036 C 
ATOM     95  H   UNL A   1      37.376  22.324  23.162  1.00  0.00     0.028 H 
ATOM     96  H   UNL A   1      37.158  23.661  24.319  1.00  0.00     0.028 H 
BRANCH  94  97
ATOM     97  C   UNL A   1      35.371  22.727  23.728  1.00  0.00     0.017 C 
ATOM     98  H   UNL A   1      34.909  21.826  24.071  1.00  0.00     0.049 H 
ATOM     99  H   UNL A   1      35.243  22.835  22.671  1.00  0.00     0.049 H 
BRANCH  97 100
ATOM    100  N   UNL A   1      34.750  23.859  24.386  1.00  0.00    -0.356 N 
ATOM    101  C   UNL A   1      33.572  23.944  25.065  1.00  0.00     0.229 C 
ATOM    102  H   UNL A   1      35.259  24.699  24.334  1.00  0.00     0.163 HD
ATOM    103  O   UNL A   1      33.186  25.065  25.400  1.00  0.00    -0.274 OA
BRANCH 101 104
ATOM    104  C   UNL A   1      32.787  22.674  25.360  1.00  0.00     0.080 C 
ATOM    105  C   UNL A   1      33.646  21.650  26.133  1.00  0.00    -0.018 C 
ATOM    106  C   UNL A   1      32.454  21.931  24.118  1.00  0.00     0.031 A 
ATOM    107  H   UNL A   1      31.926  23.010  25.900  1.00  0.00     0.047 H 
ATOM    108  C   UNL A   1      33.272  20.276  25.556  1.00  0.00     0.024 C 
ATOM    109  H   UNL A   1      33.423  21.689  27.180  1.00  0.00     0.030 H 
ATOM    110  H   UNL A   1      34.693  21.851  26.030  1.00  0.00     0.030 H 
ATOM    111  N   UNL A   1      32.709  20.595  24.254  1.00  0.00    -0.341 N 
ATOM    112  C   UNL A   1      31.970  22.161  22.862  1.00  0.00    -0.040 A 
ATOM    113  H   UNL A   1      32.550  19.786  26.174  1.00  0.00     0.050 H 
ATOM    114  H   UNL A   1      34.105  19.608  25.496  1.00  0.00     0.050 H 
ATOM    115  C   UNL A   1      32.375  19.908  23.127  1.00  0.00     0.090 A 
ATOM    116  C   UNL A   1      31.926  20.888  22.236  1.00  0.00    -0.033 A 
ATOM    117  H   UNL A   1      31.695  23.069  22.455  1.00  0.00     0.064 H 
ATOM    118  H   UNL A   1      31.611  20.712  21.269  1.00  0.00     0.065 H 
BRANCH 115 119
ATOM    119  C   UNL A   1      32.483  18.490  22.826  1.00  0.00     0.209 C 
ATOM    120  O   UNL A   1      32.122  18.006  21.753  1.00  0.00    -0.287 OA
BRANCH 119 121
ATOM    121  C   UNL A   1      33.064  17.544  23.802  1.00  0.00     0.024 A 
ATOM    122  C   UNL A   1      32.217  16.974  24.756  1.00  0.00    -0.051 A 
ATOM    123  C   UNL A   1      34.434  17.264  23.815  1.00  0.00    -0.051 A 
ATOM    124  C   UNL A   1      32.732  16.078  25.692  1.00  0.00    -0.062 A 
ATOM    125  H   UNL A   1      31.213  17.213  24.768  1.00  0.00     0.063 H 
ATOM    126  C   UNL A   1      34.943  16.357  24.745  1.00  0.00    -0.062 A 
ATOM    127  H   UNL A   1      35.065  17.724  23.140  1.00  0.00     0.063 H 
ATOM    128  C   UNL A   1      34.091  15.763  25.678  1.00  0.00    -0.062 A 
ATOM    129  H   UNL A   1      32.109  15.650  26.395  1.00  0.00     0.062 H 
ATOM    130  H   UNL A   1      35.948  16.125  24.744  1.00  0.00     0.062 H 
ATOM    131  H   UNL A   1      34.469  15.086  26.361  1.00  0.00     0.062 H 
ENDBRANCH 119 121
ENDBRANCH 115 119
ENDBRANCH 101 104
ENDBRANCH  97 100
ENDBRANCH  94  97
ENDBRANCH  91  94
ENDBRANCH   1  91
TORSDOF 15
ENDMDL
MODEL 9
REMARK VINA RESULT:     -12.4      1.250      7.457
REMARK SMILES O=C(NCCCCCCNC(=O)[C@@H]1CCn2c(C(=O)c3ccccc3)ccc21)c1ccc(-c2c3nc(c(-c4c(F)c(F)c(F)c(F)c4F)c4ccc([nH]4)c(-c4c(F)c(F)c(F)c(F)c4F)c4nc(c(-c5c(F)c(F)c(F)c(F)c5F)c5ccc2[nH]5)C=C4)C=C3)cc1
REMARK SMILES IDX 6 1 5 4 4 7 3 10 1 11 2 12 29 14 30 15 91 16 31 17 90 19
REMARK SMILES IDX 32 21 33 24 34 25 84 26 35 27 89 28 83 29 85 30 36 31 88 32
REMARK SMILES IDX 82 34 81 36 37 38 69 41 49 42 68 43 50 44 53 45 67 46 86 47
REMARK SMILES IDX 51 48 52 50 66 52 87 53 54 56 38 58 39 59 47 60 40 61 41 62
REMARK SMILES IDX 45 63 48 64 42 65 43 66 46 67 44 68 70 69 71 70 79 71 72 72
REMARK SMILES IDX 73 73 77 74 80 75 74 76 75 77 78 78 76 79 55 80 56 81 64 82
REMARK SMILES IDX 57 83 58 84 62 85 65 86 59 87 60 88 63 89 61 90 7 91 8 94
REMARK SMILES IDX 9 97 10 100 11 101 12 103 13 104 14 105 28 106 15 108 16 111
REMARK SMILES IDX 27 112 17 115 26 116 18 119 19 120 20 121 21 122 25 123
REMARK SMILES IDX 22 124 24 126 23 128
REMARK H PARENT 6 2 6 3 5 5 5 6 4 8 4 9 3 13 30 18 91 20 31 22 90 23 89 33
REMARK H PARENT 83 35 85 37 88 39 82 40 50 49 53 51 86 54 51 55 87 57 7 92
REMARK H PARENT 7 93 8 95 8 96 9 98 9 99 10 102 13 107 14 109 14 110 15 113
REMARK H PARENT 15 114 27 117 26 118 21 125 25 127 22 129 24 130 23 131
REMARK Flexibility Score: inf
ROOT
ATOM      1  C   UNL A   1      31.477  30.528  25.729  1.00  0.00    -0.052 C 
ATOM      2  H   UNL A   1      31.288  30.701  24.689  1.00  0.00     0.027 H 
ATOM      3  H   UNL A   1      30.793  29.834  26.172  1.00  0.00     0.027 H 
ENDROOT
BRANCH   1   4
ATOM      4  C   UNL A   1      31.288  31.851  26.471  1.00  0.00    -0.036 C 
ATOM      5  H   UNL A   1      30.910  32.574  25.778  1.00  0.00     0.028 H 
ATOM      6  H   UNL A   1      30.612  31.658  27.278  1.00  0.00     0.028 H 
BRANCH   4   7
ATOM      7  C   UNL A   1      32.563  32.404  27.091  1.00  0.00     0.018 C 
ATOM      8  H   UNL A   1      32.782  31.849  27.980  1.00  0.00     0.049 H 
ATOM      9  H   UNL A   1      33.349  32.307  26.371  1.00  0.00     0.049 H 
BRANCH   7  10
ATOM     10  N   UNL A   1      32.438  33.810  27.433  1.00  0.00    -0.352 N 
ATOM     11  O   UNL A   1      32.745  35.654  28.703  1.00  0.00    -0.269 OA
ATOM     12  C   UNL A   1      33.101  34.519  28.402  1.00  0.00     0.251 C 
ATOM     13  H   UNL A   1      31.791  34.324  26.898  1.00  0.00     0.163 HD
BRANCH  12  14
ATOM     14  C   UNL A   1      34.247  33.896  29.094  1.00  0.00     0.039 A 
ATOM     15  C   UNL A   1      34.033  32.893  30.046  1.00  0.00    -0.049 A 
ATOM     16  C   UNL A   1      35.544  34.309  28.782  1.00  0.00    -0.049 A 
ATOM     17  C   UNL A   1      35.106  32.389  30.770  1.00  0.00    -0.053 A 
ATOM     18  H   UNL A   1      33.081  32.531  30.210  1.00  0.00     0.063 H 
ATOM     19  C   UNL A   1      36.630  33.734  29.446  1.00  0.00    -0.053 A 
ATOM     20  H   UNL A   1      35.699  35.034  28.065  1.00  0.00     0.063 H 
ATOM     21  C   UNL A   1      36.417  32.778  30.453  1.00  0.00    -0.014 A 
ATOM     22  H   UNL A   1      34.938  31.725  31.542  1.00  0.00     0.063 H 
ATOM     23  H   UNL A   1      37.591  34.013  29.197  1.00  0.00     0.063 H 
BRANCH  21  24
ATOM     24  C   UNL A   1      37.555  32.088  31.104  1.00  0.00     0.031 A 
ATOM     25  C   UNL A   1      38.016  32.468  32.480  1.00  0.00     0.074 A 
ATOM     26  C   UNL A   1      38.180  31.111  30.419  1.00  0.00     0.049 A 
ATOM     27  N   UNL A   1      39.020  31.992  33.172  1.00  0.00    -0.248 NA
ATOM     28  C   UNL A   1      37.262  33.526  33.169  1.00  0.00    -0.034 C 
ATOM     29  C   UNL A   1      37.822  30.670  29.067  1.00  0.00    -0.036 A 
ATOM     30  N   UNL A   1      39.243  30.313  30.755  1.00  0.00    -0.354 N 
ATOM     31  C   UNL A   1      39.034  32.702  34.365  1.00  0.00     0.074 A 
ATOM     32  C   UNL A   1      37.947  33.655  34.299  1.00  0.00    -0.034 C 
ATOM     33  H   UNL A   1      36.420  34.034  32.857  1.00  0.00     0.065 H 
ATOM     34  C   UNL A   1      38.631  29.669  28.700  1.00  0.00    -0.036 A 
ATOM     35  H   UNL A   1      37.065  31.069  28.491  1.00  0.00     0.065 H 
ATOM     36  C   UNL A   1      39.613  29.446  29.754  1.00  0.00     0.049 A 
ATOM     37  H   UNL A   1      39.698  30.356  31.626  1.00  0.00     0.167 HD
ATOM     38  C   UNL A   1      39.879  32.561  35.414  1.00  0.00     0.037 A 
ATOM     39  H   UNL A   1      37.733  34.348  35.034  1.00  0.00     0.065 H 
ATOM     40  H   UNL A   1      38.571  29.141  27.815  1.00  0.00     0.065 H 
ATOM     41  C   UNL A   1      40.650  28.595  29.676  1.00  0.00     0.037 A 
ATOM     42  C   UNL A   1      40.949  31.595  35.468  1.00  0.00     0.049 A 
ATOM     43  C   UNL A   1      41.595  28.496  30.839  1.00  0.00     0.074 A 
ATOM     44  C   UNL A   1      41.815  31.328  36.513  1.00  0.00    -0.036 A 
ATOM     45  N   UNL A   1      41.307  30.751  34.427  1.00  0.00    -0.354 N 
ATOM     46  N   UNL A   1      41.556  29.124  31.989  1.00  0.00    -0.248 NA
ATOM     47  C   UNL A   1      42.730  27.576  30.694  1.00  0.00    -0.034 C 
ATOM     48  C   UNL A   1      42.741  30.374  36.082  1.00  0.00    -0.036 A 
ATOM     49  H   UNL A   1      41.784  31.761  37.450  1.00  0.00     0.065 H 
ATOM     50  C   UNL A   1      42.412  29.995  34.791  1.00  0.00     0.049 A 
ATOM     51  H   UNL A   1      40.845  30.695  33.559  1.00  0.00     0.167 HD
ATOM     52  C   UNL A   1      42.648  28.664  32.710  1.00  0.00     0.074 A 
ATOM     53  C   UNL A   1      43.315  27.685  31.878  1.00  0.00    -0.034 C 
ATOM     54  H   UNL A   1      42.999  26.996  29.883  1.00  0.00     0.065 H 
ATOM     55  H   UNL A   1      43.536  30.013  36.633  1.00  0.00     0.065 H 
ATOM     56  C   UNL A   1      43.064  29.024  33.949  1.00  0.00     0.037 A 
ATOM     57  H   UNL A   1      44.142  27.141  32.168  1.00  0.00     0.065 H 
BRANCH  38  58
ATOM     58  C   UNL A   1      39.711  33.484  36.587  1.00  0.00     0.064 A 
ATOM     59  C   UNL A   1      40.327  34.743  36.635  1.00  0.00     0.173 A 
ATOM     60  C   UNL A   1      38.858  33.133  37.645  1.00  0.00     0.173 A 
ATOM     61  F   UNL A   1      41.158  35.126  35.654  1.00  0.00    -0.203 F 
ATOM     62  C   UNL A   1      40.109  35.608  37.706  1.00  0.00     0.198 A 
ATOM     63  C   UNL A   1      38.619  34.011  38.699  1.00  0.00     0.198 A 
ATOM     64  F   UNL A   1      38.236  31.943  37.646  1.00  0.00    -0.203 F 
ATOM     65  F   UNL A   1      40.736  36.792  37.747  1.00  0.00    -0.200 F 
ATOM     66  C   UNL A   1      39.248  35.246  38.731  1.00  0.00     0.200 A 
ATOM     67  F   UNL A   1      37.774  33.664  39.680  1.00  0.00    -0.200 F 
ATOM     68  F   UNL A   1      39.027  36.085  39.751  1.00  0.00    -0.200 F 
ENDBRANCH  38  58
BRANCH  41  69
ATOM     69  C   UNL A   1      40.867  27.802  28.438  1.00  0.00     0.064 A 
ATOM     70  C   UNL A   1      41.629  28.307  27.377  1.00  0.00     0.173 A 
ATOM     71  C   UNL A   1      40.312  26.520  28.290  1.00  0.00     0.173 A 
ATOM     72  F   UNL A   1      42.167  29.533  27.464  1.00  0.00    -0.203 F 
ATOM     73  C   UNL A   1      41.805  27.574  26.205  1.00  0.00     0.198 A 
ATOM     74  C   UNL A   1      40.520  25.774  27.134  1.00  0.00     0.198 A 
ATOM     75  F   UNL A   1      39.581  25.985  29.279  1.00  0.00    -0.203 F 
ATOM     76  F   UNL A   1      42.493  28.104  25.186  1.00  0.00    -0.200 F 
ATOM     77  C   UNL A   1      41.257  26.306  26.088  1.00  0.00     0.200 A 
ATOM     78  F   UNL A   1      40.006  24.540  27.033  1.00  0.00    -0.200 F 
ATOM     79  F   UNL A   1      41.431  25.601  24.962  1.00  0.00    -0.200 F 
ENDBRANCH  41  69
BRANCH  56  80
ATOM     80  C   UNL A   1      44.284  28.337  34.489  1.00  0.00     0.064 A 
ATOM     81  C   UNL A   1      44.199  27.114  35.168  1.00  0.00     0.173 A 
ATOM     82  C   UNL A   1      45.558  28.888  34.283  1.00  0.00     0.173 A 
ATOM     83  F   UNL A   1      43.003  26.555  35.407  1.00  0.00    -0.203 F 
ATOM     84  C   UNL A   1      45.344  26.478  35.642  1.00  0.00     0.198 A 
ATOM     85  C   UNL A   1      46.702  28.234  34.728  1.00  0.00     0.198 A 
ATOM     86  F   UNL A   1      45.694  30.055  33.635  1.00  0.00    -0.203 F 
ATOM     87  F   UNL A   1      45.235  25.334  36.332  1.00  0.00    -0.200 F 
ATOM     88  C   UNL A   1      46.595  27.032  35.413  1.00  0.00     0.200 A 
ATOM     89  F   UNL A   1      47.910  28.763  34.493  1.00  0.00    -0.200 F 
ATOM     90  F   UNL A   1      47.696  26.412  35.858  1.00  0.00    -0.200 F 
ENDBRANCH  56  80
ENDBRANCH  21  24
ENDBRANCH  12  14
ENDBRANCH   7  10
ENDBRANCH   4   7
ENDBRANCH   1   4
BRANCH   1  91
ATOM     91  C   UNL A   1      32.871  29.908  25.864  1.00  0.00    -0.052 C 
ATOM     92  H   UNL A   1      32.862  29.255  26.712  1.00  0.00     0.027 H 
ATOM     93  H   UNL A   1      33.553  30.726  25.965  1.00  0.00     0.027 H 
BRANCH  91  94
ATOM     94  C   UNL A   1      33.343  29.103  24.647  1.00  0.00    -0.036 C 
ATOM     95  H   UNL A   1      34.215  28.550  24.928  1.00  0.00     0.028 H 
ATOM     96  H   UNL A   1      33.535  29.809  23.867  1.00  0.00     0.028 H 
BRANCH  94  97
ATOM     97  C   UNL A   1      32.306  28.121  24.107  1.00  0.00     0.017 C 
ATOM     98  H   UNL A   1      31.449  28.666  23.773  1.00  0.00     0.049 H 
ATOM     99  H   UNL A   1      32.037  27.443  24.889  1.00  0.00     0.049 H 
BRANCH  97 100
ATOM    100  N   UNL A   1      32.845  27.359  22.999  1.00  0.00    -0.356 N 
ATOM    101  C   UNL A   1      33.356  26.096  22.967  1.00  0.00     0.229 C 
ATOM    102  H   UNL A   1      32.843  27.827  22.134  1.00  0.00     0.163 HD
ATOM    103  O   UNL A   1      33.900  25.728  21.925  1.00  0.00    -0.274 OA
BRANCH 101 104
ATOM    104  C   UNL A   1      33.249  25.215  24.202  1.00  0.00     0.080 C 
ATOM    105  C   UNL A   1      34.531  25.293  25.060  1.00  0.00    -0.018 C 
ATOM    106  C   UNL A   1      33.196  23.774  23.848  1.00  0.00     0.031 A 
ATOM    107  H   UNL A   1      32.371  25.563  24.706  1.00  0.00     0.047 H 
ATOM    108  C   UNL A   1      34.772  23.865  25.574  1.00  0.00     0.024 C 
ATOM    109  H   UNL A   1      34.391  25.967  25.880  1.00  0.00     0.030 H 
ATOM    110  H   UNL A   1      35.364  25.657  24.496  1.00  0.00     0.030 H 
ATOM    111  N   UNL A   1      34.033  23.036  24.637  1.00  0.00    -0.341 N 
ATOM    112  C   UNL A   1      32.570  22.937  22.968  1.00  0.00    -0.040 A 
ATOM    113  H   UNL A   1      34.395  23.748  26.568  1.00  0.00     0.050 H 
ATOM    114  H   UNL A   1      35.810  23.611  25.625  1.00  0.00     0.050 H 
ATOM    115  C   UNL A   1      33.962  21.710  24.334  1.00  0.00     0.090 A 
ATOM    116  C   UNL A   1      33.057  21.639  23.270  1.00  0.00    -0.033 A 
ATOM    117  H   UNL A   1      31.887  23.196  22.238  1.00  0.00     0.064 H 
ATOM    118  H   UNL A   1      32.785  20.773  22.779  1.00  0.00     0.065 H 
BRANCH 115 119
ATOM    119  C   UNL A   1      34.674  20.578  24.904  1.00  0.00     0.209 C 
ATOM    120  O   UNL A   1      35.764  20.690  25.465  1.00  0.00    -0.287 OA
BRANCH 119 121
ATOM    121  C   UNL A   1      34.105  19.216  24.857  1.00  0.00     0.024 A 
ATOM    122  C   UNL A   1      34.843  18.211  24.224  1.00  0.00    -0.051 A 
ATOM    123  C   UNL A   1      32.837  18.939  25.378  1.00  0.00    -0.051 A 
ATOM    124  C   UNL A   1      34.335  16.914  24.161  1.00  0.00    -0.062 A 
ATOM    125  H   UNL A   1      35.762  18.427  23.807  1.00  0.00     0.063 H 
ATOM    126  C   UNL A   1      32.338  17.637  25.324  1.00  0.00    -0.062 A 
ATOM    127  H   UNL A   1      32.274  19.694  25.801  1.00  0.00     0.063 H 
ATOM    128  C   UNL A   1      33.090  16.627  24.720  1.00  0.00    -0.062 A 
ATOM    129  H   UNL A   1      34.880  16.168  23.700  1.00  0.00     0.062 H 
ATOM    130  H   UNL A   1      31.415  17.420  25.730  1.00  0.00     0.062 H 
ATOM    131  H   UNL A   1      32.721  15.662  24.688  1.00  0.00     0.062 H 
ENDBRANCH 119 121
ENDBRANCH 115 119
ENDBRANCH 101 104
ENDBRANCH  97 100
ENDBRANCH  94  97
ENDBRANCH  91  94
ENDBRANCH   1  91
TORSDOF 15
ENDMDL
MODEL 10
REMARK VINA RESULT:     -12.4      2.080      2.744
REMARK SMILES O=C(NCCCCCCNC(=O)[C@@H]1CCn2c(C(=O)c3ccccc3)ccc21)c1ccc(-c2c3nc(c(-c4c(F)c(F)c(F)c(F)c4F)c4ccc([nH]4)c(-c4c(F)c(F)c(F)c(F)c4F)c4nc(c(-c5c(F)c(F)c(F)c(F)c5F)c5ccc2[nH]5)C=C4)C=C3)cc1
REMARK SMILES IDX 6 1 5 4 4 7 3 10 1 11 2 12 29 14 30 15 91 16 31 17 90 19
REMARK SMILES IDX 32 21 33 24 34 25 84 26 35 27 89 28 83 29 85 30 36 31 88 32
REMARK SMILES IDX 82 34 81 36 37 38 69 41 49 42 68 43 50 44 53 45 67 46 86 47
REMARK SMILES IDX 51 48 52 50 66 52 87 53 54 56 38 58 39 59 47 60 40 61 41 62
REMARK SMILES IDX 45 63 48 64 42 65 43 66 46 67 44 68 70 69 71 70 79 71 72 72
REMARK SMILES IDX 73 73 77 74 80 75 74 76 75 77 78 78 76 79 55 80 56 81 64 82
REMARK SMILES IDX 57 83 58 84 62 85 65 86 59 87 60 88 63 89 61 90 7 91 8 94
REMARK SMILES IDX 9 97 10 100 11 101 12 103 13 104 14 105 28 106 15 108 16 111
REMARK SMILES IDX 27 112 17 115 26 116 18 119 19 120 20 121 21 122 25 123
REMARK SMILES IDX 22 124 24 126 23 128
REMARK H PARENT 6 2 6 3 5 5 5 6 4 8 4 9 3 13 30 18 91 20 31 22 90 23 89 33
REMARK H PARENT 83 35 85 37 88 39 82 40 50 49 53 51 86 54 51 55 87 57 7 92
REMARK H PARENT 7 93 8 95 8 96 9 98 9 99 10 102 13 107 14 109 14 110 15 113
REMARK H PARENT 15 114 27 117 26 118 21 125 25 127 22 129 24 130 23 131
REMARK Flexibility Score: inf
ROOT
ATOM      1  C   UNL A   1      31.592  27.858  26.395  1.00  0.00    -0.052 C 
ATOM      2  H   UNL A   1      31.318  28.868  26.170  1.00  0.00     0.027 H 
ATOM      3  H   UNL A   1      31.404  27.586  27.413  1.00  0.00     0.027 H 
ENDROOT
BRANCH   1   4
ATOM      4  C   UNL A   1      33.100  27.718  26.185  1.00  0.00    -0.036 C 
ATOM      5  H   UNL A   1      33.563  27.602  27.142  1.00  0.00     0.028 H 
ATOM      6  H   UNL A   1      33.245  26.870  25.549  1.00  0.00     0.028 H 
BRANCH   4   7
ATOM      7  C   UNL A   1      33.743  28.905  25.484  1.00  0.00     0.018 C 
ATOM      8  H   UNL A   1      34.779  28.942  25.749  1.00  0.00     0.049 H 
ATOM      9  H   UNL A   1      33.618  28.774  24.429  1.00  0.00     0.049 H 
BRANCH   7  10
ATOM     10  N   UNL A   1      33.118  30.163  25.856  1.00  0.00    -0.352 N 
ATOM     11  O   UNL A   1      32.671  31.920  27.206  1.00  0.00    -0.269 OA
ATOM     12  C   UNL A   1      33.417  30.992  26.906  1.00  0.00     0.251 C 
ATOM     13  H   UNL A   1      32.380  30.461  25.276  1.00  0.00     0.163 HD
BRANCH  12  14
ATOM     14  C   UNL A   1      34.646  30.749  27.689  1.00  0.00     0.039 A 
ATOM     15  C   UNL A   1      34.788  29.570  28.428  1.00  0.00    -0.049 A 
ATOM     16  C   UNL A   1      35.667  31.702  27.675  1.00  0.00    -0.049 A 
ATOM     17  C   UNL A   1      35.897  29.398  29.246  1.00  0.00    -0.053 A 
ATOM     18  H   UNL A   1      34.070  28.832  28.365  1.00  0.00     0.063 H 
ATOM     19  C   UNL A   1      36.823  31.484  28.426  1.00  0.00    -0.053 A 
ATOM     20  H   UNL A   1      35.567  32.561  27.113  1.00  0.00     0.063 H 
ATOM     21  C   UNL A   1      36.941  30.336  29.226  1.00  0.00    -0.014 A 
ATOM     22  H   UNL A   1      35.953  28.577  29.869  1.00  0.00     0.063 H 
ATOM     23  H   UNL A   1      37.594  32.170  28.395  1.00  0.00     0.063 H 
BRANCH  21  24
ATOM     24  C   UNL A   1      38.196  30.039  29.958  1.00  0.00     0.031 A 
ATOM     25  C   UNL A   1      39.243  29.136  29.378  1.00  0.00     0.074 A 
ATOM     26  C   UNL A   1      38.368  30.596  31.173  1.00  0.00     0.049 A 
ATOM     27  N   UNL A   1      40.375  28.744  29.907  1.00  0.00    -0.248 NA
ATOM     28  C   UNL A   1      38.989  28.593  28.036  1.00  0.00    -0.034 C 
ATOM     29  C   UNL A   1      37.405  31.479  31.837  1.00  0.00    -0.036 A 
ATOM     30  N   UNL A   1      39.403  30.505  32.067  1.00  0.00    -0.354 N 
ATOM     31  C   UNL A   1      40.957  27.894  28.977  1.00  0.00     0.074 A 
ATOM     32  C   UNL A   1      40.047  27.812  27.854  1.00  0.00    -0.034 C 
ATOM     33  H   UNL A   1      38.196  28.772  27.400  1.00  0.00     0.065 H 
ATOM     34  C   UNL A   1      37.903  31.868  33.018  1.00  0.00    -0.036 A 
ATOM     35  H   UNL A   1      36.488  31.758  31.454  1.00  0.00     0.065 H 
ATOM     36  C   UNL A   1      39.183  31.203  33.229  1.00  0.00     0.049 A 
ATOM     37  H   UNL A   1      40.223  29.990  31.894  1.00  0.00     0.167 HD
ATOM     38  C   UNL A   1      42.145  27.248  29.060  1.00  0.00     0.037 A 
ATOM     39  H   UNL A   1      40.200  27.222  27.021  1.00  0.00     0.065 H 
ATOM     40  H   UNL A   1      37.455  32.529  33.671  1.00  0.00     0.065 H 
ATOM     41  C   UNL A   1      39.910  31.271  34.358  1.00  0.00     0.037 A 
ATOM     42  C   UNL A   1      43.046  27.352  30.182  1.00  0.00     0.049 A 
ATOM     43  C   UNL A   1      41.200  30.506  34.435  1.00  0.00     0.074 A 
ATOM     44  C   UNL A   1      44.302  26.791  30.331  1.00  0.00    -0.036 A 
ATOM     45  N   UNL A   1      42.779  28.050  31.350  1.00  0.00    -0.354 N 
ATOM     46  N   UNL A   1      41.772  29.760  33.522  1.00  0.00    -0.248 NA
ATOM     47  C   UNL A   1      41.943  30.586  35.699  1.00  0.00    -0.034 C 
ATOM     48  C   UNL A   1      44.766  27.091  31.615  1.00  0.00    -0.036 A 
ATOM     49  H   UNL A   1      44.809  26.245  29.617  1.00  0.00     0.065 H 
ATOM     50  C   UNL A   1      43.829  27.895  32.244  1.00  0.00     0.049 A 
ATOM     51  H   UNL A   1      41.965  28.578  31.521  1.00  0.00     0.167 HD
ATOM     52  C   UNL A   1      42.949  29.296  34.092  1.00  0.00     0.074 A 
ATOM     53  C   UNL A   1      43.020  29.866  35.422  1.00  0.00    -0.034 C 
ATOM     54  H   UNL A   1      41.692  31.075  36.572  1.00  0.00     0.065 H 
ATOM     55  H   UNL A   1      45.655  26.767  32.026  1.00  0.00     0.065 H 
ATOM     56  C   UNL A   1      43.884  28.469  33.564  1.00  0.00     0.037 A 
ATOM     57  H   UNL A   1      43.810  29.729  36.072  1.00  0.00     0.065 H 
BRANCH  38  58
ATOM     58  C   UNL A   1      42.541  26.344  27.928  1.00  0.00     0.064 A 
ATOM     59  C   UNL A   1      42.026  25.046  27.798  1.00  0.00     0.173 A 
ATOM     60  C   UNL A   1      43.391  26.815  26.913  1.00  0.00     0.173 A 
ATOM     61  F   UNL A   1      41.215  24.544  28.741  1.00  0.00    -0.203 F 
ATOM     62  C   UNL A   1      42.361  24.247  26.706  1.00  0.00     0.198 A 
ATOM     63  C   UNL A   1      43.700  26.025  25.809  1.00  0.00     0.198 A 
ATOM     64  F   UNL A   1      43.905  28.053  26.983  1.00  0.00    -0.203 F 
ATOM     65  F   UNL A   1      41.884  22.997  26.622  1.00  0.00    -0.200 F 
ATOM     66  C   UNL A   1      43.189  24.740  25.709  1.00  0.00     0.200 A 
ATOM     67  F   UNL A   1      44.487  26.510  24.839  1.00  0.00    -0.200 F 
ATOM     68  F   UNL A   1      43.496  23.977  24.651  1.00  0.00    -0.200 F 
ENDBRANCH  38  58
BRANCH  41  69
ATOM     69  C   UNL A   1      39.413  32.061  35.514  1.00  0.00     0.064 A 
ATOM     70  C   UNL A   1      39.797  33.396  35.699  1.00  0.00     0.173 A 
ATOM     71  C   UNL A   1      38.544  31.496  36.461  1.00  0.00     0.173 A 
ATOM     72  F   UNL A   1      40.639  33.976  34.831  1.00  0.00    -0.203 F 
ATOM     73  C   UNL A   1      39.354  34.126  36.800  1.00  0.00     0.198 A 
ATOM     74  C   UNL A   1      38.072  32.238  37.540  1.00  0.00     0.198 A 
ATOM     75  F   UNL A   1      38.138  30.225  36.327  1.00  0.00    -0.203 F 
ATOM     76  F   UNL A   1      39.781  35.382  36.981  1.00  0.00    -0.200 F 
ATOM     77  C   UNL A   1      38.487  33.549  37.715  1.00  0.00     0.200 A 
ATOM     78  F   UNL A   1      37.217  31.682  38.410  1.00  0.00    -0.200 F 
ATOM     79  F   UNL A   1      38.058  34.253  38.771  1.00  0.00    -0.200 F 
ENDBRANCH  41  69
BRANCH  56  80
ATOM     80  C   UNL A   1      45.076  28.150  34.417  1.00  0.00     0.064 A 
ATOM     81  C   UNL A   1      46.209  28.976  34.436  1.00  0.00     0.173 A 
ATOM     82  C   UNL A   1      45.067  27.028  35.260  1.00  0.00     0.173 A 
ATOM     83  F   UNL A   1      46.276  30.049  33.634  1.00  0.00    -0.203 F 
ATOM     84  C   UNL A   1      47.298  28.678  35.251  1.00  0.00     0.198 A 
ATOM     85  C   UNL A   1      46.142  26.752  36.098  1.00  0.00     0.198 A 
ATOM     86  F   UNL A   1      44.005  26.208  35.283  1.00  0.00    -0.203 F 
ATOM     87  F   UNL A   1      48.390  29.454  35.216  1.00  0.00    -0.200 F 
ATOM     88  C   UNL A   1      47.260  27.573  36.088  1.00  0.00     0.200 A 
ATOM     89  F   UNL A   1      46.097  25.693  36.917  1.00  0.00    -0.200 F 
ATOM     90  F   UNL A   1      48.304  27.295  36.882  1.00  0.00    -0.200 F 
ENDBRANCH  56  80
ENDBRANCH  21  24
ENDBRANCH  12  14
ENDBRANCH   7  10
ENDBRANCH   4   7
ENDBRANCH   1   4
BRANCH   1  91
ATOM     91  C   UNL A   1      30.734  26.927  25.533  1.00  0.00    -0.052 C 
ATOM     92  H   UNL A   1      29.743  26.922  25.936  1.00  0.00     0.027 H 
ATOM     93  H   UNL A   1      31.210  25.969  25.563  1.00  0.00     0.027 H 
BRANCH  91  94
ATOM     94  C   UNL A   1      30.644  27.314  24.052  1.00  0.00    -0.036 C 
ATOM     95  H   UNL A   1      31.535  27.847  23.790  1.00  0.00     0.028 H 
ATOM     96  H   UNL A   1      29.760  27.907  23.942  1.00  0.00     0.028 H 
BRANCH  94  97
ATOM     97  C   UNL A   1      30.499  26.127  23.102  1.00  0.00     0.017 C 
ATOM     98  H   UNL A   1      29.648  26.284  22.474  1.00  0.00     0.049 H 
ATOM     99  H   UNL A   1      30.375  25.237  23.684  1.00  0.00     0.049 H 
BRANCH  97 100
ATOM    100  N   UNL A   1      31.679  25.980  22.276  1.00  0.00    -0.356 N 
ATOM    101  C   UNL A   1      32.888  25.420  22.561  1.00  0.00     0.229 C 
ATOM    102  H   UNL A   1      31.594  26.342  21.364  1.00  0.00     0.163 HD
ATOM    103  O   UNL A   1      33.790  25.559  21.733  1.00  0.00    -0.274 OA
BRANCH 101 104
ATOM    104  C   UNL A   1      33.075  24.675  23.874  1.00  0.00     0.080 C 
ATOM    105  C   UNL A   1      34.538  24.758  24.362  1.00  0.00    -0.018 C 
ATOM    106  C   UNL A   1      32.882  23.212  23.708  1.00  0.00     0.031 A 
ATOM    107  H   UNL A   1      32.371  25.125  24.542  1.00  0.00     0.047 H 
ATOM    108  C   UNL A   1      34.855  23.376  24.955  1.00  0.00     0.024 C 
ATOM    109  H   UNL A   1      34.640  25.517  25.110  1.00  0.00     0.030 H 
ATOM    110  H   UNL A   1      35.208  25.011  23.567  1.00  0.00     0.030 H 
ATOM    111  N   UNL A   1      33.869  22.505  24.336  1.00  0.00    -0.341 N 
ATOM    112  C   UNL A   1      32.020  22.332  23.116  1.00  0.00    -0.040 A 
ATOM    113  H   UNL A   1      34.746  23.382  26.018  1.00  0.00     0.050 H 
ATOM    114  H   UNL A   1      35.861  23.064  24.768  1.00  0.00     0.050 H 
ATOM    115  C   UNL A   1      33.677  21.163  24.212  1.00  0.00     0.090 A 
ATOM    116  C   UNL A   1      32.524  21.043  23.429  1.00  0.00    -0.033 A 
ATOM    117  H   UNL A   1      31.181  22.559  22.560  1.00  0.00     0.064 H 
ATOM    118  H   UNL A   1      32.104  20.151  23.123  1.00  0.00     0.065 H 
BRANCH 115 119
ATOM    119  C   UNL A   1      34.473  20.051  24.705  1.00  0.00     0.209 C 
ATOM    120  O   UNL A   1      35.622  20.188  25.126  1.00  0.00    -0.287 OA
BRANCH 119 121
ATOM    121  C   UNL A   1      33.925  18.680  24.747  1.00  0.00     0.024 A 
ATOM    122  C   UNL A   1      34.437  17.734  23.853  1.00  0.00    -0.051 A 
ATOM    123  C   UNL A   1      32.884  18.339  25.616  1.00  0.00    -0.051 A 
ATOM    124  C   UNL A   1      33.943  16.431  23.865  1.00  0.00    -0.062 A 
ATOM    125  H   UNL A   1      35.180  17.999  23.187  1.00  0.00     0.063 H 
ATOM    126  C   UNL A   1      32.401  17.030  25.633  1.00  0.00    -0.062 A 
ATOM    127  H   UNL A   1      32.474  19.052  26.240  1.00  0.00     0.063 H 
ATOM    128  C   UNL A   1      32.934  16.078  24.762  1.00  0.00    -0.062 A 
ATOM    129  H   UNL A   1      34.322  15.728  23.211  1.00  0.00     0.062 H 
ATOM    130  H   UNL A   1      31.650  16.765  26.289  1.00  0.00     0.062 H 
ATOM    131  H   UNL A   1      32.580  15.108  24.782  1.00  0.00     0.062 H 
ENDBRANCH 119 121
ENDBRANCH 115 119
ENDBRANCH 101 104
ENDBRANCH  97 100
ENDBRANCH  94  97
ENDBRANCH  91  94
ENDBRANCH   1  91
TORSDOF 15
ENDMDL
