MODEL 1
REMARK VINA RESULT:     -12.8      0.000      0.000
REMARK SMILES Cc1ccc(Nc2c(C)cccc2Cl)c(CC(=O)NCCCCCCNC(=O)c2ccc(-c3c4nc(c(-c5c(F)c(F)c(F)c(F)c5F)c5ccc([nH]5)c(-c5c(F)c(F)c(F)c(F)c5F)c5nc(c(-c6c(F)c(F)c(F)c(F)c6F)c6ccc3[nH]6)C=C5)C=C4)cc2)c1
REMARK SMILES IDX 21 1 20 4 19 7 17 8 18 9 16 11 15 14 2 15 3 16 92 17 4 18
REMARK SMILES IDX 5 21 1 23 6 27 7 29 8 30 13 31 10 32 12 33 14 34 11 35 9 39
REMARK SMILES IDX 22 43 23 46 24 49 25 52 26 55 27 56 28 58 29 59 30 60 91 61
REMARK SMILES IDX 31 62 90 64 32 66 33 69 34 70 84 71 35 72 89 73 83 74 85 75
REMARK SMILES IDX 36 76 88 77 82 79 81 81 37 83 69 86 49 87 68 88 50 89 53 90
REMARK SMILES IDX 67 91 86 92 51 93 52 95 66 97 87 98 54 101 38 103 39 104
REMARK SMILES IDX 47 105 40 106 41 107 45 108 48 109 42 110 43 111 46 112
REMARK SMILES IDX 44 113 70 114 71 115 79 116 72 117 73 118 77 119 80 120
REMARK SMILES IDX 74 121 75 122 78 123 76 124 55 125 56 126 64 127 57 128
REMARK SMILES IDX 58 129 62 130 65 131 59 132 60 133 63 134 61 135
REMARK H PARENT 21 2 21 3 20 5 20 6 19 10 16 12 16 13 3 19 92 20 4 22 1 24
REMARK H PARENT 1 25 1 26 6 28 10 36 12 37 11 38 9 40 9 41 9 42 22 44 22 45
REMARK H PARENT 23 47 23 48 24 50 24 51 25 53 25 54 26 57 30 63 91 65 31 67
REMARK H PARENT 90 68 89 78 83 80 85 82 88 84 82 85 50 94 53 96 86 99 51 100
REMARK H PARENT 87 102
REMARK Flexibility Score: inf
ROOT
ATOM      1  C   UNL A   1      32.445  28.137  27.194  1.00  0.00    -0.036 C 
ATOM      2  H   UNL A   1      32.681  27.454  27.982  1.00  0.00     0.028 H 
ATOM      3  H   UNL A   1      32.042  29.065  27.539  1.00  0.00     0.028 H 
ENDROOT
BRANCH   1   4
ATOM      4  C   UNL A   1      31.360  27.499  26.322  1.00  0.00     0.017 C 
ATOM      5  H   UNL A   1      30.483  28.111  26.360  1.00  0.00     0.049 H 
ATOM      6  H   UNL A   1      31.738  27.424  25.324  1.00  0.00     0.049 H 
BRANCH   4   7
ATOM      7  N   UNL A   1      31.018  26.165  26.770  1.00  0.00    -0.356 N 
ATOM      8  C   UNL A   1      31.743  25.016  26.662  1.00  0.00     0.224 C 
ATOM      9  O   UNL A   1      31.212  23.953  26.993  1.00  0.00    -0.275 OA
ATOM     10  H   UNL A   1      30.143  26.075  27.211  1.00  0.00     0.163 HD
BRANCH   8  11
ATOM     11  C   UNL A   1      33.166  25.039  26.133  1.00  0.00     0.054 C 
ATOM     12  H   UNL A   1      33.517  26.050  26.153  1.00  0.00     0.042 H 
ATOM     13  H   UNL A   1      33.741  24.392  26.763  1.00  0.00     0.042 H 
BRANCH  11  14
ATOM     14  C   UNL A   1      33.307  24.514  24.720  1.00  0.00    -0.015 A 
ATOM     15  C   UNL A   1      32.811  24.863  22.345  1.00  0.00    -0.051 A 
ATOM     16  C   UNL A   1      33.390  23.629  22.063  1.00  0.00    -0.057 A 
ATOM     17  C   UNL A   1      32.794  25.306  23.670  1.00  0.00    -0.054 A 
ATOM     18  C   UNL A   1      33.942  22.857  23.088  1.00  0.00    -0.038 A 
ATOM     19  H   UNL A   1      33.411  23.283  21.090  1.00  0.00     0.063 H 
ATOM     20  H   UNL A   1      32.399  26.235  23.886  1.00  0.00     0.063 H 
ATOM     21  C   UNL A   1      33.914  23.274  24.429  1.00  0.00     0.042 A 
ATOM     22  H   UNL A   1      34.384  21.954  22.853  1.00  0.00     0.064 H 
BRANCH  15  23
ATOM     23  C   UNL A   1      32.225  25.692  21.243  1.00  0.00    -0.040 C 
ATOM     24  H   UNL A   1      31.158  25.643  21.289  1.00  0.00     0.028 H 
ATOM     25  H   UNL A   1      32.558  25.316  20.298  1.00  0.00     0.028 H 
ATOM     26  H   UNL A   1      32.540  26.709  21.353  1.00  0.00     0.028 H 
ENDBRANCH  15  23
BRANCH  21  27
ATOM     27  N   UNL A   1      34.538  22.511  25.440  1.00  0.00    -0.354 N 
ATOM     28  H   UNL A   1      34.094  22.529  26.319  1.00  0.00     0.167 HD
BRANCH  27  29
ATOM     29  C   UNL A   1      35.713  21.725  25.368  1.00  0.00     0.060 A 
ATOM     30  C   UNL A   1      36.994  22.278  25.582  1.00  0.00    -0.026 A 
ATOM     31  C   UNL A   1      35.616  20.364  25.002  1.00  0.00     0.064 A 
ATOM     32  C   UNL A   1      38.134  21.481  25.374  1.00  0.00    -0.057 A 
ATOM     33  C   UNL A   1      36.758  19.581  24.820  1.00  0.00    -0.041 A 
ATOM     34  Cl  UNL A   1      34.074  19.621  24.731  1.00  0.00    -0.082 Cl
ATOM     35  C   UNL A   1      38.018  20.144  24.994  1.00  0.00    -0.060 A 
ATOM     36  H   UNL A   1      39.072  21.892  25.504  1.00  0.00     0.063 H 
ATOM     37  H   UNL A   1      36.667  18.587  24.557  1.00  0.00     0.064 H 
ATOM     38  H   UNL A   1      38.864  19.574  24.844  1.00  0.00     0.062 H 
BRANCH  30  39
ATOM     39  C   UNL A   1      37.201  23.698  26.035  1.00  0.00    -0.038 C 
ATOM     40  H   UNL A   1      38.157  24.044  25.699  1.00  0.00     0.028 H 
ATOM     41  H   UNL A   1      37.164  23.740  27.104  1.00  0.00     0.028 H 
ATOM     42  H   UNL A   1      36.433  24.320  25.626  1.00  0.00     0.028 H 
ENDBRANCH  30  39
ENDBRANCH  27  29
ENDBRANCH  21  27
ENDBRANCH  11  14
ENDBRANCH   8  11
ENDBRANCH   4   7
ENDBRANCH   1   4
BRANCH   1  43
ATOM     43  C   UNL A   1      33.750  28.484  26.460  1.00  0.00    -0.052 C 
ATOM     44  H   UNL A   1      33.488  28.943  25.529  1.00  0.00     0.027 H 
ATOM     45  H   UNL A   1      34.277  27.558  26.365  1.00  0.00     0.027 H 
BRANCH  43  46
ATOM     46  C   UNL A   1      34.718  29.429  27.191  1.00  0.00    -0.052 C 
ATOM     47  H   UNL A   1      35.542  29.623  26.536  1.00  0.00     0.027 H 
ATOM     48  H   UNL A   1      34.986  28.924  28.095  1.00  0.00     0.027 H 
BRANCH  46  49
ATOM     49  C   UNL A   1      34.139  30.776  27.626  1.00  0.00    -0.036 C 
ATOM     50  H   UNL A   1      33.649  30.642  28.568  1.00  0.00     0.028 H 
ATOM     51  H   UNL A   1      33.473  31.088  26.849  1.00  0.00     0.028 H 
BRANCH  49  52
ATOM     52  C   UNL A   1      35.172  31.884  27.781  1.00  0.00     0.018 C 
ATOM     53  H   UNL A   1      34.776  32.778  27.346  1.00  0.00     0.049 H 
ATOM     54  H   UNL A   1      36.064  31.552  27.291  1.00  0.00     0.049 H 
BRANCH  52  55
ATOM     55  N   UNL A   1      35.525  32.164  29.165  1.00  0.00    -0.352 N 
ATOM     56  C   UNL A   1      36.283  31.432  30.064  1.00  0.00     0.251 C 
ATOM     57  H   UNL A   1      35.170  33.012  29.518  1.00  0.00     0.163 HD
ATOM     58  O   UNL A   1      36.391  31.810  31.215  1.00  0.00    -0.269 OA
BRANCH  56  59
ATOM     59  C   UNL A   1      37.087  30.275  29.587  1.00  0.00     0.039 A 
ATOM     60  C   UNL A   1      37.141  29.145  30.415  1.00  0.00    -0.049 A 
ATOM     61  C   UNL A   1      37.930  30.367  28.485  1.00  0.00    -0.049 A 
ATOM     62  C   UNL A   1      38.213  28.263  30.302  1.00  0.00    -0.053 A 
ATOM     63  H   UNL A   1      36.392  28.968  31.102  1.00  0.00     0.063 H 
ATOM     64  C   UNL A   1      39.044  29.554  28.431  1.00  0.00    -0.053 A 
ATOM     65  H   UNL A   1      37.726  31.029  27.721  1.00  0.00     0.063 H 
ATOM     66  C   UNL A   1      39.228  28.561  29.398  1.00  0.00    -0.014 A 
ATOM     67  H   UNL A   1      38.253  27.406  30.876  1.00  0.00     0.063 H 
ATOM     68  H   UNL A   1      39.740  29.678  27.679  1.00  0.00     0.063 H 
BRANCH  66  69
ATOM     69  C   UNL A   1      40.582  28.033  29.501  1.00  0.00     0.031 A 
ATOM     70  C   UNL A   1      40.912  26.683  29.008  1.00  0.00     0.074 A 
ATOM     71  C   UNL A   1      41.566  28.880  29.885  1.00  0.00     0.049 A 
ATOM     72  N   UNL A   1      42.058  26.118  29.184  1.00  0.00    -0.248 NA
ATOM     73  C   UNL A   1      39.949  25.820  28.328  1.00  0.00    -0.034 C 
ATOM     74  C   UNL A   1      43.006  28.730  29.688  1.00  0.00    -0.036 A 
ATOM     75  N   UNL A   1      41.452  29.985  30.750  1.00  0.00    -0.354 N 
ATOM     76  C   UNL A   1      42.090  24.986  28.410  1.00  0.00     0.074 A 
ATOM     77  C   UNL A   1      40.721  24.773  28.014  1.00  0.00    -0.034 C 
ATOM     78  H   UNL A   1      38.947  25.976  28.141  1.00  0.00     0.065 H 
ATOM     79  C   UNL A   1      43.647  29.462  30.612  1.00  0.00    -0.036 A 
ATOM     80  H   UNL A   1      43.456  28.154  28.959  1.00  0.00     0.065 H 
ATOM     81  C   UNL A   1      42.639  29.968  31.525  1.00  0.00     0.049 A 
ATOM     82  H   UNL A   1      40.710  30.631  30.804  1.00  0.00     0.167 HD
ATOM     83  C   UNL A   1      43.302  24.447  28.103  1.00  0.00     0.037 A 
ATOM     84  H   UNL A   1      40.379  23.918  27.547  1.00  0.00     0.065 H 
ATOM     85  H   UNL A   1      44.664  29.633  30.662  1.00  0.00     0.065 H 
ATOM     86  C   UNL A   1      42.590  29.693  32.862  1.00  0.00     0.037 A 
ATOM     87  C   UNL A   1      44.343  24.961  28.996  1.00  0.00     0.049 A 
ATOM     88  C   UNL A   1      43.340  28.445  33.287  1.00  0.00     0.074 A 
ATOM     89  C   UNL A   1      45.413  25.831  28.879  1.00  0.00    -0.036 A 
ATOM     90  N   UNL A   1      44.195  24.721  30.353  1.00  0.00    -0.354 N 
ATOM     91  N   UNL A   1      43.929  27.620  32.466  1.00  0.00    -0.248 NA
ATOM     92  C   UNL A   1      43.389  27.977  34.674  1.00  0.00    -0.034 C 
ATOM     93  C   UNL A   1      45.847  26.170  30.200  1.00  0.00    -0.036 A 
ATOM     94  H   UNL A   1      45.824  26.174  27.997  1.00  0.00     0.065 H 
ATOM     95  C   UNL A   1      45.063  25.479  31.108  1.00  0.00     0.049 A 
ATOM     96  H   UNL A   1      43.546  24.084  30.732  1.00  0.00     0.167 HD
ATOM     97  C   UNL A   1      44.362  26.524  33.159  1.00  0.00     0.074 A 
ATOM     98  C   UNL A   1      44.009  26.792  34.540  1.00  0.00    -0.034 C 
ATOM     99  H   UNL A   1      43.040  28.436  35.530  1.00  0.00     0.065 H 
ATOM    100  H   UNL A   1      46.614  26.819  30.436  1.00  0.00     0.065 H 
ATOM    101  C   UNL A   1      44.936  25.445  32.555  1.00  0.00     0.037 A 
ATOM    102  H   UNL A   1      44.210  26.152  35.324  1.00  0.00     0.065 H 
BRANCH  83 103
ATOM    103  C   UNL A   1      43.590  23.541  26.924  1.00  0.00     0.064 A 
ATOM    104  C   UNL A   1      43.095  22.217  26.913  1.00  0.00     0.173 A 
ATOM    105  C   UNL A   1      44.445  23.854  25.845  1.00  0.00     0.173 A 
ATOM    106  F   UNL A   1      42.283  21.771  27.881  1.00  0.00    -0.203 F 
ATOM    107  C   UNL A   1      43.438  21.293  25.919  1.00  0.00     0.198 A 
ATOM    108  C   UNL A   1      44.743  22.946  24.825  1.00  0.00     0.198 A 
ATOM    109  F   UNL A   1      45.088  25.021  25.754  1.00  0.00    -0.203 F 
ATOM    110  F   UNL A   1      42.987  20.033  25.998  1.00  0.00    -0.200 F 
ATOM    111  C   UNL A   1      44.254  21.661  24.869  1.00  0.00     0.200 A 
ATOM    112  F   UNL A   1      45.542  23.326  23.816  1.00  0.00    -0.200 F 
ATOM    113  F   UNL A   1      44.585  20.778  23.918  1.00  0.00    -0.200 F 
ENDBRANCH  83 103
BRANCH  86 114
ATOM    114  C   UNL A   1      41.345  30.194  33.504  1.00  0.00     0.064 A 
ATOM    115  C   UNL A   1      41.256  31.564  33.820  1.00  0.00     0.173 A 
ATOM    116  C   UNL A   1      40.154  29.461  33.463  1.00  0.00     0.173 A 
ATOM    117  F   UNL A   1      42.370  32.313  33.874  1.00  0.00    -0.203 F 
ATOM    118  C   UNL A   1      40.024  32.195  33.965  1.00  0.00     0.198 A 
ATOM    119  C   UNL A   1      38.921  30.093  33.629  1.00  0.00     0.198 A 
ATOM    120  F   UNL A   1      40.168  28.158  33.144  1.00  0.00    -0.203 F 
ATOM    121  F   UNL A   1      39.969  33.522  34.150  1.00  0.00    -0.200 F 
ATOM    122  C   UNL A   1      38.855  31.462  33.843  1.00  0.00     0.200 A 
ATOM    123  F   UNL A   1      37.791  29.389  33.481  1.00  0.00    -0.200 F 
ATOM    124  F   UNL A   1      37.667  32.078  33.888  1.00  0.00    -0.200 F 
ENDBRANCH  86 114
BRANCH 101 125
ATOM    125  C   UNL A   1      45.405  24.249  33.323  1.00  0.00     0.064 A 
ATOM    126  C   UNL A   1      44.559  23.161  33.585  1.00  0.00     0.173 A 
ATOM    127  C   UNL A   1      46.683  24.211  33.915  1.00  0.00     0.173 A 
ATOM    128  F   UNL A   1      43.316  23.127  33.083  1.00  0.00    -0.203 F 
ATOM    129  C   UNL A   1      44.974  22.089  34.377  1.00  0.00     0.198 A 
ATOM    130  C   UNL A   1      47.077  23.164  34.745  1.00  0.00     0.198 A 
ATOM    131  F   UNL A   1      47.585  25.176  33.681  1.00  0.00    -0.203 F 
ATOM    132  F   UNL A   1      44.154  21.048  34.569  1.00  0.00    -0.200 F 
ATOM    133  C   UNL A   1      46.226  22.099  34.970  1.00  0.00     0.200 A 
ATOM    134  F   UNL A   1      48.288  23.191  35.321  1.00  0.00    -0.200 F 
ATOM    135  F   UNL A   1      46.613  21.081  35.751  1.00  0.00    -0.200 F 
ENDBRANCH 101 125
ENDBRANCH  66  69
ENDBRANCH  56  59
ENDBRANCH  52  55
ENDBRANCH  49  52
ENDBRANCH  46  49
ENDBRANCH  43  46
ENDBRANCH   1  43
TORSDOF 18
ENDMDL
MODEL 2
REMARK VINA RESULT:     -12.7      1.756      2.600
REMARK SMILES Cc1ccc(Nc2c(C)cccc2Cl)c(CC(=O)NCCCCCCNC(=O)c2ccc(-c3c4nc(c(-c5c(F)c(F)c(F)c(F)c5F)c5ccc([nH]5)c(-c5c(F)c(F)c(F)c(F)c5F)c5nc(c(-c6c(F)c(F)c(F)c(F)c6F)c6ccc3[nH]6)C=C5)C=C4)cc2)c1
REMARK SMILES IDX 21 1 20 4 19 7 17 8 18 9 16 11 15 14 2 15 3 16 92 17 4 18
REMARK SMILES IDX 5 21 1 23 6 27 7 29 8 30 13 31 10 32 12 33 14 34 11 35 9 39
REMARK SMILES IDX 22 43 23 46 24 49 25 52 26 55 27 56 28 58 29 59 30 60 91 61
REMARK SMILES IDX 31 62 90 64 32 66 33 69 34 70 84 71 35 72 89 73 83 74 85 75
REMARK SMILES IDX 36 76 88 77 82 79 81 81 37 83 69 86 49 87 68 88 50 89 53 90
REMARK SMILES IDX 67 91 86 92 51 93 52 95 66 97 87 98 54 101 38 103 39 104
REMARK SMILES IDX 47 105 40 106 41 107 45 108 48 109 42 110 43 111 46 112
REMARK SMILES IDX 44 113 70 114 71 115 79 116 72 117 73 118 77 119 80 120
REMARK SMILES IDX 74 121 75 122 78 123 76 124 55 125 56 126 64 127 57 128
REMARK SMILES IDX 58 129 62 130 65 131 59 132 60 133 63 134 61 135
REMARK H PARENT 21 2 21 3 20 5 20 6 19 10 16 12 16 13 3 19 92 20 4 22 1 24
REMARK H PARENT 1 25 1 26 6 28 10 36 12 37 11 38 9 40 9 41 9 42 22 44 22 45
REMARK H PARENT 23 47 23 48 24 50 24 51 25 53 25 54 26 57 30 63 91 65 31 67
REMARK H PARENT 90 68 89 78 83 80 85 82 88 84 82 85 50 94 53 96 86 99 51 100
REMARK H PARENT 87 102
REMARK Flexibility Score: inf
ROOT
ATOM      1  C   UNL A   1      32.871  27.356  26.044  1.00  0.00    -0.036 C 
ATOM      2  H   UNL A   1      33.491  27.497  26.904  1.00  0.00     0.028 H 
ATOM      3  H   UNL A   1      31.973  26.813  26.249  1.00  0.00     0.028 H 
ENDROOT
BRANCH   1   4
ATOM      4  C   UNL A   1      33.653  26.518  25.029  1.00  0.00     0.017 C 
ATOM      5  H   UNL A   1      34.558  26.177  25.488  1.00  0.00     0.049 H 
ATOM      6  H   UNL A   1      33.035  25.696  24.732  1.00  0.00     0.049 H 
BRANCH   4   7
ATOM      7  N   UNL A   1      33.988  27.275  23.842  1.00  0.00    -0.356 N 
ATOM      8  C   UNL A   1      33.515  27.126  22.572  1.00  0.00     0.224 C 
ATOM      9  O   UNL A   1      34.029  27.794  21.672  1.00  0.00    -0.275 OA
ATOM     10  H   UNL A   1      34.647  27.995  23.968  1.00  0.00     0.163 HD
BRANCH   8  11
ATOM     11  C   UNL A   1      32.390  26.152  22.269  1.00  0.00     0.054 C 
ATOM     12  H   UNL A   1      32.374  25.974  21.214  1.00  0.00     0.042 H 
ATOM     13  H   UNL A   1      32.590  25.264  22.833  1.00  0.00     0.042 H 
BRANCH  11  14
ATOM     14  C   UNL A   1      31.021  26.641  22.690  1.00  0.00    -0.015 A 
ATOM     15  C   UNL A   1      29.465  28.532  22.801  1.00  0.00    -0.051 A 
ATOM     16  C   UNL A   1      28.569  27.729  23.502  1.00  0.00    -0.057 A 
ATOM     17  C   UNL A   1      30.676  27.975  22.381  1.00  0.00    -0.054 A 
ATOM     18  C   UNL A   1      28.881  26.394  23.773  1.00  0.00    -0.038 A 
ATOM     19  H   UNL A   1      27.670  28.122  23.822  1.00  0.00     0.063 H 
ATOM     20  H   UNL A   1      31.332  28.551  21.832  1.00  0.00     0.063 H 
ATOM     21  C   UNL A   1      30.102  25.822  23.380  1.00  0.00     0.042 A 
ATOM     22  H   UNL A   1      28.193  25.811  24.276  1.00  0.00     0.064 H 
BRANCH  15  23
ATOM     23  C   UNL A   1      29.126  29.962  22.507  1.00  0.00    -0.040 C 
ATOM     24  H   UNL A   1      29.107  30.519  23.419  1.00  0.00     0.028 H 
ATOM     25  H   UNL A   1      28.165  30.011  22.038  1.00  0.00     0.028 H 
ATOM     26  H   UNL A   1      29.864  30.377  21.851  1.00  0.00     0.028 H 
ENDBRANCH  15  23
BRANCH  21  27
ATOM     27  N   UNL A   1      30.368  24.454  23.603  1.00  0.00    -0.354 N 
ATOM     28  H   UNL A   1      29.913  23.829  22.993  1.00  0.00     0.167 HD
BRANCH  27  29
ATOM     29  C   UNL A   1      31.198  23.854  24.581  1.00  0.00     0.060 A 
ATOM     30  C   UNL A   1      31.032  24.112  25.959  1.00  0.00    -0.026 A 
ATOM     31  C   UNL A   1      32.268  23.028  24.172  1.00  0.00     0.064 A 
ATOM     32  C   UNL A   1      31.962  23.590  26.876  1.00  0.00    -0.057 A 
ATOM     33  C   UNL A   1      33.171  22.501  25.098  1.00  0.00    -0.041 A 
ATOM     34  Cl  UNL A   1      32.525  22.666  22.496  1.00  0.00    -0.082 Cl
ATOM     35  C   UNL A   1      33.024  22.793  26.450  1.00  0.00    -0.060 A 
ATOM     36  H   UNL A   1      31.857  23.801  27.881  1.00  0.00     0.063 H 
ATOM     37  H   UNL A   1      33.944  21.896  24.780  1.00  0.00     0.064 H 
ATOM     38  H   UNL A   1      33.698  22.420  27.136  1.00  0.00     0.062 H 
BRANCH  30  39
ATOM     39  C   UNL A   1      29.888  24.925  26.502  1.00  0.00    -0.038 C 
ATOM     40  H   UNL A   1      30.121  25.967  26.423  1.00  0.00     0.028 H 
ATOM     41  H   UNL A   1      29.727  24.673  27.530  1.00  0.00     0.028 H 
ATOM     42  H   UNL A   1      29.002  24.715  25.940  1.00  0.00     0.028 H 
ENDBRANCH  30  39
ENDBRANCH  27  29
ENDBRANCH  21  27
ENDBRANCH  11  14
ENDBRANCH   8  11
ENDBRANCH   4   7
ENDBRANCH   1   4
BRANCH   1  43
ATOM     43  C   UNL A   1      32.428  28.740  25.544  1.00  0.00    -0.052 C 
ATOM     44  H   UNL A   1      31.687  28.591  24.787  1.00  0.00     0.027 H 
ATOM     45  H   UNL A   1      33.323  29.217  25.201  1.00  0.00     0.027 H 
BRANCH  43  46
ATOM     46  C   UNL A   1      31.838  29.693  26.596  1.00  0.00    -0.052 C 
ATOM     47  H   UNL A   1      31.560  29.107  27.448  1.00  0.00     0.027 H 
ATOM     48  H   UNL A   1      31.018  30.182  26.115  1.00  0.00     0.027 H 
BRANCH  46  49
ATOM     49  C   UNL A   1      32.761  30.813  27.079  1.00  0.00    -0.036 C 
ATOM     50  H   UNL A   1      32.330  31.246  27.958  1.00  0.00     0.028 H 
ATOM     51  H   UNL A   1      32.848  31.508  26.271  1.00  0.00     0.028 H 
BRANCH  49  52
ATOM     52  C   UNL A   1      34.176  30.361  27.417  1.00  0.00     0.018 C 
ATOM     53  H   UNL A   1      34.710  30.212  26.502  1.00  0.00     0.049 H 
ATOM     54  H   UNL A   1      34.089  29.461  27.990  1.00  0.00     0.049 H 
BRANCH  52  55
ATOM     55  N   UNL A   1      34.915  31.314  28.232  1.00  0.00    -0.352 N 
ATOM     56  C   UNL A   1      36.075  31.154  28.972  1.00  0.00     0.251 C 
ATOM     57  H   UNL A   1      34.528  32.219  28.261  1.00  0.00     0.163 HD
ATOM     58  O   UNL A   1      36.488  32.068  29.657  1.00  0.00    -0.269 OA
BRANCH  56  59
ATOM     59  C   UNL A   1      36.896  29.924  28.806  1.00  0.00     0.039 A 
ATOM     60  C   UNL A   1      37.030  29.087  29.923  1.00  0.00    -0.049 A 
ATOM     61  C   UNL A   1      37.680  29.705  27.679  1.00  0.00    -0.049 A 
ATOM     62  C   UNL A   1      38.125  28.232  30.011  1.00  0.00    -0.053 A 
ATOM     63  H   UNL A   1      36.322  29.104  30.674  1.00  0.00     0.063 H 
ATOM     64  C   UNL A   1      38.818  28.935  27.800  1.00  0.00    -0.053 A 
ATOM     65  H   UNL A   1      37.415  30.111  26.768  1.00  0.00     0.063 H 
ATOM     66  C   UNL A   1      39.083  28.272  29.003  1.00  0.00    -0.014 A 
ATOM     67  H   UNL A   1      38.224  27.581  30.806  1.00  0.00     0.063 H 
ATOM     68  H   UNL A   1      39.471  28.847  27.006  1.00  0.00     0.063 H 
BRANCH  66  69
ATOM     69  C   UNL A   1      40.459  27.824  29.178  1.00  0.00     0.031 A 
ATOM     70  C   UNL A   1      40.890  26.491  28.716  1.00  0.00     0.074 A 
ATOM     71  C   UNL A   1      41.373  28.730  29.599  1.00  0.00     0.049 A 
ATOM     72  N   UNL A   1      42.056  25.995  28.955  1.00  0.00    -0.248 NA
ATOM     73  C   UNL A   1      40.013  25.568  28.001  1.00  0.00    -0.034 C 
ATOM     74  C   UNL A   1      42.827  28.661  29.474  1.00  0.00    -0.036 A 
ATOM     75  N   UNL A   1      41.154  29.834  30.444  1.00  0.00    -0.354 N 
ATOM     76  C   UNL A   1      42.191  24.859  28.197  1.00  0.00     0.074 A 
ATOM     77  C   UNL A   1      40.857  24.564  27.737  1.00  0.00    -0.034 C 
ATOM     78  H   UNL A   1      39.013  25.664  27.763  1.00  0.00     0.065 H 
ATOM     79  C   UNL A   1      43.379  29.437  30.419  1.00  0.00    -0.036 A 
ATOM     80  H   UNL A   1      43.345  28.106  28.774  1.00  0.00     0.065 H 
ATOM     81  C   UNL A   1      42.300  29.892  31.276  1.00  0.00     0.049 A 
ATOM     82  H   UNL A   1      40.374  30.436  30.454  1.00  0.00     0.167 HD
ATOM     83  C   UNL A   1      43.446  24.388  27.955  1.00  0.00     0.037 A 
ATOM     84  H   UNL A   1      40.588  23.687  27.264  1.00  0.00     0.065 H 
ATOM     85  H   UNL A   1      44.381  29.668  30.516  1.00  0.00     0.065 H 
ATOM     86  C   UNL A   1      42.201  29.627  32.612  1.00  0.00     0.037 A 
ATOM     87  C   UNL A   1      44.411  24.970  28.892  1.00  0.00     0.049 A 
ATOM     88  C   UNL A   1      43.000  28.428  33.088  1.00  0.00     0.074 A 
ATOM     89  C   UNL A   1      45.433  25.899  28.816  1.00  0.00    -0.036 A 
ATOM     90  N   UNL A   1      44.210  24.734  30.242  1.00  0.00    -0.354 N 
ATOM     91  N   UNL A   1      43.674  27.631  32.306  1.00  0.00    -0.248 NA
ATOM     92  C   UNL A   1      43.008  27.977  34.481  1.00  0.00    -0.034 C 
ATOM     93  C   UNL A   1      45.782  26.274  30.153  1.00  0.00    -0.036 A 
ATOM     94  H   UNL A   1      45.867  26.257  27.951  1.00  0.00     0.065 H 
ATOM     95  C   UNL A   1      44.995  25.548  31.030  1.00  0.00     0.049 A 
ATOM     96  H   UNL A   1      43.581  24.064  30.597  1.00  0.00     0.167 HD
ATOM     97  C   UNL A   1      44.135  26.568  33.032  1.00  0.00     0.074 A 
ATOM     98  C   UNL A   1      43.700  26.828  34.391  1.00  0.00    -0.034 C 
ATOM     99  H   UNL A   1      42.591  28.422  35.313  1.00  0.00     0.065 H 
ATOM    100  H   UNL A   1      46.497  26.968  30.418  1.00  0.00     0.065 H 
ATOM    101  C   UNL A   1      44.799  25.519  32.469  1.00  0.00     0.037 A 
ATOM    102  H   UNL A   1      43.899  26.208  35.191  1.00  0.00     0.065 H 
BRANCH  83 103
ATOM    103  C   UNL A   1      43.843  23.490  26.802  1.00  0.00     0.064 A 
ATOM    104  C   UNL A   1      43.386  22.153  26.759  1.00  0.00     0.173 A 
ATOM    105  C   UNL A   1      44.764  23.826  25.786  1.00  0.00     0.173 A 
ATOM    106  F   UNL A   1      42.519  21.685  27.668  1.00  0.00    -0.203 F 
ATOM    107  C   UNL A   1      43.825  21.239  25.794  1.00  0.00     0.198 A 
ATOM    108  C   UNL A   1      45.160  22.926  24.793  1.00  0.00     0.198 A 
ATOM    109  F   UNL A   1      45.379  25.011  25.739  1.00  0.00    -0.203 F 
ATOM    110  F   UNL A   1      43.405  19.967  25.844  1.00  0.00    -0.200 F 
ATOM    111  C   UNL A   1      44.704  21.628  24.805  1.00  0.00     0.200 A 
ATOM    112  F   UNL A   1      46.018  23.327  23.843  1.00  0.00    -0.200 F 
ATOM    113  F   UNL A   1      45.127  20.754  23.882  1.00  0.00    -0.200 F 
ENDBRANCH  83 103
BRANCH  86 114
ATOM    114  C   UNL A   1      40.900  30.061  33.187  1.00  0.00     0.064 A 
ATOM    115  C   UNL A   1      40.683  31.437  33.397  1.00  0.00     0.173 A 
ATOM    116  C   UNL A   1      39.779  29.224  33.175  1.00  0.00     0.173 A 
ATOM    117  F   UNL A   1      41.726  32.284  33.418  1.00  0.00    -0.203 F 
ATOM    118  C   UNL A   1      39.397  31.965  33.467  1.00  0.00     0.198 A 
ATOM    119  C   UNL A   1      38.491  29.754  33.266  1.00  0.00     0.198 A 
ATOM    120  F   UNL A   1      39.915  27.908  32.956  1.00  0.00    -0.203 F 
ATOM    121  F   UNL A   1      39.222  33.292  33.550  1.00  0.00    -0.200 F 
ATOM    122  C   UNL A   1      38.301  31.124  33.374  1.00  0.00     0.200 A 
ATOM    123  F   UNL A   1      37.431  28.944  33.147  1.00  0.00    -0.200 F 
ATOM    124  F   UNL A   1      37.062  31.634  33.347  1.00  0.00    -0.200 F 
ENDBRANCH  86 114
BRANCH 101 125
ATOM    125  C   UNL A   1      45.297  24.359  33.273  1.00  0.00     0.064 A 
ATOM    126  C   UNL A   1      44.493  23.239  33.531  1.00  0.00     0.173 A 
ATOM    127  C   UNL A   1      46.558  24.388  33.902  1.00  0.00     0.173 A 
ATOM    128  F   UNL A   1      43.268  23.141  32.994  1.00  0.00    -0.203 F 
ATOM    129  C   UNL A   1      44.931  22.201  34.355  1.00  0.00     0.198 A 
ATOM    130  C   UNL A   1      46.973  23.375  34.763  1.00  0.00     0.198 A 
ATOM    131  F   UNL A   1      47.423  25.389  33.676  1.00  0.00    -0.203 F 
ATOM    132  F   UNL A   1      44.153  21.128  34.543  1.00  0.00    -0.200 F 
ATOM    133  C   UNL A   1      46.163  22.278  34.983  1.00  0.00     0.200 A 
ATOM    134  F   UNL A   1      48.164  23.467  35.373  1.00  0.00    -0.200 F 
ATOM    135  F   UNL A   1      46.571  21.292  35.795  1.00  0.00    -0.200 F 
ENDBRANCH 101 125
ENDBRANCH  66  69
ENDBRANCH  56  59
ENDBRANCH  52  55
ENDBRANCH  49  52
ENDBRANCH  46  49
ENDBRANCH  43  46
ENDBRANCH   1  43
TORSDOF 18
ENDMDL
MODEL 3
REMARK VINA RESULT:     -12.7      1.378      2.462
REMARK SMILES Cc1ccc(Nc2c(C)cccc2Cl)c(CC(=O)NCCCCCCNC(=O)c2ccc(-c3c4nc(c(-c5c(F)c(F)c(F)c(F)c5F)c5ccc([nH]5)c(-c5c(F)c(F)c(F)c(F)c5F)c5nc(c(-c6c(F)c(F)c(F)c(F)c6F)c6ccc3[nH]6)C=C5)C=C4)cc2)c1
REMARK SMILES IDX 21 1 20 4 19 7 17 8 18 9 16 11 15 14 2 15 3 16 92 17 4 18
REMARK SMILES IDX 5 21 1 23 6 27 7 29 8 30 13 31 10 32 12 33 14 34 11 35 9 39
REMARK SMILES IDX 22 43 23 46 24 49 25 52 26 55 27 56 28 58 29 59 30 60 91 61
REMARK SMILES IDX 31 62 90 64 32 66 33 69 34 70 84 71 35 72 89 73 83 74 85 75
REMARK SMILES IDX 36 76 88 77 82 79 81 81 37 83 69 86 49 87 68 88 50 89 53 90
REMARK SMILES IDX 67 91 86 92 51 93 52 95 66 97 87 98 54 101 38 103 39 104
REMARK SMILES IDX 47 105 40 106 41 107 45 108 48 109 42 110 43 111 46 112
REMARK SMILES IDX 44 113 70 114 71 115 79 116 72 117 73 118 77 119 80 120
REMARK SMILES IDX 74 121 75 122 78 123 76 124 55 125 56 126 64 127 57 128
REMARK SMILES IDX 58 129 62 130 65 131 59 132 60 133 63 134 61 135
REMARK H PARENT 21 2 21 3 20 5 20 6 19 10 16 12 16 13 3 19 92 20 4 22 1 24
REMARK H PARENT 1 25 1 26 6 28 10 36 12 37 11 38 9 40 9 41 9 42 22 44 22 45
REMARK H PARENT 23 47 23 48 24 50 24 51 25 53 25 54 26 57 30 63 91 65 31 67
REMARK H PARENT 90 68 89 78 83 80 85 82 88 84 82 85 50 94 53 96 86 99 51 100
REMARK H PARENT 87 102
REMARK Flexibility Score: inf
ROOT
ATOM      1  C   UNL A   1      31.362  27.579  26.701  1.00  0.00    -0.036 C 
ATOM      2  H   UNL A   1      31.420  27.411  27.756  1.00  0.00     0.028 H 
ATOM      3  H   UNL A   1      30.651  28.330  26.427  1.00  0.00     0.028 H 
ENDROOT
BRANCH   1   4
ATOM      4  C   UNL A   1      30.886  26.282  26.041  1.00  0.00     0.017 C 
ATOM      5  H   UNL A   1      29.840  26.365  25.832  1.00  0.00     0.049 H 
ATOM      6  H   UNL A   1      31.450  26.143  25.143  1.00  0.00     0.049 H 
BRANCH   4   7
ATOM      7  N   UNL A   1      31.104  25.129  26.888  1.00  0.00    -0.356 N 
ATOM      8  C   UNL A   1      31.797  23.988  26.615  1.00  0.00     0.224 C 
ATOM      9  O   UNL A   1      31.753  23.064  27.432  1.00  0.00    -0.275 OA
ATOM     10  H   UNL A   1      30.697  25.175  27.783  1.00  0.00     0.163 HD
BRANCH   8  11
ATOM     11  C   UNL A   1      32.593  23.848  25.330  1.00  0.00     0.054 C 
ATOM     12  H   UNL A   1      31.985  23.341  24.610  1.00  0.00     0.042 H 
ATOM     13  H   UNL A   1      32.859  24.838  25.020  1.00  0.00     0.042 H 
BRANCH  11  14
ATOM     14  C   UNL A   1      33.886  23.077  25.488  1.00  0.00    -0.015 A 
ATOM     15  C   UNL A   1      36.301  23.186  25.895  1.00  0.00    -0.051 A 
ATOM     16  C   UNL A   1      36.376  21.809  25.703  1.00  0.00    -0.057 A 
ATOM     17  C   UNL A   1      35.052  23.806  25.807  1.00  0.00    -0.054 A 
ATOM     18  C   UNL A   1      35.222  21.070  25.432  1.00  0.00    -0.038 A 
ATOM     19  H   UNL A   1      37.290  21.333  25.762  1.00  0.00     0.063 H 
ATOM     20  H   UNL A   1      34.980  24.821  25.981  1.00  0.00     0.063 H 
ATOM     21  C   UNL A   1      33.961  21.678  25.317  1.00  0.00     0.042 A 
ATOM     22  H   UNL A   1      35.299  20.048  25.314  1.00  0.00     0.064 H 
BRANCH  15  23
ATOM     23  C   UNL A   1      37.540  23.976  26.191  1.00  0.00    -0.040 C 
ATOM     24  H   UNL A   1      37.562  24.229  27.229  1.00  0.00     0.028 H 
ATOM     25  H   UNL A   1      37.539  24.872  25.605  1.00  0.00     0.028 H 
ATOM     26  H   UNL A   1      38.403  23.393  25.947  1.00  0.00     0.028 H 
ENDBRANCH  15  23
BRANCH  21  27
ATOM     27  N   UNL A   1      32.799  20.905  25.111  1.00  0.00    -0.354 N 
ATOM     28  H   UNL A   1      32.046  21.102  25.716  1.00  0.00     0.167 HD
BRANCH  27  29
ATOM     29  C   UNL A   1      32.562  19.884  24.159  1.00  0.00     0.060 A 
ATOM     30  C   UNL A   1      32.656  18.516  24.494  1.00  0.00    -0.026 A 
ATOM     31  C   UNL A   1      32.294  20.235  22.817  1.00  0.00     0.064 A 
ATOM     32  C   UNL A   1      32.536  17.548  23.481  1.00  0.00    -0.057 A 
ATOM     33  C   UNL A   1      32.157  19.260  21.828  1.00  0.00    -0.041 A 
ATOM     34  Cl  UNL A   1      32.160  21.896  22.340  1.00  0.00    -0.082 Cl
ATOM     35  C   UNL A   1      32.290  17.915  22.158  1.00  0.00    -0.060 A 
ATOM     36  H   UNL A   1      32.631  16.548  23.721  1.00  0.00     0.063 H 
ATOM     37  H   UNL A   1      31.957  19.536  20.853  1.00  0.00     0.064 H 
ATOM     38  H   UNL A   1      32.207  17.192  21.427  1.00  0.00     0.062 H 
BRANCH  30  39
ATOM     39  C   UNL A   1      32.874  18.037  25.904  1.00  0.00    -0.038 C 
ATOM     40  H   UNL A   1      33.924  17.968  26.098  1.00  0.00     0.028 H 
ATOM     41  H   UNL A   1      32.425  17.074  26.027  1.00  0.00     0.028 H 
ATOM     42  H   UNL A   1      32.430  18.728  26.589  1.00  0.00     0.028 H 
ENDBRANCH  30  39
ENDBRANCH  27  29
ENDBRANCH  21  27
ENDBRANCH  11  14
ENDBRANCH   8  11
ENDBRANCH   4   7
ENDBRANCH   1   4
BRANCH   1  43
ATOM     43  C   UNL A   1      32.730  28.091  26.225  1.00  0.00    -0.052 C 
ATOM     44  H   UNL A   1      33.050  27.463  25.420  1.00  0.00     0.027 H 
ATOM     45  H   UNL A   1      33.361  28.060  27.089  1.00  0.00     0.027 H 
BRANCH  43  46
ATOM     46  C   UNL A   1      32.786  29.546  25.733  1.00  0.00    -0.052 C 
ATOM     47  H   UNL A   1      31.855  29.764  25.251  1.00  0.00     0.027 H 
ATOM     48  H   UNL A   1      33.636  29.601  25.088  1.00  0.00     0.027 H 
BRANCH  46  49
ATOM     49  C   UNL A   1      33.015  30.609  26.809  1.00  0.00    -0.036 C 
ATOM     50  H   UNL A   1      32.064  30.878  27.222  1.00  0.00     0.028 H 
ATOM     51  H   UNL A   1      33.508  31.428  26.330  1.00  0.00     0.028 H 
BRANCH  49  52
ATOM     52  C   UNL A   1      33.920  30.165  27.950  1.00  0.00     0.018 C 
ATOM     53  H   UNL A   1      34.574  29.400  27.585  1.00  0.00     0.049 H 
ATOM     54  H   UNL A   1      33.284  29.816  28.737  1.00  0.00     0.049 H 
BRANCH  52  55
ATOM     55  N   UNL A   1      34.731  31.238  28.504  1.00  0.00    -0.352 N 
ATOM     56  C   UNL A   1      36.006  31.213  29.047  1.00  0.00     0.251 C 
ATOM     57  H   UNL A   1      34.307  32.127  28.489  1.00  0.00     0.163 HD
ATOM     58  O   UNL A   1      36.477  32.221  29.536  1.00  0.00    -0.269 OA
BRANCH  56  59
ATOM     59  C   UNL A   1      36.853  29.999  28.894  1.00  0.00     0.039 A 
ATOM     60  C   UNL A   1      37.005  29.177  30.019  1.00  0.00    -0.049 A 
ATOM     61  C   UNL A   1      37.641  29.787  27.769  1.00  0.00    -0.049 A 
ATOM     62  C   UNL A   1      38.119  28.347  30.115  1.00  0.00    -0.053 A 
ATOM     63  H   UNL A   1      36.298  29.186  30.770  1.00  0.00     0.063 H 
ATOM     64  C   UNL A   1      38.796  29.042  27.897  1.00  0.00    -0.053 A 
ATOM     65  H   UNL A   1      37.367  30.177  26.854  1.00  0.00     0.063 H 
ATOM     66  C   UNL A   1      39.076  28.398  29.106  1.00  0.00    -0.014 A 
ATOM     67  H   UNL A   1      38.232  27.707  30.917  1.00  0.00     0.063 H 
ATOM     68  H   UNL A   1      39.450  28.961  27.103  1.00  0.00     0.063 H 
BRANCH  66  69
ATOM     69  C   UNL A   1      40.462  27.981  29.284  1.00  0.00     0.031 A 
ATOM     70  C   UNL A   1      40.925  26.661  28.818  1.00  0.00     0.074 A 
ATOM     71  C   UNL A   1      41.351  28.906  29.714  1.00  0.00     0.049 A 
ATOM     72  N   UNL A   1      42.102  26.191  29.059  1.00  0.00    -0.248 NA
ATOM     73  C   UNL A   1      40.073  25.721  28.094  1.00  0.00    -0.034 C 
ATOM     74  C   UNL A   1      42.807  28.873  29.594  1.00  0.00    -0.036 A 
ATOM     75  N   UNL A   1      41.103  30.001  30.563  1.00  0.00    -0.354 N 
ATOM     76  C   UNL A   1      42.266  25.063  28.296  1.00  0.00     0.074 A 
ATOM     77  C   UNL A   1      40.942  24.739  27.830  1.00  0.00    -0.034 C 
ATOM     78  H   UNL A   1      39.072  25.794  27.853  1.00  0.00     0.065 H 
ATOM     79  C   UNL A   1      43.337  29.657  30.546  1.00  0.00    -0.036 A 
ATOM     80  H   UNL A   1      43.341  28.333  28.894  1.00  0.00     0.065 H 
ATOM     81  C   UNL A   1      42.244  30.082  31.400  1.00  0.00     0.049 A 
ATOM     82  H   UNL A   1      40.309  30.584  30.573  1.00  0.00     0.167 HD
ATOM     83  C   UNL A   1      43.533  24.623  28.057  1.00  0.00     0.037 A 
ATOM     84  H   UNL A   1      40.696  23.858  27.350  1.00  0.00     0.065 H 
ATOM     85  H   UNL A   1      44.333  29.910  30.649  1.00  0.00     0.065 H 
ATOM     86  C   UNL A   1      42.146  29.808  32.735  1.00  0.00     0.037 A 
ATOM     87  C   UNL A   1      44.480  25.222  29.001  1.00  0.00     0.049 A 
ATOM     88  C   UNL A   1      42.971  28.625  33.208  1.00  0.00     0.074 A 
ATOM     89  C   UNL A   1      45.481  26.176  28.934  1.00  0.00    -0.036 A 
ATOM     90  N   UNL A   1      44.279  24.975  30.349  1.00  0.00    -0.354 N 
ATOM     91  N   UNL A   1      43.667  27.848  32.425  1.00  0.00    -0.248 NA
ATOM     92  C   UNL A   1      42.984  28.167  34.599  1.00  0.00    -0.034 C 
ATOM     93  C   UNL A   1      45.815  26.553  30.274  1.00  0.00    -0.036 A 
ATOM     94  H   UNL A   1      45.909  26.549  28.073  1.00  0.00     0.065 H 
ATOM     95  C   UNL A   1      45.041  25.803  31.144  1.00  0.00     0.049 A 
ATOM     96  H   UNL A   1      43.665  24.289  30.698  1.00  0.00     0.167 HD
ATOM     97  C   UNL A   1      44.150  26.793  33.148  1.00  0.00     0.074 A 
ATOM     98  C   UNL A   1      43.703  27.036  34.506  1.00  0.00    -0.034 C 
ATOM     99  H   UNL A   1      42.553  28.598  35.431  1.00  0.00     0.065 H 
ATOM    100  H   UNL A   1      46.513  27.262  30.546  1.00  0.00     0.065 H 
ATOM    101  C   UNL A   1      44.841  25.763  32.583  1.00  0.00     0.037 A 
ATOM    102  H   UNL A   1      43.913  26.416  35.304  1.00  0.00     0.065 H 
BRANCH  83 103
ATOM    103  C   UNL A   1      43.956  23.740  26.902  1.00  0.00     0.064 A 
ATOM    104  C   UNL A   1      43.511  22.401  26.837  1.00  0.00     0.173 A 
ATOM    105  C   UNL A   1      44.890  24.095  25.904  1.00  0.00     0.173 A 
ATOM    106  F   UNL A   1      42.634  21.916  27.727  1.00  0.00    -0.203 F 
ATOM    107  C   UNL A   1      43.974  21.500  25.870  1.00  0.00     0.198 A 
ATOM    108  C   UNL A   1      45.310  23.209  24.908  1.00  0.00     0.198 A 
ATOM    109  F   UNL A   1      45.496  25.285  25.879  1.00  0.00    -0.203 F 
ATOM    110  F   UNL A   1      43.563  20.224  25.900  1.00  0.00    -0.200 F 
ATOM    111  C   UNL A   1      44.865  21.906  24.899  1.00  0.00     0.200 A 
ATOM    112  F   UNL A   1      46.180  23.627  23.976  1.00  0.00    -0.200 F 
ATOM    113  F   UNL A   1      45.310  21.046  23.974  1.00  0.00    -0.200 F 
ENDBRANCH  83 103
BRANCH  86 114
ATOM    114  C   UNL A   1      40.832  30.207  33.306  1.00  0.00     0.064 A 
ATOM    115  C   UNL A   1      40.578  31.578  33.512  1.00  0.00     0.173 A 
ATOM    116  C   UNL A   1      39.734  29.340  33.295  1.00  0.00     0.173 A 
ATOM    117  F   UNL A   1      41.598  32.453  33.533  1.00  0.00    -0.203 F 
ATOM    118  C   UNL A   1      39.278  32.071  33.578  1.00  0.00     0.198 A 
ATOM    119  C   UNL A   1      38.433  29.836  33.382  1.00  0.00     0.198 A 
ATOM    120  F   UNL A   1      39.907  28.028  33.079  1.00  0.00    -0.203 F 
ATOM    121  F   UNL A   1      39.067  33.393  33.657  1.00  0.00    -0.200 F 
ATOM    122  C   UNL A   1      38.205  31.200  33.486  1.00  0.00     0.200 A 
ATOM    123  F   UNL A   1      37.395  28.997  33.264  1.00  0.00    -0.200 F 
ATOM    124  F   UNL A   1      36.953  31.677  33.455  1.00  0.00    -0.200 F 
ENDBRANCH  86 114
BRANCH 101 125
ATOM    125  C   UNL A   1      45.363  24.611  33.383  1.00  0.00     0.064 A 
ATOM    126  C   UNL A   1      46.701  24.547  33.799  1.00  0.00     0.173 A 
ATOM    127  C   UNL A   1      44.562  23.484  33.658  1.00  0.00     0.173 A 
ATOM    128  F   UNL A   1      47.541  25.564  33.555  1.00  0.00    -0.203 F 
ATOM    129  C   UNL A   1      47.204  23.429  34.468  1.00  0.00     0.198 A 
ATOM    130  C   UNL A   1      45.078  22.351  34.281  1.00  0.00     0.198 A 
ATOM    131  F   UNL A   1      43.256  23.470  33.350  1.00  0.00    -0.203 F 
ATOM    132  F   UNL A   1      48.475  23.422  34.888  1.00  0.00    -0.200 F 
ATOM    133  C   UNL A   1      46.397  22.326  34.694  1.00  0.00     0.200 A 
ATOM    134  F   UNL A   1      44.289  21.286  34.485  1.00  0.00    -0.200 F 
ATOM    135  F   UNL A   1      46.888  21.244  35.313  1.00  0.00    -0.200 F 
ENDBRANCH 101 125
ENDBRANCH  66  69
ENDBRANCH  56  59
ENDBRANCH  52  55
ENDBRANCH  49  52
ENDBRANCH  46  49
ENDBRANCH  43  46
ENDBRANCH   1  43
TORSDOF 18
ENDMDL
MODEL 4
REMARK VINA RESULT:     -12.2      1.749      2.622
REMARK SMILES Cc1ccc(Nc2c(C)cccc2Cl)c(CC(=O)NCCCCCCNC(=O)c2ccc(-c3c4nc(c(-c5c(F)c(F)c(F)c(F)c5F)c5ccc([nH]5)c(-c5c(F)c(F)c(F)c(F)c5F)c5nc(c(-c6c(F)c(F)c(F)c(F)c6F)c6ccc3[nH]6)C=C5)C=C4)cc2)c1
REMARK SMILES IDX 21 1 20 4 19 7 17 8 18 9 16 11 15 14 2 15 3 16 92 17 4 18
REMARK SMILES IDX 5 21 1 23 6 27 7 29 8 30 13 31 10 32 12 33 14 34 11 35 9 39
REMARK SMILES IDX 22 43 23 46 24 49 25 52 26 55 27 56 28 58 29 59 30 60 91 61
REMARK SMILES IDX 31 62 90 64 32 66 33 69 34 70 84 71 35 72 89 73 83 74 85 75
REMARK SMILES IDX 36 76 88 77 82 79 81 81 37 83 69 86 49 87 68 88 50 89 53 90
REMARK SMILES IDX 67 91 86 92 51 93 52 95 66 97 87 98 54 101 38 103 39 104
REMARK SMILES IDX 47 105 40 106 41 107 45 108 48 109 42 110 43 111 46 112
REMARK SMILES IDX 44 113 70 114 71 115 79 116 72 117 73 118 77 119 80 120
REMARK SMILES IDX 74 121 75 122 78 123 76 124 55 125 56 126 64 127 57 128
REMARK SMILES IDX 58 129 62 130 65 131 59 132 60 133 63 134 61 135
REMARK H PARENT 21 2 21 3 20 5 20 6 19 10 16 12 16 13 3 19 92 20 4 22 1 24
REMARK H PARENT 1 25 1 26 6 28 10 36 12 37 11 38 9 40 9 41 9 42 22 44 22 45
REMARK H PARENT 23 47 23 48 24 50 24 51 25 53 25 54 26 57 30 63 91 65 31 67
REMARK H PARENT 90 68 89 78 83 80 85 82 88 84 82 85 50 94 53 96 86 99 51 100
REMARK H PARENT 87 102
REMARK Flexibility Score: inf
ROOT
ATOM      1  C   UNL A   1      31.317  29.173  22.795  1.00  0.00    -0.036 C 
ATOM      2  H   UNL A   1      30.699  29.873  22.274  1.00  0.00     0.028 H 
ATOM      3  H   UNL A   1      32.362  29.305  22.611  1.00  0.00     0.028 H 
ENDROOT
BRANCH   1   4
ATOM      4  C   UNL A   1      30.970  27.769  22.293  1.00  0.00     0.017 C 
ATOM      5  H   UNL A   1      30.591  27.193  23.111  1.00  0.00     0.049 H 
ATOM      6  H   UNL A   1      30.239  27.866  21.517  1.00  0.00     0.049 H 
BRANCH   4   7
ATOM      7  N   UNL A   1      32.121  27.090  21.737  1.00  0.00    -0.356 N 
ATOM      8  C   UNL A   1      32.505  25.792  21.893  1.00  0.00     0.224 C 
ATOM      9  O   UNL A   1      33.597  25.444  21.437  1.00  0.00    -0.275 OA
ATOM     10  H   UNL A   1      32.707  27.641  21.169  1.00  0.00     0.163 HD
BRANCH   8  11
ATOM     11  C   UNL A   1      31.619  24.799  22.623  1.00  0.00     0.054 C 
ATOM     12  H   UNL A   1      30.598  25.068  22.450  1.00  0.00     0.042 H 
ATOM     13  H   UNL A   1      31.860  23.829  22.240  1.00  0.00     0.042 H 
BRANCH  11  14
ATOM     14  C   UNL A   1      31.851  24.750  24.118  1.00  0.00    -0.015 A 
ATOM     15  C   UNL A   1      31.561  25.878  26.275  1.00  0.00    -0.051 A 
ATOM     16  C   UNL A   1      32.292  24.861  26.884  1.00  0.00    -0.057 A 
ATOM     17  C   UNL A   1      31.327  25.803  24.901  1.00  0.00    -0.054 A 
ATOM     18  C   UNL A   1      32.776  23.790  26.128  1.00  0.00    -0.038 A 
ATOM     19  H   UNL A   1      32.477  24.898  27.899  1.00  0.00     0.063 H 
ATOM     20  H   UNL A   1      30.757  26.533  24.445  1.00  0.00     0.063 H 
ATOM     21  C   UNL A   1      32.571  23.708  24.741  1.00  0.00     0.042 A 
ATOM     22  H   UNL A   1      33.298  23.037  26.603  1.00  0.00     0.064 H 
BRANCH  15  23
ATOM     23  C   UNL A   1      31.038  27.022  27.090  1.00  0.00    -0.040 C 
ATOM     24  H   UNL A   1      31.799  27.360  27.761  1.00  0.00     0.028 H 
ATOM     25  H   UNL A   1      30.185  26.701  27.650  1.00  0.00     0.028 H 
ATOM     26  H   UNL A   1      30.756  27.824  26.439  1.00  0.00     0.028 H 
ENDBRANCH  15  23
BRANCH  21  27
ATOM     27  N   UNL A   1      33.009  22.585  24.007  1.00  0.00    -0.354 N 
ATOM     28  H   UNL A   1      32.489  22.379  23.196  1.00  0.00     0.167 HD
BRANCH  27  29
ATOM     29  C   UNL A   1      34.090  21.710  24.274  1.00  0.00     0.060 A 
ATOM     30  C   UNL A   1      33.885  20.358  24.624  1.00  0.00    -0.026 A 
ATOM     31  C   UNL A   1      35.409  22.213  24.261  1.00  0.00     0.064 A 
ATOM     32  C   UNL A   1      34.986  19.568  25.001  1.00  0.00    -0.057 A 
ATOM     33  C   UNL A   1      36.494  21.409  24.619  1.00  0.00    -0.041 A 
ATOM     34  Cl  UNL A   1      35.731  23.862  23.835  1.00  0.00    -0.082 Cl
ATOM     35  C   UNL A   1      36.279  20.089  25.001  1.00  0.00    -0.060 A 
ATOM     36  H   UNL A   1      34.834  18.587  25.283  1.00  0.00     0.063 H 
ATOM     37  H   UNL A   1      37.451  21.794  24.599  1.00  0.00     0.064 H 
ATOM     38  H   UNL A   1      37.076  19.497  25.283  1.00  0.00     0.062 H 
BRANCH  30  39
ATOM     39  C   UNL A   1      32.526  19.710  24.605  1.00  0.00    -0.038 C 
ATOM     40  H   UNL A   1      32.638  18.651  24.495  1.00  0.00     0.028 H 
ATOM     41  H   UNL A   1      31.959  20.095  23.784  1.00  0.00     0.028 H 
ATOM     42  H   UNL A   1      32.017  19.921  25.522  1.00  0.00     0.028 H 
ENDBRANCH  30  39
ENDBRANCH  27  29
ENDBRANCH  21  27
ENDBRANCH  11  14
ENDBRANCH   8  11
ENDBRANCH   4   7
ENDBRANCH   1   4
BRANCH   1  43
ATOM     43  C   UNL A   1      31.118  29.394  24.303  1.00  0.00    -0.052 C 
ATOM     44  H   UNL A   1      30.668  28.510  24.705  1.00  0.00     0.027 H 
ATOM     45  H   UNL A   1      30.515  30.274  24.383  1.00  0.00     0.027 H 
BRANCH  43  46
ATOM     46  C   UNL A   1      32.382  29.692  25.126  1.00  0.00    -0.052 C 
ATOM     47  H   UNL A   1      33.122  30.084  24.458  1.00  0.00     0.027 H 
ATOM     48  H   UNL A   1      32.654  28.764  25.584  1.00  0.00     0.027 H 
BRANCH  46  49
ATOM     49  C   UNL A   1      32.215  30.687  26.275  1.00  0.00    -0.036 C 
ATOM     50  H   UNL A   1      31.197  30.649  26.606  1.00  0.00     0.028 H 
ATOM     51  H   UNL A   1      32.492  31.646  25.891  1.00  0.00     0.028 H 
BRANCH  49  52
ATOM     52  C   UNL A   1      33.115  30.422  27.474  1.00  0.00     0.018 C 
ATOM     53  H   UNL A   1      33.760  29.602  27.237  1.00  0.00     0.049 H 
ATOM     54  H   UNL A   1      32.475  30.210  28.305  1.00  0.00     0.049 H 
BRANCH  52  55
ATOM     55  N   UNL A   1      33.939  31.561  27.850  1.00  0.00    -0.352 N 
ATOM     56  C   UNL A   1      35.223  31.610  28.369  1.00  0.00     0.251 C 
ATOM     57  H   UNL A   1      33.516  32.440  27.711  1.00  0.00     0.163 HD
ATOM     58  O   UNL A   1      35.705  32.677  28.695  1.00  0.00    -0.269 OA
BRANCH  56  59
ATOM     59  C   UNL A   1      36.064  30.382  28.381  1.00  0.00     0.039 A 
ATOM     60  C   UNL A   1      36.275  29.762  29.621  1.00  0.00    -0.049 A 
ATOM     61  C   UNL A   1      36.795  29.977  27.271  1.00  0.00    -0.049 A 
ATOM     62  C   UNL A   1      37.394  28.953  29.800  1.00  0.00    -0.053 A 
ATOM     63  H   UNL A   1      35.606  29.903  30.393  1.00  0.00     0.063 H 
ATOM     64  C   UNL A   1      37.956  29.258  27.465  1.00  0.00    -0.053 A 
ATOM     65  H   UNL A   1      36.474  30.209  26.318  1.00  0.00     0.063 H 
ATOM     66  C   UNL A   1      38.299  28.827  28.751  1.00  0.00    -0.014 A 
ATOM     67  H   UNL A   1      37.549  28.458  30.693  1.00  0.00     0.063 H 
ATOM     68  H   UNL A   1      38.570  29.039  26.666  1.00  0.00     0.063 H 
BRANCH  66  69
ATOM     69  C   UNL A   1      39.692  28.438  28.928  1.00  0.00     0.031 A 
ATOM     70  C   UNL A   1      40.142  27.064  28.638  1.00  0.00     0.074 A 
ATOM     71  C   UNL A   1      40.595  29.414  29.181  1.00  0.00     0.049 A 
ATOM     72  N   UNL A   1      41.330  26.632  28.893  1.00  0.00    -0.248 NA
ATOM     73  C   UNL A   1      39.264  26.031  28.093  1.00  0.00    -0.034 C 
ATOM     74  C   UNL A   1      42.045  29.361  29.006  1.00  0.00    -0.036 A 
ATOM     75  N   UNL A   1      40.378  30.620  29.874  1.00  0.00    -0.354 N 
ATOM     76  C   UNL A   1      41.467  25.405  28.294  1.00  0.00     0.074 A 
ATOM     77  C   UNL A   1      40.126  25.019  27.936  1.00  0.00    -0.034 C 
ATOM     78  H   UNL A   1      38.254  26.070  27.887  1.00  0.00     0.065 H 
ATOM     79  C   UNL A   1      42.611  30.273  29.811  1.00  0.00    -0.036 A 
ATOM     80  H   UNL A   1      42.551  28.726  28.369  1.00  0.00     0.065 H 
ATOM     81  C   UNL A   1      41.553  30.819  30.642  1.00  0.00     0.049 A 
ATOM     82  H   UNL A   1      39.583  31.200  29.834  1.00  0.00     0.167 HD
ATOM     83  C   UNL A   1      42.725  24.934  28.067  1.00  0.00     0.037 A 
ATOM     84  H   UNL A   1      39.863  24.079  27.599  1.00  0.00     0.065 H 
ATOM     85  H   UNL A   1      43.609  30.537  29.834  1.00  0.00     0.065 H 
ATOM     86  C   UNL A   1      41.513  30.740  32.005  1.00  0.00     0.037 A 
ATOM     87  C   UNL A   1      43.708  25.661  28.873  1.00  0.00     0.049 A 
ATOM     88  C   UNL A   1      42.363  29.636  32.608  1.00  0.00     0.074 A 
ATOM     89  C   UNL A   1      44.701  26.593  28.627  1.00  0.00    -0.036 A 
ATOM     90  N   UNL A   1      43.566  25.610  30.250  1.00  0.00    -0.354 N 
ATOM     91  N   UNL A   1      43.029  28.754  31.915  1.00  0.00    -0.248 NA
ATOM     92  C   UNL A   1      42.437  29.383  34.048  1.00  0.00    -0.034 C 
ATOM     93  C   UNL A   1      45.089  27.159  29.884  1.00  0.00    -0.036 A 
ATOM     94  H   UNL A   1      45.090  26.838  27.704  1.00  0.00     0.065 H 
ATOM     95  C   UNL A   1      44.357  26.543  30.885  1.00  0.00     0.049 A 
ATOM     96  H   UNL A   1      42.970  24.982  30.720  1.00  0.00     0.167 HD
ATOM     97  C   UNL A   1      43.547  27.813  32.761  1.00  0.00     0.074 A 
ATOM     98  C   UNL A   1      43.158  28.249  34.089  1.00  0.00    -0.034 C 
ATOM     99  H   UNL A   1      42.040  29.931  34.827  1.00  0.00     0.065 H 
ATOM    100  H   UNL A   1      45.795  27.899  30.021  1.00  0.00     0.065 H 
ATOM    101  C   UNL A   1      44.218  26.711  32.321  1.00  0.00     0.037 A 
ATOM    102  H   UNL A   1      43.404  27.751  34.958  1.00  0.00     0.065 H 
BRANCH  83 103
ATOM    103  C   UNL A   1      43.102  23.893  27.034  1.00  0.00     0.064 A 
ATOM    104  C   UNL A   1      42.757  22.538  27.237  1.00  0.00     0.173 A 
ATOM    105  C   UNL A   1      43.908  24.126  25.898  1.00  0.00     0.173 A 
ATOM    106  F   UNL A   1      42.007  22.161  28.283  1.00  0.00    -0.203 F 
ATOM    107  C   UNL A   1      43.193  21.514  26.388  1.00  0.00     0.198 A 
ATOM    108  C   UNL A   1      44.297  23.110  25.021  1.00  0.00     0.198 A 
ATOM    109  F   UNL A   1      44.416  25.329  25.613  1.00  0.00    -0.203 F 
ATOM    110  F   UNL A   1      42.885  20.240  26.670  1.00  0.00    -0.200 F 
ATOM    111  C   UNL A   1      43.954  21.801  25.274  1.00  0.00     0.200 A 
ATOM    112  F   UNL A   1      45.040  23.413  23.947  1.00  0.00    -0.200 F 
ATOM    113  F   UNL A   1      44.374  20.823  24.460  1.00  0.00    -0.200 F 
ENDBRANCH  83 103
BRANCH  86 114
ATOM    114  C   UNL A   1      40.223  31.219  32.568  1.00  0.00     0.064 A 
ATOM    115  C   UNL A   1      39.966  32.605  32.574  1.00  0.00     0.173 A 
ATOM    116  C   UNL A   1      39.134  30.358  32.740  1.00  0.00     0.173 A 
ATOM    117  F   UNL A   1      40.978  33.475  32.413  1.00  0.00    -0.203 F 
ATOM    118  C   UNL A   1      38.666  33.100  32.624  1.00  0.00     0.198 A 
ATOM    119  C   UNL A   1      37.833  30.859  32.811  1.00  0.00     0.198 A 
ATOM    120  F   UNL A   1      39.308  29.029  32.720  1.00  0.00    -0.203 F 
ATOM    121  F   UNL A   1      38.447  34.417  32.509  1.00  0.00    -0.200 F 
ATOM    122  C   UNL A   1      37.598  32.223  32.715  1.00  0.00     0.200 A 
ATOM    123  F   UNL A   1      36.799  30.010  32.870  1.00  0.00    -0.200 F 
ATOM    124  F   UNL A   1      36.341  32.686  32.670  1.00  0.00    -0.200 F 
ENDBRANCH  86 114
BRANCH 101 125
ATOM    125  C   UNL A   1      44.779  25.685  33.256  1.00  0.00     0.064 A 
ATOM    126  C   UNL A   1      46.155  25.417  33.319  1.00  0.00     0.173 A 
ATOM    127  C   UNL A   1      43.940  24.863  34.034  1.00  0.00     0.173 A 
ATOM    128  F   UNL A   1      47.023  26.134  32.591  1.00  0.00    -0.203 F 
ATOM    129  C   UNL A   1      46.662  24.398  34.127  1.00  0.00     0.198 A 
ATOM    130  C   UNL A   1      44.444  23.816  34.801  1.00  0.00     0.198 A 
ATOM    131  F   UNL A   1      42.616  25.074  34.085  1.00  0.00    -0.203 F 
ATOM    132  F   UNL A   1      47.985  24.200  34.195  1.00  0.00    -0.200 F 
ATOM    133  C   UNL A   1      45.806  23.589  34.854  1.00  0.00     0.200 A 
ATOM    134  F   UNL A   1      43.603  23.032  35.493  1.00  0.00    -0.200 F 
ATOM    135  F   UNL A   1      46.293  22.594  35.610  1.00  0.00    -0.200 F 
ENDBRANCH 101 125
ENDBRANCH  66  69
ENDBRANCH  56  59
ENDBRANCH  52  55
ENDBRANCH  49  52
ENDBRANCH  46  49
ENDBRANCH  43  46
ENDBRANCH   1  43
TORSDOF 18
ENDMDL
MODEL 5
REMARK VINA RESULT:     -12.0      1.562      2.791
REMARK SMILES Cc1ccc(Nc2c(C)cccc2Cl)c(CC(=O)NCCCCCCNC(=O)c2ccc(-c3c4nc(c(-c5c(F)c(F)c(F)c(F)c5F)c5ccc([nH]5)c(-c5c(F)c(F)c(F)c(F)c5F)c5nc(c(-c6c(F)c(F)c(F)c(F)c6F)c6ccc3[nH]6)C=C5)C=C4)cc2)c1
REMARK SMILES IDX 21 1 20 4 19 7 17 8 18 9 16 11 15 14 2 15 3 16 92 17 4 18
REMARK SMILES IDX 5 21 1 23 6 27 7 29 8 30 13 31 10 32 12 33 14 34 11 35 9 39
REMARK SMILES IDX 22 43 23 46 24 49 25 52 26 55 27 56 28 58 29 59 30 60 91 61
REMARK SMILES IDX 31 62 90 64 32 66 33 69 34 70 84 71 35 72 89 73 83 74 85 75
REMARK SMILES IDX 36 76 88 77 82 79 81 81 37 83 69 86 49 87 68 88 50 89 53 90
REMARK SMILES IDX 67 91 86 92 51 93 52 95 66 97 87 98 54 101 38 103 39 104
REMARK SMILES IDX 47 105 40 106 41 107 45 108 48 109 42 110 43 111 46 112
REMARK SMILES IDX 44 113 70 114 71 115 79 116 72 117 73 118 77 119 80 120
REMARK SMILES IDX 74 121 75 122 78 123 76 124 55 125 56 126 64 127 57 128
REMARK SMILES IDX 58 129 62 130 65 131 59 132 60 133 63 134 61 135
REMARK H PARENT 21 2 21 3 20 5 20 6 19 10 16 12 16 13 3 19 92 20 4 22 1 24
REMARK H PARENT 1 25 1 26 6 28 10 36 12 37 11 38 9 40 9 41 9 42 22 44 22 45
REMARK H PARENT 23 47 23 48 24 50 24 51 25 53 25 54 26 57 30 63 91 65 31 67
REMARK H PARENT 90 68 89 78 83 80 85 82 88 84 82 85 50 94 53 96 86 99 51 100
REMARK H PARENT 87 102
REMARK Flexibility Score: inf
ROOT
ATOM      1  C   UNL A   1      32.289  27.023  26.714  1.00  0.00    -0.036 C 
ATOM      2  H   UNL A   1      32.804  27.113  27.648  1.00  0.00     0.028 H 
ATOM      3  H   UNL A   1      31.340  26.536  26.795  1.00  0.00     0.028 H 
ENDROOT
BRANCH   1   4
ATOM      4  C   UNL A   1      33.139  26.149  25.788  1.00  0.00     0.017 C 
ATOM      5  H   UNL A   1      32.557  25.891  24.928  1.00  0.00     0.049 H 
ATOM      6  H   UNL A   1      34.009  26.707  25.513  1.00  0.00     0.049 H 
BRANCH   4   7
ATOM      7  N   UNL A   1      33.577  24.932  26.439  1.00  0.00    -0.356 N 
ATOM      8  C   UNL A   1      32.950  23.724  26.501  1.00  0.00     0.224 C 
ATOM      9  O   UNL A   1      33.434  22.847  27.221  1.00  0.00    -0.275 OA
ATOM     10  H   UNL A   1      34.445  24.985  26.900  1.00  0.00     0.163 HD
BRANCH   8  11
ATOM     11  C   UNL A   1      31.678  23.464  25.714  1.00  0.00     0.054 C 
ATOM     12  H   UNL A   1      30.906  23.188  26.402  1.00  0.00     0.042 H 
ATOM     13  H   UNL A   1      31.452  24.366  25.183  1.00  0.00     0.042 H 
BRANCH  11  14
ATOM     14  C   UNL A   1      31.807  22.367  24.679  1.00  0.00    -0.015 A 
ATOM     15  C   UNL A   1      32.527  20.073  24.204  1.00  0.00    -0.051 A 
ATOM     16  C   UNL A   1      32.211  20.272  22.862  1.00  0.00    -0.057 A 
ATOM     17  C   UNL A   1      32.301  21.115  25.106  1.00  0.00    -0.054 A 
ATOM     18  C   UNL A   1      31.677  21.491  22.436  1.00  0.00    -0.038 A 
ATOM     19  H   UNL A   1      32.371  19.514  22.179  1.00  0.00     0.063 H 
ATOM     20  H   UNL A   1      32.500  20.967  26.107  1.00  0.00     0.063 H 
ATOM     21  C   UNL A   1      31.466  22.559  23.323  1.00  0.00     0.042 A 
ATOM     22  H   UNL A   1      31.432  21.610  21.441  1.00  0.00     0.064 H 
BRANCH  15  23
ATOM     23  C   UNL A   1      33.093  18.762  24.659  1.00  0.00    -0.040 C 
ATOM     24  H   UNL A   1      32.920  18.019  23.910  1.00  0.00     0.028 H 
ATOM     25  H   UNL A   1      32.618  18.466  25.571  1.00  0.00     0.028 H 
ATOM     26  H   UNL A   1      34.146  18.865  24.823  1.00  0.00     0.028 H 
ENDBRANCH  15  23
BRANCH  21  27
ATOM     27  N   UNL A   1      30.862  23.758  22.886  1.00  0.00    -0.354 N 
ATOM     28  H   UNL A   1      29.920  23.681  22.608  1.00  0.00     0.167 HD
BRANCH  27  29
ATOM     29  C   UNL A   1      31.422  25.055  22.788  1.00  0.00     0.060 A 
ATOM     30  C   UNL A   1      30.708  26.205  23.189  1.00  0.00    -0.026 A 
ATOM     31  C   UNL A   1      32.700  25.219  22.210  1.00  0.00     0.064 A 
ATOM     32  C   UNL A   1      31.260  27.477  22.953  1.00  0.00    -0.057 A 
ATOM     33  C   UNL A   1      33.242  26.489  22.002  1.00  0.00    -0.041 A 
ATOM     34  Cl  UNL A   1      33.631  23.848  21.703  1.00  0.00    -0.082 Cl
ATOM     35  C   UNL A   1      32.516  27.619  22.363  1.00  0.00    -0.060 A 
ATOM     36  H   UNL A   1      30.727  28.320  23.221  1.00  0.00     0.063 H 
ATOM     37  H   UNL A   1      34.180  26.588  21.582  1.00  0.00     0.064 H 
ATOM     38  H   UNL A   1      32.906  28.559  22.195  1.00  0.00     0.062 H 
BRANCH  30  39
ATOM     39  C   UNL A   1      29.368  26.135  23.872  1.00  0.00    -0.038 C 
ATOM     40  H   UNL A   1      28.600  26.403  23.177  1.00  0.00     0.028 H 
ATOM     41  H   UNL A   1      29.354  26.814  24.699  1.00  0.00     0.028 H 
ATOM     42  H   UNL A   1      29.199  25.140  24.224  1.00  0.00     0.028 H 
ENDBRANCH  30  39
ENDBRANCH  27  29
ENDBRANCH  21  27
ENDBRANCH  11  14
ENDBRANCH   8  11
ENDBRANCH   4   7
ENDBRANCH   1   4
BRANCH   1  43
ATOM     43  C   UNL A   1      32.000  28.439  26.192  1.00  0.00    -0.052 C 
ATOM     44  H   UNL A   1      31.110  28.392  25.600  1.00  0.00     0.027 H 
ATOM     45  H   UNL A   1      32.878  28.726  25.651  1.00  0.00     0.027 H 
BRANCH  43  46
ATOM     46  C   UNL A   1      31.800  29.534  27.251  1.00  0.00    -0.052 C 
ATOM     47  H   UNL A   1      31.954  29.090  28.213  1.00  0.00     0.027 H 
ATOM     48  H   UNL A   1      30.811  29.910  27.096  1.00  0.00     0.027 H 
BRANCH  46  49
ATOM     49  C   UNL A   1      32.725  30.748  27.144  1.00  0.00    -0.036 C 
ATOM     50  H   UNL A   1      32.456  31.443  27.912  1.00  0.00     0.028 H 
ATOM     51  H   UNL A   1      32.595  31.145  26.159  1.00  0.00     0.028 H 
BRANCH  49  52
ATOM     52  C   UNL A   1      34.206  30.426  27.290  1.00  0.00     0.018 C 
ATOM     53  H   UNL A   1      34.651  30.432  26.317  1.00  0.00     0.049 H 
ATOM     54  H   UNL A   1      34.273  29.469  27.763  1.00  0.00     0.049 H 
BRANCH  52  55
ATOM     55  N   UNL A   1      34.928  31.368  28.132  1.00  0.00    -0.352 N 
ATOM     56  C   UNL A   1      36.062  31.193  28.910  1.00  0.00     0.251 C 
ATOM     57  H   UNL A   1      34.552  32.278  28.150  1.00  0.00     0.163 HD
ATOM     58  O   UNL A   1      36.462  32.101  29.611  1.00  0.00    -0.269 OA
BRANCH  56  59
ATOM     59  C   UNL A   1      36.872  29.953  28.769  1.00  0.00     0.039 A 
ATOM     60  C   UNL A   1      37.019  29.149  29.908  1.00  0.00    -0.049 A 
ATOM     61  C   UNL A   1      37.638  29.697  27.637  1.00  0.00    -0.049 A 
ATOM     62  C   UNL A   1      38.111  28.291  30.004  1.00  0.00    -0.053 A 
ATOM     63  H   UNL A   1      36.323  29.193  30.668  1.00  0.00     0.063 H 
ATOM     64  C   UNL A   1      38.774  28.924  27.764  1.00  0.00    -0.053 A 
ATOM     65  H   UNL A   1      37.362  30.078  26.718  1.00  0.00     0.063 H 
ATOM     66  C   UNL A   1      39.054  28.296  28.981  1.00  0.00    -0.014 A 
ATOM     67  H   UNL A   1      38.218  27.664  30.817  1.00  0.00     0.063 H 
ATOM     68  H   UNL A   1      39.414  28.809  26.963  1.00  0.00     0.063 H 
BRANCH  66  69
ATOM     69  C   UNL A   1      40.430  27.844  29.149  1.00  0.00     0.031 A 
ATOM     70  C   UNL A   1      40.854  26.509  28.690  1.00  0.00     0.074 A 
ATOM     71  C   UNL A   1      41.348  28.750  29.560  1.00  0.00     0.049 A 
ATOM     72  N   UNL A   1      42.021  26.011  28.922  1.00  0.00    -0.248 NA
ATOM     73  C   UNL A   1      39.970  25.585  27.983  1.00  0.00    -0.034 C 
ATOM     74  C   UNL A   1      42.802  28.677  29.425  1.00  0.00    -0.036 A 
ATOM     75  N   UNL A   1      41.138  29.858  30.402  1.00  0.00    -0.354 N 
ATOM     76  C   UNL A   1      42.147  24.872  28.168  1.00  0.00     0.074 A 
ATOM     77  C   UNL A   1      40.810  24.578  27.718  1.00  0.00    -0.034 C 
ATOM     78  H   UNL A   1      38.969  25.682  27.752  1.00  0.00     0.065 H 
ATOM     79  C   UNL A   1      43.362  29.455  30.364  1.00  0.00    -0.036 A 
ATOM     80  H   UNL A   1      43.313  28.118  28.725  1.00  0.00     0.065 H 
ATOM     81  C   UNL A   1      42.290  29.917  31.226  1.00  0.00     0.049 A 
ATOM     82  H   UNL A   1      40.360  30.462  30.415  1.00  0.00     0.167 HD
ATOM     83  C   UNL A   1      43.399  24.397  27.919  1.00  0.00     0.037 A 
ATOM     84  H   UNL A   1      40.535  23.700  27.250  1.00  0.00     0.065 H 
ATOM     85  H   UNL A   1      44.365  29.684  30.454  1.00  0.00     0.065 H 
ATOM     86  C   UNL A   1      42.199  29.657  32.564  1.00  0.00     0.037 A 
ATOM     87  C   UNL A   1      44.372  24.979  28.847  1.00  0.00     0.049 A 
ATOM     88  C   UNL A   1      42.998  28.458  33.039  1.00  0.00     0.074 A 
ATOM     89  C   UNL A   1      45.397  25.906  28.761  1.00  0.00    -0.036 A 
ATOM     90  N   UNL A   1      44.180  24.749  30.200  1.00  0.00    -0.354 N 
ATOM     91  N   UNL A   1      43.665  27.656  32.256  1.00  0.00    -0.248 NA
ATOM     92  C   UNL A   1      43.014  28.012  34.434  1.00  0.00    -0.034 C 
ATOM     93  C   UNL A   1      45.755  26.285  30.094  1.00  0.00    -0.036 A 
ATOM     94  H   UNL A   1      45.825  26.260  27.892  1.00  0.00     0.065 H 
ATOM     95  C   UNL A   1      44.972  25.564  30.979  1.00  0.00     0.049 A 
ATOM     96  H   UNL A   1      43.552  24.082  30.561  1.00  0.00     0.167 HD
ATOM     97  C   UNL A   1      44.128  26.595  32.983  1.00  0.00     0.074 A 
ATOM     98  C   UNL A   1      43.704  26.861  34.344  1.00  0.00    -0.034 C 
ATOM     99  H   UNL A   1      42.604  28.461  35.267  1.00  0.00     0.065 H 
ATOM    100  H   UNL A   1      46.474  26.979  30.352  1.00  0.00     0.065 H 
ATOM    101  C   UNL A   1      44.786  25.542  32.420  1.00  0.00     0.037 A 
ATOM    102  H   UNL A   1      43.906  26.243  35.145  1.00  0.00     0.065 H 
BRANCH  83 103
ATOM    103  C   UNL A   1      43.786  23.493  26.767  1.00  0.00     0.064 A 
ATOM    104  C   UNL A   1      43.346  22.150  26.745  1.00  0.00     0.173 A 
ATOM    105  C   UNL A   1      44.684  23.831  25.732  1.00  0.00     0.173 A 
ATOM    106  F   UNL A   1      42.502  21.680  27.673  1.00  0.00    -0.203 F 
ATOM    107  C   UNL A   1      43.779  21.233  25.780  1.00  0.00     0.198 A 
ATOM    108  C   UNL A   1      45.073  22.927  24.739  1.00  0.00     0.198 A 
ATOM    109  F   UNL A   1      45.283  25.023  25.662  1.00  0.00    -0.203 F 
ATOM    110  F   UNL A   1      43.376  19.956  25.849  1.00  0.00    -0.200 F 
ATOM    111  C   UNL A   1      44.634  21.624  24.771  1.00  0.00     0.200 A 
ATOM    112  F   UNL A   1      45.909  23.330  23.770  1.00  0.00    -0.200 F 
ATOM    113  F   UNL A   1      45.051  20.747  23.848  1.00  0.00    -0.200 F 
ENDBRANCH  83 103
BRANCH  86 114
ATOM    114  C   UNL A   1      40.903  30.096  33.146  1.00  0.00     0.064 A 
ATOM    115  C   UNL A   1      40.685  31.475  33.338  1.00  0.00     0.173 A 
ATOM    116  C   UNL A   1      39.784  29.256  33.157  1.00  0.00     0.173 A 
ATOM    117  F   UNL A   1      41.726  32.324  33.337  1.00  0.00    -0.203 F 
ATOM    118  C   UNL A   1      39.399  32.001  33.414  1.00  0.00     0.198 A 
ATOM    119  C   UNL A   1      38.496  29.785  33.254  1.00  0.00     0.198 A 
ATOM    120  F   UNL A   1      39.921  27.938  32.956  1.00  0.00    -0.203 F 
ATOM    121  F   UNL A   1      39.221  33.328  33.480  1.00  0.00    -0.200 F 
ATOM    122  C   UNL A   1      38.304  31.156  33.345  1.00  0.00     0.200 A 
ATOM    123  F   UNL A   1      37.436  28.971  33.158  1.00  0.00    -0.200 F 
ATOM    124  F   UNL A   1      37.063  31.663  33.322  1.00  0.00    -0.200 F 
ENDBRANCH  86 114
BRANCH 101 125
ATOM    125  C   UNL A   1      45.287  24.384  33.225  1.00  0.00     0.064 A 
ATOM    126  C   UNL A   1      44.484  23.263  33.486  1.00  0.00     0.173 A 
ATOM    127  C   UNL A   1      46.548  24.415  33.852  1.00  0.00     0.173 A 
ATOM    128  F   UNL A   1      43.258  23.163  32.951  1.00  0.00    -0.203 F 
ATOM    129  C   UNL A   1      44.925  22.227  34.312  1.00  0.00     0.198 A 
ATOM    130  C   UNL A   1      46.966  23.404  34.714  1.00  0.00     0.198 A 
ATOM    131  F   UNL A   1      47.412  25.416  33.622  1.00  0.00    -0.203 F 
ATOM    132  F   UNL A   1      44.148  21.153  34.503  1.00  0.00    -0.200 F 
ATOM    133  C   UNL A   1      46.158  22.306  34.937  1.00  0.00     0.200 A 
ATOM    134  F   UNL A   1      48.158  23.497  35.321  1.00  0.00    -0.200 F 
ATOM    135  F   UNL A   1      46.568  21.322  35.750  1.00  0.00    -0.200 F 
ENDBRANCH 101 125
ENDBRANCH  66  69
ENDBRANCH  56  59
ENDBRANCH  52  55
ENDBRANCH  49  52
ENDBRANCH  46  49
ENDBRANCH  43  46
ENDBRANCH   1  43
TORSDOF 18
ENDMDL
MODEL 6
REMARK VINA RESULT:     -11.9      4.205     10.103
REMARK SMILES Cc1ccc(Nc2c(C)cccc2Cl)c(CC(=O)NCCCCCCNC(=O)c2ccc(-c3c4nc(c(-c5c(F)c(F)c(F)c(F)c5F)c5ccc([nH]5)c(-c5c(F)c(F)c(F)c(F)c5F)c5nc(c(-c6c(F)c(F)c(F)c(F)c6F)c6ccc3[nH]6)C=C5)C=C4)cc2)c1
REMARK SMILES IDX 21 1 20 4 19 7 17 8 18 9 16 11 15 14 2 15 3 16 92 17 4 18
REMARK SMILES IDX 5 21 1 23 6 27 7 29 8 30 13 31 10 32 12 33 14 34 11 35 9 39
REMARK SMILES IDX 22 43 23 46 24 49 25 52 26 55 27 56 28 58 29 59 30 60 91 61
REMARK SMILES IDX 31 62 90 64 32 66 33 69 34 70 84 71 35 72 89 73 83 74 85 75
REMARK SMILES IDX 36 76 88 77 82 79 81 81 37 83 69 86 49 87 68 88 50 89 53 90
REMARK SMILES IDX 67 91 86 92 51 93 52 95 66 97 87 98 54 101 38 103 39 104
REMARK SMILES IDX 47 105 40 106 41 107 45 108 48 109 42 110 43 111 46 112
REMARK SMILES IDX 44 113 70 114 71 115 79 116 72 117 73 118 77 119 80 120
REMARK SMILES IDX 74 121 75 122 78 123 76 124 55 125 56 126 64 127 57 128
REMARK SMILES IDX 58 129 62 130 65 131 59 132 60 133 63 134 61 135
REMARK H PARENT 21 2 21 3 20 5 20 6 19 10 16 12 16 13 3 19 92 20 4 22 1 24
REMARK H PARENT 1 25 1 26 6 28 10 36 12 37 11 38 9 40 9 41 9 42 22 44 22 45
REMARK H PARENT 23 47 23 48 24 50 24 51 25 53 25 54 26 57 30 63 91 65 31 67
REMARK H PARENT 90 68 89 78 83 80 85 82 88 84 82 85 50 94 53 96 86 99 51 100
REMARK H PARENT 87 102
REMARK Flexibility Score: inf
ROOT
ATOM      1  C   UNL A   1      39.978  21.191  26.285  1.00  0.00    -0.036 C 
ATOM      2  H   UNL A   1      39.822  21.405  27.321  1.00  0.00     0.028 H 
ATOM      3  H   UNL A   1      40.687  21.840  25.817  1.00  0.00     0.028 H 
ENDROOT
BRANCH   1   4
ATOM      4  C   UNL A   1      38.652  21.407  25.551  1.00  0.00     0.017 C 
ATOM      5  H   UNL A   1      38.858  21.616  24.522  1.00  0.00     0.049 H 
ATOM      6  H   UNL A   1      38.067  20.517  25.656  1.00  0.00     0.049 H 
BRANCH   4   7
ATOM      7  N   UNL A   1      37.895  22.506  26.110  1.00  0.00    -0.356 N 
ATOM      8  C   UNL A   1      36.930  23.266  25.519  1.00  0.00     0.224 C 
ATOM      9  O   UNL A   1      36.497  24.246  26.131  1.00  0.00    -0.275 OA
ATOM     10  H   UNL A   1      38.105  22.737  27.043  1.00  0.00     0.163 HD
BRANCH   8  11
ATOM     11  C   UNL A   1      36.409  22.926  24.134  1.00  0.00     0.054 C 
ATOM     12  H   UNL A   1      36.416  23.817  23.542  1.00  0.00     0.042 H 
ATOM     13  H   UNL A   1      37.050  22.165  23.740  1.00  0.00     0.042 H 
BRANCH  11  14
ATOM     14  C   UNL A   1      35.004  22.362  24.127  1.00  0.00    -0.015 A 
ATOM     15  C   UNL A   1      33.573  20.420  24.563  1.00  0.00    -0.051 A 
ATOM     16  C   UNL A   1      32.484  21.136  24.074  1.00  0.00    -0.057 A 
ATOM     17  C   UNL A   1      34.821  21.046  24.606  1.00  0.00    -0.054 A 
ATOM     18  C   UNL A   1      32.644  22.454  23.640  1.00  0.00    -0.038 A 
ATOM     19  H   UNL A   1      31.554  20.691  24.032  1.00  0.00     0.063 H 
ATOM     20  H   UNL A   1      35.628  20.536  24.999  1.00  0.00     0.063 H 
ATOM     21  C   UNL A   1      33.895  23.094  23.654  1.00  0.00     0.042 A 
ATOM     22  H   UNL A   1      31.819  22.973  23.300  1.00  0.00     0.064 H 
BRANCH  15  23
ATOM     23  C   UNL A   1      33.398  19.007  25.033  1.00  0.00    -0.040 C 
ATOM     24  H   UNL A   1      33.842  18.895  25.999  1.00  0.00     0.028 H 
ATOM     25  H   UNL A   1      33.872  18.341  24.343  1.00  0.00     0.028 H 
ATOM     26  H   UNL A   1      32.355  18.777  25.092  1.00  0.00     0.028 H 
ENDBRANCH  15  23
BRANCH  21  27
ATOM     27  N   UNL A   1      34.022  24.448  23.275  1.00  0.00    -0.354 N 
ATOM     28  H   UNL A   1      34.895  24.702  22.897  1.00  0.00     0.167 HD
BRANCH  27  29
ATOM     29  C   UNL A   1      33.070  25.493  23.364  1.00  0.00     0.060 A 
ATOM     30  C   UNL A   1      32.479  26.061  22.215  1.00  0.00    -0.026 A 
ATOM     31  C   UNL A   1      32.751  26.036  24.627  1.00  0.00     0.064 A 
ATOM     32  C   UNL A   1      31.637  27.179  22.352  1.00  0.00    -0.057 A 
ATOM     33  C   UNL A   1      31.897  27.135  24.748  1.00  0.00    -0.041 A 
ATOM     34  Cl  UNL A   1      33.437  25.382  26.078  1.00  0.00    -0.082 Cl
ATOM     35  C   UNL A   1      31.349  27.713  23.608  1.00  0.00    -0.060 A 
ATOM     36  H   UNL A   1      31.226  27.612  21.510  1.00  0.00     0.063 H 
ATOM     37  H   UNL A   1      31.672  27.515  25.681  1.00  0.00     0.064 H 
ATOM     38  H   UNL A   1      30.732  28.535  23.691  1.00  0.00     0.062 H 
BRANCH  30  39
ATOM     39  C   UNL A   1      32.703  25.515  20.830  1.00  0.00    -0.038 C 
ATOM     40  H   UNL A   1      32.066  24.669  20.672  1.00  0.00     0.028 H 
ATOM     41  H   UNL A   1      33.725  25.214  20.726  1.00  0.00     0.028 H 
ATOM     42  H   UNL A   1      32.478  26.270  20.107  1.00  0.00     0.028 H 
ENDBRANCH  30  39
ENDBRANCH  27  29
ENDBRANCH  21  27
ENDBRANCH  11  14
ENDBRANCH   8  11
ENDBRANCH   4   7
ENDBRANCH   1   4
BRANCH   1  43
ATOM     43  C   UNL A   1      40.561  19.773  26.175  1.00  0.00    -0.052 C 
ATOM     44  H   UNL A   1      40.916  19.643  25.174  1.00  0.00     0.027 H 
ATOM     45  H   UNL A   1      39.762  19.116  26.451  1.00  0.00     0.027 H 
BRANCH  43  46
ATOM     46  C   UNL A   1      41.716  19.430  27.129  1.00  0.00    -0.052 C 
ATOM     47  H   UNL A   1      41.327  18.795  27.899  1.00  0.00     0.027 H 
ATOM     48  H   UNL A   1      42.088  20.368  27.482  1.00  0.00     0.027 H 
BRANCH  46  49
ATOM     49  C   UNL A   1      42.917  18.720  26.501  1.00  0.00    -0.036 C 
ATOM     50  H   UNL A   1      42.633  17.711  26.282  1.00  0.00     0.028 H 
ATOM     51  H   UNL A   1      43.715  18.784  27.209  1.00  0.00     0.028 H 
BRANCH  49  52
ATOM     52  C   UNL A   1      43.425  19.360  25.216  1.00  0.00     0.018 C 
ATOM     53  H   UNL A   1      42.925  20.297  25.085  1.00  0.00     0.049 H 
ATOM     54  H   UNL A   1      43.218  18.673  24.421  1.00  0.00     0.049 H 
BRANCH  52  55
ATOM     55  N   UNL A   1      44.860  19.598  25.209  1.00  0.00    -0.352 N 
ATOM     56  C   UNL A   1      45.575  20.773  25.036  1.00  0.00     0.251 C 
ATOM     57  H   UNL A   1      45.412  18.796  25.352  1.00  0.00     0.163 HD
ATOM     58  O   UNL A   1      46.789  20.741  24.983  1.00  0.00    -0.269 OA
BRANCH  56  59
ATOM     59  C   UNL A   1      44.870  22.082  25.072  1.00  0.00     0.039 A 
ATOM     60  C   UNL A   1      45.563  23.198  24.583  1.00  0.00    -0.049 A 
ATOM     61  C   UNL A   1      43.670  22.255  25.754  1.00  0.00    -0.049 A 
ATOM     62  C   UNL A   1      45.204  24.472  25.018  1.00  0.00    -0.053 A 
ATOM     63  H   UNL A   1      46.332  23.077  23.906  1.00  0.00     0.063 H 
ATOM     64  C   UNL A   1      43.370  23.501  26.265  1.00  0.00    -0.053 A 
ATOM     65  H   UNL A   1      43.015  21.467  25.874  1.00  0.00     0.063 H 
ATOM     66  C   UNL A   1      44.195  24.591  25.968  1.00  0.00    -0.014 A 
ATOM     67  H   UNL A   1      45.677  25.309  24.642  1.00  0.00     0.063 H 
ATOM     68  H   UNL A   1      42.540  23.629  26.864  1.00  0.00     0.063 H 
BRANCH  66  69
ATOM     69  C   UNL A   1      44.043  25.746  26.844  1.00  0.00     0.031 A 
ATOM     70  C   UNL A   1      42.801  26.541  26.846  1.00  0.00     0.074 A 
ATOM     71  C   UNL A   1      44.990  25.955  27.788  1.00  0.00     0.049 A 
ATOM     72  N   UNL A   1      42.658  27.641  27.505  1.00  0.00    -0.248 NA
ATOM     73  C   UNL A   1      41.629  26.200  26.044  1.00  0.00    -0.034 C 
ATOM     74  C   UNL A   1      44.883  26.759  29.004  1.00  0.00    -0.036 A 
ATOM     75  N   UNL A   1      46.358  25.631  27.712  1.00  0.00    -0.354 N 
ATOM     76  C   UNL A   1      41.330  27.983  27.464  1.00  0.00     0.074 A 
ATOM     77  C   UNL A   1      40.766  27.143  26.438  1.00  0.00    -0.034 C 
ATOM     78  H   UNL A   1      41.501  25.439  25.360  1.00  0.00     0.065 H 
ATOM     79  C   UNL A   1      46.114  27.130  29.386  1.00  0.00    -0.036 A 
ATOM     80  H   UNL A   1      44.004  27.002  29.488  1.00  0.00     0.065 H 
ATOM     81  C   UNL A   1      47.027  26.713  28.338  1.00  0.00     0.049 A 
ATOM     82  H   UNL A   1      46.763  24.827  27.311  1.00  0.00     0.167 HD
ATOM     83  C   UNL A   1      40.857  28.851  28.401  1.00  0.00     0.037 A 
ATOM     84  H   UNL A   1      39.813  27.256  26.055  1.00  0.00     0.065 H 
ATOM     85  H   UNL A   1      46.364  27.618  30.261  1.00  0.00     0.065 H 
ATOM     86  C   UNL A   1      47.813  27.558  27.607  1.00  0.00     0.037 A 
ATOM     87  C   UNL A   1      41.957  29.572  29.047  1.00  0.00     0.049 A 
ATOM     88  C   UNL A   1      47.351  29.004  27.585  1.00  0.00     0.074 A 
ATOM     89  C   UNL A   1      42.562  29.553  30.292  1.00  0.00    -0.036 A 
ATOM     90  N   UNL A   1      42.772  30.348  28.240  1.00  0.00    -0.354 N 
ATOM     91  N   UNL A   1      46.250  29.437  28.134  1.00  0.00    -0.248 NA
ATOM     92  C   UNL A   1      48.053  30.054  26.844  1.00  0.00    -0.034 C 
ATOM     93  C   UNL A   1      43.798  30.267  30.187  1.00  0.00    -0.036 A 
ATOM     94  H   UNL A   1      42.189  29.105  31.143  1.00  0.00     0.065 H 
ATOM     95  C   UNL A   1      43.920  30.743  28.892  1.00  0.00     0.049 A 
ATOM     96  H   UNL A   1      42.556  30.590  27.310  1.00  0.00     0.167 HD
ATOM     97  C   UNL A   1      46.057  30.746  27.787  1.00  0.00     0.074 A 
ATOM     98  C   UNL A   1      47.214  31.094  26.985  1.00  0.00    -0.034 C 
ATOM     99  H   UNL A   1      48.955  30.008  26.345  1.00  0.00     0.065 H 
ATOM    100  H   UNL A   1      44.483  30.405  30.946  1.00  0.00     0.065 H 
ATOM    101  C   UNL A   1      44.941  31.447  28.137  1.00  0.00     0.037 A 
ATOM    102  H   UNL A   1      47.373  32.026  26.572  1.00  0.00     0.065 H 
BRANCH  83 103
ATOM    103  C   UNL A   1      39.411  28.981  28.832  1.00  0.00     0.064 A 
ATOM    104  C   UNL A   1      38.452  29.503  27.935  1.00  0.00     0.173 A 
ATOM    105  C   UNL A   1      38.924  28.742  30.135  1.00  0.00     0.173 A 
ATOM    106  F   UNL A   1      38.772  29.794  26.667  1.00  0.00    -0.203 F 
ATOM    107  C   UNL A   1      37.132  29.772  28.318  1.00  0.00     0.198 A 
ATOM    108  C   UNL A   1      37.592  28.960  30.499  1.00  0.00     0.198 A 
ATOM    109  F   UNL A   1      39.716  28.351  31.137  1.00  0.00    -0.203 F 
ATOM    110  F   UNL A   1      36.286  30.327  27.439  1.00  0.00    -0.200 F 
ATOM    111  C   UNL A   1      36.699  29.490  29.596  1.00  0.00     0.200 A 
ATOM    112  F   UNL A   1      37.196  28.682  31.751  1.00  0.00    -0.200 F 
ATOM    113  F   UNL A   1      35.437  29.748  29.965  1.00  0.00    -0.200 F 
ENDBRANCH  83 103
BRANCH  86 114
ATOM    114  C   UNL A   1      48.501  26.871  26.482  1.00  0.00     0.064 A 
ATOM    115  C   UNL A   1      47.973  27.015  25.183  1.00  0.00     0.173 A 
ATOM    116  C   UNL A   1      49.819  26.415  26.598  1.00  0.00     0.173 A 
ATOM    117  F   UNL A   1      46.712  27.449  25.017  1.00  0.00    -0.203 F 
ATOM    118  C   UNL A   1      48.766  26.831  24.055  1.00  0.00     0.198 A 
ATOM    119  C   UNL A   1      50.605  26.212  25.463  1.00  0.00     0.198 A 
ATOM    120  F   UNL A   1      50.388  26.280  27.804  1.00  0.00    -0.203 F 
ATOM    121  F   UNL A   1      48.268  27.089  22.837  1.00  0.00    -0.200 F 
ATOM    122  C   UNL A   1      50.091  26.454  24.198  1.00  0.00     0.200 A 
ATOM    123  F   UNL A   1      51.895  25.876  25.603  1.00  0.00    -0.200 F 
ATOM    124  F   UNL A   1      50.886  26.366  23.122  1.00  0.00    -0.200 F 
ENDBRANCH  86 114
BRANCH 101 125
ATOM    125  C   UNL A   1      44.739  32.879  27.751  1.00  0.00     0.064 A 
ATOM    126  C   UNL A   1      45.073  33.931  28.616  1.00  0.00     0.173 A 
ATOM    127  C   UNL A   1      44.099  33.232  26.546  1.00  0.00     0.173 A 
ATOM    128  F   UNL A   1      45.661  33.684  29.795  1.00  0.00    -0.203 F 
ATOM    129  C   UNL A   1      44.799  35.260  28.286  1.00  0.00     0.198 A 
ATOM    130  C   UNL A   1      43.782  34.553  26.242  1.00  0.00     0.198 A 
ATOM    131  F   UNL A   1      43.789  32.303  25.627  1.00  0.00    -0.203 F 
ATOM    132  F   UNL A   1      45.172  36.241  29.118  1.00  0.00    -0.200 F 
ATOM    133  C   UNL A   1      44.140  35.568  27.108  1.00  0.00     0.200 A 
ATOM    134  F   UNL A   1      43.135  34.837  25.102  1.00  0.00    -0.200 F 
ATOM    135  F   UNL A   1      43.855  36.843  26.806  1.00  0.00    -0.200 F 
ENDBRANCH 101 125
ENDBRANCH  66  69
ENDBRANCH  56  59
ENDBRANCH  52  55
ENDBRANCH  49  52
ENDBRANCH  46  49
ENDBRANCH  43  46
ENDBRANCH   1  43
TORSDOF 18
ENDMDL
MODEL 7
REMARK VINA RESULT:     -11.7      4.045     10.257
REMARK SMILES Cc1ccc(Nc2c(C)cccc2Cl)c(CC(=O)NCCCCCCNC(=O)c2ccc(-c3c4nc(c(-c5c(F)c(F)c(F)c(F)c5F)c5ccc([nH]5)c(-c5c(F)c(F)c(F)c(F)c5F)c5nc(c(-c6c(F)c(F)c(F)c(F)c6F)c6ccc3[nH]6)C=C5)C=C4)cc2)c1
REMARK SMILES IDX 21 1 20 4 19 7 17 8 18 9 16 11 15 14 2 15 3 16 92 17 4 18
REMARK SMILES IDX 5 21 1 23 6 27 7 29 8 30 13 31 10 32 12 33 14 34 11 35 9 39
REMARK SMILES IDX 22 43 23 46 24 49 25 52 26 55 27 56 28 58 29 59 30 60 91 61
REMARK SMILES IDX 31 62 90 64 32 66 33 69 34 70 84 71 35 72 89 73 83 74 85 75
REMARK SMILES IDX 36 76 88 77 82 79 81 81 37 83 69 86 49 87 68 88 50 89 53 90
REMARK SMILES IDX 67 91 86 92 51 93 52 95 66 97 87 98 54 101 38 103 39 104
REMARK SMILES IDX 47 105 40 106 41 107 45 108 48 109 42 110 43 111 46 112
REMARK SMILES IDX 44 113 70 114 71 115 79 116 72 117 73 118 77 119 80 120
REMARK SMILES IDX 74 121 75 122 78 123 76 124 55 125 56 126 64 127 57 128
REMARK SMILES IDX 58 129 62 130 65 131 59 132 60 133 63 134 61 135
REMARK H PARENT 21 2 21 3 20 5 20 6 19 10 16 12 16 13 3 19 92 20 4 22 1 24
REMARK H PARENT 1 25 1 26 6 28 10 36 12 37 11 38 9 40 9 41 9 42 22 44 22 45
REMARK H PARENT 23 47 23 48 24 50 24 51 25 53 25 54 26 57 30 63 91 65 31 67
REMARK H PARENT 90 68 89 78 83 80 85 82 88 84 82 85 50 94 53 96 86 99 51 100
REMARK H PARENT 87 102
REMARK Flexibility Score: inf
ROOT
ATOM      1  C   UNL A   1      39.296  21.583  26.082  1.00  0.00    -0.036 C 
ATOM      2  H   UNL A   1      39.043  21.983  27.041  1.00  0.00     0.028 H 
ATOM      3  H   UNL A   1      39.807  22.279  25.450  1.00  0.00     0.028 H 
ENDROOT
BRANCH   1   4
ATOM      4  C   UNL A   1      37.994  21.229  25.359  1.00  0.00     0.017 C 
ATOM      5  H   UNL A   1      38.040  20.207  25.047  1.00  0.00     0.049 H 
ATOM      6  H   UNL A   1      37.183  21.391  26.038  1.00  0.00     0.049 H 
BRANCH   4   7
ATOM      7  N   UNL A   1      37.773  22.063  24.196  1.00  0.00    -0.356 N 
ATOM      8  C   UNL A   1      36.648  22.740  23.832  1.00  0.00     0.224 C 
ATOM      9  O   UNL A   1      36.626  23.292  22.729  1.00  0.00    -0.275 OA
ATOM     10  H   UNL A   1      38.540  22.153  23.585  1.00  0.00     0.163 HD
BRANCH   8  11
ATOM     11  C   UNL A   1      35.444  22.805  24.755  1.00  0.00     0.054 C 
ATOM     12  H   UNL A   1      35.676  22.265  25.650  1.00  0.00     0.042 H 
ATOM     13  H   UNL A   1      35.249  23.841  24.938  1.00  0.00     0.042 H 
BRANCH  11  14
ATOM     14  C   UNL A   1      34.181  22.219  24.160  1.00  0.00    -0.015 A 
ATOM     15  C   UNL A   1      32.774  20.230  23.890  1.00  0.00    -0.051 A 
ATOM     16  C   UNL A   1      31.940  20.958  23.047  1.00  0.00    -0.057 A 
ATOM     17  C   UNL A   1      33.876  20.872  24.459  1.00  0.00    -0.054 A 
ATOM     18  C   UNL A   1      32.205  22.304  22.781  1.00  0.00    -0.038 A 
ATOM     19  H   UNL A   1      31.121  20.501  22.615  1.00  0.00     0.063 H 
ATOM     20  H   UNL A   1      34.482  20.352  25.113  1.00  0.00     0.063 H 
ATOM     21  C   UNL A   1      33.321  22.961  23.324  1.00  0.00     0.042 A 
ATOM     22  H   UNL A   1      31.562  22.829  22.168  1.00  0.00     0.064 H 
BRANCH  15  23
ATOM     23  C   UNL A   1      32.484  18.788  24.178  1.00  0.00    -0.040 C 
ATOM     24  H   UNL A   1      31.593  18.713  24.764  1.00  0.00     0.028 H 
ATOM     25  H   UNL A   1      33.303  18.361  24.719  1.00  0.00     0.028 H 
ATOM     26  H   UNL A   1      32.352  18.259  23.257  1.00  0.00     0.028 H 
ENDBRANCH  15  23
BRANCH  21  27
ATOM     27  N   UNL A   1      33.533  24.339  23.098  1.00  0.00    -0.354 N 
ATOM     28  H   UNL A   1      34.433  24.583  22.781  1.00  0.00     0.167 HD
BRANCH  27  29
ATOM     29  C   UNL A   1      32.633  25.419  23.264  1.00  0.00     0.060 A 
ATOM     30  C   UNL A   1      32.214  25.850  24.541  1.00  0.00    -0.026 A 
ATOM     31  C   UNL A   1      32.080  26.043  22.124  1.00  0.00     0.064 A 
ATOM     32  C   UNL A   1      31.223  26.843  24.643  1.00  0.00    -0.057 A 
ATOM     33  C   UNL A   1      31.111  27.042  22.244  1.00  0.00    -0.041 A 
ATOM     34  Cl  UNL A   1      32.555  25.566  20.527  1.00  0.00    -0.082 Cl
ATOM     35  C   UNL A   1      30.675  27.434  23.505  1.00  0.00    -0.060 A 
ATOM     36  H   UNL A   1      30.896  27.140  25.577  1.00  0.00     0.063 H 
ATOM     37  H   UNL A   1      30.722  27.489  21.399  1.00  0.00     0.064 H 
ATOM     38  H   UNL A   1      29.947  28.159  23.598  1.00  0.00     0.062 H 
BRANCH  30  39
ATOM     39  C   UNL A   1      32.789  25.295  25.816  1.00  0.00    -0.038 C 
ATOM     40  H   UNL A   1      32.959  24.245  25.703  1.00  0.00     0.028 H 
ATOM     41  H   UNL A   1      32.101  25.460  26.619  1.00  0.00     0.028 H 
ATOM     42  H   UNL A   1      33.715  25.784  26.033  1.00  0.00     0.028 H 
ENDBRANCH  30  39
ENDBRANCH  27  29
ENDBRANCH  21  27
ENDBRANCH  11  14
ENDBRANCH   8  11
ENDBRANCH   4   7
ENDBRANCH   1   4
BRANCH   1  43
ATOM     43  C   UNL A   1      40.264  20.409  26.295  1.00  0.00    -0.052 C 
ATOM     44  H   UNL A   1      40.643  20.121  25.337  1.00  0.00     0.027 H 
ATOM     45  H   UNL A   1      39.689  19.654  26.790  1.00  0.00     0.027 H 
BRANCH  43  46
ATOM     46  C   UNL A   1      41.467  20.670  27.215  1.00  0.00    -0.052 C 
ATOM     47  H   UNL A   1      42.257  21.072  26.614  1.00  0.00     0.027 H 
ATOM     48  H   UNL A   1      41.697  19.728  27.666  1.00  0.00     0.027 H 
BRANCH  46  49
ATOM     49  C   UNL A   1      41.227  21.636  28.376  1.00  0.00    -0.036 C 
ATOM     50  H   UNL A   1      41.400  21.109  29.292  1.00  0.00     0.028 H 
ATOM     51  H   UNL A   1      40.220  21.985  28.280  1.00  0.00     0.028 H 
BRANCH  49  52
ATOM     52  C   UNL A   1      42.117  22.871  28.363  1.00  0.00     0.018 C 
ATOM     53  H   UNL A   1      42.991  22.664  28.945  1.00  0.00     0.049 H 
ATOM     54  H   UNL A   1      41.541  23.677  28.767  1.00  0.00     0.049 H 
BRANCH  52  55
ATOM     55  N   UNL A   1      42.537  23.275  27.030  1.00  0.00    -0.352 N 
ATOM     56  C   UNL A   1      42.111  24.326  26.233  1.00  0.00     0.251 C 
ATOM     57  H   UNL A   1      43.239  22.712  26.630  1.00  0.00     0.163 HD
ATOM     58  O   UNL A   1      42.539  24.440  25.101  1.00  0.00    -0.269 OA
BRANCH  56  59
ATOM     59  C   UNL A   1      41.255  25.395  26.812  1.00  0.00     0.039 A 
ATOM     60  C   UNL A   1      41.085  26.563  26.054  1.00  0.00    -0.049 A 
ATOM     61  C   UNL A   1      40.815  25.355  28.131  1.00  0.00    -0.049 A 
ATOM     62  C   UNL A   1      40.742  27.751  26.694  1.00  0.00    -0.053 A 
ATOM     63  H   UNL A   1      41.213  26.541  25.031  1.00  0.00     0.063 H 
ATOM     64  C   UNL A   1      40.570  26.544  28.786  1.00  0.00    -0.053 A 
ATOM     65  H   UNL A   1      40.672  24.453  28.610  1.00  0.00     0.063 H 
ATOM     66  C   UNL A   1      40.626  27.751  28.081  1.00  0.00    -0.014 A 
ATOM     67  H   UNL A   1      40.576  28.613  26.151  1.00  0.00     0.063 H 
ATOM     68  H   UNL A   1      40.347  26.545  29.794  1.00  0.00     0.063 H 
BRANCH  66  69
ATOM     69  C   UNL A   1      40.749  28.949  28.902  1.00  0.00     0.031 A 
ATOM     70  C   UNL A   1      39.669  29.951  28.954  1.00  0.00     0.074 A 
ATOM     71  C   UNL A   1      41.794  29.025  29.759  1.00  0.00     0.049 A 
ATOM     72  N   UNL A   1      39.774  31.084  29.562  1.00  0.00    -0.248 NA
ATOM     73  C   UNL A   1      38.392  29.790  28.262  1.00  0.00    -0.034 C 
ATOM     74  C   UNL A   1      41.930  29.883  30.934  1.00  0.00    -0.036 A 
ATOM     75  N   UNL A   1      43.074  28.461  29.598  1.00  0.00    -0.354 N 
ATOM     76  C   UNL A   1      38.526  31.653  29.602  1.00  0.00     0.074 A 
ATOM     77  C   UNL A   1      37.741  30.886  28.668  1.00  0.00    -0.034 C 
ATOM     78  H   UNL A   1      38.078  29.036  27.632  1.00  0.00     0.065 H 
ATOM     79  C   UNL A   1      43.234  30.046  31.202  1.00  0.00    -0.036 A 
ATOM     80  H   UNL A   1      41.150  30.298  31.469  1.00  0.00     0.065 H 
ATOM     81  C   UNL A   1      43.970  29.433  30.111  1.00  0.00     0.049 A 
ATOM     82  H   UNL A   1      43.299  27.583  29.212  1.00  0.00     0.167 HD
ATOM     83  C   UNL A   1      38.291  32.629  30.523  1.00  0.00     0.037 A 
ATOM     84  H   UNL A   1      36.794  31.150  28.353  1.00  0.00     0.065 H 
ATOM     85  H   UNL A   1      43.638  30.517  32.027  1.00  0.00     0.065 H 
ATOM     86  C   UNL A   1      44.827  30.095  29.279  1.00  0.00     0.037 A 
ATOM     87  C   UNL A   1      39.549  33.169  31.045  1.00  0.00     0.049 A 
ATOM     88  C   UNL A   1      44.622  31.598  29.213  1.00  0.00     0.074 A 
ATOM     89  C   UNL A   1      40.244  33.094  32.239  1.00  0.00    -0.036 A 
ATOM     90  N   UNL A   1      40.415  33.756  30.137  1.00  0.00    -0.354 N 
ATOM     91  N   UNL A   1      43.662  32.240  29.819  1.00  0.00    -0.248 NA
ATOM     92  C   UNL A   1      45.431  32.476  28.366  1.00  0.00    -0.034 C 
ATOM     93  C   UNL A   1      41.571  33.574  32.003  1.00  0.00    -0.036 A 
ATOM     94  H   UNL A   1      39.871  32.753  33.139  1.00  0.00     0.065 H 
ATOM     95  C   UNL A   1      41.665  33.967  30.679  1.00  0.00     0.049 A 
ATOM     96  H   UNL A   1      40.167  33.995  29.214  1.00  0.00     0.167 HD
ATOM     97  C   UNL A   1      43.670  33.548  29.417  1.00  0.00     0.074 A 
ATOM     98  C   UNL A   1      44.798  33.653  28.512  1.00  0.00    -0.034 C 
ATOM     99  H   UNL A   1      46.266  32.252  27.803  1.00  0.00     0.065 H 
ATOM    100  H   UNL A   1      42.331  33.618  32.700  1.00  0.00     0.065 H 
ATOM    101  C   UNL A   1      42.726  34.448  29.811  1.00  0.00     0.037 A 
ATOM    102  H   UNL A   1      45.081  34.525  28.039  1.00  0.00     0.065 H 
BRANCH  83 103
ATOM    103  C   UNL A   1      36.930  33.030  31.054  1.00  0.00     0.064 A 
ATOM    104  C   UNL A   1      36.053  33.788  30.246  1.00  0.00     0.173 A 
ATOM    105  C   UNL A   1      36.477  32.823  32.375  1.00  0.00     0.173 A 
ATOM    106  F   UNL A   1      36.355  34.077  28.973  1.00  0.00    -0.203 F 
ATOM    107  C   UNL A   1      34.842  34.301  30.726  1.00  0.00     0.198 A 
ATOM    108  C   UNL A   1      35.243  33.291  32.836  1.00  0.00     0.198 A 
ATOM    109  F   UNL A   1      37.225  32.223  33.305  1.00  0.00    -0.203 F 
ATOM    110  F   UNL A   1      34.082  35.067  29.930  1.00  0.00    -0.200 F 
ATOM    111  C   UNL A   1      34.432  34.043  32.017  1.00  0.00     0.200 A 
ATOM    112  F   UNL A   1      34.868  33.031  34.097  1.00  0.00    -0.200 F 
ATOM    113  F   UNL A   1      33.274  34.535  32.479  1.00  0.00    -0.200 F 
ENDBRANCH  83 103
BRANCH  86 114
ATOM    114  C   UNL A   1      45.289  29.253  28.144  1.00  0.00     0.064 A 
ATOM    115  C   UNL A   1      46.334  28.335  28.371  1.00  0.00     0.173 A 
ATOM    116  C   UNL A   1      44.503  29.069  27.001  1.00  0.00     0.173 A 
ATOM    117  F   UNL A   1      47.118  28.467  29.454  1.00  0.00    -0.203 F 
ATOM    118  C   UNL A   1      46.505  27.218  27.558  1.00  0.00     0.198 A 
ATOM    119  C   UNL A   1      44.691  27.959  26.177  1.00  0.00     0.198 A 
ATOM    120  F   UNL A   1      43.478  29.893  26.741  1.00  0.00    -0.203 F 
ATOM    121  F   UNL A   1      47.434  26.302  27.868  1.00  0.00    -0.200 F 
ATOM    122  C   UNL A   1      45.665  27.017  26.476  1.00  0.00     0.200 A 
ATOM    123  F   UNL A   1      43.859  27.750  25.148  1.00  0.00    -0.200 F 
ATOM    124  F   UNL A   1      45.763  25.897  25.747  1.00  0.00    -0.200 F 
ENDBRANCH  86 114
BRANCH 101 125
ATOM    125  C   UNL A   1      42.742  35.877  29.364  1.00  0.00     0.064 A 
ATOM    126  C   UNL A   1      42.115  36.287  28.178  1.00  0.00     0.173 A 
ATOM    127  C   UNL A   1      43.485  36.855  30.055  1.00  0.00     0.173 A 
ATOM    128  F   UNL A   1      41.409  35.415  27.443  1.00  0.00    -0.203 F 
ATOM    129  C   UNL A   1      42.210  37.603  27.721  1.00  0.00     0.198 A 
ATOM    130  C   UNL A   1      43.619  38.154  29.572  1.00  0.00     0.198 A 
ATOM    131  F   UNL A   1      44.076  36.576  31.228  1.00  0.00    -0.203 F 
ATOM    132  F   UNL A   1      41.562  37.968  26.608  1.00  0.00    -0.200 F 
ATOM    133  C   UNL A   1      42.975  38.530  28.409  1.00  0.00     0.200 A 
ATOM    134  F   UNL A   1      44.370  39.040  30.242  1.00  0.00    -0.200 F 
ATOM    135  F   UNL A   1      43.086  39.786  27.955  1.00  0.00    -0.200 F 
ENDBRANCH 101 125
ENDBRANCH  66  69
ENDBRANCH  56  59
ENDBRANCH  52  55
ENDBRANCH  49  52
ENDBRANCH  46  49
ENDBRANCH  43  46
ENDBRANCH   1  43
TORSDOF 18
ENDMDL
MODEL 8
REMARK VINA RESULT:     -11.7      2.313      3.965
REMARK SMILES Cc1ccc(Nc2c(C)cccc2Cl)c(CC(=O)NCCCCCCNC(=O)c2ccc(-c3c4nc(c(-c5c(F)c(F)c(F)c(F)c5F)c5ccc([nH]5)c(-c5c(F)c(F)c(F)c(F)c5F)c5nc(c(-c6c(F)c(F)c(F)c(F)c6F)c6ccc3[nH]6)C=C5)C=C4)cc2)c1
REMARK SMILES IDX 21 1 20 4 19 7 17 8 18 9 16 11 15 14 2 15 3 16 92 17 4 18
REMARK SMILES IDX 5 21 1 23 6 27 7 29 8 30 13 31 10 32 12 33 14 34 11 35 9 39
REMARK SMILES IDX 22 43 23 46 24 49 25 52 26 55 27 56 28 58 29 59 30 60 91 61
REMARK SMILES IDX 31 62 90 64 32 66 33 69 34 70 84 71 35 72 89 73 83 74 85 75
REMARK SMILES IDX 36 76 88 77 82 79 81 81 37 83 69 86 49 87 68 88 50 89 53 90
REMARK SMILES IDX 67 91 86 92 51 93 52 95 66 97 87 98 54 101 38 103 39 104
REMARK SMILES IDX 47 105 40 106 41 107 45 108 48 109 42 110 43 111 46 112
REMARK SMILES IDX 44 113 70 114 71 115 79 116 72 117 73 118 77 119 80 120
REMARK SMILES IDX 74 121 75 122 78 123 76 124 55 125 56 126 64 127 57 128
REMARK SMILES IDX 58 129 62 130 65 131 59 132 60 133 63 134 61 135
REMARK H PARENT 21 2 21 3 20 5 20 6 19 10 16 12 16 13 3 19 92 20 4 22 1 24
REMARK H PARENT 1 25 1 26 6 28 10 36 12 37 11 38 9 40 9 41 9 42 22 44 22 45
REMARK H PARENT 23 47 23 48 24 50 24 51 25 53 25 54 26 57 30 63 91 65 31 67
REMARK H PARENT 90 68 89 78 83 80 85 82 88 84 82 85 50 94 53 96 86 99 51 100
REMARK H PARENT 87 102
REMARK Flexibility Score: inf
ROOT
ATOM      1  C   UNL A   1      32.814  28.970  23.687  1.00  0.00    -0.036 C 
ATOM      2  H   UNL A   1      31.887  28.614  23.288  1.00  0.00     0.028 H 
ATOM      3  H   UNL A   1      32.986  30.009  23.503  1.00  0.00     0.028 H 
ENDROOT
BRANCH   1   4
ATOM      4  C   UNL A   1      33.950  28.220  22.987  1.00  0.00     0.017 C 
ATOM      5  H   UNL A   1      34.661  28.932  22.623  1.00  0.00     0.049 H 
ATOM      6  H   UNL A   1      34.396  27.556  23.698  1.00  0.00     0.049 H 
BRANCH   4   7
ATOM      7  N   UNL A   1      33.474  27.425  21.875  1.00  0.00    -0.356 N 
ATOM      8  C   UNL A   1      33.278  26.078  21.810  1.00  0.00     0.224 C 
ATOM      9  O   UNL A   1      32.988  25.579  20.720  1.00  0.00    -0.275 OA
ATOM     10  H   UNL A   1      33.263  27.925  21.054  1.00  0.00     0.163 HD
BRANCH   8  11
ATOM     11  C   UNL A   1      33.427  25.208  23.045  1.00  0.00     0.054 C 
ATOM     12  H   UNL A   1      33.516  24.189  22.731  1.00  0.00     0.042 H 
ATOM     13  H   UNL A   1      34.296  25.556  23.566  1.00  0.00     0.042 H 
BRANCH  11  14
ATOM     14  C   UNL A   1      32.267  25.309  24.012  1.00  0.00    -0.015 A 
ATOM     15  C   UNL A   1      29.966  26.069  24.380  1.00  0.00    -0.051 A 
ATOM     16  C   UNL A   1      30.065  25.666  25.709  1.00  0.00    -0.057 A 
ATOM     17  C   UNL A   1      31.060  25.867  23.536  1.00  0.00    -0.054 A 
ATOM     18  C   UNL A   1      31.238  25.070  26.180  1.00  0.00    -0.038 A 
ATOM     19  H   UNL A   1      29.268  25.809  26.349  1.00  0.00     0.063 H 
ATOM     20  H   UNL A   1      30.985  26.130  22.541  1.00  0.00     0.063 H 
ATOM     21  C   UNL A   1      32.357  24.880  25.353  1.00  0.00     0.042 A 
ATOM     22  H   UNL A   1      31.282  24.761  27.164  1.00  0.00     0.064 H 
BRANCH  15  23
ATOM     23  C   UNL A   1      28.705  26.703  23.876  1.00  0.00    -0.040 C 
ATOM     24  H   UNL A   1      28.704  26.696  22.807  1.00  0.00     0.028 H 
ATOM     25  H   UNL A   1      28.649  27.713  24.226  1.00  0.00     0.028 H 
ATOM     26  H   UNL A   1      27.859  26.154  24.236  1.00  0.00     0.028 H 
ENDBRANCH  15  23
BRANCH  21  27
ATOM     27  N   UNL A   1      33.507  24.214  25.830  1.00  0.00    -0.354 N 
ATOM     28  H   UNL A   1      34.036  24.707  26.499  1.00  0.00     0.167 HD
BRANCH  27  29
ATOM     29  C   UNL A   1      34.008  22.936  25.482  1.00  0.00     0.060 A 
ATOM     30  C   UNL A   1      33.158  21.819  25.329  1.00  0.00    -0.026 A 
ATOM     31  C   UNL A   1      35.401  22.749  25.352  1.00  0.00     0.064 A 
ATOM     32  C   UNL A   1      33.720  20.549  25.108  1.00  0.00    -0.057 A 
ATOM     33  C   UNL A   1      35.942  21.483  25.111  1.00  0.00    -0.041 A 
ATOM     34  Cl  UNL A   1      36.500  24.078  25.521  1.00  0.00    -0.082 Cl
ATOM     35  C   UNL A   1      35.101  20.381  25.001  1.00  0.00    -0.060 A 
ATOM     36  H   UNL A   1      33.101  19.727  25.023  1.00  0.00     0.063 H 
ATOM     37  H   UNL A   1      36.963  21.367  25.015  1.00  0.00     0.064 H 
ATOM     38  H   UNL A   1      35.497  19.443  24.841  1.00  0.00     0.062 H 
BRANCH  30  39
ATOM     39  C   UNL A   1      31.657  21.925  25.386  1.00  0.00    -0.038 C 
ATOM     40  H   UNL A   1      31.222  21.032  24.987  1.00  0.00     0.028 H 
ATOM     41  H   UNL A   1      31.337  22.766  24.807  1.00  0.00     0.028 H 
ATOM     42  H   UNL A   1      31.346  22.050  26.401  1.00  0.00     0.028 H 
ENDBRANCH  30  39
ENDBRANCH  27  29
ENDBRANCH  21  27
ENDBRANCH  11  14
ENDBRANCH   8  11
ENDBRANCH   4   7
ENDBRANCH   1   4
BRANCH   1  43
ATOM     43  C   UNL A   1      32.768  28.807  25.214  1.00  0.00    -0.052 C 
ATOM     44  H   UNL A   1      31.951  28.156  25.448  1.00  0.00     0.027 H 
ATOM     45  H   UNL A   1      32.668  29.800  25.602  1.00  0.00     0.027 H 
BRANCH  43  46
ATOM     46  C   UNL A   1      34.028  28.235  25.882  1.00  0.00    -0.052 C 
ATOM     47  H   UNL A   1      34.878  28.607  25.347  1.00  0.00     0.027 H 
ATOM     48  H   UNL A   1      33.918  27.172  25.844  1.00  0.00     0.027 H 
BRANCH  46  49
ATOM     49  C   UNL A   1      34.218  28.578  27.360  1.00  0.00    -0.036 C 
ATOM     50  H   UNL A   1      34.680  27.741  27.842  1.00  0.00     0.028 H 
ATOM     51  H   UNL A   1      33.248  28.801  27.750  1.00  0.00     0.028 H 
BRANCH  49  52
ATOM     52  C   UNL A   1      35.080  29.808  27.615  1.00  0.00     0.018 C 
ATOM     53  H   UNL A   1      35.789  29.894  26.818  1.00  0.00     0.049 H 
ATOM     54  H   UNL A   1      35.551  29.668  28.566  1.00  0.00     0.049 H 
BRANCH  52  55
ATOM     55  N   UNL A   1      34.322  31.047  27.693  1.00  0.00    -0.352 N 
ATOM     56  C   UNL A   1      34.501  32.161  28.499  1.00  0.00     0.251 C 
ATOM     57  H   UNL A   1      33.560  31.105  27.072  1.00  0.00     0.163 HD
ATOM     58  O   UNL A   1      33.695  33.070  28.463  1.00  0.00    -0.269 OA
BRANCH  56  59
ATOM     59  C   UNL A   1      35.753  32.312  29.287  1.00  0.00     0.039 A 
ATOM     60  C   UNL A   1      36.818  32.989  28.676  1.00  0.00    -0.049 A 
ATOM     61  C   UNL A   1      35.958  31.634  30.483  1.00  0.00    -0.049 A 
ATOM     62  C   UNL A   1      38.120  32.751  29.109  1.00  0.00    -0.053 A 
ATOM     63  H   UNL A   1      36.638  33.659  27.913  1.00  0.00     0.063 H 
ATOM     64  C   UNL A   1      37.249  31.317  30.855  1.00  0.00    -0.053 A 
ATOM     65  H   UNL A   1      35.160  31.374  31.083  1.00  0.00     0.063 H 
ATOM     66  C   UNL A   1      38.326  31.804  30.108  1.00  0.00    -0.014 A 
ATOM     67  H   UNL A   1      38.914  33.266  28.698  1.00  0.00     0.063 H 
ATOM     68  H   UNL A   1      37.419  30.723  31.681  1.00  0.00     0.063 H 
BRANCH  66  69
ATOM     69  C   UNL A   1      39.594  31.117  30.320  1.00  0.00     0.031 A 
ATOM     70  C   UNL A   1      39.797  29.733  29.853  1.00  0.00     0.074 A 
ATOM     71  C   UNL A   1      40.639  31.843  30.782  1.00  0.00     0.049 A 
ATOM     72  N   UNL A   1      40.848  29.036  30.121  1.00  0.00    -0.248 NA
ATOM     73  C   UNL A   1      38.794  28.986  29.098  1.00  0.00    -0.034 C 
ATOM     74  C   UNL A   1      42.062  31.518  30.702  1.00  0.00    -0.036 A 
ATOM     75  N   UNL A   1      40.591  32.962  31.635  1.00  0.00    -0.354 N 
ATOM     76  C   UNL A   1      40.804  27.901  29.352  1.00  0.00     0.074 A 
ATOM     77  C   UNL A   1      39.456  27.851  28.847  1.00  0.00    -0.034 C 
ATOM     78  H   UNL A   1      37.836  29.260  28.830  1.00  0.00     0.065 H 
ATOM     79  C   UNL A   1      42.710  32.176  31.675  1.00  0.00    -0.036 A 
ATOM     80  H   UNL A   1      42.496  30.886  30.012  1.00  0.00     0.065 H 
ATOM     81  C   UNL A   1      41.701  32.808  32.504  1.00  0.00     0.049 A 
ATOM     82  H   UNL A   1      39.930  33.692  31.630  1.00  0.00     0.167 HD
ATOM     83  C   UNL A   1      41.963  27.216  29.143  1.00  0.00     0.037 A 
ATOM     84  H   UNL A   1      39.051  27.040  28.352  1.00  0.00     0.065 H 
ATOM     85  H   UNL A   1      43.733  32.224  31.808  1.00  0.00     0.065 H 
ATOM     86  C   UNL A   1      41.512  32.554  33.833  1.00  0.00     0.037 A 
ATOM     87  C   UNL A   1      42.984  27.609  30.118  1.00  0.00     0.049 A 
ATOM     88  C   UNL A   1      42.069  31.228  34.316  1.00  0.00     0.074 A 
ATOM     89  C   UNL A   1      44.157  28.342  30.088  1.00  0.00    -0.036 A 
ATOM     90  N   UNL A   1      42.699  27.401  31.458  1.00  0.00    -0.354 N 
ATOM     91  N   UNL A   1      42.617  30.330  33.544  1.00  0.00    -0.248 NA
ATOM     92  C   UNL A   1      41.950  30.771  35.702  1.00  0.00    -0.034 C 
ATOM     93  C   UNL A   1      44.522  28.639  31.440  1.00  0.00    -0.036 A 
ATOM     94  H   UNL A   1      44.676  28.625  29.242  1.00  0.00     0.065 H 
ATOM     95  C   UNL A   1      43.589  28.056  32.281  1.00  0.00     0.049 A 
ATOM     96  H   UNL A   1      41.950  26.851  31.783  1.00  0.00     0.167 HD
ATOM     97  C   UNL A   1      42.858  29.196  34.270  1.00  0.00     0.074 A 
ATOM     98  C   UNL A   1      42.431  29.518  35.618  1.00  0.00    -0.034 C 
ATOM     99  H   UNL A   1      41.591  31.276  36.527  1.00  0.00     0.065 H 
ATOM    100  H   UNL A   1      45.340  29.192  31.738  1.00  0.00     0.065 H 
ATOM    101  C   UNL A   1      43.344  28.051  33.713  1.00  0.00     0.037 A 
ATOM    102  H   UNL A   1      42.489  28.866  36.415  1.00  0.00     0.065 H 
BRANCH  83 103
ATOM    103  C   UNL A   1      42.233  26.272  27.991  1.00  0.00     0.064 A 
ATOM    104  C   UNL A   1      42.997  26.707  26.885  1.00  0.00     0.173 A 
ATOM    105  C   UNL A   1      41.672  24.985  27.843  1.00  0.00     0.173 A 
ATOM    106  F   UNL A   1      43.581  27.914  26.875  1.00  0.00    -0.203 F 
ATOM    107  C   UNL A   1      43.167  25.928  25.734  1.00  0.00     0.198 A 
ATOM    108  C   UNL A   1      41.888  24.188  26.715  1.00  0.00     0.198 A 
ATOM    109  F   UNL A   1      40.835  24.459  28.741  1.00  0.00    -0.203 F 
ATOM    110  F   UNL A   1      43.850  26.423  24.691  1.00  0.00    -0.200 F 
ATOM    111  C   UNL A   1      42.622  24.664  25.653  1.00  0.00     0.200 A 
ATOM    112  F   UNL A   1      41.343  22.963  26.658  1.00  0.00    -0.200 F 
ATOM    113  F   UNL A   1      42.782  23.918  24.552  1.00  0.00    -0.200 F 
ENDBRANCH  83 103
BRANCH  86 114
ATOM    114  C   UNL A   1      40.289  33.206  34.372  1.00  0.00     0.064 A 
ATOM    115  C   UNL A   1      39.105  32.448  34.458  1.00  0.00     0.173 A 
ATOM    116  C   UNL A   1      40.359  34.384  35.124  1.00  0.00     0.173 A 
ATOM    117  F   UNL A   1      38.987  31.308  33.756  1.00  0.00    -0.203 F 
ATOM    118  C   UNL A   1      38.090  32.788  35.348  1.00  0.00     0.198 A 
ATOM    119  C   UNL A   1      39.331  34.733  36.001  1.00  0.00     0.198 A 
ATOM    120  F   UNL A   1      41.468  35.138  35.105  1.00  0.00    -0.203 F 
ATOM    121  F   UNL A   1      37.028  31.983  35.491  1.00  0.00    -0.200 F 
ATOM    122  C   UNL A   1      38.217  33.918  36.139  1.00  0.00     0.200 A 
ATOM    123  F   UNL A   1      39.467  35.810  36.786  1.00  0.00    -0.200 F 
ATOM    124  F   UNL A   1      37.289  34.199  37.064  1.00  0.00    -0.200 F 
ENDBRANCH  86 114
BRANCH 101 125
ATOM    125  C   UNL A   1      43.601  26.814  34.516  1.00  0.00     0.064 A 
ATOM    126  C   UNL A   1      44.903  26.376  34.801  1.00  0.00     0.173 A 
ATOM    127  C   UNL A   1      42.549  25.972  34.926  1.00  0.00     0.173 A 
ATOM    128  F   UNL A   1      45.965  27.103  34.423  1.00  0.00    -0.203 F 
ATOM    129  C   UNL A   1      45.137  25.175  35.473  1.00  0.00     0.198 A 
ATOM    130  C   UNL A   1      42.786  24.751  35.552  1.00  0.00     0.198 A 
ATOM    131  F   UNL A   1      41.267  26.327  34.749  1.00  0.00    -0.203 F 
ATOM    132  F   UNL A   1      46.392  24.811  35.766  1.00  0.00    -0.200 F 
ATOM    133  C   UNL A   1      44.080  24.356  35.833  1.00  0.00     0.200 A 
ATOM    134  F   UNL A   1      41.754  23.962  35.887  1.00  0.00    -0.200 F 
ATOM    135  F   UNL A   1      44.308  23.191  36.455  1.00  0.00    -0.200 F 
ENDBRANCH 101 125
ENDBRANCH  66  69
ENDBRANCH  56  59
ENDBRANCH  52  55
ENDBRANCH  49  52
ENDBRANCH  46  49
ENDBRANCH  43  46
ENDBRANCH   1  43
TORSDOF 18
ENDMDL
MODEL 9
REMARK VINA RESULT:     -11.5      3.546      9.888
REMARK SMILES Cc1ccc(Nc2c(C)cccc2Cl)c(CC(=O)NCCCCCCNC(=O)c2ccc(-c3c4nc(c(-c5c(F)c(F)c(F)c(F)c5F)c5ccc([nH]5)c(-c5c(F)c(F)c(F)c(F)c5F)c5nc(c(-c6c(F)c(F)c(F)c(F)c6F)c6ccc3[nH]6)C=C5)C=C4)cc2)c1
REMARK SMILES IDX 21 1 20 4 19 7 17 8 18 9 16 11 15 14 2 15 3 16 92 17 4 18
REMARK SMILES IDX 5 21 1 23 6 27 7 29 8 30 13 31 10 32 12 33 14 34 11 35 9 39
REMARK SMILES IDX 22 43 23 46 24 49 25 52 26 55 27 56 28 58 29 59 30 60 91 61
REMARK SMILES IDX 31 62 90 64 32 66 33 69 34 70 84 71 35 72 89 73 83 74 85 75
REMARK SMILES IDX 36 76 88 77 82 79 81 81 37 83 69 86 49 87 68 88 50 89 53 90
REMARK SMILES IDX 67 91 86 92 51 93 52 95 66 97 87 98 54 101 38 103 39 104
REMARK SMILES IDX 47 105 40 106 41 107 45 108 48 109 42 110 43 111 46 112
REMARK SMILES IDX 44 113 70 114 71 115 79 116 72 117 73 118 77 119 80 120
REMARK SMILES IDX 74 121 75 122 78 123 76 124 55 125 56 126 64 127 57 128
REMARK SMILES IDX 58 129 62 130 65 131 59 132 60 133 63 134 61 135
REMARK H PARENT 21 2 21 3 20 5 20 6 19 10 16 12 16 13 3 19 92 20 4 22 1 24
REMARK H PARENT 1 25 1 26 6 28 10 36 12 37 11 38 9 40 9 41 9 42 22 44 22 45
REMARK H PARENT 23 47 23 48 24 50 24 51 25 53 25 54 26 57 30 63 91 65 31 67
REMARK H PARENT 90 68 89 78 83 80 85 82 88 84 82 85 50 94 53 96 86 99 51 100
REMARK H PARENT 87 102
REMARK Flexibility Score: inf
ROOT
ATOM      1  C   UNL A   1      37.814  23.049  26.023  1.00  0.00    -0.036 C 
ATOM      2  H   UNL A   1      38.026  22.665  25.047  1.00  0.00     0.028 H 
ATOM      3  H   UNL A   1      38.017  22.354  26.809  1.00  0.00     0.028 H 
ENDROOT
BRANCH   1   4
ATOM      4  C   UNL A   1      36.314  23.349  26.097  1.00  0.00     0.017 C 
ATOM      5  H   UNL A   1      35.819  22.520  26.559  1.00  0.00     0.049 H 
ATOM      6  H   UNL A   1      36.184  24.245  26.668  1.00  0.00     0.049 H 
BRANCH   4   7
ATOM      7  N   UNL A   1      35.737  23.567  24.788  1.00  0.00    -0.356 N 
ATOM      8  C   UNL A   1      34.816  24.495  24.404  1.00  0.00     0.224 C 
ATOM      9  O   UNL A   1      34.356  24.429  23.262  1.00  0.00    -0.275 OA
ATOM     10  H   UNL A   1      36.053  22.963  24.078  1.00  0.00     0.163 HD
BRANCH   8  11
ATOM     11  C   UNL A   1      34.354  25.578  25.363  1.00  0.00     0.054 C 
ATOM     12  H   UNL A   1      34.874  25.452  26.290  1.00  0.00     0.042 H 
ATOM     13  H   UNL A   1      34.567  26.517  24.896  1.00  0.00     0.042 H 
BRANCH  11  14
ATOM     14  C   UNL A   1      32.867  25.556  25.646  1.00  0.00    -0.015 A 
ATOM     15  C   UNL A   1      30.939  24.231  26.378  1.00  0.00    -0.051 A 
ATOM     16  C   UNL A   1      30.114  25.321  26.115  1.00  0.00    -0.057 A 
ATOM     17  C   UNL A   1      32.312  24.364  26.163  1.00  0.00    -0.054 A 
ATOM     18  C   UNL A   1      30.657  26.521  25.648  1.00  0.00    -0.038 A 
ATOM     19  H   UNL A   1      29.096  25.243  26.267  1.00  0.00     0.063 H 
ATOM     20  H   UNL A   1      32.937  23.574  26.387  1.00  0.00     0.063 H 
ATOM     21  C   UNL A   1      32.032  26.667  25.402  1.00  0.00     0.042 A 
ATOM     22  H   UNL A   1      30.029  27.322  25.478  1.00  0.00     0.064 H 
BRANCH  15  23
ATOM     23  C   UNL A   1      30.355  22.947  26.885  1.00  0.00    -0.040 C 
ATOM     24  H   UNL A   1      29.373  23.128  27.268  1.00  0.00     0.028 H 
ATOM     25  H   UNL A   1      30.975  22.557  27.665  1.00  0.00     0.028 H 
ATOM     26  H   UNL A   1      30.301  22.238  26.085  1.00  0.00     0.028 H 
ENDBRANCH  15  23
BRANCH  21  27
ATOM     27  N   UNL A   1      32.569  27.908  24.996  1.00  0.00    -0.354 N 
ATOM     28  H   UNL A   1      33.145  27.879  24.197  1.00  0.00     0.167 HD
BRANCH  27  29
ATOM     29  C   UNL A   1      32.396  29.189  25.575  1.00  0.00     0.060 A 
ATOM     30  C   UNL A   1      33.222  29.650  26.622  1.00  0.00    -0.026 A 
ATOM     31  C   UNL A   1      31.325  30.004  25.148  1.00  0.00     0.064 A 
ATOM     32  C   UNL A   1      32.927  30.876  27.245  1.00  0.00    -0.057 A 
ATOM     33  C   UNL A   1      31.058  31.229  25.765  1.00  0.00    -0.041 A 
ATOM     34  Cl  UNL A   1      30.277  29.500  23.864  1.00  0.00    -0.082 Cl
ATOM     35  C   UNL A   1      31.853  31.659  26.822  1.00  0.00    -0.060 A 
ATOM     36  H   UNL A   1      33.515  31.201  28.029  1.00  0.00     0.063 H 
ATOM     37  H   UNL A   1      30.274  31.814  25.436  1.00  0.00     0.064 H 
ATOM     38  H   UNL A   1      31.649  32.554  27.292  1.00  0.00     0.062 H 
BRANCH  30  39
ATOM     39  C   UNL A   1      34.425  28.886  27.106  1.00  0.00    -0.038 C 
ATOM     40  H   UNL A   1      34.143  28.259  27.926  1.00  0.00     0.028 H 
ATOM     41  H   UNL A   1      35.179  29.574  27.427  1.00  0.00     0.028 H 
ATOM     42  H   UNL A   1      34.809  28.282  26.311  1.00  0.00     0.028 H 
ENDBRANCH  30  39
ENDBRANCH  27  29
ENDBRANCH  21  27
ENDBRANCH  11  14
ENDBRANCH   8  11
ENDBRANCH   4   7
ENDBRANCH   1   4
BRANCH   1  43
ATOM     43  C   UNL A   1      38.733  24.255  26.269  1.00  0.00    -0.052 C 
ATOM     44  H   UNL A   1      38.192  25.138  25.999  1.00  0.00     0.027 H 
ATOM     45  H   UNL A   1      39.606  24.072  25.678  1.00  0.00     0.027 H 
BRANCH  43  46
ATOM     46  C   UNL A   1      39.248  24.444  27.705  1.00  0.00    -0.052 C 
ATOM     47  H   UNL A   1      38.684  23.794  28.343  1.00  0.00     0.027 H 
ATOM     48  H   UNL A   1      39.127  25.483  27.922  1.00  0.00     0.027 H 
BRANCH  46  49
ATOM     49  C   UNL A   1      40.732  24.145  27.930  1.00  0.00    -0.036 C 
ATOM     50  H   UNL A   1      41.079  23.540  27.117  1.00  0.00     0.028 H 
ATOM     51  H   UNL A   1      40.805  23.653  28.876  1.00  0.00     0.028 H 
BRANCH  49  52
ATOM     52  C   UNL A   1      41.617  25.381  28.014  1.00  0.00     0.018 C 
ATOM     53  H   UNL A   1      42.413  25.180  28.700  1.00  0.00     0.049 H 
ATOM     54  H   UNL A   1      40.995  26.191  28.336  1.00  0.00     0.049 H 
BRANCH  52  55
ATOM     55  N   UNL A   1      42.198  25.773  26.738  1.00  0.00    -0.352 N 
ATOM     56  C   UNL A   1      42.057  26.942  26.007  1.00  0.00     0.251 C 
ATOM     57  H   UNL A   1      42.787  25.098  26.329  1.00  0.00     0.163 HD
ATOM     58  O   UNL A   1      42.571  27.036  24.910  1.00  0.00    -0.269 OA
BRANCH  56  59
ATOM     59  C   UNL A   1      41.413  28.130  26.628  1.00  0.00     0.039 A 
ATOM     60  C   UNL A   1      42.244  29.025  27.317  1.00  0.00    -0.049 A 
ATOM     61  C   UNL A   1      40.031  28.256  26.723  1.00  0.00    -0.049 A 
ATOM     62  C   UNL A   1      41.701  29.844  28.303  1.00  0.00    -0.053 A 
ATOM     63  H   UNL A   1      43.250  29.075  27.095  1.00  0.00     0.063 H 
ATOM     64  C   UNL A   1      39.501  28.991  27.763  1.00  0.00    -0.053 A 
ATOM     65  H   UNL A   1      39.414  27.808  26.028  1.00  0.00     0.063 H 
ATOM     66  C   UNL A   1      40.350  29.711  28.608  1.00  0.00    -0.014 A 
ATOM     67  H   UNL A   1      42.288  30.534  28.797  1.00  0.00     0.063 H 
ATOM     68  H   UNL A   1      38.480  29.010  27.916  1.00  0.00     0.063 H 
BRANCH  66  69
ATOM     69  C   UNL A   1      39.765  30.120  29.880  1.00  0.00     0.031 A 
ATOM     70  C   UNL A   1      39.011  31.382  30.000  1.00  0.00     0.074 A 
ATOM     71  C   UNL A   1      39.768  29.226  30.896  1.00  0.00     0.049 A 
ATOM     72  N   UNL A   1      38.580  31.852  31.121  1.00  0.00    -0.248 NA
ATOM     73  C   UNL A   1      38.734  32.262  28.867  1.00  0.00    -0.034 C 
ATOM     74  C   UNL A   1      38.927  29.223  32.091  1.00  0.00    -0.036 A 
ATOM     75  N   UNL A   1      40.722  28.221  31.147  1.00  0.00    -0.354 N 
ATOM     76  C   UNL A   1      37.740  32.899  30.839  1.00  0.00     0.074 A 
ATOM     77  C   UNL A   1      37.979  33.199  29.450  1.00  0.00    -0.034 C 
ATOM     78  H   UNL A   1      39.040  32.183  27.885  1.00  0.00     0.065 H 
ATOM     79  C   UNL A   1      39.547  28.525  33.054  1.00  0.00    -0.036 A 
ATOM     80  H   UNL A   1      38.008  29.684  32.180  1.00  0.00     0.065 H 
ATOM     81  C   UNL A   1      40.872  28.202  32.556  1.00  0.00     0.049 A 
ATOM     82  H   UNL A   1      41.185  27.655  30.487  1.00  0.00     0.167 HD
ATOM     83  C   UNL A   1      36.854  33.293  31.797  1.00  0.00     0.037 A 
ATOM     84  H   UNL A   1      37.612  34.034  28.966  1.00  0.00     0.065 H 
ATOM     85  H   UNL A   1      39.156  28.266  33.973  1.00  0.00     0.065 H 
ATOM     86  C   UNL A   1      42.042  28.604  33.136  1.00  0.00     0.037 A 
ATOM     87  C   UNL A   1      37.240  32.771  33.110  1.00  0.00     0.049 A 
ATOM     88  C   UNL A   1      41.923  29.813  34.046  1.00  0.00     0.074 A 
ATOM     89  C   UNL A   1      36.764  31.799  33.973  1.00  0.00    -0.036 A 
ATOM     90  N   UNL A   1      38.476  33.150  33.609  1.00  0.00    -0.354 N 
ATOM     91  N   UNL A   1      40.828  30.499  34.225  1.00  0.00    -0.248 NA
ATOM     92  C   UNL A   1      43.068  30.401  34.743  1.00  0.00    -0.034 C 
ATOM     93  C   UNL A   1      37.780  31.547  34.949  1.00  0.00    -0.036 A 
ATOM     94  H   UNL A   1      35.843  31.338  33.920  1.00  0.00     0.065 H 
ATOM     95  C   UNL A   1      38.849  32.389  34.695  1.00  0.00     0.049 A 
ATOM     96  H   UNL A   1      39.023  33.877  33.231  1.00  0.00     0.167 HD
ATOM     97  C   UNL A   1      41.109  31.611  34.970  1.00  0.00     0.074 A 
ATOM     98  C   UNL A   1      42.522  31.507  35.279  1.00  0.00    -0.034 C 
ATOM     99  H   UNL A   1      44.040  30.059  34.806  1.00  0.00     0.065 H 
ATOM    100  H   UNL A   1      37.725  30.855  35.713  1.00  0.00     0.065 H 
ATOM    101  C   UNL A   1      40.181  32.570  35.246  1.00  0.00     0.037 A 
ATOM    102  H   UNL A   1      43.045  32.196  35.841  1.00  0.00     0.065 H 
BRANCH  83 103
ATOM    103  C   UNL A   1      35.569  34.054  31.549  1.00  0.00     0.064 A 
ATOM    104  C   UNL A   1      34.773  33.748  30.422  1.00  0.00     0.173 A 
ATOM    105  C   UNL A   1      35.126  35.171  32.290  1.00  0.00     0.173 A 
ATOM    106  F   UNL A   1      35.078  32.722  29.614  1.00  0.00    -0.203 F 
ATOM    107  C   UNL A   1      33.649  34.502  30.067  1.00  0.00     0.198 A 
ATOM    108  C   UNL A   1      33.972  35.890  31.964  1.00  0.00     0.198 A 
ATOM    109  F   UNL A   1      35.816  35.667  33.321  1.00  0.00    -0.203 F 
ATOM    110  F   UNL A   1      32.972  34.201  28.949  1.00  0.00    -0.200 F 
ATOM    111  C   UNL A   1      33.242  35.567  30.844  1.00  0.00     0.200 A 
ATOM    112  F   UNL A   1      33.600  36.923  32.734  1.00  0.00    -0.200 F 
ATOM    113  F   UNL A   1      32.167  36.291  30.505  1.00  0.00    -0.200 F 
ENDBRANCH  83 103
BRANCH  86 114
ATOM    114  C   UNL A   1      43.232  28.283  32.304  1.00  0.00     0.064 A 
ATOM    115  C   UNL A   1      43.693  26.952  32.275  1.00  0.00     0.173 A 
ATOM    116  C   UNL A   1      43.669  29.141  31.288  1.00  0.00     0.173 A 
ATOM    117  F   UNL A   1      43.304  26.088  33.228  1.00  0.00    -0.203 F 
ATOM    118  C   UNL A   1      44.453  26.471  31.213  1.00  0.00     0.198 A 
ATOM    119  C   UNL A   1      44.448  28.660  30.235  1.00  0.00     0.198 A 
ATOM    120  F   UNL A   1      43.247  30.413  31.245  1.00  0.00    -0.203 F 
ATOM    121  F   UNL A   1      44.777  25.172  31.156  1.00  0.00    -0.200 F 
ATOM    122  C   UNL A   1      44.807  27.322  30.179  1.00  0.00     0.200 A 
ATOM    123  F   UNL A   1      44.766  29.476  29.221  1.00  0.00    -0.200 F 
ATOM    124  F   UNL A   1      45.458  26.845  29.109  1.00  0.00    -0.200 F 
ENDBRANCH  86 114
BRANCH 101 125
ATOM    125  C   UNL A   1      40.499  33.785  36.061  1.00  0.00     0.064 A 
ATOM    126  C   UNL A   1      40.306  33.813  37.451  1.00  0.00     0.173 A 
ATOM    127  C   UNL A   1      40.900  34.992  35.455  1.00  0.00     0.173 A 
ATOM    128  F   UNL A   1      39.900  32.715  38.106  1.00  0.00    -0.203 F 
ATOM    129  C   UNL A   1      40.520  34.977  38.192  1.00  0.00     0.198 A 
ATOM    130  C   UNL A   1      41.064  36.163  36.190  1.00  0.00     0.198 A 
ATOM    131  F   UNL A   1      41.164  35.054  34.141  1.00  0.00    -0.203 F 
ATOM    132  F   UNL A   1      40.368  34.954  39.523  1.00  0.00    -0.200 F 
ATOM    133  C   UNL A   1      40.883  36.154  37.560  1.00  0.00     0.200 A 
ATOM    134  F   UNL A   1      41.406  37.299  35.565  1.00  0.00    -0.200 F 
ATOM    135  F   UNL A   1      41.062  37.276  38.270  1.00  0.00    -0.200 F 
ENDBRANCH 101 125
ENDBRANCH  66  69
ENDBRANCH  56  59
ENDBRANCH  52  55
ENDBRANCH  49  52
ENDBRANCH  46  49
ENDBRANCH  43  46
ENDBRANCH   1  43
TORSDOF 18
ENDMDL
MODEL 10
REMARK VINA RESULT:     -11.3      2.043      2.970
REMARK SMILES Cc1ccc(Nc2c(C)cccc2Cl)c(CC(=O)NCCCCCCNC(=O)c2ccc(-c3c4nc(c(-c5c(F)c(F)c(F)c(F)c5F)c5ccc([nH]5)c(-c5c(F)c(F)c(F)c(F)c5F)c5nc(c(-c6c(F)c(F)c(F)c(F)c6F)c6ccc3[nH]6)C=C5)C=C4)cc2)c1
REMARK SMILES IDX 21 1 20 4 19 7 17 8 18 9 16 11 15 14 2 15 3 16 92 17 4 18
REMARK SMILES IDX 5 21 1 23 6 27 7 29 8 30 13 31 10 32 12 33 14 34 11 35 9 39
REMARK SMILES IDX 22 43 23 46 24 49 25 52 26 55 27 56 28 58 29 59 30 60 91 61
REMARK SMILES IDX 31 62 90 64 32 66 33 69 34 70 84 71 35 72 89 73 83 74 85 75
REMARK SMILES IDX 36 76 88 77 82 79 81 81 37 83 69 86 49 87 68 88 50 89 53 90
REMARK SMILES IDX 67 91 86 92 51 93 52 95 66 97 87 98 54 101 38 103 39 104
REMARK SMILES IDX 47 105 40 106 41 107 45 108 48 109 42 110 43 111 46 112
REMARK SMILES IDX 44 113 70 114 71 115 79 116 72 117 73 118 77 119 80 120
REMARK SMILES IDX 74 121 75 122 78 123 76 124 55 125 56 126 64 127 57 128
REMARK SMILES IDX 58 129 62 130 65 131 59 132 60 133 63 134 61 135
REMARK H PARENT 21 2 21 3 20 5 20 6 19 10 16 12 16 13 3 19 92 20 4 22 1 24
REMARK H PARENT 1 25 1 26 6 28 10 36 12 37 11 38 9 40 9 41 9 42 22 44 22 45
REMARK H PARENT 23 47 23 48 24 50 24 51 25 53 25 54 26 57 30 63 91 65 31 67
REMARK H PARENT 90 68 89 78 83 80 85 82 88 84 82 85 50 94 53 96 86 99 51 100
REMARK H PARENT 87 102
REMARK Flexibility Score: inf
ROOT
ATOM      1  C   UNL A   1      33.783  28.479  27.097  1.00  0.00    -0.036 C 
ATOM      2  H   UNL A   1      34.527  28.112  27.771  1.00  0.00     0.028 H 
ATOM      3  H   UNL A   1      32.783  28.354  27.455  1.00  0.00     0.028 H 
ENDROOT
BRANCH   1   4
ATOM      4  C   UNL A   1      33.876  27.667  25.802  1.00  0.00     0.017 C 
ATOM      5  H   UNL A   1      34.702  26.992  25.877  1.00  0.00     0.049 H 
ATOM      6  H   UNL A   1      32.954  27.139  25.675  1.00  0.00     0.049 H 
BRANCH   4   7
ATOM      7  N   UNL A   1      34.068  28.513  24.643  1.00  0.00    -0.356 N 
ATOM      8  C   UNL A   1      33.900  28.208  23.326  1.00  0.00     0.224 C 
ATOM      9  O   UNL A   1      34.244  29.039  22.481  1.00  0.00    -0.275 OA
ATOM     10  H   UNL A   1      34.360  29.434  24.832  1.00  0.00     0.163 HD
BRANCH   8  11
ATOM     11  C   UNL A   1      33.316  26.871  22.904  1.00  0.00     0.054 C 
ATOM     12  H   UNL A   1      33.341  26.814  21.835  1.00  0.00     0.042 H 
ATOM     13  H   UNL A   1      33.909  26.112  23.371  1.00  0.00     0.042 H 
BRANCH  11  14
ATOM     14  C   UNL A   1      31.888  26.652  23.358  1.00  0.00    -0.015 A 
ATOM     15  C   UNL A   1      29.587  27.498  23.364  1.00  0.00    -0.051 A 
ATOM     16  C   UNL A   1      29.224  26.449  24.203  1.00  0.00    -0.057 A 
ATOM     17  C   UNL A   1      30.912  27.579  22.929  1.00  0.00    -0.054 A 
ATOM     18  C   UNL A   1      30.171  25.499  24.596  1.00  0.00    -0.038 A 
ATOM     19  H   UNL A   1      28.250  26.372  24.537  1.00  0.00     0.063 H 
ATOM     20  H   UNL A   1      31.185  28.333  22.279  1.00  0.00     0.063 H 
ATOM     21  C   UNL A   1      31.513  25.576  24.189  1.00  0.00     0.042 A 
ATOM     22  H   UNL A   1      29.875  24.718  25.203  1.00  0.00     0.064 H 
BRANCH  15  23
ATOM     23  C   UNL A   1      28.569  28.512  22.939  1.00  0.00    -0.040 C 
ATOM     24  H   UNL A   1      28.951  29.496  23.112  1.00  0.00     0.028 H 
ATOM     25  H   UNL A   1      27.671  28.374  23.505  1.00  0.00     0.028 H 
ATOM     26  H   UNL A   1      28.356  28.390  21.897  1.00  0.00     0.028 H 
ENDBRANCH  15  23
BRANCH  21  27
ATOM     27  N   UNL A   1      32.437  24.570  24.541  1.00  0.00    -0.354 N 
ATOM     28  H   UNL A   1      33.279  24.888  24.943  1.00  0.00     0.167 HD
BRANCH  27  29
ATOM     29  C   UNL A   1      32.326  23.165  24.399  1.00  0.00     0.060 A 
ATOM     30  C   UNL A   1      31.978  22.332  25.484  1.00  0.00    -0.026 A 
ATOM     31  C   UNL A   1      32.638  22.566  23.159  1.00  0.00     0.064 A 
ATOM     32  C   UNL A   1      32.005  20.935  25.318  1.00  0.00    -0.057 A 
ATOM     33  C   UNL A   1      32.640  21.178  23.006  1.00  0.00    -0.041 A 
ATOM     34  Cl  UNL A   1      33.067  23.532  21.785  1.00  0.00    -0.082 Cl
ATOM     35  C   UNL A   1      32.335  20.362  24.090  1.00  0.00    -0.060 A 
ATOM     36  H   UNL A   1      31.777  20.324  26.118  1.00  0.00     0.063 H 
ATOM     37  H   UNL A   1      32.868  20.759  22.090  1.00  0.00     0.064 H 
ATOM     38  H   UNL A   1      32.352  19.336  23.986  1.00  0.00     0.062 H 
BRANCH  30  39
ATOM     39  C   UNL A   1      31.567  22.874  26.827  1.00  0.00    -0.038 C 
ATOM     40  H   UNL A   1      32.149  23.742  27.054  1.00  0.00     0.028 H 
ATOM     41  H   UNL A   1      31.731  22.129  27.577  1.00  0.00     0.028 H 
ATOM     42  H   UNL A   1      30.530  23.136  26.804  1.00  0.00     0.028 H 
ENDBRANCH  30  39
ENDBRANCH  27  29
ENDBRANCH  21  27
ENDBRANCH  11  14
ENDBRANCH   8  11
ENDBRANCH   4   7
ENDBRANCH   1   4
BRANCH   1  43
ATOM     43  C   UNL A   1      33.992  29.993  26.935  1.00  0.00    -0.052 C 
ATOM     44  H   UNL A   1      34.407  30.162  25.963  1.00  0.00     0.027 H 
ATOM     45  H   UNL A   1      34.630  30.279  27.745  1.00  0.00     0.027 H 
BRANCH  43  46
ATOM     46  C   UNL A   1      32.742  30.877  27.071  1.00  0.00    -0.052 C 
ATOM     47  H   UNL A   1      32.049  30.367  27.708  1.00  0.00     0.027 H 
ATOM     48  H   UNL A   1      32.388  31.032  26.074  1.00  0.00     0.027 H 
BRANCH  46  49
ATOM     49  C   UNL A   1      32.969  32.274  27.651  1.00  0.00    -0.036 C 
ATOM     50  H   UNL A   1      32.427  32.346  28.572  1.00  0.00     0.028 H 
ATOM     51  H   UNL A   1      32.632  32.970  26.913  1.00  0.00     0.028 H 
BRANCH  49  52
ATOM     52  C   UNL A   1      34.428  32.611  27.930  1.00  0.00     0.018 C 
ATOM     53  H   UNL A   1      34.669  33.519  27.417  1.00  0.00     0.049 H 
ATOM     54  H   UNL A   1      35.012  31.782  27.588  1.00  0.00     0.049 H 
BRANCH  52  55
ATOM     55  N   UNL A   1      34.727  32.787  29.343  1.00  0.00    -0.352 N 
ATOM     56  C   UNL A   1      35.481  32.008  30.206  1.00  0.00     0.251 C 
ATOM     57  H   UNL A   1      34.332  33.591  29.752  1.00  0.00     0.163 HD
ATOM     58  O   UNL A   1      35.539  32.293  31.386  1.00  0.00    -0.269 OA
BRANCH  56  59
ATOM     59  C   UNL A   1      36.339  30.920  29.665  1.00  0.00     0.039 A 
ATOM     60  C   UNL A   1      36.459  29.754  30.434  1.00  0.00    -0.049 A 
ATOM     61  C   UNL A   1      37.165  31.111  28.563  1.00  0.00    -0.049 A 
ATOM     62  C   UNL A   1      37.574  28.936  30.269  1.00  0.00    -0.053 A 
ATOM     63  H   UNL A   1      35.727  29.504  31.116  1.00  0.00     0.063 H 
ATOM     64  C   UNL A   1      38.319  30.362  28.459  1.00  0.00    -0.053 A 
ATOM     65  H   UNL A   1      36.919  31.800  27.835  1.00  0.00     0.063 H 
ATOM     66  C   UNL A   1      38.563  29.332  29.374  1.00  0.00    -0.014 A 
ATOM     67  H   UNL A   1      37.664  28.055  30.798  1.00  0.00     0.063 H 
ATOM     68  H   UNL A   1      39.000  30.559  27.710  1.00  0.00     0.063 H 
BRANCH  66  69
ATOM     69  C   UNL A   1      39.944  28.870  29.440  1.00  0.00     0.031 A 
ATOM     70  C   UNL A   1      40.297  27.477  29.111  1.00  0.00     0.074 A 
ATOM     71  C   UNL A   1      40.914  29.796  29.625  1.00  0.00     0.049 A 
ATOM     72  N   UNL A   1      41.478  26.982  29.272  1.00  0.00    -0.248 NA
ATOM     73  C   UNL A   1      39.327  26.494  28.635  1.00  0.00    -0.034 C 
ATOM     74  C   UNL A   1      42.341  29.670  29.336  1.00  0.00    -0.036 A 
ATOM     75  N   UNL A   1      40.815  31.007  30.336  1.00  0.00    -0.354 N 
ATOM     76  C   UNL A   1      41.503  25.754  28.660  1.00  0.00     0.074 A 
ATOM     77  C   UNL A   1      40.119  25.441  28.407  1.00  0.00    -0.034 C 
ATOM     78  H   UNL A   1      38.307  26.588  28.508  1.00  0.00     0.065 H 
ATOM     79  C   UNL A   1      43.015  30.546  30.097  1.00  0.00    -0.036 A 
ATOM     80  H   UNL A   1      42.762  29.013  28.659  1.00  0.00     0.065 H 
ATOM     81  C   UNL A   1      42.055  31.140  31.009  1.00  0.00     0.049 A 
ATOM     82  H   UNL A   1      40.050  31.628  30.360  1.00  0.00     0.167 HD
ATOM     83  C   UNL A   1      42.713  25.220  28.334  1.00  0.00     0.037 A 
ATOM     84  H   UNL A   1      39.783  24.518  28.090  1.00  0.00     0.065 H 
ATOM     85  H   UNL A   1      44.024  30.758  30.042  1.00  0.00     0.065 H 
ATOM     86  C   UNL A   1      42.118  31.053  32.371  1.00  0.00     0.037 A 
ATOM     87  C   UNL A   1      43.793  25.889  29.063  1.00  0.00     0.049 A 
ATOM     88  C   UNL A   1      42.953  29.903  32.902  1.00  0.00     0.074 A 
ATOM     89  C   UNL A   1      44.810  26.771  28.742  1.00  0.00    -0.036 A 
ATOM     90  N   UNL A   1      43.756  25.837  30.447  1.00  0.00    -0.354 N 
ATOM     91  N   UNL A   1      43.516  28.992  32.157  1.00  0.00    -0.248 NA
ATOM     92  C   UNL A   1      43.126  29.637  34.332  1.00  0.00    -0.034 C 
ATOM     93  C   UNL A   1      45.325  27.306  29.966  1.00  0.00    -0.036 A 
ATOM     94  H   UNL A   1      45.139  27.001  27.792  1.00  0.00     0.065 H 
ATOM     95  C   UNL A   1      44.642  26.723  31.020  1.00  0.00     0.049 A 
ATOM     96  H   UNL A   1      43.167  25.237  30.960  1.00  0.00     0.167 HD
ATOM     97  C   UNL A   1      44.049  28.020  32.958  1.00  0.00     0.074 A 
ATOM     98  C   UNL A   1      43.788  28.467  34.313  1.00  0.00    -0.034 C 
ATOM     99  H   UNL A   1      42.821  30.199  35.141  1.00  0.00     0.065 H 
ATOM    100  H   UNL A   1      46.077  28.008  30.049  1.00  0.00     0.065 H 
ATOM    101  C   UNL A   1      44.625  26.888  32.463  1.00  0.00     0.037 A 
ATOM    102  H   UNL A   1      44.075  27.950  35.158  1.00  0.00     0.065 H 
BRANCH  83 103
ATOM    103  C   UNL A   1      42.953  24.168  27.271  1.00  0.00     0.064 A 
ATOM    104  C   UNL A   1      42.609  22.820  27.521  1.00  0.00     0.173 A 
ATOM    105  C   UNL A   1      43.630  24.382  26.051  1.00  0.00     0.173 A 
ATOM    106  F   UNL A   1      41.975  22.462  28.646  1.00  0.00    -0.203 F 
ATOM    107  C   UNL A   1      42.929  21.785  26.634  1.00  0.00     0.198 A 
ATOM    108  C   UNL A   1      43.901  23.355  25.142  1.00  0.00     0.198 A 
ATOM    109  F   UNL A   1      44.124  25.574  25.704  1.00  0.00    -0.203 F 
ATOM    110  F   UNL A   1      42.633  20.518  26.956  1.00  0.00    -0.200 F 
ATOM    111  C   UNL A   1      43.565  22.054  25.440  1.00  0.00     0.200 A 
ATOM    112  F   UNL A   1      44.524  23.640  23.989  1.00  0.00    -0.200 F 
ATOM    113  F   UNL A   1      43.874  21.065  24.591  1.00  0.00    -0.200 F 
ENDBRANCH  83 103
BRANCH  86 114
ATOM    114  C   UNL A   1      40.902  31.595  33.036  1.00  0.00     0.064 A 
ATOM    115  C   UNL A   1      39.890  30.694  33.422  1.00  0.00     0.173 A 
ATOM    116  C   UNL A   1      40.890  32.870  33.613  1.00  0.00     0.173 A 
ATOM    117  F   UNL A   1      39.856  29.458  32.897  1.00  0.00    -0.203 F 
ATOM    118  C   UNL A   1      38.984  31.013  34.431  1.00  0.00     0.198 A 
ATOM    119  C   UNL A   1      39.968  33.192  34.609  1.00  0.00     0.198 A 
ATOM    120  F   UNL A   1      41.840  33.765  33.306  1.00  0.00    -0.203 F 
ATOM    121  F   UNL A   1      38.108  30.093  34.857  1.00  0.00    -0.200 F 
ATOM    122  C   UNL A   1      39.042  32.254  35.042  1.00  0.00     0.200 A 
ATOM    123  F   UNL A   1      40.042  34.382  35.220  1.00  0.00    -0.200 F 
ATOM    124  F   UNL A   1      38.236  32.533  36.075  1.00  0.00    -0.200 F 
ENDBRANCH  86 114
BRANCH 101 125
ATOM    125  C   UNL A   1      45.203  25.828  33.348  1.00  0.00     0.064 A 
ATOM    126  C   UNL A   1      46.578  25.554  33.370  1.00  0.00     0.173 A 
ATOM    127  C   UNL A   1      44.378  24.981  34.115  1.00  0.00     0.173 A 
ATOM    128  F   UNL A   1      47.433  26.294  32.649  1.00  0.00    -0.203 F 
ATOM    129  C   UNL A   1      47.100  24.505  34.130  1.00  0.00     0.198 A 
ATOM    130  C   UNL A   1      44.896  23.906  34.833  1.00  0.00     0.198 A 
ATOM    131  F   UNL A   1      43.056  25.194  34.204  1.00  0.00    -0.203 F 
ATOM    132  F   UNL A   1      48.423  24.301  34.161  1.00  0.00    -0.200 F 
ATOM    133  C   UNL A   1      46.257  23.673  34.848  1.00  0.00     0.200 A 
ATOM    134  F   UNL A   1      44.068  23.101  35.515  1.00  0.00    -0.200 F 
ATOM    135  F   UNL A   1      46.758  22.651  35.556  1.00  0.00    -0.200 F 
ENDBRANCH 101 125
ENDBRANCH  66  69
ENDBRANCH  56  59
ENDBRANCH  52  55
ENDBRANCH  49  52
ENDBRANCH  46  49
ENDBRANCH  43  46
ENDBRANCH   1  43
TORSDOF 18
ENDMDL
