MODEL 1
REMARK VINA RESULT:     -12.4      0.000      0.000
REMARK SMILES CN(C)S(=O)(=O)c1ccc(-n2c(CCC(=O)NCCCCCCNC(=O)c3ccc(-c4c5nc(c(-c6c(F)c(F)c(F)c(F)c6F)c6ccc([nH]6)c(-c6c(F)c(F)c(F)c(F)c6F)c6nc(c(-c7c(F)c(F)c(F)c(F)c7F)c7ccc4[nH]7)C=C6)C=C5)cc3)ccc2-c2ccc(F)cc2)cc1
REMARK SMILES IDX 18 1 17 4 15 5 16 6 14 8 13 11 12 14 11 15 92 16 90 17 91 18
REMARK SMILES IDX 10 21 7 22 8 23 101 24 9 25 100 27 4 31 5 32 6 33 2 34 1 35
REMARK SMILES IDX 3 39 93 43 94 44 99 45 95 46 98 48 96 50 97 53 19 54 20 57
REMARK SMILES IDX 21 60 22 63 23 66 24 69 25 70 26 72 27 73 28 74 89 75 29 76
REMARK SMILES IDX 88 78 30 80 31 83 32 84 82 85 33 86 87 87 81 88 83 89 34 90
REMARK SMILES IDX 86 91 80 93 79 95 35 97 67 100 47 101 66 102 48 103 51 104
REMARK SMILES IDX 65 105 84 106 49 107 50 109 64 111 85 112 52 115 36 117
REMARK SMILES IDX 37 118 45 119 38 120 39 121 43 122 46 123 40 124 41 125
REMARK SMILES IDX 44 126 42 127 68 128 69 129 77 130 70 131 71 132 75 133
REMARK SMILES IDX 78 134 72 135 73 136 76 137 74 138 53 139 54 140 62 141
REMARK SMILES IDX 55 142 56 143 60 144 63 145 57 146 58 147 61 148 59 149
REMARK H PARENT 18 2 18 3 17 7 14 9 14 10 13 12 13 13 90 19 91 20 8 26 101 28
REMARK H PARENT 9 29 100 30 1 36 1 37 1 38 3 40 3 41 3 42 94 47 99 49 95 51
REMARK H PARENT 98 52 19 55 19 56 20 58 20 59 21 61 21 62 22 64 22 65 23 67
REMARK H PARENT 23 68 24 71 28 77 89 79 29 81 88 82 87 92 81 94 83 96 86 98
REMARK H PARENT 80 99 48 108 51 110 84 113 49 114 85 116
REMARK Flexibility Score: inf
ROOT
ATOM      1  C   UNL A   1      33.207  20.461  25.111  1.00  0.00     0.017 C 
ATOM      2  H   UNL A   1      32.787  19.836  25.872  1.00  0.00     0.049 H 
ATOM      3  H   UNL A   1      33.047  21.498  25.318  1.00  0.00     0.049 H 
ENDROOT
BRANCH   1   4
ATOM      4  N   UNL A   1      32.550  20.158  23.847  1.00  0.00    -0.356 N 
ATOM      5  C   UNL A   1      32.267  20.957  22.778  1.00  0.00     0.220 C 
ATOM      6  O   UNL A   1      31.750  20.433  21.787  1.00  0.00    -0.275 OA
ATOM      7  H   UNL A   1      32.263  19.222  23.747  1.00  0.00     0.163 HD
BRANCH   5   8
ATOM      8  C   UNL A   1      32.544  22.451  22.793  1.00  0.00     0.032 C 
ATOM      9  H   UNL A   1      33.531  22.596  23.178  1.00  0.00     0.037 H 
ATOM     10  H   UNL A   1      32.414  22.777  21.782  1.00  0.00     0.037 H 
BRANCH   8  11
ATOM     11  C   UNL A   1      31.579  23.310  23.632  1.00  0.00    -0.003 C 
ATOM     12  H   UNL A   1      30.901  23.799  22.964  1.00  0.00     0.034 H 
ATOM     13  H   UNL A   1      31.091  22.643  24.311  1.00  0.00     0.034 H 
BRANCH  11  14
ATOM     14  C   UNL A   1      32.252  24.367  24.478  1.00  0.00     0.024 A 
ATOM     15  N   UNL A   1      32.057  25.769  24.464  1.00  0.00    -0.314 N 
ATOM     16  C   UNL A   1      32.954  26.311  25.439  1.00  0.00     0.053 A 
ATOM     17  C   UNL A   1      33.253  24.077  25.392  1.00  0.00    -0.040 A 
ATOM     18  C   UNL A   1      33.688  25.271  25.979  1.00  0.00    -0.036 A 
ATOM     19  H   UNL A   1      33.617  23.136  25.606  1.00  0.00     0.064 H 
ATOM     20  H   UNL A   1      34.430  25.360  26.690  1.00  0.00     0.065 H 
BRANCH  15  21
ATOM     21  C   UNL A   1      31.020  26.531  23.776  1.00  0.00     0.046 A 
ATOM     22  C   UNL A   1      29.153  28.466  22.905  1.00  0.00     0.082 A 
ATOM     23  C   UNL A   1      30.460  28.494  22.437  1.00  0.00    -0.040 A 
ATOM     24  C   UNL A   1      28.746  27.438  23.740  1.00  0.00    -0.040 A 
ATOM     25  C   UNL A   1      31.345  27.479  22.799  1.00  0.00    -0.037 A 
ATOM     26  H   UNL A   1      30.774  29.264  21.825  1.00  0.00     0.064 H 
ATOM     27  C   UNL A   1      29.679  26.486  24.162  1.00  0.00    -0.037 A 
ATOM     28  H   UNL A   1      27.764  27.377  24.047  1.00  0.00     0.064 H 
ATOM     29  H   UNL A   1      32.265  27.424  22.333  1.00  0.00     0.065 H 
ATOM     30  H   UNL A   1      29.365  25.723  24.782  1.00  0.00     0.065 H 
BRANCH  22  31
ATOM     31  S   UNL A   1      28.019  29.742  22.445  1.00  0.00     0.242 S 
ATOM     32  O   UNL A   1      26.702  29.350  22.891  1.00  0.00    -0.207 OA
ATOM     33  O   UNL A   1      28.265  30.071  21.054  1.00  0.00    -0.207 OA
BRANCH  31  34
ATOM     34  N   UNL A   1      28.551  31.058  23.401  1.00  0.00    -0.204 NA
BRANCH  34  35
ATOM     35  C   UNL A   1      29.839  30.802  24.075  1.00  0.00     0.002 C 
ATOM     36  H   UNL A   1      29.691  30.108  24.875  1.00  0.00     0.041 H 
ATOM     37  H   UNL A   1      30.226  31.720  24.465  1.00  0.00     0.041 H 
ATOM     38  H   UNL A   1      30.534  30.393  23.371  1.00  0.00     0.041 H 
ENDBRANCH  34  35
BRANCH  34  39
ATOM     39  C   UNL A   1      28.521  32.383  22.741  1.00  0.00     0.002 C 
ATOM     40  H   UNL A   1      28.316  32.258  21.698  1.00  0.00     0.041 H 
ATOM     41  H   UNL A   1      29.469  32.864  22.863  1.00  0.00     0.041 H 
ATOM     42  H   UNL A   1      27.755  32.985  23.185  1.00  0.00     0.041 H 
ENDBRANCH  34  39
ENDBRANCH  31  34
ENDBRANCH  22  31
ENDBRANCH  15  21
BRANCH  16  43
ATOM     43  C   UNL A   1      32.918  27.684  25.974  1.00  0.00    -0.001 A 
ATOM     44  C   UNL A   1      31.800  28.226  26.611  1.00  0.00    -0.050 A 
ATOM     45  C   UNL A   1      34.093  28.444  25.941  1.00  0.00    -0.050 A 
ATOM     46  C   UNL A   1      31.912  29.454  27.282  1.00  0.00    -0.026 A 
ATOM     47  H   UNL A   1      30.896  27.726  26.587  1.00  0.00     0.063 H 
ATOM     48  C   UNL A   1      34.219  29.659  26.609  1.00  0.00    -0.026 A 
ATOM     49  H   UNL A   1      34.898  28.091  25.400  1.00  0.00     0.063 H 
ATOM     50  C   UNL A   1      33.123  30.148  27.293  1.00  0.00     0.123 A 
ATOM     51  H   UNL A   1      31.093  29.846  27.774  1.00  0.00     0.065 H 
ATOM     52  H   UNL A   1      35.109  30.181  26.593  1.00  0.00     0.065 H 
ATOM     53  F   UNL A   1      33.208  31.338  27.899  1.00  0.00    -0.207 F 
ENDBRANCH  16  43
ENDBRANCH  11  14
ENDBRANCH   8  11
ENDBRANCH   5   8
ENDBRANCH   1   4
BRANCH   1  54
ATOM     54  C   UNL A   1      34.716  20.227  25.065  1.00  0.00    -0.036 C 
ATOM     55  H   UNL A   1      34.896  19.404  24.404  1.00  0.00     0.028 H 
ATOM     56  H   UNL A   1      35.005  20.058  26.081  1.00  0.00     0.028 H 
BRANCH  54  57
ATOM     57  C   UNL A   1      35.587  21.399  24.592  1.00  0.00    -0.052 C 
ATOM     58  H   UNL A   1      34.926  22.121  24.160  1.00  0.00     0.027 H 
ATOM     59  H   UNL A   1      36.296  20.933  23.940  1.00  0.00     0.027 H 
BRANCH  57  60
ATOM     60  C   UNL A   1      36.482  22.161  25.610  1.00  0.00    -0.052 C 
ATOM     61  H   UNL A   1      37.359  21.563  25.735  1.00  0.00     0.027 H 
ATOM     62  H   UNL A   1      35.805  22.299  26.427  1.00  0.00     0.027 H 
BRANCH  60  63
ATOM     63  C   UNL A   1      36.984  23.608  25.379  1.00  0.00    -0.036 C 
ATOM     64  H   UNL A   1      36.139  24.175  25.046  1.00  0.00     0.028 H 
ATOM     65  H   UNL A   1      37.797  23.471  24.698  1.00  0.00     0.028 H 
BRANCH  63  66
ATOM     66  C   UNL A   1      37.636  24.419  26.536  1.00  0.00     0.018 C 
ATOM     67  H   UNL A   1      36.939  24.469  27.346  1.00  0.00     0.049 H 
ATOM     68  H   UNL A   1      37.877  25.384  26.141  1.00  0.00     0.049 H 
BRANCH  66  69
ATOM     69  N   UNL A   1      38.880  23.843  27.037  1.00  0.00    -0.352 N 
ATOM     70  C   UNL A   1      40.015  24.378  27.617  1.00  0.00     0.251 C 
ATOM     71  H   UNL A   1      38.921  22.864  26.940  1.00  0.00     0.163 HD
ATOM     72  O   UNL A   1      41.045  23.707  27.500  1.00  0.00    -0.269 OA
BRANCH  70  73
ATOM     73  C   UNL A   1      40.117  25.649  28.408  1.00  0.00     0.039 A 
ATOM     74  C   UNL A   1      41.343  26.348  28.389  1.00  0.00    -0.049 A 
ATOM     75  C   UNL A   1      39.143  26.111  29.285  1.00  0.00    -0.049 A 
ATOM     76  C   UNL A   1      41.575  27.471  29.208  1.00  0.00    -0.053 A 
ATOM     77  H   UNL A   1      42.092  26.028  27.755  1.00  0.00     0.063 H 
ATOM     78  C   UNL A   1      39.397  27.182  30.173  1.00  0.00    -0.053 A 
ATOM     79  H   UNL A   1      38.215  25.662  29.290  1.00  0.00     0.063 H 
ATOM     80  C   UNL A   1      40.597  27.905  30.108  1.00  0.00    -0.014 A 
ATOM     81  H   UNL A   1      42.473  27.976  29.143  1.00  0.00     0.063 H 
ATOM     82  H   UNL A   1      38.688  27.436  30.880  1.00  0.00     0.063 H 
BRANCH  80  83
ATOM     83  C   UNL A   1      40.653  29.316  30.627  1.00  0.00     0.031 A 
ATOM     84  C   UNL A   1      39.484  30.153  30.005  1.00  0.00     0.074 A 
ATOM     85  C   UNL A   1      41.644  29.706  31.504  1.00  0.00     0.049 A 
ATOM     86  N   UNL A   1      39.316  31.439  29.922  1.00  0.00    -0.248 NA
ATOM     87  C   UNL A   1      38.339  29.448  29.352  1.00  0.00    -0.034 C 
ATOM     88  C   UNL A   1      42.661  28.807  32.093  1.00  0.00    -0.036 A 
ATOM     89  N   UNL A   1      42.009  30.921  32.087  1.00  0.00    -0.354 N 
ATOM     90  C   UNL A   1      38.003  31.673  29.436  1.00  0.00     0.074 A 
ATOM     91  C   UNL A   1      37.491  30.415  29.012  1.00  0.00    -0.034 C 
ATOM     92  H   UNL A   1      38.230  28.434  29.198  1.00  0.00     0.065 H 
ATOM     93  C   UNL A   1      43.555  29.495  32.847  1.00  0.00    -0.036 A 
ATOM     94  H   UNL A   1      42.688  27.785  31.948  1.00  0.00     0.065 H 
ATOM     95  C   UNL A   1      43.218  30.908  32.859  1.00  0.00     0.049 A 
ATOM     96  H   UNL A   1      41.471  31.738  31.973  1.00  0.00     0.167 HD
ATOM     97  C   UNL A   1      37.358  32.870  29.548  1.00  0.00     0.037 A 
ATOM     98  H   UNL A   1      36.596  30.274  28.516  1.00  0.00     0.065 H 
ATOM     99  H   UNL A   1      44.360  29.076  33.339  1.00  0.00     0.065 H 
ATOM    100  C   UNL A   1      43.906  31.955  33.441  1.00  0.00     0.037 A 
ATOM    101  C   UNL A   1      38.262  33.851  30.027  1.00  0.00     0.049 A 
ATOM    102  C   UNL A   1      42.998  33.097  33.337  1.00  0.00     0.074 A 
ATOM    103  C   UNL A   1      39.359  34.437  29.456  1.00  0.00    -0.036 A 
ATOM    104  N   UNL A   1      38.282  34.054  31.382  1.00  0.00    -0.354 N 
ATOM    105  N   UNL A   1      41.964  33.271  34.102  1.00  0.00    -0.248 NA
ATOM    106  C   UNL A   1      43.249  34.119  32.314  1.00  0.00    -0.034 C 
ATOM    107  C   UNL A   1      40.255  34.535  30.536  1.00  0.00    -0.036 A 
ATOM    108  H   UNL A   1      39.495  34.735  28.478  1.00  0.00     0.065 H 
ATOM    109  C   UNL A   1      39.588  34.250  31.733  1.00  0.00     0.049 A 
ATOM    110  H   UNL A   1      37.505  34.057  31.986  1.00  0.00     0.167 HD
ATOM    111  C   UNL A   1      41.265  34.217  33.402  1.00  0.00     0.074 A 
ATOM    112  C   UNL A   1      42.219  34.920  32.574  1.00  0.00    -0.034 C 
ATOM    113  H   UNL A   1      43.998  34.193  31.608  1.00  0.00     0.065 H 
ATOM    114  H   UNL A   1      41.254  34.781  30.458  1.00  0.00     0.065 H 
ATOM    115  C   UNL A   1      39.974  33.953  33.086  1.00  0.00     0.037 A 
ATOM    116  H   UNL A   1      42.118  35.891  32.237  1.00  0.00     0.065 H 
BRANCH  97 117
ATOM    117  C   UNL A   1      35.897  33.238  29.532  1.00  0.00     0.064 A 
ATOM    118  C   UNL A   1      35.371  33.790  28.334  1.00  0.00     0.173 A 
ATOM    119  C   UNL A   1      35.151  33.468  30.695  1.00  0.00     0.173 A 
ATOM    120  F   UNL A   1      35.976  33.579  27.154  1.00  0.00    -0.203 F 
ATOM    121  C   UNL A   1      34.288  34.665  28.338  1.00  0.00     0.198 A 
ATOM    122  C   UNL A   1      34.027  34.300  30.682  1.00  0.00     0.198 A 
ATOM    123  F   UNL A   1      35.543  32.992  31.882  1.00  0.00    -0.203 F 
ATOM    124  F   UNL A   1      33.941  35.305  27.211  1.00  0.00    -0.200 F 
ATOM    125  C   UNL A   1      33.630  34.939  29.520  1.00  0.00     0.200 A 
ATOM    126  F   UNL A   1      33.382  34.552  31.830  1.00  0.00    -0.200 F 
ATOM    127  F   UNL A   1      32.644  35.845  29.548  1.00  0.00    -0.200 F 
ENDBRANCH  97 117
BRANCH 100 128
ATOM    128  C   UNL A   1      45.235  32.302  34.123  1.00  0.00     0.064 A 
ATOM    129  C   UNL A   1      45.414  32.658  35.462  1.00  0.00     0.173 A 
ATOM    130  C   UNL A   1      46.471  32.179  33.401  1.00  0.00     0.173 A 
ATOM    131  F   UNL A   1      44.365  32.939  36.241  1.00  0.00    -0.203 F 
ATOM    132  C   UNL A   1      46.702  32.753  36.048  1.00  0.00     0.198 A 
ATOM    133  C   UNL A   1      47.736  32.205  33.990  1.00  0.00     0.198 A 
ATOM    134  F   UNL A   1      46.507  32.028  32.071  1.00  0.00    -0.203 F 
ATOM    135  F   UNL A   1      46.823  33.101  37.337  1.00  0.00    -0.200 F 
ATOM    136  C   UNL A   1      47.853  32.476  35.326  1.00  0.00     0.200 A 
ATOM    137  F   UNL A   1      48.824  31.947  33.247  1.00  0.00    -0.200 F 
ATOM    138  F   UNL A   1      49.061  32.486  35.907  1.00  0.00    -0.200 F 
ENDBRANCH 100 128
BRANCH 115 139
ATOM    139  C   UNL A   1      39.284  33.006  34.051  1.00  0.00     0.064 A 
ATOM    140  C   UNL A   1      39.114  33.389  35.392  1.00  0.00     0.173 A 
ATOM    141  C   UNL A   1      38.908  31.688  33.736  1.00  0.00     0.173 A 
ATOM    142  F   UNL A   1      39.427  34.637  35.774  1.00  0.00    -0.203 F 
ATOM    143  C   UNL A   1      38.626  32.503  36.356  1.00  0.00     0.198 A 
ATOM    144  C   UNL A   1      38.417  30.800  34.699  1.00  0.00     0.198 A 
ATOM    145  F   UNL A   1      39.009  31.230  32.490  1.00  0.00    -0.203 F 
ATOM    146  F   UNL A   1      38.486  32.911  37.626  1.00  0.00    -0.200 F 
ATOM    147  C   UNL A   1      38.282  31.207  36.011  1.00  0.00     0.200 A 
ATOM    148  F   UNL A   1      38.069  29.552  34.346  1.00  0.00    -0.200 F 
ATOM    149  F   UNL A   1      37.806  30.361  36.935  1.00  0.00    -0.200 F 
ENDBRANCH 115 139
ENDBRANCH  80  83
ENDBRANCH  70  73
ENDBRANCH  66  69
ENDBRANCH  63  66
ENDBRANCH  60  63
ENDBRANCH  57  60
ENDBRANCH  54  57
ENDBRANCH   1  54
TORSDOF 21
ENDMDL
MODEL 2
REMARK VINA RESULT:     -12.3      4.480      6.680
REMARK SMILES CN(C)S(=O)(=O)c1ccc(-n2c(CCC(=O)NCCCCCCNC(=O)c3ccc(-c4c5nc(c(-c6c(F)c(F)c(F)c(F)c6F)c6ccc([nH]6)c(-c6c(F)c(F)c(F)c(F)c6F)c6nc(c(-c7c(F)c(F)c(F)c(F)c7F)c7ccc4[nH]7)C=C6)C=C5)cc3)ccc2-c2ccc(F)cc2)cc1
REMARK SMILES IDX 18 1 17 4 15 5 16 6 14 8 13 11 12 14 11 15 92 16 90 17 91 18
REMARK SMILES IDX 10 21 7 22 8 23 101 24 9 25 100 27 4 31 5 32 6 33 2 34 1 35
REMARK SMILES IDX 3 39 93 43 94 44 99 45 95 46 98 48 96 50 97 53 19 54 20 57
REMARK SMILES IDX 21 60 22 63 23 66 24 69 25 70 26 72 27 73 28 74 89 75 29 76
REMARK SMILES IDX 88 78 30 80 31 83 32 84 82 85 33 86 87 87 81 88 83 89 34 90
REMARK SMILES IDX 86 91 80 93 79 95 35 97 67 100 47 101 66 102 48 103 51 104
REMARK SMILES IDX 65 105 84 106 49 107 50 109 64 111 85 112 52 115 36 117
REMARK SMILES IDX 37 118 45 119 38 120 39 121 43 122 46 123 40 124 41 125
REMARK SMILES IDX 44 126 42 127 68 128 69 129 77 130 70 131 71 132 75 133
REMARK SMILES IDX 78 134 72 135 73 136 76 137 74 138 53 139 54 140 62 141
REMARK SMILES IDX 55 142 56 143 60 144 63 145 57 146 58 147 61 148 59 149
REMARK H PARENT 18 2 18 3 17 7 14 9 14 10 13 12 13 13 90 19 91 20 8 26 101 28
REMARK H PARENT 9 29 100 30 1 36 1 37 1 38 3 40 3 41 3 42 94 47 99 49 95 51
REMARK H PARENT 98 52 19 55 19 56 20 58 20 59 21 61 21 62 22 64 22 65 23 67
REMARK H PARENT 23 68 24 71 28 77 89 79 29 81 88 82 87 92 81 94 83 96 86 98
REMARK H PARENT 80 99 48 108 51 110 84 113 49 114 85 116
REMARK Flexibility Score: inf
ROOT
ATOM      1  C   UNL A   1      32.506  20.678  25.170  1.00  0.00     0.017 C 
ATOM      2  H   UNL A   1      31.683  20.451  25.815  1.00  0.00     0.049 H 
ATOM      3  H   UNL A   1      32.751  21.719  25.193  1.00  0.00     0.049 H 
ENDROOT
BRANCH   1   4
ATOM      4  N   UNL A   1      32.132  20.344  23.802  1.00  0.00    -0.356 N 
ATOM      5  C   UNL A   1      32.192  21.084  22.658  1.00  0.00     0.220 C 
ATOM      6  O   UNL A   1      31.865  20.538  21.600  1.00  0.00    -0.275 OA
ATOM      7  H   UNL A   1      31.776  19.434  23.685  1.00  0.00     0.163 HD
BRANCH   5   8
ATOM      8  C   UNL A   1      32.619  22.542  22.663  1.00  0.00     0.032 C 
ATOM      9  H   UNL A   1      33.549  22.609  23.187  1.00  0.00     0.037 H 
ATOM     10  H   UNL A   1      32.673  22.829  21.634  1.00  0.00     0.037 H 
BRANCH   8  11
ATOM     11  C   UNL A   1      31.637  23.533  23.317  1.00  0.00    -0.003 C 
ATOM     12  H   UNL A   1      31.126  24.059  22.538  1.00  0.00     0.034 H 
ATOM     13  H   UNL A   1      30.981  22.950  23.929  1.00  0.00     0.034 H 
BRANCH  11  14
ATOM     14  C   UNL A   1      32.284  24.550  24.228  1.00  0.00     0.024 A 
ATOM     15  N   UNL A   1      32.092  25.953  24.267  1.00  0.00    -0.314 N 
ATOM     16  C   UNL A   1      32.957  26.450  25.292  1.00  0.00     0.053 A 
ATOM     17  C   UNL A   1      33.253  24.219  25.162  1.00  0.00    -0.040 A 
ATOM     18  C   UNL A   1      33.671  25.386  25.813  1.00  0.00    -0.036 A 
ATOM     19  H   UNL A   1      33.607  23.268  25.348  1.00  0.00     0.064 H 
ATOM     20  H   UNL A   1      34.390  25.442  26.551  1.00  0.00     0.065 H 
BRANCH  15  21
ATOM     21  C   UNL A   1      31.080  26.747  23.577  1.00  0.00     0.046 A 
ATOM     22  C   UNL A   1      29.242  28.720  22.732  1.00  0.00     0.082 A 
ATOM     23  C   UNL A   1      30.566  28.775  22.319  1.00  0.00    -0.040 A 
ATOM     24  C   UNL A   1      28.806  27.650  23.497  1.00  0.00    -0.040 A 
ATOM     25  C   UNL A   1      31.441  27.744  22.664  1.00  0.00    -0.037 A 
ATOM     26  H   UNL A   1      30.902  29.575  21.761  1.00  0.00     0.064 H 
ATOM     27  C   UNL A   1      29.725  26.679  23.907  1.00  0.00    -0.037 A 
ATOM     28  H   UNL A   1      27.813  27.571  23.761  1.00  0.00     0.064 H 
ATOM     29  H   UNL A   1      32.378  27.715  22.234  1.00  0.00     0.065 H 
ATOM     30  H   UNL A   1      29.390  25.885  24.474  1.00  0.00     0.065 H 
BRANCH  22  31
ATOM     31  S   UNL A   1      28.122  30.015  22.294  1.00  0.00     0.242 S 
ATOM     32  O   UNL A   1      26.965  29.915  23.153  1.00  0.00    -0.207 OA
ATOM     33  O   UNL A   1      27.979  30.005  20.850  1.00  0.00    -0.207 OA
BRANCH  31  34
ATOM     34  N   UNL A   1      29.004  31.416  22.726  1.00  0.00    -0.204 NA
BRANCH  34  35
ATOM     35  C   UNL A   1      28.491  32.645  22.090  1.00  0.00     0.002 C 
ATOM     36  H   UNL A   1      27.421  32.628  22.093  1.00  0.00     0.041 H 
ATOM     37  H   UNL A   1      28.844  32.700  21.082  1.00  0.00     0.041 H 
ATOM     38  H   UNL A   1      28.834  33.499  22.636  1.00  0.00     0.041 H 
ENDBRANCH  34  35
BRANCH  34  39
ATOM     39  C   UNL A   1      29.249  31.599  24.174  1.00  0.00     0.002 C 
ATOM     40  H   UNL A   1      28.327  31.830  24.666  1.00  0.00     0.041 H 
ATOM     41  H   UNL A   1      29.942  32.401  24.321  1.00  0.00     0.041 H 
ATOM     42  H   UNL A   1      29.655  30.697  24.583  1.00  0.00     0.041 H 
ENDBRANCH  34  39
ENDBRANCH  31  34
ENDBRANCH  22  31
ENDBRANCH  15  21
BRANCH  16  43
ATOM     43  C   UNL A   1      32.908  27.799  25.884  1.00  0.00    -0.001 A 
ATOM     44  C   UNL A   1      31.790  28.295  26.559  1.00  0.00    -0.050 A 
ATOM     45  C   UNL A   1      34.069  28.581  25.864  1.00  0.00    -0.050 A 
ATOM     46  C   UNL A   1      31.893  29.497  27.278  1.00  0.00    -0.026 A 
ATOM     47  H   UNL A   1      30.895  27.782  26.529  1.00  0.00     0.063 H 
ATOM     48  C   UNL A   1      34.185  29.769  26.578  1.00  0.00    -0.026 A 
ATOM     49  H   UNL A   1      34.871  28.263  25.297  1.00  0.00     0.063 H 
ATOM     50  C   UNL A   1      33.092  30.211  27.298  1.00  0.00     0.123 A 
ATOM     51  H   UNL A   1      31.075  29.855  27.797  1.00  0.00     0.065 H 
ATOM     52  H   UNL A   1      35.066  30.307  26.570  1.00  0.00     0.065 H 
ATOM     53  F   UNL A   1      33.166  31.377  27.951  1.00  0.00    -0.207 F 
ENDBRANCH  16  43
ENDBRANCH  11  14
ENDBRANCH   8  11
ENDBRANCH   5   8
ENDBRANCH   1   4
BRANCH   1  54
ATOM     54  C   UNL A   1      33.733  19.905  25.653  1.00  0.00    -0.036 C 
ATOM     55  H   UNL A   1      33.416  18.909  25.888  1.00  0.00     0.028 H 
ATOM     56  H   UNL A   1      34.108  20.465  26.484  1.00  0.00     0.028 H 
BRANCH  54  57
ATOM     57  C   UNL A   1      34.914  19.797  24.679  1.00  0.00    -0.052 C 
ATOM     58  H   UNL A   1      34.560  20.126  23.725  1.00  0.00     0.027 H 
ATOM     59  H   UNL A   1      35.212  18.773  24.765  1.00  0.00     0.027 H 
BRANCH  57  60
ATOM     60  C   UNL A   1      36.229  20.578  24.964  1.00  0.00    -0.052 C 
ATOM     61  H   UNL A   1      36.093  21.043  25.917  1.00  0.00     0.027 H 
ATOM     62  H   UNL A   1      36.316  21.176  24.081  1.00  0.00     0.027 H 
BRANCH  60  63
ATOM     63  C   UNL A   1      37.621  19.901  25.016  1.00  0.00    -0.036 C 
ATOM     64  H   UNL A   1      37.932  19.762  24.002  1.00  0.00     0.028 H 
ATOM     65  H   UNL A   1      37.439  19.030  25.610  1.00  0.00     0.028 H 
BRANCH  63  66
ATOM     66  C   UNL A   1      38.810  20.581  25.756  1.00  0.00     0.018 C 
ATOM     67  H   UNL A   1      38.450  20.966  26.687  1.00  0.00     0.049 H 
ATOM     68  H   UNL A   1      39.179  21.349  25.108  1.00  0.00     0.049 H 
BRANCH  66  69
ATOM     69  N   UNL A   1      39.928  19.684  26.032  1.00  0.00    -0.352 N 
ATOM     70  C   UNL A   1      41.296  19.862  26.117  1.00  0.00     0.251 C 
ATOM     71  H   UNL A   1      39.649  18.754  26.191  1.00  0.00     0.163 HD
ATOM     72  O   UNL A   1      41.982  18.857  25.906  1.00  0.00    -0.269 OA
BRANCH  70  73
ATOM     73  C   UNL A   1      42.027  21.121  26.484  1.00  0.00     0.039 A 
ATOM     74  C   UNL A   1      42.616  21.874  25.446  1.00  0.00    -0.049 A 
ATOM     75  C   UNL A   1      42.301  21.521  27.786  1.00  0.00    -0.049 A 
ATOM     76  C   UNL A   1      43.436  22.989  25.707  1.00  0.00    -0.053 A 
ATOM     77  H   UNL A   1      42.440  21.600  24.467  1.00  0.00     0.063 H 
ATOM     78  C   UNL A   1      43.192  22.584  28.059  1.00  0.00    -0.053 A 
ATOM     79  H   UNL A   1      41.845  21.031  28.571  1.00  0.00     0.063 H 
ATOM     80  C   UNL A   1      43.729  23.361  27.023  1.00  0.00    -0.014 A 
ATOM     81  H   UNL A   1      43.825  23.535  24.921  1.00  0.00     0.063 H 
ATOM     82  H   UNL A   1      43.451  22.792  29.037  1.00  0.00     0.063 H 
BRANCH  80  83
ATOM     83  C   UNL A   1      44.200  24.763  27.301  1.00  0.00     0.031 A 
ATOM     84  C   UNL A   1      42.964  25.712  27.462  1.00  0.00     0.074 A 
ATOM     85  C   UNL A   1      45.547  25.055  27.364  1.00  0.00     0.049 A 
ATOM     86  N   UNL A   1      42.880  27.008  27.410  1.00  0.00    -0.248 NA
ATOM     87  C   UNL A   1      41.609  25.125  27.692  1.00  0.00    -0.034 C 
ATOM     88  C   UNL A   1      46.638  24.059  27.273  1.00  0.00    -0.036 A 
ATOM     89  N   UNL A   1      46.285  26.230  27.518  1.00  0.00    -0.354 N 
ATOM     90  C   UNL A   1      41.568  27.373  27.808  1.00  0.00     0.074 A 
ATOM     91  C   UNL A   1      40.808  26.172  27.872  1.00  0.00    -0.034 C 
ATOM     92  H   UNL A   1      41.350  24.126  27.707  1.00  0.00     0.065 H 
ATOM     93  C   UNL A   1      47.857  24.657  27.277  1.00  0.00    -0.036 A 
ATOM     94  H   UNL A   1      46.492  23.039  27.214  1.00  0.00     0.065 H 
ATOM     95  C   UNL A   1      47.708  26.097  27.395  1.00  0.00     0.049 A 
ATOM     96  H   UNL A   1      45.855  27.097  27.699  1.00  0.00     0.167 HD
ATOM     97  C   UNL A   1      41.223  28.631  28.206  1.00  0.00     0.037 A 
ATOM     98  H   UNL A   1      39.790  26.120  28.034  1.00  0.00     0.065 H 
ATOM     99  H   UNL A   1      48.758  24.160  27.207  1.00  0.00     0.065 H 
ATOM    100  C   UNL A   1      48.687  27.071  27.363  1.00  0.00     0.037 A 
ATOM    101  C   UNL A   1      42.302  29.517  27.966  1.00  0.00     0.049 A 
ATOM    102  C   UNL A   1      47.997  28.301  27.754  1.00  0.00     0.074 A 
ATOM    103  C   UNL A   1      42.862  29.982  26.807  1.00  0.00    -0.036 A 
ATOM    104  N   UNL A   1      43.163  29.727  29.011  1.00  0.00    -0.354 N 
ATOM    105  N   UNL A   1      47.666  28.586  28.976  1.00  0.00    -0.248 NA
ATOM    106  C   UNL A   1      47.647  29.283  26.722  1.00  0.00    -0.034 C 
ATOM    107  C   UNL A   1      44.235  29.995  27.108  1.00  0.00    -0.036 A 
ATOM    108  H   UNL A   1      42.392  30.256  25.930  1.00  0.00     0.065 H 
ATOM    109  C   UNL A   1      44.421  29.789  28.480  1.00  0.00     0.049 A 
ATOM    110  H   UNL A   1      42.922  29.815  29.961  1.00  0.00     0.167 HD
ATOM    111  C   UNL A   1      46.760  29.595  28.783  1.00  0.00     0.074 A 
ATOM    112  C   UNL A   1      47.058  30.189  27.498  1.00  0.00    -0.034 C 
ATOM    113  H   UNL A   1      47.810  29.274  25.702  1.00  0.00     0.065 H 
ATOM    114  H   UNL A   1      44.993  30.135  26.422  1.00  0.00     0.065 H 
ATOM    115  C   UNL A   1      45.530  29.464  29.336  1.00  0.00     0.037 A 
ATOM    116  H   UNL A   1      46.847  31.162  27.226  1.00  0.00     0.065 H 
BRANCH  97 117
ATOM    117  C   UNL A   1      40.091  29.149  29.056  1.00  0.00     0.064 A 
ATOM    118  C   UNL A   1      40.103  28.822  30.437  1.00  0.00     0.173 A 
ATOM    119  C   UNL A   1      38.856  29.548  28.528  1.00  0.00     0.173 A 
ATOM    120  F   UNL A   1      41.245  28.484  31.056  1.00  0.00    -0.203 F 
ATOM    121  C   UNL A   1      38.929  28.717  31.181  1.00  0.00     0.198 A 
ATOM    122  C   UNL A   1      37.689  29.498  29.297  1.00  0.00     0.198 A 
ATOM    123  F   UNL A   1      38.723  29.886  27.241  1.00  0.00    -0.203 F 
ATOM    124  F   UNL A   1      38.971  28.227  32.429  1.00  0.00    -0.200 F 
ATOM    125  C   UNL A   1      37.718  29.033  30.601  1.00  0.00     0.200 A 
ATOM    126  F   UNL A   1      36.516  29.820  28.735  1.00  0.00    -0.200 F 
ATOM    127  F   UNL A   1      36.578  28.852  31.281  1.00  0.00    -0.200 F 
ENDBRANCH  97 117
BRANCH 100 128
ATOM    128  C   UNL A   1      50.177  27.283  27.070  1.00  0.00     0.064 A 
ATOM    129  C   UNL A   1      51.209  27.348  28.010  1.00  0.00     0.173 A 
ATOM    130  C   UNL A   1      50.645  27.336  25.713  1.00  0.00     0.173 A 
ATOM    131  F   UNL A   1      50.939  27.441  29.316  1.00  0.00    -0.203 F 
ATOM    132  C   UNL A   1      52.574  27.335  27.628  1.00  0.00     0.198 A 
ATOM    133  C   UNL A   1      51.987  27.254  25.337  1.00  0.00     0.198 A 
ATOM    134  F   UNL A   1      49.810  27.473  24.675  1.00  0.00    -0.203 F 
ATOM    135  F   UNL A   1      53.528  27.401  28.568  1.00  0.00    -0.200 F 
ATOM    136  C   UNL A   1      52.958  27.235  26.300  1.00  0.00     0.200 A 
ATOM    137  F   UNL A   1      52.312  27.177  24.036  1.00  0.00    -0.200 F 
ATOM    138  F   UNL A   1      54.249  27.138  25.951  1.00  0.00    -0.200 F 
ENDBRANCH 100 128
BRANCH 115 139
ATOM    139  C   UNL A   1      45.505  28.601  30.584  1.00  0.00     0.064 A 
ATOM    140  C   UNL A   1      44.823  27.372  30.560  1.00  0.00     0.173 A 
ATOM    141  C   UNL A   1      46.008  28.999  31.835  1.00  0.00     0.173 A 
ATOM    142  F   UNL A   1      44.330  26.906  29.402  1.00  0.00    -0.203 F 
ATOM    143  C   UNL A   1      44.636  26.609  31.715  1.00  0.00     0.198 A 
ATOM    144  C   UNL A   1      45.825  28.236  32.993  1.00  0.00     0.198 A 
ATOM    145  F   UNL A   1      46.688  30.136  31.965  1.00  0.00    -0.203 F 
ATOM    146  F   UNL A   1      43.974  25.445  31.646  1.00  0.00    -0.200 F 
ATOM    147  C   UNL A   1      45.132  27.042  32.933  1.00  0.00     0.200 A 
ATOM    148  F   UNL A   1      46.329  28.659  34.163  1.00  0.00    -0.200 F 
ATOM    149  F   UNL A   1      44.960  26.305  34.039  1.00  0.00    -0.200 F 
ENDBRANCH 115 139
ENDBRANCH  80  83
ENDBRANCH  70  73
ENDBRANCH  66  69
ENDBRANCH  63  66
ENDBRANCH  60  63
ENDBRANCH  57  60
ENDBRANCH  54  57
ENDBRANCH   1  54
TORSDOF 21
ENDMDL
MODEL 3
REMARK VINA RESULT:     -12.0      2.516      7.895
REMARK SMILES CN(C)S(=O)(=O)c1ccc(-n2c(CCC(=O)NCCCCCCNC(=O)c3ccc(-c4c5nc(c(-c6c(F)c(F)c(F)c(F)c6F)c6ccc([nH]6)c(-c6c(F)c(F)c(F)c(F)c6F)c6nc(c(-c7c(F)c(F)c(F)c(F)c7F)c7ccc4[nH]7)C=C6)C=C5)cc3)ccc2-c2ccc(F)cc2)cc1
REMARK SMILES IDX 18 1 17 4 15 5 16 6 14 8 13 11 12 14 11 15 92 16 90 17 91 18
REMARK SMILES IDX 10 21 7 22 8 23 101 24 9 25 100 27 4 31 5 32 6 33 2 34 1 35
REMARK SMILES IDX 3 39 93 43 94 44 99 45 95 46 98 48 96 50 97 53 19 54 20 57
REMARK SMILES IDX 21 60 22 63 23 66 24 69 25 70 26 72 27 73 28 74 89 75 29 76
REMARK SMILES IDX 88 78 30 80 31 83 32 84 82 85 33 86 87 87 81 88 83 89 34 90
REMARK SMILES IDX 86 91 80 93 79 95 35 97 67 100 47 101 66 102 48 103 51 104
REMARK SMILES IDX 65 105 84 106 49 107 50 109 64 111 85 112 52 115 36 117
REMARK SMILES IDX 37 118 45 119 38 120 39 121 43 122 46 123 40 124 41 125
REMARK SMILES IDX 44 126 42 127 68 128 69 129 77 130 70 131 71 132 75 133
REMARK SMILES IDX 78 134 72 135 73 136 76 137 74 138 53 139 54 140 62 141
REMARK SMILES IDX 55 142 56 143 60 144 63 145 57 146 58 147 61 148 59 149
REMARK H PARENT 18 2 18 3 17 7 14 9 14 10 13 12 13 13 90 19 91 20 8 26 101 28
REMARK H PARENT 9 29 100 30 1 36 1 37 1 38 3 40 3 41 3 42 94 47 99 49 95 51
REMARK H PARENT 98 52 19 55 19 56 20 58 20 59 21 61 21 62 22 64 22 65 23 67
REMARK H PARENT 23 68 24 71 28 77 89 79 29 81 88 82 87 92 81 94 83 96 86 98
REMARK H PARENT 80 99 48 108 51 110 84 113 49 114 85 116
REMARK Flexibility Score: inf
ROOT
ATOM      1  C   UNL A   1      33.543  20.387  25.586  1.00  0.00     0.017 C 
ATOM      2  H   UNL A   1      33.683  19.385  25.936  1.00  0.00     0.049 H 
ATOM      3  H   UNL A   1      32.823  20.915  26.175  1.00  0.00     0.049 H 
ENDROOT
BRANCH   1   4
ATOM      4  N   UNL A   1      33.043  20.338  24.219  1.00  0.00    -0.356 N 
ATOM      5  C   UNL A   1      32.280  21.227  23.520  1.00  0.00     0.220 C 
ATOM      6  O   UNL A   1      32.040  20.973  22.335  1.00  0.00    -0.275 OA
ATOM      7  H   UNL A   1      33.296  19.530  23.718  1.00  0.00     0.163 HD
BRANCH   5   8
ATOM      8  C   UNL A   1      31.712  22.481  24.161  1.00  0.00     0.032 C 
ATOM      9  H   UNL A   1      30.650  22.369  24.215  1.00  0.00     0.037 H 
ATOM     10  H   UNL A   1      32.194  22.561  25.113  1.00  0.00     0.037 H 
BRANCH   8  11
ATOM     11  C   UNL A   1      32.009  23.806  23.434  1.00  0.00    -0.003 C 
ATOM     12  H   UNL A   1      32.688  23.603  22.633  1.00  0.00     0.034 H 
ATOM     13  H   UNL A   1      31.067  24.187  23.100  1.00  0.00     0.034 H 
BRANCH  11  14
ATOM     14  C   UNL A   1      32.619  24.879  24.307  1.00  0.00     0.024 A 
ATOM     15  N   UNL A   1      32.366  26.272  24.306  1.00  0.00    -0.314 N 
ATOM     16  C   UNL A   1      33.219  26.837  25.306  1.00  0.00     0.053 A 
ATOM     17  C   UNL A   1      33.612  24.619  25.239  1.00  0.00    -0.040 A 
ATOM     18  C   UNL A   1      33.985  25.822  25.850  1.00  0.00    -0.036 A 
ATOM     19  H   UNL A   1      34.010  23.691  25.450  1.00  0.00     0.064 H 
ATOM     20  H   UNL A   1      34.707  25.933  26.578  1.00  0.00     0.065 H 
BRANCH  15  21
ATOM     21  C   UNL A   1      31.313  26.999  23.605  1.00  0.00     0.046 A 
ATOM     22  C   UNL A   1      29.353  28.844  22.745  1.00  0.00     0.082 A 
ATOM     23  C   UNL A   1      30.677  29.002  22.361  1.00  0.00    -0.040 A 
ATOM     24  C   UNL A   1      28.981  27.735  23.486  1.00  0.00    -0.040 A 
ATOM     25  C   UNL A   1      31.618  28.034  22.712  1.00  0.00    -0.037 A 
ATOM     26  H   UNL A   1      30.965  29.833  21.821  1.00  0.00     0.064 H 
ATOM     27  C   UNL A   1      29.960  26.828  23.904  1.00  0.00    -0.037 A 
ATOM     28  H   UNL A   1      27.991  27.579  23.727  1.00  0.00     0.064 H 
ATOM     29  H   UNL A   1      32.564  28.080  22.302  1.00  0.00     0.065 H 
ATOM     30  H   UNL A   1      29.673  26.003  24.454  1.00  0.00     0.065 H 
BRANCH  22  31
ATOM     31  S   UNL A   1      28.150  30.060  22.298  1.00  0.00     0.242 S 
ATOM     32  O   UNL A   1      27.032  29.936  23.205  1.00  0.00    -0.207 OA
ATOM     33  O   UNL A   1      27.954  29.981  20.863  1.00  0.00    -0.207 OA
BRANCH  31  34
ATOM     34  N   UNL A   1      28.971  31.522  22.638  1.00  0.00    -0.204 NA
BRANCH  34  35
ATOM     35  C   UNL A   1      28.399  32.686  21.936  1.00  0.00     0.002 C 
ATOM     36  H   UNL A   1      27.422  32.441  21.575  1.00  0.00     0.041 H 
ATOM     37  H   UNL A   1      29.027  32.952  21.113  1.00  0.00     0.041 H 
ATOM     38  H   UNL A   1      28.330  33.512  22.614  1.00  0.00     0.041 H 
ENDBRANCH  34  35
BRANCH  34  39
ATOM     39  C   UNL A   1      29.218  31.801  24.071  1.00  0.00     0.002 C 
ATOM     40  H   UNL A   1      30.206  32.192  24.194  1.00  0.00     0.041 H 
ATOM     41  H   UNL A   1      29.122  30.894  24.632  1.00  0.00     0.041 H 
ATOM     42  H   UNL A   1      28.504  32.516  24.423  1.00  0.00     0.041 H 
ENDBRANCH  34  39
ENDBRANCH  31  34
ENDBRANCH  22  31
ENDBRANCH  15  21
BRANCH  16  43
ATOM     43  C   UNL A   1      33.116  28.201  25.857  1.00  0.00    -0.001 A 
ATOM     44  C   UNL A   1      31.896  28.814  26.151  1.00  0.00    -0.050 A 
ATOM     45  C   UNL A   1      34.293  28.873  26.204  1.00  0.00    -0.050 A 
ATOM     46  C   UNL A   1      31.882  30.020  26.871  1.00  0.00    -0.026 A 
ATOM     47  H   UNL A   1      31.010  28.384  25.841  1.00  0.00     0.063 H 
ATOM     48  C   UNL A   1      34.293  30.064  26.924  1.00  0.00    -0.026 A 
ATOM     49  H   UNL A   1      35.199  28.469  25.915  1.00  0.00     0.063 H 
ATOM     50  C   UNL A   1      33.078  30.622  27.268  1.00  0.00     0.123 A 
ATOM     51  H   UNL A   1      30.981  30.464  27.110  1.00  0.00     0.065 H 
ATOM     52  H   UNL A   1      35.180  30.519  27.193  1.00  0.00     0.065 H 
ATOM     53  F   UNL A   1      33.055  31.793  27.915  1.00  0.00    -0.207 F 
ENDBRANCH  16  43
ENDBRANCH  11  14
ENDBRANCH   8  11
ENDBRANCH   5   8
ENDBRANCH   1   4
BRANCH   1  54
ATOM     54  C   UNL A   1      34.871  21.134  25.703  1.00  0.00    -0.036 C 
ATOM     55  H   UNL A   1      35.579  20.468  26.153  1.00  0.00     0.028 H 
ATOM     56  H   UNL A   1      34.651  22.009  26.278  1.00  0.00     0.028 H 
BRANCH  54  57
ATOM     57  C   UNL A   1      35.492  21.658  24.401  1.00  0.00    -0.052 C 
ATOM     58  H   UNL A   1      34.955  22.545  24.138  1.00  0.00     0.027 H 
ATOM     59  H   UNL A   1      35.414  20.822  23.737  1.00  0.00     0.027 H 
BRANCH  57  60
ATOM     60  C   UNL A   1      37.004  22.016  24.351  1.00  0.00    -0.052 C 
ATOM     61  H   UNL A   1      37.077  23.031  24.680  1.00  0.00     0.027 H 
ATOM     62  H   UNL A   1      37.250  21.759  23.342  1.00  0.00     0.027 H 
BRANCH  60  63
ATOM     63  C   UNL A   1      38.085  21.235  25.139  1.00  0.00    -0.036 C 
ATOM     64  H   UNL A   1      38.699  20.745  24.413  1.00  0.00     0.028 H 
ATOM     65  H   UNL A   1      37.504  20.627  25.800  1.00  0.00     0.028 H 
BRANCH  63  66
ATOM     66  C   UNL A   1      39.051  21.974  26.111  1.00  0.00     0.018 C 
ATOM     67  H   UNL A   1      38.809  21.681  27.112  1.00  0.00     0.049 H 
ATOM     68  H   UNL A   1      38.914  23.023  25.946  1.00  0.00     0.049 H 
BRANCH  66  69
ATOM     69  N   UNL A   1      40.463  21.689  25.877  1.00  0.00    -0.352 N 
ATOM     70  C   UNL A   1      41.617  22.444  25.966  1.00  0.00     0.251 C 
ATOM     71  H   UNL A   1      40.629  20.761  25.594  1.00  0.00     0.163 HD
ATOM     72  O   UNL A   1      42.565  22.059  25.273  1.00  0.00    -0.269 OA
BRANCH  70  73
ATOM     73  C   UNL A   1      41.856  23.638  26.844  1.00  0.00     0.039 A 
ATOM     74  C   UNL A   1      42.346  24.817  26.243  1.00  0.00    -0.049 A 
ATOM     75  C   UNL A   1      41.778  23.623  28.231  1.00  0.00    -0.049 A 
ATOM     76  C   UNL A   1      42.729  25.938  27.005  1.00  0.00    -0.053 A 
ATOM     77  H   UNL A   1      42.424  24.860  25.215  1.00  0.00     0.063 H 
ATOM     78  C   UNL A   1      42.243  24.709  29.008  1.00  0.00    -0.053 A 
ATOM     79  H   UNL A   1      41.374  22.800  28.705  1.00  0.00     0.063 H 
ATOM     80  C   UNL A   1      42.675  25.897  28.402  1.00  0.00    -0.014 A 
ATOM     81  H   UNL A   1      43.053  26.795  26.529  1.00  0.00     0.063 H 
ATOM     82  H   UNL A   1      42.262  24.626  30.038  1.00  0.00     0.063 H 
BRANCH  80  83
ATOM     83  C   UNL A   1      42.641  27.190  29.173  1.00  0.00     0.031 A 
ATOM     84  C   UNL A   1      43.990  27.379  29.945  1.00  0.00     0.074 A 
ATOM     85  C   UNL A   1      41.523  27.998  29.144  1.00  0.00     0.049 A 
ATOM     86  N   UNL A   1      44.293  28.157  30.942  1.00  0.00    -0.248 NA
ATOM     87  C   UNL A   1      45.179  26.556  29.565  1.00  0.00    -0.034 C 
ATOM     88  C   UNL A   1      40.322  27.759  28.313  1.00  0.00    -0.036 A 
ATOM     89  N   UNL A   1      41.156  29.179  29.791  1.00  0.00    -0.354 N 
ATOM     90  C   UNL A   1      45.696  28.080  31.139  1.00  0.00     0.074 A 
ATOM     91  C   UNL A   1      46.168  27.008  30.331  1.00  0.00    -0.034 C 
ATOM     92  H   UNL A   1      45.223  25.801  28.862  1.00  0.00     0.065 H 
ATOM     93  C   UNL A   1      39.354  28.676  28.566  1.00  0.00    -0.036 A 
ATOM     94  H   UNL A   1      40.231  26.993  27.628  1.00  0.00     0.065 H 
ATOM     95  C   UNL A   1      39.812  29.627  29.564  1.00  0.00     0.049 A 
ATOM     96  H   UNL A   1      41.780  29.674  30.370  1.00  0.00     0.167 HD
ATOM     97  C   UNL A   1      46.410  29.002  31.848  1.00  0.00     0.037 A 
ATOM     98  H   UNL A   1      47.131  26.638  30.338  1.00  0.00     0.065 H 
ATOM     99  H   UNL A   1      38.426  28.695  28.115  1.00  0.00     0.065 H 
ATOM    100  C   UNL A   1      39.115  30.664  30.152  1.00  0.00     0.037 A 
ATOM    101  C   UNL A   1      45.520  29.895  32.494  1.00  0.00     0.049 A 
ATOM    102  C   UNL A   1      40.127  31.415  30.895  1.00  0.00     0.074 A 
ATOM    103  C   UNL A   1      44.634  29.716  33.522  1.00  0.00    -0.036 A 
ATOM    104  N   UNL A   1      45.225  31.053  31.825  1.00  0.00    -0.354 N 
ATOM    105  N   UNL A   1      40.980  32.220  30.342  1.00  0.00    -0.248 NA
ATOM    106  C   UNL A   1      40.202  31.263  32.353  1.00  0.00    -0.034 C 
ATOM    107  C   UNL A   1      43.538  30.503  33.126  1.00  0.00    -0.036 A 
ATOM    108  H   UNL A   1      44.744  29.147  34.376  1.00  0.00     0.065 H 
ATOM    109  C   UNL A   1      43.898  31.303  32.036  1.00  0.00     0.049 A 
ATOM    110  H   UNL A   1      45.848  31.599  31.294  1.00  0.00     0.167 HD
ATOM    111  C   UNL A   1      41.902  32.370  31.344  1.00  0.00     0.074 A 
ATOM    112  C   UNL A   1      41.222  32.085  32.588  1.00  0.00    -0.034 C 
ATOM    113  H   UNL A   1      39.636  30.692  33.000  1.00  0.00     0.065 H 
ATOM    114  H   UNL A   1      42.607  30.492  33.572  1.00  0.00     0.065 H 
ATOM    115  C   UNL A   1      43.200  32.101  31.063  1.00  0.00     0.037 A 
ATOM    116  H   UNL A   1      41.485  32.461  33.513  1.00  0.00     0.065 H 
BRANCH  97 117
ATOM    117  C   UNL A   1      47.868  29.383  31.830  1.00  0.00     0.064 A 
ATOM    118  C   UNL A   1      48.571  29.352  33.063  1.00  0.00     0.173 A 
ATOM    119  C   UNL A   1      48.448  30.148  30.810  1.00  0.00     0.173 A 
ATOM    120  F   UNL A   1      48.134  28.603  34.087  1.00  0.00    -0.203 F 
ATOM    121  C   UNL A   1      49.665  30.179  33.309  1.00  0.00     0.198 A 
ATOM    122  C   UNL A   1      49.583  30.930  31.046  1.00  0.00     0.198 A 
ATOM    123  F   UNL A   1      47.880  30.247  29.603  1.00  0.00    -0.203 F 
ATOM    124  F   UNL A   1      50.183  30.251  34.545  1.00  0.00    -0.200 F 
ATOM    125  C   UNL A   1      50.156  30.987  32.305  1.00  0.00     0.200 A 
ATOM    126  F   UNL A   1      50.065  31.703  30.063  1.00  0.00    -0.200 F 
ATOM    127  F   UNL A   1      51.151  31.848  32.558  1.00  0.00    -0.200 F 
ENDBRANCH  97 117
BRANCH 100 128
ATOM    128  C   UNL A   1      37.708  31.260  30.280  1.00  0.00     0.064 A 
ATOM    129  C   UNL A   1      36.912  31.275  31.428  1.00  0.00     0.173 A 
ATOM    130  C   UNL A   1      37.124  31.974  29.178  1.00  0.00     0.173 A 
ATOM    131  F   UNL A   1      37.247  30.552  32.501  1.00  0.00    -0.203 F 
ATOM    132  C   UNL A   1      35.717  32.035  31.504  1.00  0.00     0.198 A 
ATOM    133  C   UNL A   1      35.986  32.776  29.272  1.00  0.00     0.198 A 
ATOM    134  F   UNL A   1      37.637  31.922  27.943  1.00  0.00    -0.203 F 
ATOM    135  F   UNL A   1      34.986  32.015  32.627  1.00  0.00    -0.200 F 
ATOM    136  C   UNL A   1      35.287  32.823  30.447  1.00  0.00     0.200 A 
ATOM    137  F   UNL A   1      35.596  33.508  28.216  1.00  0.00    -0.200 F 
ATOM    138  F   UNL A   1      34.202  33.603  30.554  1.00  0.00    -0.200 F 
ENDBRANCH 100 128
BRANCH 115 139
ATOM    139  C   UNL A   1      43.571  32.304  29.606  1.00  0.00     0.064 A 
ATOM    140  C   UNL A   1      43.524  33.596  29.054  1.00  0.00     0.173 A 
ATOM    141  C   UNL A   1      43.837  31.260  28.702  1.00  0.00     0.173 A 
ATOM    142  F   UNL A   1      43.298  34.652  29.850  1.00  0.00    -0.203 F 
ATOM    143  C   UNL A   1      43.706  33.822  27.688  1.00  0.00     0.198 A 
ATOM    144  C   UNL A   1      44.021  31.483  27.334  1.00  0.00     0.198 A 
ATOM    145  F   UNL A   1      43.923  30.000  29.123  1.00  0.00    -0.203 F 
ATOM    146  F   UNL A   1      43.647  35.071  27.205  1.00  0.00    -0.200 F 
ATOM    147  C   UNL A   1      43.949  32.765  26.826  1.00  0.00     0.200 A 
ATOM    148  F   UNL A   1      44.276  30.452  26.513  1.00  0.00    -0.200 F 
ATOM    149  F   UNL A   1      44.132  32.984  25.516  1.00  0.00    -0.200 F 
ENDBRANCH 115 139
ENDBRANCH  80  83
ENDBRANCH  70  73
ENDBRANCH  66  69
ENDBRANCH  63  66
ENDBRANCH  60  63
ENDBRANCH  57  60
ENDBRANCH  54  57
ENDBRANCH   1  54
TORSDOF 21
ENDMDL
MODEL 4
REMARK VINA RESULT:     -11.6      6.150     12.057
REMARK SMILES CN(C)S(=O)(=O)c1ccc(-n2c(CCC(=O)NCCCCCCNC(=O)c3ccc(-c4c5nc(c(-c6c(F)c(F)c(F)c(F)c6F)c6ccc([nH]6)c(-c6c(F)c(F)c(F)c(F)c6F)c6nc(c(-c7c(F)c(F)c(F)c(F)c7F)c7ccc4[nH]7)C=C6)C=C5)cc3)ccc2-c2ccc(F)cc2)cc1
REMARK SMILES IDX 18 1 17 4 15 5 16 6 14 8 13 11 12 14 11 15 92 16 90 17 91 18
REMARK SMILES IDX 10 21 7 22 8 23 101 24 9 25 100 27 4 31 5 32 6 33 2 34 1 35
REMARK SMILES IDX 3 39 93 43 94 44 99 45 95 46 98 48 96 50 97 53 19 54 20 57
REMARK SMILES IDX 21 60 22 63 23 66 24 69 25 70 26 72 27 73 28 74 89 75 29 76
REMARK SMILES IDX 88 78 30 80 31 83 32 84 82 85 33 86 87 87 81 88 83 89 34 90
REMARK SMILES IDX 86 91 80 93 79 95 35 97 67 100 47 101 66 102 48 103 51 104
REMARK SMILES IDX 65 105 84 106 49 107 50 109 64 111 85 112 52 115 36 117
REMARK SMILES IDX 37 118 45 119 38 120 39 121 43 122 46 123 40 124 41 125
REMARK SMILES IDX 44 126 42 127 68 128 69 129 77 130 70 131 71 132 75 133
REMARK SMILES IDX 78 134 72 135 73 136 76 137 74 138 53 139 54 140 62 141
REMARK SMILES IDX 55 142 56 143 60 144 63 145 57 146 58 147 61 148 59 149
REMARK H PARENT 18 2 18 3 17 7 14 9 14 10 13 12 13 13 90 19 91 20 8 26 101 28
REMARK H PARENT 9 29 100 30 1 36 1 37 1 38 3 40 3 41 3 42 94 47 99 49 95 51
REMARK H PARENT 98 52 19 55 19 56 20 58 20 59 21 61 21 62 22 64 22 65 23 67
REMARK H PARENT 23 68 24 71 28 77 89 79 29 81 88 82 87 92 81 94 83 96 86 98
REMARK H PARENT 80 99 48 108 51 110 84 113 49 114 85 116
REMARK Flexibility Score: inf
ROOT
ATOM      1  C   UNL A   1      43.724  30.755  34.939  1.00  0.00     0.017 C 
ATOM      2  H   UNL A   1      43.699  31.712  35.416  1.00  0.00     0.049 H 
ATOM      3  H   UNL A   1      43.475  30.822  33.902  1.00  0.00     0.049 H 
ENDROOT
BRANCH   1   4
ATOM      4  N   UNL A   1      42.736  29.893  35.574  1.00  0.00    -0.356 N 
ATOM      5  C   UNL A   1      41.377  29.998  35.643  1.00  0.00     0.220 C 
ATOM      6  O   UNL A   1      40.756  29.087  36.197  1.00  0.00    -0.275 OA
ATOM      7  H   UNL A   1      43.110  29.105  36.029  1.00  0.00     0.163 HD
BRANCH   5   8
ATOM      8  C   UNL A   1      40.633  31.199  35.086  1.00  0.00     0.032 C 
ATOM      9  H   UNL A   1      39.594  30.950  35.044  1.00  0.00     0.037 H 
ATOM     10  H   UNL A   1      40.864  32.011  35.744  1.00  0.00     0.037 H 
BRANCH   8  11
ATOM     11  C   UNL A   1      41.062  31.670  33.683  1.00  0.00    -0.003 C 
ATOM     12  H   UNL A   1      40.699  32.666  33.540  1.00  0.00     0.034 H 
ATOM     13  H   UNL A   1      42.129  31.604  33.654  1.00  0.00     0.034 H 
BRANCH  11  14
ATOM     14  C   UNL A   1      40.549  30.814  32.548  1.00  0.00     0.024 A 
ATOM     15  N   UNL A   1      39.259  30.800  31.962  1.00  0.00    -0.314 N 
ATOM     16  C   UNL A   1      39.290  29.793  30.946  1.00  0.00     0.053 A 
ATOM     17  C   UNL A   1      41.312  29.830  31.939  1.00  0.00    -0.040 A 
ATOM     18  C   UNL A   1      40.538  29.199  30.959  1.00  0.00    -0.036 A 
ATOM     19  H   UNL A   1      42.291  29.601  32.171  1.00  0.00     0.064 H 
ATOM     20  H   UNL A   1      40.846  28.423  30.352  1.00  0.00     0.065 H 
BRANCH  15  21
ATOM     21  C   UNL A   1      38.162  31.740  32.168  1.00  0.00     0.046 A 
ATOM     22  C   UNL A   1      35.708  33.141  32.165  1.00  0.00     0.082 A 
ATOM     23  C   UNL A   1      35.933  32.127  33.086  1.00  0.00    -0.040 A 
ATOM     24  C   UNL A   1      36.720  33.517  31.298  1.00  0.00    -0.040 A 
ATOM     25  C   UNL A   1      37.182  31.508  33.140  1.00  0.00    -0.037 A 
ATOM     26  H   UNL A   1      35.180  31.831  33.726  1.00  0.00     0.064 H 
ATOM     27  C   UNL A   1      37.931  32.817  31.310  1.00  0.00    -0.037 A 
ATOM     28  H   UNL A   1      36.582  34.307  30.650  1.00  0.00     0.064 H 
ATOM     29  H   UNL A   1      37.390  30.863  33.918  1.00  0.00     0.065 H 
ATOM     30  H   UNL A   1      38.680  33.107  30.663  1.00  0.00     0.065 H 
BRANCH  22  31
ATOM     31  S   UNL A   1      34.132  33.939  32.093  1.00  0.00     0.242 S 
ATOM     32  O   UNL A   1      33.280  33.336  33.093  1.00  0.00    -0.207 OA
ATOM     33  O   UNL A   1      33.725  33.986  30.702  1.00  0.00    -0.207 OA
BRANCH  31  34
ATOM     34  N   UNL A   1      34.512  35.532  32.586  1.00  0.00    -0.204 NA
BRANCH  34  35
ATOM     35  C   UNL A   1      33.832  36.566  31.783  1.00  0.00     0.002 C 
ATOM     36  H   UNL A   1      34.562  37.191  31.312  1.00  0.00     0.041 H 
ATOM     37  H   UNL A   1      33.209  37.160  32.418  1.00  0.00     0.041 H 
ATOM     38  H   UNL A   1      33.230  36.095  31.033  1.00  0.00     0.041 H 
ENDBRANCH  34  35
BRANCH  34  39
ATOM     39  C   UNL A   1      34.406  35.797  34.039  1.00  0.00     0.002 C 
ATOM     40  H   UNL A   1      33.655  36.538  34.214  1.00  0.00     0.041 H 
ATOM     41  H   UNL A   1      35.347  36.150  34.407  1.00  0.00     0.041 H 
ATOM     42  H   UNL A   1      34.141  34.893  34.548  1.00  0.00     0.041 H 
ENDBRANCH  34  39
ENDBRANCH  31  34
ENDBRANCH  22  31
ENDBRANCH  15  21
BRANCH  16  43
ATOM     43  C   UNL A   1      38.277  29.602  29.891  1.00  0.00    -0.001 A 
ATOM     44  C   UNL A   1      36.915  29.452  30.159  1.00  0.00    -0.050 A 
ATOM     45  C   UNL A   1      38.682  29.684  28.553  1.00  0.00    -0.050 A 
ATOM     46  C   UNL A   1      35.992  29.493  29.101  1.00  0.00    -0.026 A 
ATOM     47  H   UNL A   1      36.590  29.312  31.129  1.00  0.00     0.063 H 
ATOM     48  C   UNL A   1      37.778  29.732  27.498  1.00  0.00    -0.026 A 
ATOM     49  H   UNL A   1      39.693  29.708  28.342  1.00  0.00     0.063 H 
ATOM     50  C   UNL A   1      36.429  29.653  27.785  1.00  0.00     0.123 A 
ATOM     51  H   UNL A   1      34.982  29.405  29.299  1.00  0.00     0.065 H 
ATOM     52  H   UNL A   1      38.106  29.825  26.523  1.00  0.00     0.065 H 
ATOM     53  F   UNL A   1      35.545  29.646  26.781  1.00  0.00    -0.207 F 
ENDBRANCH  16  43
ENDBRANCH  11  14
ENDBRANCH   8  11
ENDBRANCH   5   8
ENDBRANCH   1   4
BRANCH   1  54
ATOM     54  C   UNL A   1      45.144  30.198  35.037  1.00  0.00    -0.036 C 
ATOM     55  H   UNL A   1      45.760  30.958  35.471  1.00  0.00     0.028 H 
ATOM     56  H   UNL A   1      45.406  29.923  34.037  1.00  0.00     0.028 H 
BRANCH  54  57
ATOM     57  C   UNL A   1      45.334  28.920  35.865  1.00  0.00    -0.052 C 
ATOM     58  H   UNL A   1      46.140  28.378  35.417  1.00  0.00     0.027 H 
ATOM     59  H   UNL A   1      44.366  28.465  35.843  1.00  0.00     0.027 H 
BRANCH  57  60
ATOM     60  C   UNL A   1      45.649  29.019  37.385  1.00  0.00    -0.052 C 
ATOM     61  H   UNL A   1      44.712  29.206  37.867  1.00  0.00     0.027 H 
ATOM     62  H   UNL A   1      46.416  29.764  37.395  1.00  0.00     0.027 H 
BRANCH  60  63
ATOM     63  C   UNL A   1      46.318  27.877  38.187  1.00  0.00    -0.036 C 
ATOM     64  H   UNL A   1      45.644  27.621  38.977  1.00  0.00     0.028 H 
ATOM     65  H   UNL A   1      47.267  28.296  38.451  1.00  0.00     0.028 H 
BRANCH  63  66
ATOM     66  C   UNL A   1      46.714  26.541  37.491  1.00  0.00     0.018 C 
ATOM     67  H   UNL A   1      47.557  26.131  38.007  1.00  0.00     0.049 H 
ATOM     68  H   UNL A   1      46.932  26.777  36.470  1.00  0.00     0.049 H 
BRANCH  66  69
ATOM     69  N   UNL A   1      45.651  25.541  37.478  1.00  0.00    -0.352 N 
ATOM     70  C   UNL A   1      44.572  25.306  36.647  1.00  0.00     0.251 C 
ATOM     71  H   UNL A   1      45.716  24.897  38.219  1.00  0.00     0.163 HD
ATOM     72  O   UNL A   1      43.627  24.693  37.155  1.00  0.00    -0.269 OA
BRANCH  70  73
ATOM     73  C   UNL A   1      44.448  25.667  35.195  1.00  0.00     0.039 A 
ATOM     74  C   UNL A   1      45.608  25.608  34.394  1.00  0.00    -0.049 A 
ATOM     75  C   UNL A   1      43.307  26.205  34.613  1.00  0.00    -0.049 A 
ATOM     76  C   UNL A   1      45.616  26.060  33.059  1.00  0.00    -0.053 A 
ATOM     77  H   UNL A   1      46.475  25.222  34.797  1.00  0.00     0.063 H 
ATOM     78  C   UNL A   1      43.328  26.741  33.304  1.00  0.00    -0.053 A 
ATOM     79  H   UNL A   1      42.424  26.215  35.147  1.00  0.00     0.063 H 
ATOM     80  C   UNL A   1      44.469  26.628  32.497  1.00  0.00    -0.014 A 
ATOM     81  H   UNL A   1      46.476  25.971  32.494  1.00  0.00     0.063 H 
ATOM     82  H   UNL A   1      42.491  27.222  32.938  1.00  0.00     0.063 H 
BRANCH  80  83
ATOM     83  C   UNL A   1      44.337  26.682  30.998  1.00  0.00     0.031 A 
ATOM     84  C   UNL A   1      44.309  28.175  30.526  1.00  0.00     0.074 A 
ATOM     85  C   UNL A   1      44.244  25.523  30.257  1.00  0.00     0.049 A 
ATOM     86  N   UNL A   1      43.917  28.700  29.403  1.00  0.00    -0.248 NA
ATOM     87  C   UNL A   1      44.762  29.253  31.458  1.00  0.00    -0.034 C 
ATOM     88  C   UNL A   1      44.360  24.152  30.802  1.00  0.00    -0.036 A 
ATOM     89  N   UNL A   1      44.038  25.243  28.904  1.00  0.00    -0.354 N 
ATOM     90  C   UNL A   1      44.278  30.073  29.418  1.00  0.00     0.074 A 
ATOM     91  C   UNL A   1      44.702  30.372  30.743  1.00  0.00    -0.034 C 
ATOM     92  H   UNL A   1      45.057  29.150  32.441  1.00  0.00     0.065 H 
ATOM     93  C   UNL A   1      44.136  23.217  29.844  1.00  0.00    -0.036 A 
ATOM     94  H   UNL A   1      44.583  23.934  31.786  1.00  0.00     0.065 H 
ATOM     95  C   UNL A   1      43.874  23.859  28.568  1.00  0.00     0.049 A 
ATOM     96  H   UNL A   1      44.005  25.954  28.223  1.00  0.00     0.167 HD
ATOM     97  C   UNL A   1      44.344  30.848  28.297  1.00  0.00     0.037 A 
ATOM     98  H   UNL A   1      44.928  31.316  31.095  1.00  0.00     0.065 H 
ATOM     99  H   UNL A   1      44.150  22.197  30.000  1.00  0.00     0.065 H 
ATOM    100  C   UNL A   1      43.529  23.276  27.364  1.00  0.00     0.037 A 
ATOM    101  C   UNL A   1      43.817  30.132  27.194  1.00  0.00     0.049 A 
ATOM    102  C   UNL A   1      43.616  24.364  26.390  1.00  0.00     0.074 A 
ATOM    103  C   UNL A   1      42.546  29.721  26.896  1.00  0.00    -0.036 A 
ATOM    104  N   UNL A   1      44.717  29.440  26.428  1.00  0.00    -0.354 N 
ATOM    105  N   UNL A   1      44.734  24.823  25.917  1.00  0.00    -0.248 NA
ATOM    106  C   UNL A   1      42.380  24.989  25.904  1.00  0.00    -0.034 C 
ATOM    107  C   UNL A   1      42.755  28.450  26.331  1.00  0.00    -0.036 A 
ATOM    108  H   UNL A   1      41.655  30.220  27.047  1.00  0.00     0.065 H 
ATOM    109  C   UNL A   1      44.120  28.261  26.083  1.00  0.00     0.049 A 
ATOM    110  H   UNL A   1      45.622  29.735  26.176  1.00  0.00     0.167 HD
ATOM    111  C   UNL A   1      44.330  26.013  25.373  1.00  0.00     0.074 A 
ATOM    112  C   UNL A   1      42.919  25.887  25.082  1.00  0.00    -0.034 C 
ATOM    113  H   UNL A   1      41.393  24.792  26.130  1.00  0.00     0.065 H 
ATOM    114  H   UNL A   1      42.015  27.760  26.130  1.00  0.00     0.065 H 
ATOM    115  C   UNL A   1      44.967  27.143  25.764  1.00  0.00     0.037 A 
ATOM    116  H   UNL A   1      42.410  26.409  24.352  1.00  0.00     0.065 H 
BRANCH  97 117
ATOM    117  C   UNL A   1      45.088  32.122  27.992  1.00  0.00     0.064 A 
ATOM    118  C   UNL A   1      44.324  33.309  27.839  1.00  0.00     0.173 A 
ATOM    119  C   UNL A   1      46.377  32.145  27.444  1.00  0.00     0.173 A 
ATOM    120  F   UNL A   1      43.099  33.414  28.377  1.00  0.00    -0.203 F 
ATOM    121  C   UNL A   1      44.751  34.362  27.033  1.00  0.00     0.198 A 
ATOM    122  C   UNL A   1      46.824  33.231  26.686  1.00  0.00     0.198 A 
ATOM    123  F   UNL A   1      47.192  31.087  27.532  1.00  0.00    -0.203 F 
ATOM    124  F   UNL A   1      43.919  35.381  26.770  1.00  0.00    -0.200 F 
ATOM    125  C   UNL A   1      45.993  34.311  26.436  1.00  0.00     0.200 A 
ATOM    126  F   UNL A   1      48.037  33.184  26.119  1.00  0.00    -0.200 F 
ATOM    127  F   UNL A   1      46.375  35.278  25.590  1.00  0.00    -0.200 F 
ENDBRANCH  97 117
BRANCH 100 128
ATOM    128  C   UNL A   1      43.106  21.941  26.740  1.00  0.00     0.064 A 
ATOM    129  C   UNL A   1      43.842  21.178  25.830  1.00  0.00     0.173 A 
ATOM    130  C   UNL A   1      41.888  21.303  27.156  1.00  0.00     0.173 A 
ATOM    131  F   UNL A   1      44.935  21.679  25.245  1.00  0.00    -0.203 F 
ATOM    132  C   UNL A   1      43.462  19.859  25.475  1.00  0.00     0.198 A 
ATOM    133  C   UNL A   1      41.548  19.982  26.862  1.00  0.00     0.198 A 
ATOM    134  F   UNL A   1      40.958  21.943  27.875  1.00  0.00    -0.203 F 
ATOM    135  F   UNL A   1      44.200  19.168  24.595  1.00  0.00    -0.200 F 
ATOM    136  C   UNL A   1      42.348  19.248  26.030  1.00  0.00     0.200 A 
ATOM    137  F   UNL A   1      40.449  19.438  27.409  1.00  0.00    -0.200 F 
ATOM    138  F   UNL A   1      42.041  17.972  25.754  1.00  0.00    -0.200 F 
ENDBRANCH 100 128
BRANCH 115 139
ATOM    139  C   UNL A   1      46.400  26.920  26.213  1.00  0.00     0.064 A 
ATOM    140  C   UNL A   1      47.363  26.514  25.274  1.00  0.00     0.173 A 
ATOM    141  C   UNL A   1      46.826  26.959  27.552  1.00  0.00     0.173 A 
ATOM    142  F   UNL A   1      47.046  26.470  23.971  1.00  0.00    -0.203 F 
ATOM    143  C   UNL A   1      48.656  26.147  25.655  1.00  0.00     0.198 A 
ATOM    144  C   UNL A   1      48.121  26.595  27.936  1.00  0.00     0.198 A 
ATOM    145  F   UNL A   1      45.999  27.350  28.520  1.00  0.00    -0.203 F 
ATOM    146  F   UNL A   1      49.541  25.761  24.725  1.00  0.00    -0.200 F 
ATOM    147  C   UNL A   1      49.034  26.183  26.986  1.00  0.00     0.200 A 
ATOM    148  F   UNL A   1      48.480  26.653  29.229  1.00  0.00    -0.200 F 
ATOM    149  F   UNL A   1      50.278  25.839  27.350  1.00  0.00    -0.200 F 
ENDBRANCH 115 139
ENDBRANCH  80  83
ENDBRANCH  70  73
ENDBRANCH  66  69
ENDBRANCH  63  66
ENDBRANCH  60  63
ENDBRANCH  57  60
ENDBRANCH  54  57
ENDBRANCH   1  54
TORSDOF 21
ENDMDL
MODEL 5
REMARK VINA RESULT:     -11.4      6.355     12.377
REMARK SMILES CN(C)S(=O)(=O)c1ccc(-n2c(CCC(=O)NCCCCCCNC(=O)c3ccc(-c4c5nc(c(-c6c(F)c(F)c(F)c(F)c6F)c6ccc([nH]6)c(-c6c(F)c(F)c(F)c(F)c6F)c6nc(c(-c7c(F)c(F)c(F)c(F)c7F)c7ccc4[nH]7)C=C6)C=C5)cc3)ccc2-c2ccc(F)cc2)cc1
REMARK SMILES IDX 18 1 17 4 15 5 16 6 14 8 13 11 12 14 11 15 92 16 90 17 91 18
REMARK SMILES IDX 10 21 7 22 8 23 101 24 9 25 100 27 4 31 5 32 6 33 2 34 1 35
REMARK SMILES IDX 3 39 93 43 94 44 99 45 95 46 98 48 96 50 97 53 19 54 20 57
REMARK SMILES IDX 21 60 22 63 23 66 24 69 25 70 26 72 27 73 28 74 89 75 29 76
REMARK SMILES IDX 88 78 30 80 31 83 32 84 82 85 33 86 87 87 81 88 83 89 34 90
REMARK SMILES IDX 86 91 80 93 79 95 35 97 67 100 47 101 66 102 48 103 51 104
REMARK SMILES IDX 65 105 84 106 49 107 50 109 64 111 85 112 52 115 36 117
REMARK SMILES IDX 37 118 45 119 38 120 39 121 43 122 46 123 40 124 41 125
REMARK SMILES IDX 44 126 42 127 68 128 69 129 77 130 70 131 71 132 75 133
REMARK SMILES IDX 78 134 72 135 73 136 76 137 74 138 53 139 54 140 62 141
REMARK SMILES IDX 55 142 56 143 60 144 63 145 57 146 58 147 61 148 59 149
REMARK H PARENT 18 2 18 3 17 7 14 9 14 10 13 12 13 13 90 19 91 20 8 26 101 28
REMARK H PARENT 9 29 100 30 1 36 1 37 1 38 3 40 3 41 3 42 94 47 99 49 95 51
REMARK H PARENT 98 52 19 55 19 56 20 58 20 59 21 61 21 62 22 64 22 65 23 67
REMARK H PARENT 23 68 24 71 28 77 89 79 29 81 88 82 87 92 81 94 83 96 86 98
REMARK H PARENT 80 99 48 108 51 110 84 113 49 114 85 116
REMARK Flexibility Score: inf
ROOT
ATOM      1  C   UNL A   1      43.735  31.733  34.455  1.00  0.00     0.017 C 
ATOM      2  H   UNL A   1      43.233  32.185  35.284  1.00  0.00     0.049 H 
ATOM      3  H   UNL A   1      44.063  32.462  33.745  1.00  0.00     0.049 H 
ENDROOT
BRANCH   1   4
ATOM      4  N   UNL A   1      42.804  30.844  33.774  1.00  0.00    -0.356 N 
ATOM      5  C   UNL A   1      41.545  30.444  34.116  1.00  0.00     0.220 C 
ATOM      6  O   UNL A   1      40.934  29.722  33.322  1.00  0.00    -0.275 OA
ATOM      7  H   UNL A   1      43.138  30.470  32.928  1.00  0.00     0.163 HD
BRANCH   5   8
ATOM      8  C   UNL A   1      40.905  30.839  35.435  1.00  0.00     0.032 C 
ATOM      9  H   UNL A   1      41.464  30.378  36.222  1.00  0.00     0.037 H 
ATOM     10  H   UNL A   1      40.920  31.908  35.454  1.00  0.00     0.037 H 
BRANCH   8  11
ATOM     11  C   UNL A   1      39.426  30.444  35.615  1.00  0.00    -0.003 C 
ATOM     12  H   UNL A   1      39.183  29.714  34.871  1.00  0.00     0.034 H 
ATOM     13  H   UNL A   1      39.330  30.074  36.613  1.00  0.00     0.034 H 
BRANCH  11  14
ATOM     14  C   UNL A   1      38.450  31.591  35.486  1.00  0.00     0.024 A 
ATOM     15  N   UNL A   1      37.845  32.112  34.316  1.00  0.00    -0.314 N 
ATOM     16  C   UNL A   1      37.025  33.205  34.739  1.00  0.00     0.053 A 
ATOM     17  C   UNL A   1      38.044  32.362  36.564  1.00  0.00    -0.040 A 
ATOM     18  C   UNL A   1      37.173  33.357  36.106  1.00  0.00    -0.036 A 
ATOM     19  H   UNL A   1      38.336  32.224  37.544  1.00  0.00     0.064 H 
ATOM     20  H   UNL A   1      36.721  34.080  36.687  1.00  0.00     0.065 H 
BRANCH  15  21
ATOM     21  C   UNL A   1      37.854  31.554  32.968  1.00  0.00     0.046 A 
ATOM     22  C   UNL A   1      38.356  30.086  30.606  1.00  0.00     0.082 A 
ATOM     23  C   UNL A   1      37.453  29.609  31.546  1.00  0.00    -0.040 A 
ATOM     24  C   UNL A   1      38.951  31.322  30.791  1.00  0.00    -0.040 A 
ATOM     25  C   UNL A   1      37.142  30.388  32.661  1.00  0.00    -0.037 A 
ATOM     26  H   UNL A   1      37.015  28.683  31.422  1.00  0.00     0.064 H 
ATOM     27  C   UNL A   1      38.694  32.040  31.964  1.00  0.00    -0.037 A 
ATOM     28  H   UNL A   1      39.579  31.710  30.071  1.00  0.00     0.064 H 
ATOM     29  H   UNL A   1      36.366  30.098  33.277  1.00  0.00     0.065 H 
ATOM     30  H   UNL A   1      39.140  32.961  32.092  1.00  0.00     0.065 H 
BRANCH  22  31
ATOM     31  S   UNL A   1      38.750  29.112  29.184  1.00  0.00     0.242 S 
ATOM     32  O   UNL A   1      39.751  29.822  28.420  1.00  0.00    -0.207 OA
ATOM     33  O   UNL A   1      37.502  28.700  28.571  1.00  0.00    -0.207 OA
BRANCH  31  34
ATOM     34  N   UNL A   1      39.475  27.729  29.884  1.00  0.00    -0.204 NA
BRANCH  34  35
ATOM     35  C   UNL A   1      39.371  26.527  29.035  1.00  0.00     0.002 C 
ATOM     36  H   UNL A   1      38.680  25.838  29.474  1.00  0.00     0.041 H 
ATOM     37  H   UNL A   1      40.332  26.065  28.951  1.00  0.00     0.041 H 
ATOM     38  H   UNL A   1      39.024  26.808  28.062  1.00  0.00     0.041 H 
ENDBRANCH  34  35
BRANCH  34  39
ATOM     39  C   UNL A   1      40.845  27.921  30.413  1.00  0.00     0.002 C 
ATOM     40  H   UNL A   1      40.804  28.517  31.302  1.00  0.00     0.041 H 
ATOM     41  H   UNL A   1      41.444  28.418  29.679  1.00  0.00     0.041 H 
ATOM     42  H   UNL A   1      41.276  26.969  30.641  1.00  0.00     0.041 H 
ENDBRANCH  34  39
ENDBRANCH  31  34
ENDBRANCH  22  31
ENDBRANCH  15  21
BRANCH  16  43
ATOM     43  C   UNL A   1      35.997  33.878  33.924  1.00  0.00    -0.001 A 
ATOM     44  C   UNL A   1      36.288  34.906  33.026  1.00  0.00    -0.050 A 
ATOM     45  C   UNL A   1      34.684  33.393  33.971  1.00  0.00    -0.050 A 
ATOM     46  C   UNL A   1      35.298  35.347  32.132  1.00  0.00    -0.026 A 
ATOM     47  H   UNL A   1      37.225  35.339  33.019  1.00  0.00     0.063 H 
ATOM     48  C   UNL A   1      33.697  33.816  33.087  1.00  0.00    -0.026 A 
ATOM     49  H   UNL A   1      34.439  32.694  34.690  1.00  0.00     0.063 H 
ATOM     50  C   UNL A   1      34.021  34.785  32.157  1.00  0.00     0.123 A 
ATOM     51  H   UNL A   1      35.518  36.091  31.451  1.00  0.00     0.065 H 
ATOM     52  H   UNL A   1      32.746  33.416  33.125  1.00  0.00     0.065 H 
ATOM     53  F   UNL A   1      33.072  35.243  31.331  1.00  0.00    -0.207 F 
ENDBRANCH  16  43
ENDBRANCH  11  14
ENDBRANCH   8  11
ENDBRANCH   5   8
ENDBRANCH   1   4
BRANCH   1  54
ATOM     54  C   UNL A   1      44.975  31.005  34.974  1.00  0.00    -0.036 C 
ATOM     55  H   UNL A   1      45.308  31.518  35.853  1.00  0.00     0.028 H 
ATOM     56  H   UNL A   1      45.668  31.015  34.158  1.00  0.00     0.028 H 
BRANCH  54  57
ATOM     57  C   UNL A   1      44.810  29.523  35.337  1.00  0.00    -0.052 C 
ATOM     58  H   UNL A   1      45.788  29.090  35.323  1.00  0.00     0.027 H 
ATOM     59  H   UNL A   1      44.105  29.168  34.614  1.00  0.00     0.027 H 
BRANCH  57  60
ATOM     60  C   UNL A   1      44.162  29.125  36.694  1.00  0.00    -0.052 C 
ATOM     61  H   UNL A   1      43.465  28.345  36.469  1.00  0.00     0.027 H 
ATOM     62  H   UNL A   1      43.813  30.071  37.049  1.00  0.00     0.027 H 
BRANCH  60  63
ATOM     63  C   UNL A   1      44.981  28.623  37.909  1.00  0.00    -0.036 C 
ATOM     64  H   UNL A   1      44.278  28.218  38.606  1.00  0.00     0.028 H 
ATOM     65  H   UNL A   1      45.533  29.493  38.198  1.00  0.00     0.028 H 
BRANCH  63  66
ATOM     66  C   UNL A   1      46.097  27.553  37.729  1.00  0.00     0.018 C 
ATOM     67  H   UNL A   1      46.750  27.602  38.575  1.00  0.00     0.049 H 
ATOM     68  H   UNL A   1      46.597  27.778  36.809  1.00  0.00     0.049 H 
BRANCH  66  69
ATOM     69  N   UNL A   1      45.596  26.186  37.614  1.00  0.00    -0.352 N 
ATOM     70  C   UNL A   1      44.810  25.533  36.684  1.00  0.00     0.251 C 
ATOM     71  H   UNL A   1      45.876  25.607  38.359  1.00  0.00     0.163 HD
ATOM     72  O   UNL A   1      44.197  24.544  37.099  1.00  0.00    -0.269 OA
BRANCH  70  73
ATOM     73  C   UNL A   1      44.665  25.861  35.227  1.00  0.00     0.039 A 
ATOM     74  C   UNL A   1      45.839  25.980  34.452  1.00  0.00    -0.049 A 
ATOM     75  C   UNL A   1      43.468  26.210  34.613  1.00  0.00    -0.049 A 
ATOM     76  C   UNL A   1      45.808  26.420  33.114  1.00  0.00    -0.053 A 
ATOM     77  H   UNL A   1      46.746  25.736  34.878  1.00  0.00     0.063 H 
ATOM     78  C   UNL A   1      43.436  26.736  33.301  1.00  0.00    -0.053 A 
ATOM     79  H   UNL A   1      42.583  26.085  35.128  1.00  0.00     0.063 H 
ATOM     80  C   UNL A   1      44.599  26.798  32.520  1.00  0.00    -0.014 A 
ATOM     81  H   UNL A   1      46.683  26.464  32.568  1.00  0.00     0.063 H 
ATOM     82  H   UNL A   1      42.543  27.077  32.912  1.00  0.00     0.063 H 
BRANCH  80  83
ATOM     83  C   UNL A   1      44.495  26.822  31.019  1.00  0.00     0.031 A 
ATOM     84  C   UNL A   1      44.514  28.304  30.513  1.00  0.00     0.074 A 
ATOM     85  C   UNL A   1      44.385  25.649  30.301  1.00  0.00     0.049 A 
ATOM     86  N   UNL A   1      44.157  28.814  29.372  1.00  0.00    -0.248 NA
ATOM     87  C   UNL A   1      44.979  29.390  31.430  1.00  0.00    -0.034 C 
ATOM     88  C   UNL A   1      44.455  24.288  30.878  1.00  0.00    -0.036 A 
ATOM     89  N   UNL A   1      44.196  25.345  28.952  1.00  0.00    -0.354 N 
ATOM     90  C   UNL A   1      44.553  30.177  29.364  1.00  0.00     0.074 A 
ATOM     91  C   UNL A   1      44.961  30.494  30.689  1.00  0.00    -0.034 C 
ATOM     92  H   UNL A   1      45.254  29.302  32.421  1.00  0.00     0.065 H 
ATOM     93  C   UNL A   1      44.224  23.338  29.937  1.00  0.00    -0.036 A 
ATOM     94  H   UNL A   1      44.655  24.087  31.870  1.00  0.00     0.065 H 
ATOM     95  C   UNL A   1      44.002  23.958  28.642  1.00  0.00     0.049 A 
ATOM     96  H   UNL A   1      44.194  26.040  28.254  1.00  0.00     0.167 HD
ATOM     97  C   UNL A   1      44.660  30.925  28.228  1.00  0.00     0.037 A 
ATOM     98  H   UNL A   1      45.206  31.440  31.025  1.00  0.00     0.065 H 
ATOM     99  H   UNL A   1      44.208  22.321  30.116  1.00  0.00     0.065 H 
ATOM    100  C   UNL A   1      43.663  23.358  27.446  1.00  0.00     0.037 A 
ATOM    101  C   UNL A   1      44.134  30.198  27.131  1.00  0.00     0.049 A 
ATOM    102  C   UNL A   1      43.796  24.421  26.449  1.00  0.00     0.074 A 
ATOM    103  C   UNL A   1      42.858  29.813  26.819  1.00  0.00    -0.036 A 
ATOM    104  N   UNL A   1      45.029  29.466  26.397  1.00  0.00    -0.354 N 
ATOM    105  N   UNL A   1      44.934  24.840  25.988  1.00  0.00    -0.248 NA
ATOM    106  C   UNL A   1      42.586  25.067  25.927  1.00  0.00    -0.034 C 
ATOM    107  C   UNL A   1      43.044  28.525  26.286  1.00  0.00    -0.036 A 
ATOM    108  H   UNL A   1      41.978  30.339  26.942  1.00  0.00     0.065 H 
ATOM    109  C   UNL A   1      44.407  28.295  26.067  1.00  0.00     0.049 A 
ATOM    110  H   UNL A   1      45.945  29.732  26.156  1.00  0.00     0.167 HD
ATOM    111  C   UNL A   1      44.571  26.028  25.410  1.00  0.00     0.074 A 
ATOM    112  C   UNL A   1      43.163  25.931  25.096  1.00  0.00    -0.034 C 
ATOM    113  H   UNL A   1      41.590  24.901  26.140  1.00  0.00     0.065 H 
ATOM    114  H   UNL A   1      42.289  27.850  26.086  1.00  0.00     0.065 H 
ATOM    115  C   UNL A   1      45.231  27.150  25.788  1.00  0.00     0.037 A 
ATOM    116  H   UNL A   1      42.681  26.451  24.346  1.00  0.00     0.065 H 
BRANCH  97 117
ATOM    117  C   UNL A   1      45.442  32.172  27.908  1.00  0.00     0.064 A 
ATOM    118  C   UNL A   1      44.709  33.355  27.626  1.00  0.00     0.173 A 
ATOM    119  C   UNL A   1      46.771  32.152  27.465  1.00  0.00     0.173 A 
ATOM    120  F   UNL A   1      43.446  33.502  28.057  1.00  0.00    -0.203 F 
ATOM    121  C   UNL A   1      45.211  34.354  26.796  1.00  0.00     0.198 A 
ATOM    122  C   UNL A   1      47.290  33.187  26.682  1.00  0.00     0.198 A 
ATOM    123  F   UNL A   1      47.562  31.094  27.679  1.00  0.00    -0.203 F 
ATOM    124  F   UNL A   1      44.416  35.362  26.408  1.00  0.00    -0.200 F 
ATOM    125  C   UNL A   1      46.496  34.257  26.304  1.00  0.00     0.200 A 
ATOM    126  F   UNL A   1      48.544  33.096  26.218  1.00  0.00    -0.200 F 
ATOM    127  F   UNL A   1      46.957  35.168  25.436  1.00  0.00    -0.200 F 
ENDBRANCH  97 117
BRANCH 100 128
ATOM    128  C   UNL A   1      43.217  22.020  26.843  1.00  0.00     0.064 A 
ATOM    129  C   UNL A   1      43.873  21.298  25.843  1.00  0.00     0.173 A 
ATOM    130  C   UNL A   1      42.071  21.336  27.375  1.00  0.00     0.173 A 
ATOM    131  F   UNL A   1      44.880  21.844  25.155  1.00  0.00    -0.203 F 
ATOM    132  C   UNL A   1      43.497  19.974  25.504  1.00  0.00     0.198 A 
ATOM    133  C   UNL A   1      41.742  20.009  27.091  1.00  0.00     0.198 A 
ATOM    134  F   UNL A   1      41.205  21.932  28.203  1.00  0.00    -0.203 F 
ATOM    135  F   UNL A   1      44.157  19.322  24.535  1.00  0.00    -0.200 F 
ATOM    136  C   UNL A   1      42.470  19.316  26.164  1.00  0.00     0.200 A 
ATOM    137  F   UNL A   1      40.726  19.420  27.743  1.00  0.00    -0.200 F 
ATOM    138  F   UNL A   1      42.174  18.036  25.896  1.00  0.00    -0.200 F 
ENDBRANCH 100 128
BRANCH 115 139
ATOM    139  C   UNL A   1      46.648  26.900  26.269  1.00  0.00     0.064 A 
ATOM    140  C   UNL A   1      47.615  26.440  25.358  1.00  0.00     0.173 A 
ATOM    141  C   UNL A   1      47.054  26.966  27.613  1.00  0.00     0.173 A 
ATOM    142  F   UNL A   1      47.319  26.367  24.052  1.00  0.00    -0.203 F 
ATOM    143  C   UNL A   1      48.891  26.048  25.772  1.00  0.00     0.198 A 
ATOM    144  C   UNL A   1      48.331  26.577  28.030  1.00  0.00     0.198 A 
ATOM    145  F   UNL A   1      46.222  27.407  28.554  1.00  0.00    -0.203 F 
ATOM    146  F   UNL A   1      49.780  25.610  24.868  1.00  0.00    -0.200 F 
ATOM    147  C   UNL A   1      49.248  26.111  27.108  1.00  0.00     0.200 A 
ATOM    148  F   UNL A   1      48.670  26.662  29.326  1.00  0.00    -0.200 F 
ATOM    149  F   UNL A   1      50.476  25.744  27.503  1.00  0.00    -0.200 F 
ENDBRANCH 115 139
ENDBRANCH  80  83
ENDBRANCH  70  73
ENDBRANCH  66  69
ENDBRANCH  63  66
ENDBRANCH  60  63
ENDBRANCH  57  60
ENDBRANCH  54  57
ENDBRANCH   1  54
TORSDOF 21
ENDMDL
MODEL 6
REMARK VINA RESULT:     -11.4     10.929     17.345
REMARK SMILES CN(C)S(=O)(=O)c1ccc(-n2c(CCC(=O)NCCCCCCNC(=O)c3ccc(-c4c5nc(c(-c6c(F)c(F)c(F)c(F)c6F)c6ccc([nH]6)c(-c6c(F)c(F)c(F)c(F)c6F)c6nc(c(-c7c(F)c(F)c(F)c(F)c7F)c7ccc4[nH]7)C=C6)C=C5)cc3)ccc2-c2ccc(F)cc2)cc1
REMARK SMILES IDX 18 1 17 4 15 5 16 6 14 8 13 11 12 14 11 15 92 16 90 17 91 18
REMARK SMILES IDX 10 21 7 22 8 23 101 24 9 25 100 27 4 31 5 32 6 33 2 34 1 35
REMARK SMILES IDX 3 39 93 43 94 44 99 45 95 46 98 48 96 50 97 53 19 54 20 57
REMARK SMILES IDX 21 60 22 63 23 66 24 69 25 70 26 72 27 73 28 74 89 75 29 76
REMARK SMILES IDX 88 78 30 80 31 83 32 84 82 85 33 86 87 87 81 88 83 89 34 90
REMARK SMILES IDX 86 91 80 93 79 95 35 97 67 100 47 101 66 102 48 103 51 104
REMARK SMILES IDX 65 105 84 106 49 107 50 109 64 111 85 112 52 115 36 117
REMARK SMILES IDX 37 118 45 119 38 120 39 121 43 122 46 123 40 124 41 125
REMARK SMILES IDX 44 126 42 127 68 128 69 129 77 130 70 131 71 132 75 133
REMARK SMILES IDX 78 134 72 135 73 136 76 137 74 138 53 139 54 140 62 141
REMARK SMILES IDX 55 142 56 143 60 144 63 145 57 146 58 147 61 148 59 149
REMARK H PARENT 18 2 18 3 17 7 14 9 14 10 13 12 13 13 90 19 91 20 8 26 101 28
REMARK H PARENT 9 29 100 30 1 36 1 37 1 38 3 40 3 41 3 42 94 47 99 49 95 51
REMARK H PARENT 98 52 19 55 19 56 20 58 20 59 21 61 21 62 22 64 22 65 23 67
REMARK H PARENT 23 68 24 71 28 77 89 79 29 81 88 82 87 92 81 94 83 96 86 98
REMARK H PARENT 80 99 48 108 51 110 84 113 49 114 85 116
REMARK Flexibility Score: inf
ROOT
ATOM      1  C   UNL A   1      46.671  19.572  36.335  1.00  0.00     0.017 C 
ATOM      2  H   UNL A   1      47.651  19.196  36.543  1.00  0.00     0.049 H 
ATOM      3  H   UNL A   1      46.481  20.488  36.853  1.00  0.00     0.049 H 
ENDROOT
BRANCH   1   4
ATOM      4  N   UNL A   1      45.692  18.596  36.791  1.00  0.00    -0.356 N 
ATOM      5  C   UNL A   1      45.429  18.117  38.041  1.00  0.00     0.220 C 
ATOM      6  O   UNL A   1      44.490  17.326  38.171  1.00  0.00    -0.275 OA
ATOM      7  H   UNL A   1      45.126  18.218  36.080  1.00  0.00     0.163 HD
BRANCH   5   8
ATOM      8  C   UNL A   1      46.267  18.508  39.247  1.00  0.00     0.032 C 
ATOM      9  H   UNL A   1      47.062  19.135  38.903  1.00  0.00     0.037 H 
ATOM     10  H   UNL A   1      45.591  18.987  39.923  1.00  0.00     0.037 H 
BRANCH   8  11
ATOM     11  C   UNL A   1      46.893  17.346  40.041  1.00  0.00    -0.003 C 
ATOM     12  H   UNL A   1      46.120  16.643  40.269  1.00  0.00     0.034 H 
ATOM     13  H   UNL A   1      47.664  16.937  39.423  1.00  0.00     0.034 H 
BRANCH  11  14
ATOM     14  C   UNL A   1      47.555  17.756  41.338  1.00  0.00     0.024 A 
ATOM     15  N   UNL A   1      47.055  17.652  42.658  1.00  0.00    -0.314 N 
ATOM     16  C   UNL A   1      48.060  18.202  43.514  1.00  0.00     0.053 A 
ATOM     17  C   UNL A   1      48.792  18.379  41.390  1.00  0.00    -0.040 A 
ATOM     18  C   UNL A   1      49.101  18.658  42.726  1.00  0.00    -0.036 A 
ATOM     19  H   UNL A   1      49.388  18.599  40.577  1.00  0.00     0.064 H 
ATOM     20  H   UNL A   1      49.957  19.125  43.064  1.00  0.00     0.065 H 
BRANCH  15  21
ATOM     21  C   UNL A   1      45.865  16.946  43.122  1.00  0.00     0.046 A 
ATOM     22  C   UNL A   1      43.577  15.311  43.408  1.00  0.00     0.082 A 
ATOM     23  C   UNL A   1      44.837  14.806  43.693  1.00  0.00    -0.040 A 
ATOM     24  C   UNL A   1      43.436  16.644  43.057  1.00  0.00    -0.040 A 
ATOM     25  C   UNL A   1      45.948  15.649  43.641  1.00  0.00    -0.037 A 
ATOM     26  H   UNL A   1      44.953  13.811  43.942  1.00  0.00     0.064 H 
ATOM     27  C   UNL A   1      44.575  17.443  42.920  1.00  0.00    -0.037 A 
ATOM     28  H   UNL A   1      42.498  17.043  42.898  1.00  0.00     0.064 H 
ATOM     29  H   UNL A   1      46.855  15.308  43.996  1.00  0.00     0.065 H 
ATOM     30  H   UNL A   1      44.460  18.435  42.662  1.00  0.00     0.065 H 
BRANCH  22  31
ATOM     31  S   UNL A   1      42.161  14.255  43.480  1.00  0.00     0.242 S 
ATOM     32  O   UNL A   1      40.983  15.077  43.326  1.00  0.00    -0.207 OA
ATOM     33  O   UNL A   1      42.317  13.387  44.632  1.00  0.00    -0.207 OA
BRANCH  31  34
ATOM     34  N   UNL A   1      42.351  13.301  42.072  1.00  0.00    -0.204 NA
BRANCH  34  35
ATOM     35  C   UNL A   1      42.175  11.858  42.321  1.00  0.00     0.002 C 
ATOM     36  H   UNL A   1      42.456  11.632  43.328  1.00  0.00     0.041 H 
ATOM     37  H   UNL A   1      42.790  11.301  41.646  1.00  0.00     0.041 H 
ATOM     38  H   UNL A   1      41.149  11.593  42.170  1.00  0.00     0.041 H 
ENDBRANCH  34  35
BRANCH  34  39
ATOM     39  C   UNL A   1      41.597  13.758  40.882  1.00  0.00     0.002 C 
ATOM     40  H   UNL A   1      42.276  14.177  40.169  1.00  0.00     0.041 H 
ATOM     41  H   UNL A   1      40.884  14.500  41.175  1.00  0.00     0.041 H 
ATOM     42  H   UNL A   1      41.087  12.926  40.443  1.00  0.00     0.041 H 
ENDBRANCH  34  39
ENDBRANCH  31  34
ENDBRANCH  22  31
ENDBRANCH  15  21
BRANCH  16  43
ATOM     43  C   UNL A   1      48.113  18.065  44.981  1.00  0.00    -0.001 A 
ATOM     44  C   UNL A   1      48.847  17.069  45.629  1.00  0.00    -0.050 A 
ATOM     45  C   UNL A   1      47.489  19.041  45.767  1.00  0.00    -0.050 A 
ATOM     46  C   UNL A   1      49.025  17.132  47.020  1.00  0.00    -0.026 A 
ATOM     47  H   UNL A   1      49.256  16.290  45.087  1.00  0.00     0.063 H 
ATOM     48  C   UNL A   1      47.663  19.119  47.145  1.00  0.00    -0.026 A 
ATOM     49  H   UNL A   1      46.874  19.731  45.305  1.00  0.00     0.063 H 
ATOM     50  C   UNL A   1      48.450  18.166  47.761  1.00  0.00     0.123 A 
ATOM     51  H   UNL A   1      49.586  16.409  47.498  1.00  0.00     0.065 H 
ATOM     52  H   UNL A   1      47.215  19.871  47.693  1.00  0.00     0.065 H 
ATOM     53  F   UNL A   1      48.588  18.193  49.093  1.00  0.00    -0.207 F 
ENDBRANCH  16  43
ENDBRANCH  11  14
ENDBRANCH   8  11
ENDBRANCH   5   8
ENDBRANCH   1   4
BRANCH   1  54
ATOM     54  C   UNL A   1      46.566  19.859  34.838  1.00  0.00    -0.036 C 
ATOM     55  H   UNL A   1      45.614  19.500  34.505  1.00  0.00     0.028 H 
ATOM     56  H   UNL A   1      47.410  19.369  34.399  1.00  0.00     0.028 H 
BRANCH  54  57
ATOM     57  C   UNL A   1      46.685  21.326  34.401  1.00  0.00    -0.052 C 
ATOM     58  H   UNL A   1      47.143  21.325  33.434  1.00  0.00     0.027 H 
ATOM     59  H   UNL A   1      47.232  21.778  35.202  1.00  0.00     0.027 H 
BRANCH  57  60
ATOM     60  C   UNL A   1      45.410  22.210  34.294  1.00  0.00    -0.052 C 
ATOM     61  H   UNL A   1      44.758  21.703  33.615  1.00  0.00     0.027 H 
ATOM     62  H   UNL A   1      45.830  23.158  34.030  1.00  0.00     0.027 H 
BRANCH  60  63
ATOM     63  C   UNL A   1      44.538  22.589  35.517  1.00  0.00    -0.036 C 
ATOM     64  H   UNL A   1      43.965  21.720  35.765  1.00  0.00     0.028 H 
ATOM     65  H   UNL A   1      44.015  23.457  35.175  1.00  0.00     0.028 H 
BRANCH  63  66
ATOM     66  C   UNL A   1      45.194  23.081  36.840  1.00  0.00     0.018 C 
ATOM     67  H   UNL A   1      46.249  23.159  36.684  1.00  0.00     0.049 H 
ATOM     68  H   UNL A   1      44.942  22.365  37.596  1.00  0.00     0.049 H 
BRANCH  66  69
ATOM     69  N   UNL A   1      44.701  24.375  37.301  1.00  0.00    -0.352 N 
ATOM     70  C   UNL A   1      44.611  25.625  36.718  1.00  0.00     0.251 C 
ATOM     71  H   UNL A   1      44.362  24.354  38.225  1.00  0.00     0.163 HD
ATOM     72  O   UNL A   1      44.585  26.582  37.499  1.00  0.00    -0.269 OA
BRANCH  70  73
ATOM     73  C   UNL A   1      44.490  25.938  35.255  1.00  0.00     0.039 A 
ATOM     74  C   UNL A   1      45.674  26.009  34.490  1.00  0.00    -0.049 A 
ATOM     75  C   UNL A   1      43.310  26.317  34.626  1.00  0.00    -0.049 A 
ATOM     76  C   UNL A   1      45.669  26.431  33.146  1.00  0.00    -0.053 A 
ATOM     77  H   UNL A   1      46.569  25.742  34.928  1.00  0.00     0.063 H 
ATOM     78  C   UNL A   1      43.307  26.825  33.306  1.00  0.00    -0.053 A 
ATOM     79  H   UNL A   1      42.416  26.227  35.134  1.00  0.00     0.063 H 
ATOM     80  C   UNL A   1      44.479  26.839  32.536  1.00  0.00    -0.014 A 
ATOM     81  H   UNL A   1      46.550  26.439  32.608  1.00  0.00     0.063 H 
ATOM     82  H   UNL A   1      42.429  27.190  32.904  1.00  0.00     0.063 H 
BRANCH  80  83
ATOM     83  C   UNL A   1      44.389  26.847  31.033  1.00  0.00     0.031 A 
ATOM     84  C   UNL A   1      44.413  28.323  30.511  1.00  0.00     0.074 A 
ATOM     85  C   UNL A   1      44.287  25.666  30.328  1.00  0.00     0.049 A 
ATOM     86  N   UNL A   1      44.066  28.819  29.361  1.00  0.00    -0.248 NA
ATOM     87  C   UNL A   1      44.868  29.419  31.420  1.00  0.00    -0.034 C 
ATOM     88  C   UNL A   1      44.352  24.311  30.921  1.00  0.00    -0.036 A 
ATOM     89  N   UNL A   1      44.110  25.346  28.980  1.00  0.00    -0.354 N 
ATOM     90  C   UNL A   1      44.462  30.182  29.341  1.00  0.00     0.074 A 
ATOM     91  C   UNL A   1      44.857  30.515  30.667  1.00  0.00    -0.034 C 
ATOM     92  H   UNL A   1      45.134  29.343  32.414  1.00  0.00     0.065 H 
ATOM     93  C   UNL A   1      44.130  23.350  29.989  1.00  0.00    -0.036 A 
ATOM     94  H   UNL A   1      44.542  24.121  31.918  1.00  0.00     0.065 H 
ATOM     95  C   UNL A   1      43.920  23.955  28.685  1.00  0.00     0.049 A 
ATOM     96  H   UNL A   1      44.115  26.033  28.275  1.00  0.00     0.167 HD
ATOM     97  C   UNL A   1      44.580  30.917  28.198  1.00  0.00     0.037 A 
ATOM     98  H   UNL A   1      45.098  31.464  30.994  1.00  0.00     0.065 H 
ATOM     99  H   UNL A   1      44.113  22.336  30.179  1.00  0.00     0.065 H 
ATOM    100  C   UNL A   1      43.593  23.341  27.492  1.00  0.00     0.037 A 
ATOM    101  C   UNL A   1      44.064  30.178  27.104  1.00  0.00     0.049 A 
ATOM    102  C   UNL A   1      43.736  24.393  26.485  1.00  0.00     0.074 A 
ATOM    103  C   UNL A   1      42.792  29.789  26.784  1.00  0.00    -0.036 A 
ATOM    104  N   UNL A   1      44.967  29.438  26.387  1.00  0.00    -0.354 N 
ATOM    105  N   UNL A   1      44.878  24.808  26.029  1.00  0.00    -0.248 NA
ATOM    106  C   UNL A   1      42.531  25.033  25.944  1.00  0.00    -0.034 C 
ATOM    107  C   UNL A   1      42.983  28.495  26.268  1.00  0.00    -0.036 A 
ATOM    108  H   UNL A   1      41.911  30.315  26.892  1.00  0.00     0.065 H 
ATOM    109  C   UNL A   1      44.349  28.263  26.065  1.00  0.00     0.049 A 
ATOM    110  H   UNL A   1      45.886  29.702  26.151  1.00  0.00     0.167 HD
ATOM    111  C   UNL A   1      44.520  25.989  25.435  1.00  0.00     0.074 A 
ATOM    112  C   UNL A   1      43.115  25.888  25.109  1.00  0.00    -0.034 C 
ATOM    113  H   UNL A   1      41.532  24.868  26.149  1.00  0.00     0.065 H 
ATOM    114  H   UNL A   1      42.231  27.818  26.068  1.00  0.00     0.065 H 
ATOM    115  C   UNL A   1      45.176  27.115  25.806  1.00  0.00     0.037 A 
ATOM    116  H   UNL A   1      42.640  26.398  24.347  1.00  0.00     0.065 H 
BRANCH  97 117
ATOM    117  C   UNL A   1      45.364  32.161  27.871  1.00  0.00     0.064 A 
ATOM    118  C   UNL A   1      44.634  33.332  27.536  1.00  0.00     0.173 A 
ATOM    119  C   UNL A   1      46.707  32.138  27.471  1.00  0.00     0.173 A 
ATOM    120  F   UNL A   1      43.357  33.481  27.923  1.00  0.00    -0.203 F 
ATOM    121  C   UNL A   1      45.157  34.313  26.697  1.00  0.00     0.198 A 
ATOM    122  C   UNL A   1      47.245  33.157  26.679  1.00  0.00     0.198 A 
ATOM    123  F   UNL A   1      47.497  31.092  27.736  1.00  0.00    -0.203 F 
ATOM    124  F   UNL A   1      44.369  35.306  26.259  1.00  0.00    -0.200 F 
ATOM    125  C   UNL A   1      46.457  34.212  26.248  1.00  0.00     0.200 A 
ATOM    126  F   UNL A   1      48.513  33.063  26.257  1.00  0.00    -0.200 F 
ATOM    127  F   UNL A   1      46.939  35.104  25.373  1.00  0.00    -0.200 F 
ENDBRANCH  97 117
BRANCH 100 128
ATOM    128  C   UNL A   1      43.153  21.997  26.900  1.00  0.00     0.064 A 
ATOM    129  C   UNL A   1      43.763  21.312  25.846  1.00  0.00     0.173 A 
ATOM    130  C   UNL A   1      42.072  21.264  27.499  1.00  0.00     0.173 A 
ATOM    131  F   UNL A   1      44.700  21.904  25.098  1.00  0.00    -0.203 F 
ATOM    132  C   UNL A   1      43.412  19.980  25.513  1.00  0.00     0.198 A 
ATOM    133  C   UNL A   1      41.771  19.931  27.218  1.00  0.00     0.198 A 
ATOM    134  F   UNL A   1      41.246  21.818  28.395  1.00  0.00    -0.203 F 
ATOM    135  F   UNL A   1      44.024  19.366  24.490  1.00  0.00    -0.200 F 
ATOM    136  C   UNL A   1      42.456  19.277  26.231  1.00  0.00     0.200 A 
ATOM    137  F   UNL A   1      40.825  19.296  27.929  1.00  0.00    -0.200 F 
ATOM    138  F   UNL A   1      42.188  17.991  25.964  1.00  0.00    -0.200 F 
ENDBRANCH 100 128
BRANCH 115 139
ATOM    139  C   UNL A   1      46.589  26.871  26.304  1.00  0.00     0.064 A 
ATOM    140  C   UNL A   1      47.571  26.426  25.402  1.00  0.00     0.173 A 
ATOM    141  C   UNL A   1      46.976  26.928  27.654  1.00  0.00     0.173 A 
ATOM    142  F   UNL A   1      47.292  26.362  24.091  1.00  0.00    -0.203 F 
ATOM    143  C   UNL A   1      48.844  26.040  25.829  1.00  0.00     0.198 A 
ATOM    144  C   UNL A   1      48.250  26.545  28.084  1.00  0.00     0.198 A 
ATOM    145  F   UNL A   1      46.129  27.356  28.588  1.00  0.00    -0.203 F 
ATOM    146  F   UNL A   1      49.747  25.616  24.934  1.00  0.00    -0.200 F 
ATOM    147  C   UNL A   1      49.183  26.094  27.171  1.00  0.00     0.200 A 
ATOM    148  F   UNL A   1      48.571  26.622  29.386  1.00  0.00    -0.200 F 
ATOM    149  F   UNL A   1      50.408  25.733  27.578  1.00  0.00    -0.200 F 
ENDBRANCH 115 139
ENDBRANCH  80  83
ENDBRANCH  70  73
ENDBRANCH  66  69
ENDBRANCH  63  66
ENDBRANCH  60  63
ENDBRANCH  57  60
ENDBRANCH  54  57
ENDBRANCH   1  54
TORSDOF 21
ENDMDL
MODEL 7
REMARK VINA RESULT:     -11.2      9.402     15.859
REMARK SMILES CN(C)S(=O)(=O)c1ccc(-n2c(CCC(=O)NCCCCCCNC(=O)c3ccc(-c4c5nc(c(-c6c(F)c(F)c(F)c(F)c6F)c6ccc([nH]6)c(-c6c(F)c(F)c(F)c(F)c6F)c6nc(c(-c7c(F)c(F)c(F)c(F)c7F)c7ccc4[nH]7)C=C6)C=C5)cc3)ccc2-c2ccc(F)cc2)cc1
REMARK SMILES IDX 18 1 17 4 15 5 16 6 14 8 13 11 12 14 11 15 92 16 90 17 91 18
REMARK SMILES IDX 10 21 7 22 8 23 101 24 9 25 100 27 4 31 5 32 6 33 2 34 1 35
REMARK SMILES IDX 3 39 93 43 94 44 99 45 95 46 98 48 96 50 97 53 19 54 20 57
REMARK SMILES IDX 21 60 22 63 23 66 24 69 25 70 26 72 27 73 28 74 89 75 29 76
REMARK SMILES IDX 88 78 30 80 31 83 32 84 82 85 33 86 87 87 81 88 83 89 34 90
REMARK SMILES IDX 86 91 80 93 79 95 35 97 67 100 47 101 66 102 48 103 51 104
REMARK SMILES IDX 65 105 84 106 49 107 50 109 64 111 85 112 52 115 36 117
REMARK SMILES IDX 37 118 45 119 38 120 39 121 43 122 46 123 40 124 41 125
REMARK SMILES IDX 44 126 42 127 68 128 69 129 77 130 70 131 71 132 75 133
REMARK SMILES IDX 78 134 72 135 73 136 76 137 74 138 53 139 54 140 62 141
REMARK SMILES IDX 55 142 56 143 60 144 63 145 57 146 58 147 61 148 59 149
REMARK H PARENT 18 2 18 3 17 7 14 9 14 10 13 12 13 13 90 19 91 20 8 26 101 28
REMARK H PARENT 9 29 100 30 1 36 1 37 1 38 3 40 3 41 3 42 94 47 99 49 95 51
REMARK H PARENT 98 52 19 55 19 56 20 58 20 59 21 61 21 62 22 64 22 65 23 67
REMARK H PARENT 23 68 24 71 28 77 89 79 29 81 88 82 87 92 81 94 83 96 86 98
REMARK H PARENT 80 99 48 108 51 110 84 113 49 114 85 116
REMARK Flexibility Score: inf
ROOT
ATOM      1  C   UNL A   1      51.379  23.572  40.081  1.00  0.00     0.017 C 
ATOM      2  H   UNL A   1      51.885  23.935  39.210  1.00  0.00     0.049 H 
ATOM      3  H   UNL A   1      52.003  23.617  40.948  1.00  0.00     0.049 H 
ENDROOT
BRANCH   1   4
ATOM      4  N   UNL A   1      51.025  22.176  39.865  1.00  0.00    -0.356 N 
ATOM      5  C   UNL A   1      50.883  21.462  38.711  1.00  0.00     0.220 C 
ATOM      6  O   UNL A   1      50.633  20.257  38.805  1.00  0.00    -0.275 OA
ATOM      7  H   UNL A   1      50.860  21.662  40.688  1.00  0.00     0.163 HD
BRANCH   5   8
ATOM      8  C   UNL A   1      51.000  22.112  37.343  1.00  0.00     0.032 C 
ATOM      9  H   UNL A   1      50.622  23.109  37.420  1.00  0.00     0.037 H 
ATOM     10  H   UNL A   1      52.037  22.054  37.084  1.00  0.00     0.037 H 
BRANCH   8  11
ATOM     11  C   UNL A   1      50.249  21.411  36.195  1.00  0.00    -0.003 C 
ATOM     12  H   UNL A   1      50.950  21.203  35.415  1.00  0.00     0.034 H 
ATOM     13  H   UNL A   1      49.812  20.528  36.613  1.00  0.00     0.034 H 
BRANCH  11  14
ATOM     14  C   UNL A   1      49.112  22.213  35.605  1.00  0.00     0.024 A 
ATOM     15  N   UNL A   1      47.717  22.018  35.756  1.00  0.00    -0.314 N 
ATOM     16  C   UNL A   1      47.081  23.033  34.975  1.00  0.00     0.053 A 
ATOM     17  C   UNL A   1      49.309  23.276  34.737  1.00  0.00    -0.040 A 
ATOM     18  C   UNL A   1      48.062  23.777  34.345  1.00  0.00    -0.036 A 
ATOM     19  H   UNL A   1      50.225  23.639  34.431  1.00  0.00     0.064 H 
ATOM     20  H   UNL A   1      47.903  24.564  33.697  1.00  0.00     0.065 H 
BRANCH  15  21
ATOM     21  C   UNL A   1      47.025  21.120  36.674  1.00  0.00     0.046 A 
ATOM     22  C   UNL A   1      46.259  19.044  38.431  1.00  0.00     0.082 A 
ATOM     23  C   UNL A   1      46.905  20.170  38.920  1.00  0.00    -0.040 A 
ATOM     24  C   UNL A   1      45.920  18.975  37.090  1.00  0.00    -0.040 A 
ATOM     25  C   UNL A   1      47.192  21.230  38.060  1.00  0.00    -0.037 A 
ATOM     26  H   UNL A   1      47.173  20.223  39.916  1.00  0.00     0.064 H 
ATOM     27  C   UNL A   1      46.303  20.010  36.231  1.00  0.00    -0.037 A 
ATOM     28  H   UNL A   1      45.389  18.168  36.729  1.00  0.00     0.064 H 
ATOM     29  H   UNL A   1      47.536  22.119  38.454  1.00  0.00     0.065 H 
ATOM     30  H   UNL A   1      46.043  19.951  35.234  1.00  0.00     0.065 H 
BRANCH  22  31
ATOM     31  S   UNL A   1      45.881  17.698  39.515  1.00  0.00     0.242 S 
ATOM     32  O   UNL A   1      47.126  17.184  40.039  1.00  0.00    -0.207 OA
ATOM     33  O   UNL A   1      44.949  16.825  38.826  1.00  0.00    -0.207 OA
BRANCH  31  34
ATOM     34  N   UNL A   1      45.036  18.480  40.780  1.00  0.00    -0.204 NA
BRANCH  34  35
ATOM     35  C   UNL A   1      43.980  17.640  41.377  1.00  0.00     0.002 C 
ATOM     36  H   UNL A   1      44.141  17.560  42.432  1.00  0.00     0.041 H 
ATOM     37  H   UNL A   1      44.006  16.666  40.937  1.00  0.00     0.041 H 
ATOM     38  H   UNL A   1      43.024  18.088  41.197  1.00  0.00     0.041 H 
ENDBRANCH  34  35
BRANCH  34  39
ATOM     39  C   UNL A   1      45.879  19.131  41.808  1.00  0.00     0.002 C 
ATOM     40  H   UNL A   1      45.714  18.662  42.755  1.00  0.00     0.041 H 
ATOM     41  H   UNL A   1      45.622  20.168  41.875  1.00  0.00     0.041 H 
ATOM     42  H   UNL A   1      46.910  19.036  41.536  1.00  0.00     0.041 H 
ENDBRANCH  34  39
ENDBRANCH  31  34
ENDBRANCH  22  31
ENDBRANCH  15  21
BRANCH  16  43
ATOM     43  C   UNL A   1      45.655  23.403  35.038  1.00  0.00    -0.001 A 
ATOM     44  C   UNL A   1      44.739  23.082  34.034  1.00  0.00    -0.050 A 
ATOM     45  C   UNL A   1      45.172  24.007  36.204  1.00  0.00    -0.050 A 
ATOM     46  C   UNL A   1      43.367  23.274  34.261  1.00  0.00    -0.026 A 
ATOM     47  H   UNL A   1      45.070  22.706  33.130  1.00  0.00     0.063 H 
ATOM     48  C   UNL A   1      43.814  24.196  36.444  1.00  0.00    -0.026 A 
ATOM     49  H   UNL A   1      45.850  24.326  36.915  1.00  0.00     0.063 H 
ATOM     50  C   UNL A   1      42.916  23.808  35.469  1.00  0.00     0.123 A 
ATOM     51  H   UNL A   1      42.685  23.016  33.529  1.00  0.00     0.065 H 
ATOM     52  H   UNL A   1      43.487  24.615  37.329  1.00  0.00     0.065 H 
ATOM     53  F   UNL A   1      41.609  24.028  35.658  1.00  0.00    -0.207 F 
ENDBRANCH  16  43
ENDBRANCH  11  14
ENDBRANCH   8  11
ENDBRANCH   5   8
ENDBRANCH   1   4
BRANCH   1  54
ATOM     54  C   UNL A   1      50.161  24.457  40.343  1.00  0.00    -0.036 C 
ATOM     55  H   UNL A   1      50.380  25.431  39.958  1.00  0.00     0.028 H 
ATOM     56  H   UNL A   1      50.008  24.416  41.401  1.00  0.00     0.028 H 
BRANCH  54  57
ATOM     57  C   UNL A   1      48.829  24.005  39.730  1.00  0.00    -0.052 C 
ATOM     58  H   UNL A   1      48.112  23.989  40.524  1.00  0.00     0.027 H 
ATOM     59  H   UNL A   1      49.073  23.070  39.271  1.00  0.00     0.027 H 
BRANCH  57  60
ATOM     60  C   UNL A   1      48.194  24.820  38.567  1.00  0.00    -0.052 C 
ATOM     61  H   UNL A   1      47.783  24.099  37.893  1.00  0.00     0.027 H 
ATOM     62  H   UNL A   1      49.016  25.433  38.263  1.00  0.00     0.027 H 
BRANCH  60  63
ATOM     63  C   UNL A   1      47.084  25.879  38.784  1.00  0.00    -0.036 C 
ATOM     64  H   UNL A   1      47.369  26.450  39.642  1.00  0.00     0.028 H 
ATOM     65  H   UNL A   1      46.197  25.284  38.847  1.00  0.00     0.028 H 
BRANCH  63  66
ATOM     66  C   UNL A   1      46.733  26.903  37.665  1.00  0.00     0.018 C 
ATOM     67  H   UNL A   1      46.913  26.442  36.718  1.00  0.00     0.049 H 
ATOM     68  H   UNL A   1      47.349  27.763  37.828  1.00  0.00     0.049 H 
BRANCH  66  69
ATOM     69  N   UNL A   1      45.347  27.363  37.696  1.00  0.00    -0.352 N 
ATOM     70  C   UNL A   1      44.485  27.857  36.736  1.00  0.00     0.251 C 
ATOM     71  H   UNL A   1      44.941  27.310  38.591  1.00  0.00     0.163 HD
ATOM     72  O   UNL A   1      43.568  28.571  37.155  1.00  0.00    -0.269 OA
BRANCH  70  73
ATOM     73  C   UNL A   1      44.512  27.581  35.261  1.00  0.00     0.039 A 
ATOM     74  C   UNL A   1      43.279  27.445  34.588  1.00  0.00    -0.049 A 
ATOM     75  C   UNL A   1      45.661  27.293  34.535  1.00  0.00    -0.049 A 
ATOM     76  C   UNL A   1      43.206  27.049  33.237  1.00  0.00    -0.053 A 
ATOM     77  H   UNL A   1      42.405  27.643  35.099  1.00  0.00     0.063 H 
ATOM     78  C   UNL A   1      45.594  26.811  33.207  1.00  0.00    -0.053 A 
ATOM     79  H   UNL A   1      46.584  27.433  34.974  1.00  0.00     0.063 H 
ATOM     80  C   UNL A   1      44.370  26.733  32.528  1.00  0.00    -0.014 A 
ATOM     81  H   UNL A   1      42.288  26.992  32.768  1.00  0.00     0.063 H 
ATOM     82  H   UNL A   1      46.460  26.514  32.730  1.00  0.00     0.063 H 
BRANCH  80  83
ATOM     83  C   UNL A   1      44.342  26.760  31.024  1.00  0.00     0.031 A 
ATOM     84  C   UNL A   1      44.381  28.243  30.522  1.00  0.00     0.074 A 
ATOM     85  C   UNL A   1      44.272  25.588  30.299  1.00  0.00     0.049 A 
ATOM     86  N   UNL A   1      44.080  28.753  29.365  1.00  0.00    -0.248 NA
ATOM     87  C   UNL A   1      44.795  29.329  31.463  1.00  0.00    -0.034 C 
ATOM     88  C   UNL A   1      44.318  24.226  30.877  1.00  0.00    -0.036 A 
ATOM     89  N   UNL A   1      44.152  25.285  28.942  1.00  0.00    -0.354 N 
ATOM     90  C   UNL A   1      44.471  30.117  29.379  1.00  0.00     0.074 A 
ATOM     91  C   UNL A   1      44.811  30.434  30.724  1.00  0.00    -0.034 C 
ATOM     92  H   UNL A   1      45.020  29.240  32.466  1.00  0.00     0.065 H 
ATOM     93  C   UNL A   1      44.138  23.276  29.924  1.00  0.00    -0.036 A 
ATOM     94  H   UNL A   1      44.468  24.024  31.878  1.00  0.00     0.065 H 
ATOM     95  C   UNL A   1      43.979  23.898  28.621  1.00  0.00     0.049 A 
ATOM     96  H   UNL A   1      44.183  25.982  28.246  1.00  0.00     0.167 HD
ATOM     97  C   UNL A   1      44.633  30.868  28.251  1.00  0.00     0.037 A 
ATOM     98  H   UNL A   1      45.035  31.380  31.073  1.00  0.00     0.065 H 
ATOM     99  H   UNL A   1      44.117  22.260  30.100  1.00  0.00     0.065 H 
ATOM    100  C   UNL A   1      43.703  23.299  27.407  1.00  0.00     0.037 A 
ATOM    101  C   UNL A   1      44.165  30.141  27.128  1.00  0.00     0.049 A 
ATOM    102  C   UNL A   1      43.883  24.364  26.421  1.00  0.00     0.074 A 
ATOM    103  C   UNL A   1      42.908  29.753  26.751  1.00  0.00    -0.036 A 
ATOM    104  N   UNL A   1      45.099  29.414  26.439  1.00  0.00    -0.354 N 
ATOM    105  N   UNL A   1      45.041  24.789  26.018  1.00  0.00    -0.248 NA
ATOM    106  C   UNL A   1      42.699  25.007  25.839  1.00  0.00    -0.034 C 
ATOM    107  C   UNL A   1      43.125  28.466  26.226  1.00  0.00    -0.036 A 
ATOM    108  H   UNL A   1      42.022  30.275  26.830  1.00  0.00     0.065 H 
ATOM    109  C   UNL A   1      44.499  28.242  26.076  1.00  0.00     0.049 A 
ATOM    110  H   UNL A   1      46.026  29.684  26.244  1.00  0.00     0.167 HD
ATOM    111  C   UNL A   1      44.704  25.976  25.425  1.00  0.00     0.074 A 
ATOM    112  C   UNL A   1      43.314  25.875  25.040  1.00  0.00    -0.034 C 
ATOM    113  H   UNL A   1      41.693  24.837  26.001  1.00  0.00     0.065 H 
ATOM    114  H   UNL A   1      42.384  27.789  25.987  1.00  0.00     0.065 H 
ATOM    115  C   UNL A   1      45.339  27.099  25.837  1.00  0.00     0.037 A 
ATOM    116  H   UNL A   1      42.868  26.394  24.267  1.00  0.00     0.065 H 
BRANCH  97 117
ATOM    117  C   UNL A   1      45.426  32.118  27.974  1.00  0.00     0.064 A 
ATOM    118  C   UNL A   1      46.785  32.140  28.382  1.00  0.00     0.173 A 
ATOM    119  C   UNL A   1      44.833  33.367  27.741  1.00  0.00     0.173 A 
ATOM    120  F   UNL A   1      47.465  30.999  28.575  1.00  0.00    -0.203 F 
ATOM    121  C   UNL A   1      47.435  33.326  28.717  1.00  0.00     0.198 A 
ATOM    122  C   UNL A   1      45.512  34.555  28.022  1.00  0.00     0.198 A 
ATOM    123  F   UNL A   1      43.559  33.472  27.345  1.00  0.00    -0.203 F 
ATOM    124  F   UNL A   1      48.656  33.283  29.274  1.00  0.00    -0.200 F 
ATOM    125  C   UNL A   1      46.788  34.534  28.560  1.00  0.00     0.200 A 
ATOM    126  F   UNL A   1      44.885  35.728  27.853  1.00  0.00    -0.200 F 
ATOM    127  F   UNL A   1      47.374  35.670  28.960  1.00  0.00    -0.200 F 
ENDBRANCH  97 117
BRANCH 100 128
ATOM    128  C   UNL A   1      43.293  21.961  26.781  1.00  0.00     0.064 A 
ATOM    129  C   UNL A   1      44.025  21.218  25.851  1.00  0.00     0.173 A 
ATOM    130  C   UNL A   1      42.094  21.298  27.215  1.00  0.00     0.173 A 
ATOM    131  F   UNL A   1      45.097  21.743  25.250  1.00  0.00    -0.203 F 
ATOM    132  C   UNL A   1      43.661  19.896  25.493  1.00  0.00     0.198 A 
ATOM    133  C   UNL A   1      41.772  19.973  26.917  1.00  0.00     0.198 A 
ATOM    134  F   UNL A   1      41.167  21.916  27.957  1.00  0.00    -0.203 F 
ATOM    135  F   UNL A   1      44.395  19.224  24.594  1.00  0.00    -0.200 F 
ATOM    136  C   UNL A   1      42.570  19.260  26.065  1.00  0.00     0.200 A 
ATOM    137  F   UNL A   1      40.694  19.405  27.481  1.00  0.00    -0.200 F 
ATOM    138  F   UNL A   1      42.280  17.981  25.785  1.00  0.00    -0.200 F 
ENDBRANCH 100 128
BRANCH 115 139
ATOM    139  C   UNL A   1      46.732  26.853  26.389  1.00  0.00     0.064 A 
ATOM    140  C   UNL A   1      47.742  26.386  25.530  1.00  0.00     0.173 A 
ATOM    141  C   UNL A   1      47.071  26.930  27.751  1.00  0.00     0.173 A 
ATOM    142  F   UNL A   1      47.510  26.303  24.211  1.00  0.00    -0.203 F 
ATOM    143  C   UNL A   1      48.996  25.998  26.008  1.00  0.00     0.198 A 
ATOM    144  C   UNL A   1      48.326  26.545  28.232  1.00  0.00     0.198 A 
ATOM    145  F   UNL A   1      46.195  27.379  28.646  1.00  0.00    -0.203 F 
ATOM    146  F   UNL A   1      49.927  25.552  25.153  1.00  0.00    -0.200 F 
ATOM    147  C   UNL A   1      49.287  26.072  27.360  1.00  0.00     0.200 A 
ATOM    148  F   UNL A   1      48.601  26.640  29.543  1.00  0.00    -0.200 F 
ATOM    149  F   UNL A   1      50.494  25.708  27.817  1.00  0.00    -0.200 F 
ENDBRANCH 115 139
ENDBRANCH  80  83
ENDBRANCH  70  73
ENDBRANCH  66  69
ENDBRANCH  63  66
ENDBRANCH  60  63
ENDBRANCH  57  60
ENDBRANCH  54  57
ENDBRANCH   1  54
TORSDOF 21
ENDMDL
MODEL 8
REMARK VINA RESULT:     -11.1     10.276     16.178
REMARK SMILES CN(C)S(=O)(=O)c1ccc(-n2c(CCC(=O)NCCCCCCNC(=O)c3ccc(-c4c5nc(c(-c6c(F)c(F)c(F)c(F)c6F)c6ccc([nH]6)c(-c6c(F)c(F)c(F)c(F)c6F)c6nc(c(-c7c(F)c(F)c(F)c(F)c7F)c7ccc4[nH]7)C=C6)C=C5)cc3)ccc2-c2ccc(F)cc2)cc1
REMARK SMILES IDX 18 1 17 4 15 5 16 6 14 8 13 11 12 14 11 15 92 16 90 17 91 18
REMARK SMILES IDX 10 21 7 22 8 23 101 24 9 25 100 27 4 31 5 32 6 33 2 34 1 35
REMARK SMILES IDX 3 39 93 43 94 44 99 45 95 46 98 48 96 50 97 53 19 54 20 57
REMARK SMILES IDX 21 60 22 63 23 66 24 69 25 70 26 72 27 73 28 74 89 75 29 76
REMARK SMILES IDX 88 78 30 80 31 83 32 84 82 85 33 86 87 87 81 88 83 89 34 90
REMARK SMILES IDX 86 91 80 93 79 95 35 97 67 100 47 101 66 102 48 103 51 104
REMARK SMILES IDX 65 105 84 106 49 107 50 109 64 111 85 112 52 115 36 117
REMARK SMILES IDX 37 118 45 119 38 120 39 121 43 122 46 123 40 124 41 125
REMARK SMILES IDX 44 126 42 127 68 128 69 129 77 130 70 131 71 132 75 133
REMARK SMILES IDX 78 134 72 135 73 136 76 137 74 138 53 139 54 140 62 141
REMARK SMILES IDX 55 142 56 143 60 144 63 145 57 146 58 147 61 148 59 149
REMARK H PARENT 18 2 18 3 17 7 14 9 14 10 13 12 13 13 90 19 91 20 8 26 101 28
REMARK H PARENT 9 29 100 30 1 36 1 37 1 38 3 40 3 41 3 42 94 47 99 49 95 51
REMARK H PARENT 98 52 19 55 19 56 20 58 20 59 21 61 21 62 22 64 22 65 23 67
REMARK H PARENT 23 68 24 71 28 77 89 79 29 81 88 82 87 92 81 94 83 96 86 98
REMARK H PARENT 80 99 48 108 51 110 84 113 49 114 85 116
REMARK Flexibility Score: inf
ROOT
ATOM      1  C   UNL A   1      43.291  42.970  24.253  1.00  0.00     0.017 C 
ATOM      2  H   UNL A   1      42.653  43.734  23.861  1.00  0.00     0.049 H 
ATOM      3  H   UNL A   1      43.921  43.341  25.033  1.00  0.00     0.049 H 
ENDROOT
BRANCH   1   4
ATOM      4  N   UNL A   1      44.155  42.489  23.183  1.00  0.00    -0.356 N 
ATOM      5  C   UNL A   1      43.983  42.499  21.830  1.00  0.00     0.220 C 
ATOM      6  O   UNL A   1      44.907  42.079  21.128  1.00  0.00    -0.275 OA
ATOM      7  H   UNL A   1      45.001  42.090  23.486  1.00  0.00     0.163 HD
BRANCH   5   8
ATOM      8  C   UNL A   1      42.695  42.982  21.184  1.00  0.00     0.032 C 
ATOM      9  H   UNL A   1      41.896  42.373  21.552  1.00  0.00     0.037 H 
ATOM     10  H   UNL A   1      42.614  44.017  21.443  1.00  0.00     0.037 H 
BRANCH   8  11
ATOM     11  C   UNL A   1      42.651  42.937  19.645  1.00  0.00    -0.003 C 
ATOM     12  H   UNL A   1      43.512  42.402  19.302  1.00  0.00     0.034 H 
ATOM     13  H   UNL A   1      41.730  42.461  19.381  1.00  0.00     0.034 H 
BRANCH  11  14
ATOM     14  C   UNL A   1      42.641  44.292  18.976  1.00  0.00     0.024 A 
ATOM     15  N   UNL A   1      43.606  45.326  19.054  1.00  0.00    -0.314 N 
ATOM     16  C   UNL A   1      43.107  46.404  18.257  1.00  0.00     0.053 A 
ATOM     17  C   UNL A   1      41.585  44.743  18.199  1.00  0.00    -0.040 A 
ATOM     18  C   UNL A   1      41.868  46.042  17.762  1.00  0.00    -0.036 A 
ATOM     19  H   UNL A   1      40.731  44.208  17.979  1.00  0.00     0.064 H 
ATOM     20  H   UNL A   1      41.257  46.628  17.172  1.00  0.00     0.065 H 
BRANCH  15  21
ATOM     21  C   UNL A   1      44.944  45.271  19.634  1.00  0.00     0.046 A 
ATOM     22  C   UNL A   1      47.624  45.727  20.407  1.00  0.00     0.082 A 
ATOM     23  C   UNL A   1      46.583  46.306  21.119  1.00  0.00    -0.040 A 
ATOM     24  C   UNL A   1      47.343  44.861  19.363  1.00  0.00    -0.040 A 
ATOM     25  C   UNL A   1      45.264  45.997  20.788  1.00  0.00    -0.037 A 
ATOM     26  H   UNL A   1      46.785  46.963  21.889  1.00  0.00     0.064 H 
ATOM     27  C   UNL A   1      46.012  44.643  18.991  1.00  0.00    -0.037 A 
ATOM     28  H   UNL A   1      48.108  44.382  18.865  1.00  0.00     0.064 H 
ATOM     29  H   UNL A   1      44.503  46.311  21.410  1.00  0.00     0.065 H 
ATOM     30  H   UNL A   1      45.812  43.993  18.214  1.00  0.00     0.065 H 
BRANCH  22  31
ATOM     31  S   UNL A   1      49.301  46.103  20.824  1.00  0.00     0.242 S 
ATOM     32  O   UNL A   1      49.323  47.405  21.451  1.00  0.00    -0.207 OA
ATOM     33  O   UNL A   1      50.118  45.826  19.657  1.00  0.00    -0.207 OA
BRANCH  31  34
ATOM     34  N   UNL A   1      49.653  44.919  22.007  1.00  0.00    -0.204 NA
BRANCH  34  35
ATOM     35  C   UNL A   1      50.052  45.496  23.305  1.00  0.00     0.002 C 
ATOM     36  H   UNL A   1      49.191  45.594  23.932  1.00  0.00     0.041 H 
ATOM     37  H   UNL A   1      50.491  46.458  23.148  1.00  0.00     0.041 H 
ATOM     38  H   UNL A   1      50.765  44.851  23.777  1.00  0.00     0.041 H 
ENDBRANCH  34  35
BRANCH  34  39
ATOM     39  C   UNL A   1      48.644  43.846  22.161  1.00  0.00     0.002 C 
ATOM     40  H   UNL A   1      49.099  42.990  22.613  1.00  0.00     0.041 H 
ATOM     41  H   UNL A   1      48.258  43.578  21.199  1.00  0.00     0.041 H 
ATOM     42  H   UNL A   1      47.844  44.195  22.781  1.00  0.00     0.041 H 
ENDBRANCH  34  39
ENDBRANCH  31  34
ENDBRANCH  22  31
ENDBRANCH  15  21
BRANCH  16  43
ATOM     43  C   UNL A   1      43.881  47.578  17.814  1.00  0.00    -0.001 A 
ATOM     44  C   UNL A   1      44.946  47.495  16.914  1.00  0.00    -0.050 A 
ATOM     45  C   UNL A   1      43.463  48.849  18.227  1.00  0.00    -0.050 A 
ATOM     46  C   UNL A   1      45.491  48.671  16.375  1.00  0.00    -0.026 A 
ATOM     47  H   UNL A   1      45.329  46.574  16.648  1.00  0.00     0.063 H 
ATOM     48  C   UNL A   1      43.990  50.021  17.695  1.00  0.00    -0.026 A 
ATOM     49  H   UNL A   1      42.735  48.919  18.956  1.00  0.00     0.063 H 
ATOM     50  C   UNL A   1      44.995  49.920  16.753  1.00  0.00     0.123 A 
ATOM     51  H   UNL A   1      46.263  48.612  15.692  1.00  0.00     0.065 H 
ATOM     52  H   UNL A   1      43.638  50.944  17.996  1.00  0.00     0.065 H 
ATOM     53  F   UNL A   1      45.551  51.036  16.266  1.00  0.00    -0.207 F 
ENDBRANCH  16  43
ENDBRANCH  11  14
ENDBRANCH   8  11
ENDBRANCH   5   8
ENDBRANCH   1   4
BRANCH   1  54
ATOM     54  C   UNL A   1      42.420  41.865  24.851  1.00  0.00    -0.036 C 
ATOM     55  H   UNL A   1      42.023  41.292  24.039  1.00  0.00     0.028 H 
ATOM     56  H   UNL A   1      41.688  42.375  25.441  1.00  0.00     0.028 H 
BRANCH  54  57
ATOM     57  C   UNL A   1      43.102  40.888  25.817  1.00  0.00    -0.052 C 
ATOM     58  H   UNL A   1      43.470  41.469  26.637  1.00  0.00     0.027 H 
ATOM     59  H   UNL A   1      43.825  40.396  25.201  1.00  0.00     0.027 H 
BRANCH  57  60
ATOM     60  C   UNL A   1      42.292  39.710  26.430  1.00  0.00    -0.052 C 
ATOM     61  H   UNL A   1      41.717  39.300  25.627  1.00  0.00     0.027 H 
ATOM     62  H   UNL A   1      41.802  40.193  27.250  1.00  0.00     0.027 H 
BRANCH  60  63
ATOM     63  C   UNL A   1      42.957  38.503  27.136  1.00  0.00    -0.036 C 
ATOM     64  H   UNL A   1      42.776  37.649  26.517  1.00  0.00     0.028 H 
ATOM     65  H   UNL A   1      42.512  38.522  28.109  1.00  0.00     0.028 H 
BRANCH  63  66
ATOM     66  C   UNL A   1      44.481  38.507  27.454  1.00  0.00     0.018 C 
ATOM     67  H   UNL A   1      44.603  38.437  28.514  1.00  0.00     0.049 H 
ATOM     68  H   UNL A   1      44.878  39.417  27.054  1.00  0.00     0.049 H 
BRANCH  66  69
ATOM     69  N   UNL A   1      45.220  37.412  26.833  1.00  0.00    -0.352 N 
ATOM     70  C   UNL A   1      45.418  36.085  27.164  1.00  0.00     0.251 C 
ATOM     71  H   UNL A   1      45.676  37.675  26.001  1.00  0.00     0.163 HD
ATOM     72  O   UNL A   1      46.439  35.564  26.705  1.00  0.00    -0.269 OA
BRANCH  70  73
ATOM     73  C   UNL A   1      44.507  35.205  27.969  1.00  0.00     0.039 A 
ATOM     74  C   UNL A   1      44.314  35.519  29.332  1.00  0.00    -0.049 A 
ATOM     75  C   UNL A   1      43.961  34.011  27.514  1.00  0.00    -0.049 A 
ATOM     76  C   UNL A   1      43.590  34.673  30.196  1.00  0.00    -0.053 A 
ATOM     77  H   UNL A   1      44.713  36.393  29.705  1.00  0.00     0.063 H 
ATOM     78  C   UNL A   1      43.309  33.115  28.393  1.00  0.00    -0.053 A 
ATOM     79  H   UNL A   1      44.033  33.773  26.513  1.00  0.00     0.063 H 
ATOM     80  C   UNL A   1      43.073  33.460  29.731  1.00  0.00    -0.014 A 
ATOM     81  H   UNL A   1      43.442  34.951  31.179  1.00  0.00     0.063 H 
ATOM     82  H   UNL A   1      43.002  32.193  28.043  1.00  0.00     0.063 H 
BRANCH  80  83
ATOM     83  C   UNL A   1      41.952  32.802  30.490  1.00  0.00     0.031 A 
ATOM     84  C   UNL A   1      42.484  31.514  31.204  1.00  0.00     0.074 A 
ATOM     85  C   UNL A   1      40.680  33.335  30.470  1.00  0.00     0.049 A 
ATOM     86  N   UNL A   1      41.845  30.497  31.702  1.00  0.00    -0.248 NA
ATOM     87  C   UNL A   1      43.957  31.316  31.366  1.00  0.00    -0.034 C 
ATOM     88  C   UNL A   1      40.301  34.609  29.820  1.00  0.00    -0.036 A 
ATOM     89  N   UNL A   1      39.445  32.934  30.984  1.00  0.00    -0.354 N 
ATOM     90  C   UNL A   1      42.785  29.696  32.402  1.00  0.00     0.074 A 
ATOM     91  C   UNL A   1      44.076  30.197  32.075  1.00  0.00    -0.034 C 
ATOM     92  H   UNL A   1      44.716  31.916  31.007  1.00  0.00     0.065 H 
ATOM     93  C   UNL A   1      38.963  34.825  29.893  1.00  0.00    -0.036 A 
ATOM     94  H   UNL A   1      40.969  35.253  29.369  1.00  0.00     0.065 H 
ATOM     95  C   UNL A   1      38.318  33.739  30.612  1.00  0.00     0.049 A 
ATOM     96  H   UNL A   1      39.353  32.144  31.566  1.00  0.00     0.167 HD
ATOM     97  C   UNL A   1      42.435  28.757  33.327  1.00  0.00     0.037 A 
ATOM     98  H   UNL A   1      44.970  29.758  32.348  1.00  0.00     0.065 H 
ATOM     99  H   UNL A   1      38.473  35.641  29.494  1.00  0.00     0.065 H 
ATOM    100  C   UNL A   1      36.972  33.536  30.841  1.00  0.00     0.037 A 
ATOM    101  C   UNL A   1      41.028  28.584  33.318  1.00  0.00     0.049 A 
ATOM    102  C   UNL A   1      36.924  32.431  31.799  1.00  0.00     0.074 A 
ATOM    103  C   UNL A   1      40.179  28.054  32.384  1.00  0.00    -0.036 A 
ATOM    104  N   UNL A   1      40.316  29.330  34.219  1.00  0.00    -0.354 N 
ATOM    105  N   UNL A   1      37.183  32.559  33.064  1.00  0.00    -0.248 NA
ATOM    106  C   UNL A   1      36.565  31.089  31.325  1.00  0.00    -0.034 C 
ATOM    107  C   UNL A   1      39.063  28.906  32.461  1.00  0.00    -0.036 A 
ATOM    108  H   UNL A   1      40.322  27.233  31.776  1.00  0.00     0.065 H 
ATOM    109  C   UNL A   1      39.175  29.734  33.585  1.00  0.00     0.049 A 
ATOM    110  H   UNL A   1      40.577  29.537  35.146  1.00  0.00     0.167 HD
ATOM    111  C   UNL A   1      37.368  31.254  33.437  1.00  0.00     0.074 A 
ATOM    112  C   UNL A   1      36.652  30.437  32.481  1.00  0.00    -0.034 C 
ATOM    113  H   UNL A   1      36.319  30.753  30.380  1.00  0.00     0.065 H 
ATOM    114  H   UNL A   1      38.279  28.920  31.791  1.00  0.00     0.065 H 
ATOM    115  C   UNL A   1      38.525  30.926  34.060  1.00  0.00     0.037 A 
ATOM    116  H   UNL A   1      36.269  29.497  32.667  1.00  0.00     0.065 H 
BRANCH  97 117
ATOM    117  C   UNL A   1      43.192  28.130  34.469  1.00  0.00     0.064 A 
ATOM    118  C   UNL A   1      43.669  28.991  35.493  1.00  0.00     0.173 A 
ATOM    119  C   UNL A   1      43.808  26.875  34.384  1.00  0.00     0.173 A 
ATOM    120  F   UNL A   1      43.109  30.193  35.699  1.00  0.00    -0.203 F 
ATOM    121  C   UNL A   1      44.803  28.687  36.242  1.00  0.00     0.198 A 
ATOM    122  C   UNL A   1      44.910  26.552  35.182  1.00  0.00     0.198 A 
ATOM    123  F   UNL A   1      43.439  25.977  33.464  1.00  0.00    -0.203 F 
ATOM    124  F   UNL A   1      45.325  29.608  37.067  1.00  0.00    -0.200 F 
ATOM    125  C   UNL A   1      45.439  27.475  36.068  1.00  0.00     0.200 A 
ATOM    126  F   UNL A   1      45.515  25.368  35.020  1.00  0.00    -0.200 F 
ATOM    127  F   UNL A   1      46.578  27.212  36.721  1.00  0.00    -0.200 F 
ENDBRANCH  97 117
BRANCH 100 128
ATOM    128  C   UNL A   1      35.583  34.054  30.448  1.00  0.00     0.064 A 
ATOM    129  C   UNL A   1      34.679  34.722  31.278  1.00  0.00     0.173 A 
ATOM    130  C   UNL A   1      35.138  33.961  29.085  1.00  0.00     0.173 A 
ATOM    131  F   UNL A   1      34.879  34.783  32.598  1.00  0.00    -0.203 F 
ATOM    132  C   UNL A   1      33.513  35.346  30.768  1.00  0.00     0.198 A 
ATOM    133  C   UNL A   1      34.027  34.632  28.571  1.00  0.00     0.198 A 
ATOM    134  F   UNL A   1      35.767  33.203  28.179  1.00  0.00    -0.203 F 
ATOM    135  F   UNL A   1      32.674  35.974  31.605  1.00  0.00    -0.200 F 
ATOM    136  C   UNL A   1      33.218  35.345  29.413  1.00  0.00     0.200 A 
ATOM    137  F   UNL A   1      33.772  34.587  27.253  1.00  0.00    -0.200 F 
ATOM    138  F   UNL A   1      32.159  36.007  28.927  1.00  0.00    -0.200 F 
ENDBRANCH 100 128
BRANCH 115 139
ATOM    139  C   UNL A   1      39.156  32.070  34.832  1.00  0.00     0.064 A 
ATOM    140  C   UNL A   1      38.497  32.588  35.960  1.00  0.00     0.173 A 
ATOM    141  C   UNL A   1      40.311  32.760  34.425  1.00  0.00     0.173 A 
ATOM    142  F   UNL A   1      37.399  31.977  36.429  1.00  0.00    -0.203 F 
ATOM    143  C   UNL A   1      38.950  33.735  36.617  1.00  0.00     0.198 A 
ATOM    144  C   UNL A   1      40.769  33.906  35.082  1.00  0.00     0.198 A 
ATOM    145  F   UNL A   1      41.022  32.341  33.380  1.00  0.00    -0.203 F 
ATOM    146  F   UNL A   1      38.286  34.197  37.686  1.00  0.00    -0.200 F 
ATOM    147  C   UNL A   1      40.083  34.397  36.176  1.00  0.00     0.200 A 
ATOM    148  F   UNL A   1      41.880  34.527  34.655  1.00  0.00    -0.200 F 
ATOM    149  F   UNL A   1      40.523  35.492  36.813  1.00  0.00    -0.200 F 
ENDBRANCH 115 139
ENDBRANCH  80  83
ENDBRANCH  70  73
ENDBRANCH  66  69
ENDBRANCH  63  66
ENDBRANCH  60  63
ENDBRANCH  57  60
ENDBRANCH  54  57
ENDBRANCH   1  54
TORSDOF 21
ENDMDL
MODEL 9
REMARK VINA RESULT:     -11.1      4.419      8.790
REMARK SMILES CN(C)S(=O)(=O)c1ccc(-n2c(CCC(=O)NCCCCCCNC(=O)c3ccc(-c4c5nc(c(-c6c(F)c(F)c(F)c(F)c6F)c6ccc([nH]6)c(-c6c(F)c(F)c(F)c(F)c6F)c6nc(c(-c7c(F)c(F)c(F)c(F)c7F)c7ccc4[nH]7)C=C6)C=C5)cc3)ccc2-c2ccc(F)cc2)cc1
REMARK SMILES IDX 18 1 17 4 15 5 16 6 14 8 13 11 12 14 11 15 92 16 90 17 91 18
REMARK SMILES IDX 10 21 7 22 8 23 101 24 9 25 100 27 4 31 5 32 6 33 2 34 1 35
REMARK SMILES IDX 3 39 93 43 94 44 99 45 95 46 98 48 96 50 97 53 19 54 20 57
REMARK SMILES IDX 21 60 22 63 23 66 24 69 25 70 26 72 27 73 28 74 89 75 29 76
REMARK SMILES IDX 88 78 30 80 31 83 32 84 82 85 33 86 87 87 81 88 83 89 34 90
REMARK SMILES IDX 86 91 80 93 79 95 35 97 67 100 47 101 66 102 48 103 51 104
REMARK SMILES IDX 65 105 84 106 49 107 50 109 64 111 85 112 52 115 36 117
REMARK SMILES IDX 37 118 45 119 38 120 39 121 43 122 46 123 40 124 41 125
REMARK SMILES IDX 44 126 42 127 68 128 69 129 77 130 70 131 71 132 75 133
REMARK SMILES IDX 78 134 72 135 73 136 76 137 74 138 53 139 54 140 62 141
REMARK SMILES IDX 55 142 56 143 60 144 63 145 57 146 58 147 61 148 59 149
REMARK H PARENT 18 2 18 3 17 7 14 9 14 10 13 12 13 13 90 19 91 20 8 26 101 28
REMARK H PARENT 9 29 100 30 1 36 1 37 1 38 3 40 3 41 3 42 94 47 99 49 95 51
REMARK H PARENT 98 52 19 55 19 56 20 58 20 59 21 61 21 62 22 64 22 65 23 67
REMARK H PARENT 23 68 24 71 28 77 89 79 29 81 88 82 87 92 81 94 83 96 86 98
REMARK H PARENT 80 99 48 108 51 110 84 113 49 114 85 116
REMARK Flexibility Score: inf
ROOT
ATOM      1  C   UNL A   1      38.101  30.050  29.940  1.00  0.00     0.017 C 
ATOM      2  H   UNL A   1      38.986  30.569  30.241  1.00  0.00     0.049 H 
ATOM      3  H   UNL A   1      38.191  29.655  28.950  1.00  0.00     0.049 H 
ENDROOT
BRANCH   1   4
ATOM      4  N   UNL A   1      36.988  30.989  29.939  1.00  0.00    -0.356 N 
ATOM      5  C   UNL A   1      36.022  31.222  29.004  1.00  0.00     0.220 C 
ATOM      6  O   UNL A   1      35.142  32.044  29.276  1.00  0.00    -0.275 OA
ATOM      7  H   UNL A   1      36.922  31.549  30.745  1.00  0.00     0.163 HD
BRANCH   5   8
ATOM      8  C   UNL A   1      36.022  30.526  27.654  1.00  0.00     0.032 C 
ATOM      9  H   UNL A   1      35.780  31.254  26.909  1.00  0.00     0.037 H 
ATOM     10  H   UNL A   1      36.998  30.100  27.550  1.00  0.00     0.037 H 
BRANCH   8  11
ATOM     11  C   UNL A   1      35.040  29.349  27.500  1.00  0.00    -0.003 C 
ATOM     12  H   UNL A   1      35.524  28.582  26.932  1.00  0.00     0.034 H 
ATOM     13  H   UNL A   1      34.782  29.037  28.490  1.00  0.00     0.034 H 
BRANCH  11  14
ATOM     14  C   UNL A   1      33.742  29.699  26.809  1.00  0.00     0.024 A 
ATOM     15  N   UNL A   1      33.166  29.111  25.656  1.00  0.00    -0.314 N 
ATOM     16  C   UNL A   1      31.951  29.824  25.405  1.00  0.00     0.053 A 
ATOM     17  C   UNL A   1      32.932  30.749  27.212  1.00  0.00    -0.040 A 
ATOM     18  C   UNL A   1      31.834  30.830  26.347  1.00  0.00    -0.036 A 
ATOM     19  H   UNL A   1      33.108  31.368  28.018  1.00  0.00     0.064 H 
ATOM     20  H   UNL A   1      31.070  31.522  26.402  1.00  0.00     0.065 H 
BRANCH  15  21
ATOM     21  C   UNL A   1      33.574  27.894  24.962  1.00  0.00     0.046 A 
ATOM     22  C   UNL A   1      33.708  25.477  23.505  1.00  0.00     0.082 A 
ATOM     23  C   UNL A   1      33.737  26.696  22.841  1.00  0.00    -0.040 A 
ATOM     24  C   UNL A   1      33.692  25.450  24.889  1.00  0.00    -0.040 A 
ATOM     25  C   UNL A   1      33.767  27.881  23.576  1.00  0.00    -0.037 A 
ATOM     26  H   UNL A   1      33.735  26.724  21.809  1.00  0.00     0.064 H 
ATOM     27  C   UNL A   1      33.627  26.653  25.599  1.00  0.00    -0.037 A 
ATOM     28  H   UNL A   1      33.728  24.550  25.392  1.00  0.00     0.064 H 
ATOM     29  H   UNL A   1      33.936  28.773  23.084  1.00  0.00     0.065 H 
ATOM     30  H   UNL A   1      33.619  26.623  26.631  1.00  0.00     0.065 H 
BRANCH  22  31
ATOM     31  S   UNL A   1      33.679  23.968  22.584  1.00  0.00     0.242 S 
ATOM     32  O   UNL A   1      34.906  23.255  22.858  1.00  0.00    -0.207 OA
ATOM     33  O   UNL A   1      33.294  24.288  21.223  1.00  0.00    -0.207 OA
BRANCH  31  34
ATOM     34  N   UNL A   1      32.382  23.124  23.315  1.00  0.00    -0.204 NA
BRANCH  34  35
ATOM     35  C   UNL A   1      31.099  23.849  23.232  1.00  0.00     0.002 C 
ATOM     36  H   UNL A   1      30.566  23.531  22.360  1.00  0.00     0.041 H 
ATOM     37  H   UNL A   1      31.286  24.900  23.173  1.00  0.00     0.041 H 
ATOM     38  H   UNL A   1      30.514  23.638  24.104  1.00  0.00     0.041 H 
ENDBRANCH  34  35
BRANCH  34  39
ATOM     39  C   UNL A   1      32.245  21.701  22.931  1.00  0.00     0.002 C 
ATOM     40  H   UNL A   1      31.255  21.364  23.158  1.00  0.00     0.041 H 
ATOM     41  H   UNL A   1      32.955  21.115  23.476  1.00  0.00     0.041 H 
ATOM     42  H   UNL A   1      32.427  21.596  21.882  1.00  0.00     0.041 H 
ENDBRANCH  34  39
ENDBRANCH  31  34
ENDBRANCH  22  31
ENDBRANCH  15  21
BRANCH  16  43
ATOM     43  C   UNL A   1      30.879  29.403  24.485  1.00  0.00    -0.001 A 
ATOM     44  C   UNL A   1      30.521  28.067  24.291  1.00  0.00    -0.050 A 
ATOM     45  C   UNL A   1      30.109  30.391  23.859  1.00  0.00    -0.050 A 
ATOM     46  C   UNL A   1      29.355  27.759  23.571  1.00  0.00    -0.026 A 
ATOM     47  H   UNL A   1      31.111  27.311  24.675  1.00  0.00     0.063 H 
ATOM     48  C   UNL A   1      28.948  30.099  23.150  1.00  0.00    -0.026 A 
ATOM     49  H   UNL A   1      30.415  31.375  23.926  1.00  0.00     0.063 H 
ATOM     50  C   UNL A   1      28.570  28.777  23.026  1.00  0.00     0.123 A 
ATOM     51  H   UNL A   1      29.076  26.773  23.446  1.00  0.00     0.065 H 
ATOM     52  H   UNL A   1      28.384  30.853  22.726  1.00  0.00     0.065 H 
ATOM     53  F   UNL A   1      27.485  28.471  22.305  1.00  0.00    -0.207 F 
ENDBRANCH  16  43
ENDBRANCH  11  14
ENDBRANCH   8  11
ENDBRANCH   5   8
ENDBRANCH   1   4
BRANCH   1  54
ATOM     54  C   UNL A   1      37.879  28.872  30.888  1.00  0.00    -0.036 C 
ATOM     55  H   UNL A   1      36.874  28.530  30.750  1.00  0.00     0.028 H 
ATOM     56  H   UNL A   1      38.093  29.255  31.864  1.00  0.00     0.028 H 
BRANCH  54  57
ATOM     57  C   UNL A   1      38.807  27.661  30.722  1.00  0.00    -0.052 C 
ATOM     58  H   UNL A   1      38.187  26.790  30.746  1.00  0.00     0.027 H 
ATOM     59  H   UNL A   1      39.515  27.782  31.516  1.00  0.00     0.027 H 
BRANCH  57  60
ATOM     60  C   UNL A   1      39.705  27.539  29.457  1.00  0.00    -0.052 C 
ATOM     61  H   UNL A   1      40.626  27.111  29.791  1.00  0.00     0.027 H 
ATOM     62  H   UNL A   1      39.683  28.541  29.084  1.00  0.00     0.027 H 
BRANCH  60  63
ATOM     63  C   UNL A   1      39.291  26.733  28.201  1.00  0.00    -0.036 C 
ATOM     64  H   UNL A   1      39.437  27.379  27.361  1.00  0.00     0.028 H 
ATOM     65  H   UNL A   1      38.293  26.427  28.434  1.00  0.00     0.028 H 
BRANCH  63  66
ATOM     66  C   UNL A   1      39.992  25.387  27.853  1.00  0.00     0.018 C 
ATOM     67  H   UNL A   1      39.237  24.645  27.701  1.00  0.00     0.049 H 
ATOM     68  H   UNL A   1      40.638  25.153  28.674  1.00  0.00     0.049 H 
BRANCH  66  69
ATOM     69  N   UNL A   1      40.827  25.444  26.658  1.00  0.00    -0.352 N 
ATOM     70  C   UNL A   1      41.616  26.428  26.091  1.00  0.00     0.251 C 
ATOM     71  H   UNL A   1      40.830  24.604  26.146  1.00  0.00     0.163 HD
ATOM     72  O   UNL A   1      41.812  26.324  24.876  1.00  0.00    -0.269 OA
BRANCH  70  73
ATOM     73  C   UNL A   1      42.294  27.567  26.795  1.00  0.00     0.039 A 
ATOM     74  C   UNL A   1      42.095  28.871  26.293  1.00  0.00    -0.049 A 
ATOM     75  C   UNL A   1      43.229  27.419  27.812  1.00  0.00    -0.049 A 
ATOM     76  C   UNL A   1      42.798  29.981  26.801  1.00  0.00    -0.053 A 
ATOM     77  H   UNL A   1      41.414  29.016  25.532  1.00  0.00     0.063 H 
ATOM     78  C   UNL A   1      44.002  28.512  28.268  1.00  0.00    -0.053 A 
ATOM     79  H   UNL A   1      43.363  26.492  28.243  1.00  0.00     0.063 H 
ATOM     80  C   UNL A   1      43.759  29.812  27.803  1.00  0.00    -0.014 A 
ATOM     81  H   UNL A   1      42.603  30.925  26.431  1.00  0.00     0.063 H 
ATOM     82  H   UNL A   1      44.756  28.349  28.955  1.00  0.00     0.063 H 
BRANCH  80  83
ATOM     83  C   UNL A   1      44.161  30.997  28.641  1.00  0.00     0.031 A 
ATOM     84  C   UNL A   1      45.586  31.486  28.212  1.00  0.00     0.074 A 
ATOM     85  C   UNL A   1      43.324  31.480  29.625  1.00  0.00     0.049 A 
ATOM     86  N   UNL A   1      46.439  32.250  28.827  1.00  0.00    -0.248 NA
ATOM     87  C   UNL A   1      46.160  31.033  26.908  1.00  0.00    -0.034 C 
ATOM     88  C   UNL A   1      41.955  30.987  29.897  1.00  0.00    -0.036 A 
ATOM     89  N   UNL A   1      43.434  32.477  30.596  1.00  0.00    -0.354 N 
ATOM     90  C   UNL A   1      47.495  32.534  27.923  1.00  0.00     0.074 A 
ATOM     91  C   UNL A   1      47.316  31.680  26.799  1.00  0.00    -0.034 C 
ATOM     92  H   UNL A   1      45.748  30.364  26.238  1.00  0.00     0.065 H 
ATOM     93  C   UNL A   1      41.415  31.597  30.982  1.00  0.00    -0.036 A 
ATOM     94  H   UNL A   1      41.473  30.270  29.332  1.00  0.00     0.065 H 
ATOM     95  C   UNL A   1      42.347  32.568  31.528  1.00  0.00     0.049 A 
ATOM     96  H   UNL A   1      44.211  33.081  30.640  1.00  0.00     0.167 HD
ATOM     97  C   UNL A   1      48.374  33.564  28.090  1.00  0.00     0.037 A 
ATOM     98  H   UNL A   1      47.983  31.578  26.018  1.00  0.00     0.065 H 
ATOM     99  H   UNL A   1      40.477  31.398  31.365  1.00  0.00     0.065 H 
ATOM    100  C   UNL A   1      42.219  33.343  32.664  1.00  0.00     0.037 A 
ATOM    101  C   UNL A   1      48.185  34.146  29.367  1.00  0.00     0.049 A 
ATOM    102  C   UNL A   1      43.336  34.285  32.595  1.00  0.00     0.074 A 
ATOM    103  C   UNL A   1      48.421  33.673  30.630  1.00  0.00    -0.036 A 
ATOM    104  N   UNL A   1      47.344  35.226  29.428  1.00  0.00    -0.354 N 
ATOM    105  N   UNL A   1      43.361  35.322  31.816  1.00  0.00    -0.248 NA
ATOM    106  C   UNL A   1      44.510  34.065  33.449  1.00  0.00    -0.034 C 
ATOM    107  C   UNL A   1      47.322  34.165  31.356  1.00  0.00    -0.036 A 
ATOM    108  H   UNL A   1      49.210  33.100  30.966  1.00  0.00     0.065 H 
ATOM    109  C   UNL A   1      46.625  35.102  30.583  1.00  0.00     0.049 A 
ATOM    110  H   UNL A   1      47.271  35.950  28.766  1.00  0.00     0.167 HD
ATOM    111  C   UNL A   1      44.692  35.645  31.836  1.00  0.00     0.074 A 
ATOM    112  C   UNL A   1      45.237  35.110  33.064  1.00  0.00    -0.034 C 
ATOM    113  H   UNL A   1      44.710  33.323  34.138  1.00  0.00     0.065 H 
ATOM    114  H   UNL A   1      47.067  33.880  32.315  1.00  0.00     0.065 H 
ATOM    115  C   UNL A   1      45.342  35.748  30.651  1.00  0.00     0.037 A 
ATOM    116  H   UNL A   1      46.060  35.482  33.564  1.00  0.00     0.065 H 
BRANCH  97 117
ATOM    117  C   UNL A   1      49.245  34.318  27.118  1.00  0.00     0.064 A 
ATOM    118  C   UNL A   1      50.589  34.573  27.499  1.00  0.00     0.173 A 
ATOM    119  C   UNL A   1      48.731  35.127  26.096  1.00  0.00     0.173 A 
ATOM    120  F   UNL A   1      51.197  33.817  28.426  1.00  0.00    -0.203 F 
ATOM    121  C   UNL A   1      51.292  35.678  27.026  1.00  0.00     0.198 A 
ATOM    122  C   UNL A   1      49.466  36.199  25.582  1.00  0.00     0.198 A 
ATOM    123  F   UNL A   1      47.479  34.976  25.649  1.00  0.00    -0.203 F 
ATOM    124  F   UNL A   1      52.489  35.982  27.551  1.00  0.00    -0.200 F 
ATOM    125  C   UNL A   1      50.719  36.506  26.084  1.00  0.00     0.200 A 
ATOM    126  F   UNL A   1      48.911  36.993  24.655  1.00  0.00    -0.200 F 
ATOM    127  F   UNL A   1      51.354  37.618  25.689  1.00  0.00    -0.200 F 
ENDBRANCH  97 117
BRANCH 100 128
ATOM    128  C   UNL A   1      41.343  33.536  33.907  1.00  0.00     0.064 A 
ATOM    129  C   UNL A   1      40.881  34.752  34.419  1.00  0.00     0.173 A 
ATOM    130  C   UNL A   1      40.830  32.395  34.613  1.00  0.00     0.173 A 
ATOM    131  F   UNL A   1      41.360  35.912  33.961  1.00  0.00    -0.203 F 
ATOM    132  C   UNL A   1      39.905  34.812  35.446  1.00  0.00     0.198 A 
ATOM    133  C   UNL A   1      39.821  32.450  35.576  1.00  0.00     0.198 A 
ATOM    134  F   UNL A   1      41.293  31.157  34.399  1.00  0.00    -0.203 F 
ATOM    135  F   UNL A   1      39.495  36.003  35.905  1.00  0.00    -0.200 F 
ATOM    136  C   UNL A   1      39.341  33.665  35.983  1.00  0.00     0.200 A 
ATOM    137  F   UNL A   1      39.318  31.312  36.081  1.00  0.00    -0.200 F 
ATOM    138  F   UNL A   1      38.360  33.730  36.894  1.00  0.00    -0.200 F 
ENDBRANCH 100 128
BRANCH 115 139
ATOM    139  C   UNL A   1      44.447  36.135  29.488  1.00  0.00     0.064 A 
ATOM    140  C   UNL A   1      43.790  37.378  29.506  1.00  0.00     0.173 A 
ATOM    141  C   UNL A   1      44.107  35.277  28.428  1.00  0.00     0.173 A 
ATOM    142  F   UNL A   1      44.072  38.266  30.471  1.00  0.00    -0.203 F 
ATOM    143  C   UNL A   1      42.839  37.724  28.543  1.00  0.00     0.198 A 
ATOM    144  C   UNL A   1      43.158  35.622  27.461  1.00  0.00     0.198 A 
ATOM    145  F   UNL A   1      44.686  34.084  28.305  1.00  0.00    -0.203 F 
ATOM    146  F   UNL A   1      42.233  38.918  28.603  1.00  0.00    -0.200 F 
ATOM    147  C   UNL A   1      42.519  36.844  27.523  1.00  0.00     0.200 A 
ATOM    148  F   UNL A   1      42.871  34.766  26.466  1.00  0.00    -0.200 F 
ATOM    149  F   UNL A   1      41.613  37.181  26.593  1.00  0.00    -0.200 F 
ENDBRANCH 115 139
ENDBRANCH  80  83
ENDBRANCH  70  73
ENDBRANCH  66  69
ENDBRANCH  63  66
ENDBRANCH  60  63
ENDBRANCH  57  60
ENDBRANCH  54  57
ENDBRANCH   1  54
TORSDOF 21
ENDMDL
MODEL 10
REMARK VINA RESULT:     -11.0     10.119     15.694
REMARK SMILES CN(C)S(=O)(=O)c1ccc(-n2c(CCC(=O)NCCCCCCNC(=O)c3ccc(-c4c5nc(c(-c6c(F)c(F)c(F)c(F)c6F)c6ccc([nH]6)c(-c6c(F)c(F)c(F)c(F)c6F)c6nc(c(-c7c(F)c(F)c(F)c(F)c7F)c7ccc4[nH]7)C=C6)C=C5)cc3)ccc2-c2ccc(F)cc2)cc1
REMARK SMILES IDX 18 1 17 4 15 5 16 6 14 8 13 11 12 14 11 15 92 16 90 17 91 18
REMARK SMILES IDX 10 21 7 22 8 23 101 24 9 25 100 27 4 31 5 32 6 33 2 34 1 35
REMARK SMILES IDX 3 39 93 43 94 44 99 45 95 46 98 48 96 50 97 53 19 54 20 57
REMARK SMILES IDX 21 60 22 63 23 66 24 69 25 70 26 72 27 73 28 74 89 75 29 76
REMARK SMILES IDX 88 78 30 80 31 83 32 84 82 85 33 86 87 87 81 88 83 89 34 90
REMARK SMILES IDX 86 91 80 93 79 95 35 97 67 100 47 101 66 102 48 103 51 104
REMARK SMILES IDX 65 105 84 106 49 107 50 109 64 111 85 112 52 115 36 117
REMARK SMILES IDX 37 118 45 119 38 120 39 121 43 122 46 123 40 124 41 125
REMARK SMILES IDX 44 126 42 127 68 128 69 129 77 130 70 131 71 132 75 133
REMARK SMILES IDX 78 134 72 135 73 136 76 137 74 138 53 139 54 140 62 141
REMARK SMILES IDX 55 142 56 143 60 144 63 145 57 146 58 147 61 148 59 149
REMARK H PARENT 18 2 18 3 17 7 14 9 14 10 13 12 13 13 90 19 91 20 8 26 101 28
REMARK H PARENT 9 29 100 30 1 36 1 37 1 38 3 40 3 41 3 42 94 47 99 49 95 51
REMARK H PARENT 98 52 19 55 19 56 20 58 20 59 21 61 21 62 22 64 22 65 23 67
REMARK H PARENT 23 68 24 71 28 77 89 79 29 81 88 82 87 92 81 94 83 96 86 98
REMARK H PARENT 80 99 48 108 51 110 84 113 49 114 85 116
REMARK Flexibility Score: inf
ROOT
ATOM      1  C   UNL A   1      42.673  41.117  25.087  1.00  0.00     0.017 C 
ATOM      2  H   UNL A   1      43.597  40.790  25.518  1.00  0.00     0.049 H 
ATOM      3  H   UNL A   1      42.406  40.530  24.233  1.00  0.00     0.049 H 
ENDROOT
BRANCH   1   4
ATOM      4  N   UNL A   1      42.829  42.495  24.642  1.00  0.00    -0.356 N 
ATOM      5  C   UNL A   1      42.330  43.138  23.547  1.00  0.00     0.220 C 
ATOM      6  O   UNL A   1      42.564  44.344  23.430  1.00  0.00    -0.275 OA
ATOM      7  H   UNL A   1      43.387  43.055  25.228  1.00  0.00     0.163 HD
BRANCH   5   8
ATOM      8  C   UNL A   1      41.532  42.409  22.479  1.00  0.00     0.032 C 
ATOM      9  H   UNL A   1      41.191  41.486  22.898  1.00  0.00     0.037 H 
ATOM     10  H   UNL A   1      40.748  43.081  22.198  1.00  0.00     0.037 H 
BRANCH   8  11
ATOM     11  C   UNL A   1      42.285  42.085  21.175  1.00  0.00    -0.003 C 
ATOM     12  H   UNL A   1      43.307  41.882  21.421  1.00  0.00     0.034 H 
ATOM     13  H   UNL A   1      41.785  41.248  20.736  1.00  0.00     0.034 H 
BRANCH  11  14
ATOM     14  C   UNL A   1      42.260  43.190  20.143  1.00  0.00     0.024 A 
ATOM     15  N   UNL A   1      43.263  44.144  19.842  1.00  0.00    -0.314 N 
ATOM     16  C   UNL A   1      42.730  44.975  18.807  1.00  0.00     0.053 A 
ATOM     17  C   UNL A   1      41.154  43.459  19.352  1.00  0.00    -0.040 A 
ATOM     18  C   UNL A   1      41.440  44.559  18.535  1.00  0.00    -0.036 A 
ATOM     19  H   UNL A   1      40.266  42.934  19.364  1.00  0.00     0.064 H 
ATOM     20  H   UNL A   1      40.798  44.986  17.849  1.00  0.00     0.065 H 
BRANCH  15  21
ATOM     21  C   UNL A   1      44.645  44.180  20.308  1.00  0.00     0.046 A 
ATOM     22  C   UNL A   1      47.418  44.600  20.651  1.00  0.00     0.082 A 
ATOM     23  C   UNL A   1      46.507  45.540  21.112  1.00  0.00    -0.040 A 
ATOM     24  C   UNL A   1      46.962  43.418  20.092  1.00  0.00    -0.040 A 
ATOM     25  C   UNL A   1      45.140  45.277  21.023  1.00  0.00    -0.037 A 
ATOM     26  H   UNL A   1      46.839  46.429  21.517  1.00  0.00     0.064 H 
ATOM     27  C   UNL A   1      45.587  43.222  19.929  1.00  0.00    -0.037 A 
ATOM     28  H   UNL A   1      47.630  42.690  19.799  1.00  0.00     0.064 H 
ATOM     29  H   UNL A   1      44.475  45.908  21.498  1.00  0.00     0.065 H 
ATOM     30  H   UNL A   1      45.256  42.336  19.515  1.00  0.00     0.065 H 
BRANCH  22  31
ATOM     31  S   UNL A   1      49.154  44.918  20.766  1.00  0.00     0.242 S 
ATOM     32  O   UNL A   1      49.855  43.756  20.270  1.00  0.00    -0.207 OA
ATOM     33  O   UNL A   1      49.421  45.436  22.095  1.00  0.00    -0.207 OA
BRANCH  31  34
ATOM     34  N   UNL A   1      49.361  46.199  19.651  1.00  0.00    -0.204 NA
BRANCH  34  35
ATOM     35  C   UNL A   1      50.718  46.777  19.676  1.00  0.00     0.002 C 
ATOM     36  H   UNL A   1      51.400  46.109  19.193  1.00  0.00     0.041 H 
ATOM     37  H   UNL A   1      51.023  46.927  20.690  1.00  0.00     0.041 H 
ATOM     38  H   UNL A   1      50.715  47.716  19.162  1.00  0.00     0.041 H 
ENDBRANCH  34  35
BRANCH  34  39
ATOM     39  C   UNL A   1      48.896  45.929  18.271  1.00  0.00     0.002 C 
ATOM     40  H   UNL A   1      49.664  46.197  17.576  1.00  0.00     0.041 H 
ATOM     41  H   UNL A   1      48.017  46.507  18.072  1.00  0.00     0.041 H 
ATOM     42  H   UNL A   1      48.669  44.888  18.169  1.00  0.00     0.041 H 
ENDBRANCH  34  39
ENDBRANCH  31  34
ENDBRANCH  22  31
ENDBRANCH  15  21
BRANCH  16  43
ATOM     43  C   UNL A   1      43.499  45.925  17.983  1.00  0.00    -0.001 A 
ATOM     44  C   UNL A   1      43.172  47.278  17.872  1.00  0.00    -0.050 A 
ATOM     45  C   UNL A   1      44.675  45.478  17.368  1.00  0.00    -0.050 A 
ATOM     46  C   UNL A   1      44.069  48.160  17.248  1.00  0.00    -0.026 A 
ATOM     47  H   UNL A   1      42.275  47.627  18.247  1.00  0.00     0.063 H 
ATOM     48  C   UNL A   1      45.576  46.342  16.754  1.00  0.00    -0.026 A 
ATOM     49  H   UNL A   1      44.882  44.466  17.370  1.00  0.00     0.063 H 
ATOM     50  C   UNL A   1      45.270  47.688  16.715  1.00  0.00     0.123 A 
ATOM     51  H   UNL A   1      43.840  49.165  17.186  1.00  0.00     0.065 H 
ATOM     52  H   UNL A   1      46.451  45.986  16.338  1.00  0.00     0.065 H 
ATOM     53  F   UNL A   1      46.098  48.530  16.084  1.00  0.00    -0.207 F 
ENDBRANCH  16  43
ENDBRANCH  11  14
ENDBRANCH   8  11
ENDBRANCH   5   8
ENDBRANCH   1   4
BRANCH   1  54
ATOM     54  C   UNL A   1      41.564  40.952  26.125  1.00  0.00    -0.036 C 
ATOM     55  H   UNL A   1      40.754  40.435  25.654  1.00  0.00     0.028 H 
ATOM     56  H   UNL A   1      41.335  41.945  26.450  1.00  0.00     0.028 H 
BRANCH  54  57
ATOM     57  C   UNL A   1      41.920  40.185  27.406  1.00  0.00    -0.052 C 
ATOM     58  H   UNL A   1      40.995  39.895  27.860  1.00  0.00     0.027 H 
ATOM     59  H   UNL A   1      42.534  40.876  27.945  1.00  0.00     0.027 H 
BRANCH  57  60
ATOM     60  C   UNL A   1      42.802  38.907  27.326  1.00  0.00    -0.052 C 
ATOM     61  H   UNL A   1      42.686  38.532  26.331  1.00  0.00     0.027 H 
ATOM     62  H   UNL A   1      42.436  38.344  28.159  1.00  0.00     0.027 H 
BRANCH  60  63
ATOM     63  C   UNL A   1      44.326  38.912  27.603  1.00  0.00    -0.036 C 
ATOM     64  H   UNL A   1      44.514  38.117  28.294  1.00  0.00     0.028 H 
ATOM     65  H   UNL A   1      44.504  39.915  27.931  1.00  0.00     0.028 H 
BRANCH  63  66
ATOM     66  C   UNL A   1      45.347  38.742  26.441  1.00  0.00     0.018 C 
ATOM     67  H   UNL A   1      45.631  39.715  26.098  1.00  0.00     0.049 H 
ATOM     68  H   UNL A   1      44.859  38.166  25.682  1.00  0.00     0.049 H 
BRANCH  66  69
ATOM     69  N   UNL A   1      46.556  38.016  26.814  1.00  0.00    -0.352 N 
ATOM     70  C   UNL A   1      46.796  36.893  27.583  1.00  0.00     0.251 C 
ATOM     71  H   UNL A   1      47.377  38.410  26.439  1.00  0.00     0.163 HD
ATOM     72  O   UNL A   1      47.926  36.810  28.075  1.00  0.00    -0.269 OA
BRANCH  70  73
ATOM     73  C   UNL A   1      45.857  35.750  27.839  1.00  0.00     0.039 A 
ATOM     74  C   UNL A   1      46.084  34.945  28.976  1.00  0.00    -0.049 A 
ATOM     75  C   UNL A   1      44.871  35.328  26.956  1.00  0.00    -0.049 A 
ATOM     76  C   UNL A   1      45.342  33.773  29.221  1.00  0.00    -0.053 A 
ATOM     77  H   UNL A   1      46.814  35.225  29.649  1.00  0.00     0.063 H 
ATOM     78  C   UNL A   1      44.181  34.108  27.147  1.00  0.00    -0.053 A 
ATOM     79  H   UNL A   1      44.637  35.917  26.142  1.00  0.00     0.063 H 
ATOM     80  C   UNL A   1      44.374  33.344  28.307  1.00  0.00    -0.014 A 
ATOM     81  H   UNL A   1      45.514  33.227  30.080  1.00  0.00     0.063 H 
ATOM     82  H   UNL A   1      43.526  33.776  26.421  1.00  0.00     0.063 H 
BRANCH  80  83
ATOM     83  C   UNL A   1      43.301  32.393  28.767  1.00  0.00     0.031 A 
ATOM     84  C   UNL A   1      43.457  31.024  28.022  1.00  0.00     0.074 A 
ATOM     85  C   UNL A   1      42.362  32.787  29.697  1.00  0.00     0.049 A 
ATOM     86  N   UNL A   1      42.617  30.044  27.870  1.00  0.00    -0.248 NA
ATOM     87  C   UNL A   1      44.737  30.710  27.316  1.00  0.00    -0.034 C 
ATOM     88  C   UNL A   1      42.354  34.090  30.400  1.00  0.00    -0.036 A 
ATOM     89  N   UNL A   1      41.228  32.191  30.252  1.00  0.00    -0.354 N 
ATOM     90  C   UNL A   1      43.318  28.961  27.278  1.00  0.00     0.074 A 
ATOM     91  C   UNL A   1      44.586  29.465  26.872  1.00  0.00    -0.034 C 
ATOM     92  H   UNL A   1      45.558  31.323  27.199  1.00  0.00     0.065 H 
ATOM     93  C   UNL A   1      41.257  34.222  31.188  1.00  0.00    -0.036 A 
ATOM     94  H   UNL A   1      43.089  34.807  30.303  1.00  0.00     0.065 H 
ATOM     95  C   UNL A   1      40.439  33.023  31.113  1.00  0.00     0.049 A 
ATOM     96  H   UNL A   1      40.984  31.256  30.062  1.00  0.00     0.167 HD
ATOM     97  C   UNL A   1      42.868  27.674  27.288  1.00  0.00     0.037 A 
ATOM     98  H   UNL A   1      45.282  28.944  26.317  1.00  0.00     0.065 H 
ATOM     99  H   UNL A   1      41.035  35.053  31.757  1.00  0.00     0.065 H 
ATOM    100  C   UNL A   1      39.212  32.778  31.698  1.00  0.00     0.037 A 
ATOM    101  C   UNL A   1      41.543  27.640  27.790  1.00  0.00     0.049 A 
ATOM    102  C   UNL A   1      38.976  31.352  31.476  1.00  0.00     0.074 A 
ATOM    103  C   UNL A   1      40.361  28.103  27.278  1.00  0.00    -0.036 A 
ATOM    104  N   UNL A   1      41.404  27.403  29.132  1.00  0.00    -0.354 N 
ATOM    105  N   UNL A   1      39.556  30.409  32.153  1.00  0.00    -0.248 NA
ATOM    106  C   UNL A   1      38.032  30.938  30.431  1.00  0.00    -0.034 C 
ATOM    107  C   UNL A   1      39.705  28.605  28.416  1.00  0.00    -0.036 A 
ATOM    108  H   UNL A   1      40.032  28.086  26.300  1.00  0.00     0.065 H 
ATOM    109  C   UNL A   1      40.387  28.203  29.571  1.00  0.00     0.049 A 
ATOM    110  H   UNL A   1      41.935  26.778  29.675  1.00  0.00     0.167 HD
ATOM    111  C   UNL A   1      39.314  29.318  31.362  1.00  0.00     0.074 A 
ATOM    112  C   UNL A   1      38.137  29.619  30.577  1.00  0.00    -0.034 C 
ATOM    113  H   UNL A   1      37.461  31.499  29.780  1.00  0.00     0.065 H 
ATOM    114  H   UNL A   1      38.850  29.182  28.403  1.00  0.00     0.065 H 
ATOM    115  C   UNL A   1      40.372  28.571  30.962  1.00  0.00     0.037 A 
ATOM    116  H   UNL A   1      37.481  28.922  30.192  1.00  0.00     0.065 H 
BRANCH  97 117
ATOM    117  C   UNL A   1      43.578  26.353  27.146  1.00  0.00     0.064 A 
ATOM    118  C   UNL A   1      44.577  26.036  28.103  1.00  0.00     0.173 A 
ATOM    119  C   UNL A   1      43.627  25.634  25.944  1.00  0.00     0.173 A 
ATOM    120  F   UNL A   1      44.587  26.623  29.310  1.00  0.00    -0.203 F 
ATOM    121  C   UNL A   1      45.653  25.205  27.798  1.00  0.00     0.198 A 
ATOM    122  C   UNL A   1      44.678  24.754  25.667  1.00  0.00     0.198 A 
ATOM    123  F   UNL A   1      42.734  25.841  24.970  1.00  0.00    -0.203 F 
ATOM    124  F   UNL A   1      46.668  25.081  28.667  1.00  0.00    -0.200 F 
ATOM    125  C   UNL A   1      45.715  24.583  26.569  1.00  0.00     0.200 A 
ATOM    126  F   UNL A   1      44.727  24.140  24.477  1.00  0.00    -0.200 F 
ATOM    127  F   UNL A   1      46.787  23.852  26.236  1.00  0.00    -0.200 F 
ENDBRANCH  97 117
BRANCH 100 128
ATOM    128  C   UNL A   1      38.074  33.466  32.462  1.00  0.00     0.064 A 
ATOM    129  C   UNL A   1      36.921  34.028  31.910  1.00  0.00     0.173 A 
ATOM    130  C   UNL A   1      38.081  33.488  33.899  1.00  0.00     0.173 A 
ATOM    131  F   UNL A   1      36.812  34.203  30.589  1.00  0.00    -0.203 F 
ATOM    132  C   UNL A   1      35.832  34.449  32.713  1.00  0.00     0.198 A 
ATOM    133  C   UNL A   1      36.984  33.839  34.688  1.00  0.00     0.198 A 
ATOM    134  F   UNL A   1      39.168  33.169  34.612  1.00  0.00    -0.203 F 
ATOM    135  F   UNL A   1      34.747  34.985  32.135  1.00  0.00    -0.200 F 
ATOM    136  C   UNL A   1      35.845  34.305  34.092  1.00  0.00     0.200 A 
ATOM    137  F   UNL A   1      37.050  33.698  36.022  1.00  0.00    -0.200 F 
ATOM    138  F   UNL A   1      34.779  34.628  34.838  1.00  0.00    -0.200 F 
ENDBRANCH 100 128
BRANCH 115 139
ATOM    139  C   UNL A   1      41.554  28.617  31.912  1.00  0.00     0.064 A 
ATOM    140  C   UNL A   1      41.411  28.116  33.217  1.00  0.00     0.173 A 
ATOM    141  C   UNL A   1      42.774  29.256  31.630  1.00  0.00     0.173 A 
ATOM    142  F   UNL A   1      40.286  27.472  33.564  1.00  0.00    -0.203 F 
ATOM    143  C   UNL A   1      42.411  28.269  34.180  1.00  0.00     0.198 A 
ATOM    144  C   UNL A   1      43.778  29.408  32.592  1.00  0.00     0.198 A 
ATOM    145  F   UNL A   1      43.021  29.749  30.418  1.00  0.00    -0.203 F 
ATOM    146  F   UNL A   1      42.229  27.780  35.415  1.00  0.00    -0.200 F 
ATOM    147  C   UNL A   1      43.593  28.920  33.870  1.00  0.00     0.200 A 
ATOM    148  F   UNL A   1      44.928  30.025  32.271  1.00  0.00    -0.200 F 
ATOM    149  F   UNL A   1      44.557  29.058  34.792  1.00  0.00    -0.200 F 
ENDBRANCH 115 139
ENDBRANCH  80  83
ENDBRANCH  70  73
ENDBRANCH  66  69
ENDBRANCH  63  66
ENDBRANCH  60  63
ENDBRANCH  57  60
ENDBRANCH  54  57
ENDBRANCH   1  54
TORSDOF 21
ENDMDL
