MODEL 1
REMARK VINA RESULT:     -13.2      0.000      0.000
REMARK SMILES O=C(NCCCCCCNC(=O)c1cc(/C=C/c2cc(O)cc(O)c2)ccc1O)c1ccc(-c2c3nc(c(-c4c(F)c(F)c(F)c(F)c4F)c4ccc([nH]4)c(-c4c(F)c(F)c(F)c(F)c4F)c4nc(c(-c5c(F)c(F)c(F)c(F)c5F)c5ccc2[nH]5)C=C4)C=C3)cc1
REMARK SMILES IDX 7 1 6 4 5 7 4 10 3 13 1 14 2 15 30 17 31 18 92 19 32 20
REMARK SMILES IDX 91 22 33 24 34 27 35 28 85 29 36 30 90 31 84 32 86 33 37 34
REMARK SMILES IDX 89 35 83 37 82 39 38 41 70 44 50 45 69 46 51 47 54 48 68 49
REMARK SMILES IDX 87 50 52 51 53 53 67 55 88 56 55 59 39 61 40 62 48 63 41 64
REMARK SMILES IDX 42 65 46 66 49 67 43 68 44 69 47 70 45 71 71 72 72 73 80 74
REMARK SMILES IDX 73 75 74 76 78 77 81 78 75 79 76 80 79 81 77 82 56 83 57 84
REMARK SMILES IDX 65 85 58 86 59 87 63 88 66 89 60 90 61 91 64 92 62 93 8 94
REMARK SMILES IDX 9 97 10 100 11 101 12 103 13 104 14 105 28 106 15 107 27 109
REMARK SMILES IDX 26 110 29 113 16 115 17 116 18 119 19 120 25 121 20 122
REMARK SMILES IDX 23 124 22 126 21 128 24 130
REMARK H PARENT 7 2 7 3 6 5 6 6 5 8 5 9 4 11 4 12 3 16 31 21 92 23 32 25 91 26
REMARK H PARENT 90 36 84 38 86 40 89 42 83 43 51 52 54 54 87 57 52 58 88 60
REMARK H PARENT 8 95 8 96 9 98 9 99 10 102 14 108 27 111 26 112 29 114 16 117
REMARK H PARENT 17 118 19 123 25 125 22 127 21 129 24 131
REMARK Flexibility Score: inf
ROOT
ATOM      1  C   UNL A   1      32.449  29.799  27.029  1.00  0.00    -0.052 C 
ATOM      2  H   UNL A   1      32.645  30.373  27.910  1.00  0.00     0.027 H 
ATOM      3  H   UNL A   1      33.334  29.502  26.504  1.00  0.00     0.027 H 
ENDROOT
BRANCH   1   4
ATOM      4  C   UNL A   1      31.657  30.679  26.057  1.00  0.00    -0.052 C 
ATOM      5  H   UNL A   1      32.186  30.706  25.127  1.00  0.00     0.027 H 
ATOM      6  H   UNL A   1      30.685  30.239  25.981  1.00  0.00     0.027 H 
BRANCH   4   7
ATOM      7  C   UNL A   1      31.439  32.119  26.519  1.00  0.00    -0.036 C 
ATOM      8  H   UNL A   1      31.253  32.723  25.655  1.00  0.00     0.028 H 
ATOM      9  H   UNL A   1      30.613  32.099  27.199  1.00  0.00     0.028 H 
BRANCH   7  10
ATOM     10  C   UNL A   1      32.611  32.722  27.277  1.00  0.00     0.018 C 
ATOM     11  H   UNL A   1      32.750  32.176  28.187  1.00  0.00     0.049 H 
ATOM     12  H   UNL A   1      33.474  32.660  26.649  1.00  0.00     0.049 H 
BRANCH  10  13
ATOM     13  N   UNL A   1      32.396  34.122  27.600  1.00  0.00    -0.352 N 
ATOM     14  O   UNL A   1      32.610  36.006  28.832  1.00  0.00    -0.269 OA
ATOM     15  C   UNL A   1      33.023  34.884  28.553  1.00  0.00     0.251 C 
ATOM     16  H   UNL A   1      31.711  34.585  27.065  1.00  0.00     0.163 HD
BRANCH  15  17
ATOM     17  C   UNL A   1      34.202  34.335  29.252  1.00  0.00     0.039 A 
ATOM     18  C   UNL A   1      34.040  33.587  30.423  1.00  0.00    -0.049 A 
ATOM     19  C   UNL A   1      35.476  34.555  28.724  1.00  0.00    -0.049 A 
ATOM     20  C   UNL A   1      35.156  33.148  31.121  1.00  0.00    -0.053 A 
ATOM     21  H   UNL A   1      33.093  33.364  30.766  1.00  0.00     0.063 H 
ATOM     22  C   UNL A   1      36.594  34.034  29.380  1.00  0.00    -0.053 A 
ATOM     23  H   UNL A   1      35.592  35.098  27.855  1.00  0.00     0.063 H 
ATOM     24  C   UNL A   1      36.441  33.327  30.583  1.00  0.00    -0.014 A 
ATOM     25  H   UNL A   1      35.041  32.688  32.038  1.00  0.00     0.063 H 
ATOM     26  H   UNL A   1      37.536  34.169  28.979  1.00  0.00     0.063 H 
BRANCH  24  27
ATOM     27  C   UNL A   1      37.588  32.634  31.216  1.00  0.00     0.031 A 
ATOM     28  C   UNL A   1      38.289  31.494  30.540  1.00  0.00     0.074 A 
ATOM     29  C   UNL A   1      37.974  33.052  32.438  1.00  0.00     0.049 A 
ATOM     30  N   UNL A   1      39.283  30.765  30.984  1.00  0.00    -0.248 NA
ATOM     31  C   UNL A   1      37.818  31.114  29.200  1.00  0.00    -0.034 C 
ATOM     32  C   UNL A   1      37.343  34.140  33.192  1.00  0.00    -0.036 A 
ATOM     33  N   UNL A   1      38.979  32.621  33.264  1.00  0.00    -0.354 N 
ATOM     34  C   UNL A   1      39.543  29.831  29.991  1.00  0.00     0.074 A 
ATOM     35  C   UNL A   1      38.596  30.074  28.923  1.00  0.00    -0.034 C 
ATOM     36  H   UNL A   1      37.077  31.544  28.625  1.00  0.00     0.065 H 
ATOM     37  C   UNL A   1      37.987  34.306  34.354  1.00  0.00    -0.036 A 
ATOM     38  H   UNL A   1      36.529  34.692  32.876  1.00  0.00     0.065 H 
ATOM     39  C   UNL A   1      39.025  33.290  34.463  1.00  0.00     0.049 A 
ATOM     40  H   UNL A   1      39.608  31.902  33.021  1.00  0.00     0.167 HD
ATOM     41  C   UNL A   1      40.488  28.861  29.985  1.00  0.00     0.037 A 
ATOM     42  H   UNL A   1      38.535  29.513  28.059  1.00  0.00     0.065 H 
ATOM     43  H   UNL A   1      37.783  35.033  35.057  1.00  0.00     0.065 H 
ATOM     44  C   UNL A   1      39.787  33.080  35.552  1.00  0.00     0.037 A 
ATOM     45  C   UNL A   1      41.435  28.645  31.051  1.00  0.00     0.049 A 
ATOM     46  C   UNL A   1      40.796  31.968  35.520  1.00  0.00     0.074 A 
ATOM     47  C   UNL A   1      42.484  27.743  31.101  1.00  0.00    -0.036 A 
ATOM     48  N   UNL A   1      41.437  29.325  32.260  1.00  0.00    -0.354 N 
ATOM     49  N   UNL A   1      41.088  31.145  34.544  1.00  0.00    -0.248 NA
ATOM     50  C   UNL A   1      41.576  31.750  36.745  1.00  0.00    -0.034 C 
ATOM     51  C   UNL A   1      43.074  27.827  32.365  1.00  0.00    -0.036 A 
ATOM     52  H   UNL A   1      42.778  27.116  30.335  1.00  0.00     0.065 H 
ATOM     53  C   UNL A   1      42.435  28.825  33.081  1.00  0.00     0.049 A 
ATOM     54  H   UNL A   1      40.820  30.054  32.500  1.00  0.00     0.167 HD
ATOM     55  C   UNL A   1      42.090  30.320  35.030  1.00  0.00     0.074 A 
ATOM     56  C   UNL A   1      42.381  30.764  36.377  1.00  0.00    -0.034 C 
ATOM     57  H   UNL A   1      41.515  32.236  37.654  1.00  0.00     0.065 H 
ATOM     58  H   UNL A   1      43.854  27.243  32.706  1.00  0.00     0.065 H 
ATOM     59  C   UNL A   1      42.707  29.278  34.421  1.00  0.00     0.037 A 
ATOM     60  H   UNL A   1      43.122  30.365  36.974  1.00  0.00     0.065 H 
BRANCH  41  61
ATOM     61  C   UNL A   1      40.556  27.932  28.807  1.00  0.00     0.064 A 
ATOM     62  C   UNL A   1      39.800  26.753  28.750  1.00  0.00     0.173 A 
ATOM     63  C   UNL A   1      41.302  28.290  27.672  1.00  0.00     0.173 A 
ATOM     64  F   UNL A   1      39.076  26.363  29.810  1.00  0.00    -0.203 F 
ATOM     65  C   UNL A   1      39.789  25.966  27.601  1.00  0.00     0.198 A 
ATOM     66  C   UNL A   1      41.267  27.515  26.517  1.00  0.00     0.198 A 
ATOM     67  F   UNL A   1      42.036  29.413  27.672  1.00  0.00    -0.203 F 
ATOM     68  F   UNL A   1      39.072  24.834  27.573  1.00  0.00    -0.200 F 
ATOM     69  C   UNL A   1      40.512  26.353  26.482  1.00  0.00     0.200 A 
ATOM     70  F   UNL A   1      41.954  27.900  25.432  1.00  0.00    -0.200 F 
ATOM     71  F   UNL A   1      40.479  25.607  25.369  1.00  0.00    -0.200 F 
ENDBRANCH  41  61
BRANCH  44  72
ATOM     72  C   UNL A   1      39.585  33.901  36.774  1.00  0.00     0.064 A 
ATOM     73  C   UNL A   1      38.792  33.443  37.834  1.00  0.00     0.173 A 
ATOM     74  C   UNL A   1      40.160  35.176  36.895  1.00  0.00     0.173 A 
ATOM     75  F   UNL A   1      38.206  32.238  37.761  1.00  0.00    -0.203 F 
ATOM     76  C   UNL A   1      38.553  34.241  38.951  1.00  0.00     0.198 A 
ATOM     77  C   UNL A   1      39.954  35.956  38.029  1.00  0.00     0.198 A 
ATOM     78  F   UNL A   1      40.935  35.660  35.913  1.00  0.00    -0.203 F 
ATOM     79  F   UNL A   1      37.736  33.805  39.919  1.00  0.00    -0.200 F 
ATOM     80  C   UNL A   1      39.137  35.495  39.049  1.00  0.00     0.200 A 
ATOM     81  F   UNL A   1      40.538  37.158  38.127  1.00  0.00    -0.200 F 
ATOM     82  F   UNL A   1      38.905  36.263  40.122  1.00  0.00    -0.200 F 
ENDBRANCH  44  72
BRANCH  59  83
ATOM     83  C   UNL A   1      43.760  28.556  35.207  1.00  0.00     0.064 A 
ATOM     84  C   UNL A   1      43.445  27.449  36.011  1.00  0.00     0.173 A 
ATOM     85  C   UNL A   1      45.104  28.952  35.131  1.00  0.00     0.173 A 
ATOM     86  F   UNL A   1      42.170  27.046  36.133  1.00  0.00    -0.203 F 
ATOM     87  C   UNL A   1      44.432  26.781  36.728  1.00  0.00     0.198 A 
ATOM     88  C   UNL A   1      46.094  28.259  35.823  1.00  0.00     0.198 A 
ATOM     89  F   UNL A   1      45.460  30.000  34.374  1.00  0.00    -0.203 F 
ATOM     90  F   UNL A   1      44.100  25.760  37.529  1.00  0.00    -0.200 F 
ATOM     91  C   UNL A   1      45.757  27.180  36.626  1.00  0.00     0.200 A 
ATOM     92  F   UNL A   1      47.375  28.636  35.711  1.00  0.00    -0.200 F 
ATOM     93  F   UNL A   1      46.708  26.529  37.308  1.00  0.00    -0.200 F 
ENDBRANCH  59  83
ENDBRANCH  24  27
ENDBRANCH  15  17
ENDBRANCH  10  13
ENDBRANCH   7  10
ENDBRANCH   4   7
ENDBRANCH   1   4
BRANCH   1  94
ATOM     94  C   UNL A   1      31.755  28.501  27.453  1.00  0.00    -0.036 C 
ATOM     95  H   UNL A   1      30.739  28.543  27.117  1.00  0.00     0.028 H 
ATOM     96  H   UNL A   1      31.845  28.446  28.517  1.00  0.00     0.028 H 
BRANCH  94  97
ATOM     97  C   UNL A   1      32.384  27.227  26.901  1.00  0.00     0.018 C 
ATOM     98  H   UNL A   1      33.319  27.061  27.395  1.00  0.00     0.049 H 
ATOM     99  H   UNL A   1      32.520  27.355  25.847  1.00  0.00     0.049 H 
BRANCH  97 100
ATOM    100  N   UNL A   1      31.537  26.069  27.105  1.00  0.00    -0.352 N 
ATOM    101  C   UNL A   1      30.902  25.303  26.162  1.00  0.00     0.255 C 
ATOM    102  H   UNL A   1      31.399  25.797  28.041  1.00  0.00     0.163 HD
ATOM    103  O   UNL A   1      30.139  24.404  26.506  1.00  0.00    -0.269 OA
BRANCH 101 104
ATOM    104  C   UNL A   1      31.059  25.619  24.729  1.00  0.00     0.082 A 
ATOM    105  C   UNL A   1      30.545  26.850  24.296  1.00  0.00    -0.038 A 
ATOM    106  C   UNL A   1      31.670  24.753  23.820  1.00  0.00     0.128 A 
ATOM    107  C   UNL A   1      30.674  27.249  22.961  1.00  0.00    -0.025 A 
ATOM    108  H   UNL A   1      30.067  27.468  24.969  1.00  0.00     0.064 H 
ATOM    109  C   UNL A   1      31.816  25.139  22.491  1.00  0.00    -0.019 A 
ATOM    110  C   UNL A   1      31.327  26.381  22.070  1.00  0.00    -0.051 A 
ATOM    111  H   UNL A   1      32.284  24.511  21.818  1.00  0.00     0.066 H 
ATOM    112  H   UNL A   1      31.450  26.665  21.086  1.00  0.00     0.063 H 
BRANCH 106 113
ATOM    113  O   UNL A   1      32.137  23.534  24.225  1.00  0.00    -0.507 OA
ATOM    114  H   UNL A   1      32.882  23.155  23.802  1.00  0.00     0.293 HD
ENDBRANCH 106 113
BRANCH 107 115
ATOM    115  C   UNL A   1      30.152  28.528  22.444  1.00  0.00    -0.054 C 
ATOM    116  C   UNL A   1      29.392  29.399  23.126  1.00  0.00    -0.054 C 
ATOM    117  H   UNL A   1      30.394  28.774  21.471  1.00  0.00     0.063 H 
ATOM    118  H   UNL A   1      29.159  29.185  24.107  1.00  0.00     0.063 H 
BRANCH 116 119
ATOM    119  C   UNL A   1      28.876  30.645  22.541  1.00  0.00    -0.018 A 
ATOM    120  C   UNL A   1      28.992  31.871  23.209  1.00  0.00    -0.013 A 
ATOM    121  C   UNL A   1      28.321  30.613  21.254  1.00  0.00    -0.013 A 
ATOM    122  C   UNL A   1      28.536  33.038  22.600  1.00  0.00     0.119 A 
ATOM    123  H   UNL A   1      29.413  31.910  24.151  1.00  0.00     0.067 H 
ATOM    124  C   UNL A   1      27.870  31.792  20.665  1.00  0.00     0.119 A 
ATOM    125  H   UNL A   1      28.248  29.718  20.745  1.00  0.00     0.067 H 
ATOM    126  C   UNL A   1      27.970  33.006  21.332  1.00  0.00     0.022 A 
ATOM    127  H   UNL A   1      27.629  33.875  20.890  1.00  0.00     0.070 H 
BRANCH 122 128
ATOM    128  O   UNL A   1      28.638  34.248  23.222  1.00  0.00    -0.508 OA
ATOM    129  H   UNL A   1      29.416  34.761  23.124  1.00  0.00     0.293 HD
ENDBRANCH 122 128
BRANCH 124 130
ATOM    130  O   UNL A   1      27.320  31.794  19.416  1.00  0.00    -0.508 OA
ATOM    131  H   UNL A   1      27.205  32.603  18.957  1.00  0.00     0.293 HD
ENDBRANCH 124 130
ENDBRANCH 116 119
ENDBRANCH 107 115
ENDBRANCH 101 104
ENDBRANCH  97 100
ENDBRANCH  94  97
ENDBRANCH   1  94
TORSDOF 18
ENDMDL
MODEL 2
REMARK VINA RESULT:     -13.0      0.514      7.209
REMARK SMILES O=C(NCCCCCCNC(=O)c1cc(/C=C/c2cc(O)cc(O)c2)ccc1O)c1ccc(-c2c3nc(c(-c4c(F)c(F)c(F)c(F)c4F)c4ccc([nH]4)c(-c4c(F)c(F)c(F)c(F)c4F)c4nc(c(-c5c(F)c(F)c(F)c(F)c5F)c5ccc2[nH]5)C=C4)C=C3)cc1
REMARK SMILES IDX 7 1 6 4 5 7 4 10 3 13 1 14 2 15 30 17 31 18 92 19 32 20
REMARK SMILES IDX 91 22 33 24 34 27 35 28 85 29 36 30 90 31 84 32 86 33 37 34
REMARK SMILES IDX 89 35 83 37 82 39 38 41 70 44 50 45 69 46 51 47 54 48 68 49
REMARK SMILES IDX 87 50 52 51 53 53 67 55 88 56 55 59 39 61 40 62 48 63 41 64
REMARK SMILES IDX 42 65 46 66 49 67 43 68 44 69 47 70 45 71 71 72 72 73 80 74
REMARK SMILES IDX 73 75 74 76 78 77 81 78 75 79 76 80 79 81 77 82 56 83 57 84
REMARK SMILES IDX 65 85 58 86 59 87 63 88 66 89 60 90 61 91 64 92 62 93 8 94
REMARK SMILES IDX 9 97 10 100 11 101 12 103 13 104 14 105 28 106 15 107 27 109
REMARK SMILES IDX 26 110 29 113 16 115 17 116 18 119 19 120 25 121 20 122
REMARK SMILES IDX 23 124 22 126 21 128 24 130
REMARK H PARENT 7 2 7 3 6 5 6 6 5 8 5 9 4 11 4 12 3 16 31 21 92 23 32 25 91 26
REMARK H PARENT 90 36 84 38 86 40 89 42 83 43 51 52 54 54 87 57 52 58 88 60
REMARK H PARENT 8 95 8 96 9 98 9 99 10 102 14 108 27 111 26 112 29 114 16 117
REMARK H PARENT 17 118 19 123 25 125 22 127 21 129 24 131
REMARK Flexibility Score: inf
ROOT
ATOM      1  C   UNL A   1      32.419  29.864  26.920  1.00  0.00    -0.052 C 
ATOM      2  H   UNL A   1      32.697  30.438  27.779  1.00  0.00     0.027 H 
ATOM      3  H   UNL A   1      33.250  29.569  26.314  1.00  0.00     0.027 H 
ENDROOT
BRANCH   1   4
ATOM      4  C   UNL A   1      31.537  30.744  26.028  1.00  0.00    -0.052 C 
ATOM      5  H   UNL A   1      31.976  30.773  25.053  1.00  0.00     0.027 H 
ATOM      6  H   UNL A   1      30.562  30.302  26.044  1.00  0.00     0.027 H 
BRANCH   4   7
ATOM      7  C   UNL A   1      31.360  32.183  26.510  1.00  0.00    -0.036 C 
ATOM      8  H   UNL A   1      31.192  32.804  25.655  1.00  0.00     0.028 H 
ATOM      9  H   UNL A   1      30.534  32.177  27.191  1.00  0.00     0.028 H 
BRANCH   7  10
ATOM     10  C   UNL A   1      32.549  32.741  27.277  1.00  0.00     0.018 C 
ATOM     11  H   UNL A   1      32.674  32.177  28.177  1.00  0.00     0.049 H 
ATOM     12  H   UNL A   1      33.409  32.667  26.646  1.00  0.00     0.049 H 
BRANCH  10  13
ATOM     13  N   UNL A   1      32.372  34.141  27.624  1.00  0.00    -0.352 N 
ATOM     14  O   UNL A   1      32.625  35.994  28.895  1.00  0.00    -0.269 OA
ATOM     15  C   UNL A   1      33.007  34.865  28.600  1.00  0.00     0.251 C 
ATOM     16  H   UNL A   1      31.711  34.635  27.087  1.00  0.00     0.163 HD
BRANCH  15  17
ATOM     17  C   UNL A   1      34.158  34.267  29.307  1.00  0.00     0.039 A 
ATOM     18  C   UNL A   1      33.954  33.497  30.457  1.00  0.00    -0.049 A 
ATOM     19  C   UNL A   1      35.446  34.461  28.806  1.00  0.00    -0.049 A 
ATOM     20  C   UNL A   1      35.044  33.010  31.164  1.00  0.00    -0.053 A 
ATOM     21  H   UNL A   1      32.994  33.293  30.778  1.00  0.00     0.063 H 
ATOM     22  C   UNL A   1      36.537  33.893  29.468  1.00  0.00    -0.053 A 
ATOM     23  H   UNL A   1      35.593  35.021  27.952  1.00  0.00     0.063 H 
ATOM     24  C   UNL A   1      36.342  33.164  30.652  1.00  0.00    -0.014 A 
ATOM     25  H   UNL A   1      34.899  32.533  32.067  1.00  0.00     0.063 H 
ATOM     26  H   UNL A   1      37.490  34.010  29.087  1.00  0.00     0.063 H 
BRANCH  24  27
ATOM     27  C   UNL A   1      37.458  32.424  31.288  1.00  0.00     0.031 A 
ATOM     28  C   UNL A   1      37.975  32.794  32.646  1.00  0.00     0.074 A 
ATOM     29  C   UNL A   1      38.009  31.408  30.595  1.00  0.00     0.049 A 
ATOM     30  N   UNL A   1      38.969  32.264  33.316  1.00  0.00    -0.248 NA
ATOM     31  C   UNL A   1      37.304  33.900  33.344  1.00  0.00    -0.034 C 
ATOM     32  C   UNL A   1      37.592  30.982  29.255  1.00  0.00    -0.036 A 
ATOM     33  N   UNL A   1      39.033  30.552  30.907  1.00  0.00    -0.354 N 
ATOM     34  C   UNL A   1      39.054  32.982  34.501  1.00  0.00     0.074 A 
ATOM     35  C   UNL A   1      38.021  33.994  34.457  1.00  0.00    -0.034 C 
ATOM     36  H   UNL A   1      36.488  34.458  33.045  1.00  0.00     0.065 H 
ATOM     37  C   UNL A   1      38.335  29.935  28.872  1.00  0.00    -0.036 A 
ATOM     38  H   UNL A   1      36.844  31.420  28.695  1.00  0.00     0.065 H 
ATOM     39  C   UNL A   1      39.329  29.664  29.902  1.00  0.00     0.049 A 
ATOM     40  H   UNL A   1      39.510  30.572  31.769  1.00  0.00     0.167 HD
ATOM     41  C   UNL A   1      39.924  32.802  35.524  1.00  0.00     0.037 A 
ATOM     42  H   UNL A   1      37.862  34.697  35.196  1.00  0.00     0.065 H 
ATOM     43  H   UNL A   1      38.221  29.407  27.993  1.00  0.00     0.065 H 
ATOM     44  C   UNL A   1      40.321  28.761  29.797  1.00  0.00     0.037 A 
ATOM     45  C   UNL A   1      40.935  31.776  35.557  1.00  0.00     0.049 A 
ATOM     46  C   UNL A   1      41.289  28.621  30.937  1.00  0.00     0.074 A 
ATOM     47  C   UNL A   1      41.808  31.461  36.584  1.00  0.00    -0.036 A 
ATOM     48  N   UNL A   1      41.222  30.910  34.511  1.00  0.00    -0.354 N 
ATOM     49  N   UNL A   1      41.308  29.250  32.086  1.00  0.00    -0.248 NA
ATOM     50  C   UNL A   1      42.378  27.652  30.761  1.00  0.00    -0.034 C 
ATOM     51  C   UNL A   1      42.669  30.455  36.135  1.00  0.00    -0.036 A 
ATOM     52  H   UNL A   1      41.821  31.895  37.520  1.00  0.00     0.065 H 
ATOM     53  C   UNL A   1      42.293  30.098  34.851  1.00  0.00     0.049 A 
ATOM     54  H   UNL A   1      40.737  30.877  33.655  1.00  0.00     0.167 HD
ATOM     55  C   UNL A   1      42.402  28.747  32.774  1.00  0.00     0.074 A 
ATOM     56  C   UNL A   1      43.000  27.736  31.928  1.00  0.00    -0.034 C 
ATOM     57  H   UNL A   1      42.602  27.061  29.945  1.00  0.00     0.065 H 
ATOM     58  H   UNL A   1      43.452  30.048  36.670  1.00  0.00     0.065 H 
ATOM     59  C   UNL A   1      42.877  29.099  33.993  1.00  0.00     0.037 A 
ATOM     60  H   UNL A   1      43.808  27.154  32.200  1.00  0.00     0.065 H 
BRANCH  41  61
ATOM     61  C   UNL A   1      39.853  33.736  36.697  1.00  0.00     0.064 A 
ATOM     62  C   UNL A   1      40.542  34.957  36.714  1.00  0.00     0.173 A 
ATOM     63  C   UNL A   1      38.992  33.453  37.769  1.00  0.00     0.173 A 
ATOM     64  F   UNL A   1      41.382  35.273  35.717  1.00  0.00    -0.203 F 
ATOM     65  C   UNL A   1      40.371  35.859  37.761  1.00  0.00     0.198 A 
ATOM     66  C   UNL A   1      38.804  34.369  38.801  1.00  0.00     0.198 A 
ATOM     67  F   UNL A   1      38.303  32.302  37.798  1.00  0.00    -0.203 F 
ATOM     68  F   UNL A   1      41.051  37.015  37.765  1.00  0.00    -0.200 F 
ATOM     69  C   UNL A   1      39.494  35.571  38.796  1.00  0.00     0.200 A 
ATOM     70  F   UNL A   1      37.943  34.094  39.791  1.00  0.00    -0.200 F 
ATOM     71  F   UNL A   1      39.312  36.453  39.789  1.00  0.00    -0.200 F 
ENDBRANCH  41  61
BRANCH  44  72
ATOM     72  C   UNL A   1      40.478  27.965  28.552  1.00  0.00     0.064 A 
ATOM     73  C   UNL A   1      39.904  26.693  28.425  1.00  0.00     0.173 A 
ATOM     74  C   UNL A   1      41.231  28.450  27.471  1.00  0.00     0.173 A 
ATOM     75  F   UNL A   1      39.189  26.177  29.436  1.00  0.00    -0.203 F 
ATOM     76  C   UNL A   1      40.107  25.923  27.282  1.00  0.00     0.198 A 
ATOM     77  C   UNL A   1      41.399  27.697  26.313  1.00  0.00     0.198 A 
ATOM     78  F   UNL A   1      41.796  29.665  27.536  1.00  0.00    -0.203 F 
ATOM     79  F   UNL A   1      39.603  24.684  27.214  1.00  0.00    -0.200 F 
ATOM     80  C   UNL A   1      40.850  26.428  26.226  1.00  0.00     0.200 A 
ATOM     81  F   UNL A   1      42.100  28.198  25.287  1.00  0.00    -0.200 F 
ATOM     82  F   UNL A   1      41.047  25.686  25.127  1.00  0.00    -0.200 F 
ENDBRANCH  44  72
BRANCH  59  83
ATOM     83  C   UNL A   1      44.098  28.379  34.483  1.00  0.00     0.064 A 
ATOM     84  C   UNL A   1      44.001  27.167  35.183  1.00  0.00     0.173 A 
ATOM     85  C   UNL A   1      45.380  28.887  34.220  1.00  0.00     0.173 A 
ATOM     86  F   UNL A   1      42.797  26.652  35.477  1.00  0.00    -0.203 F 
ATOM     87  C   UNL A   1      45.141  26.501  35.624  1.00  0.00     0.198 A 
ATOM     88  C   UNL A   1      46.519  28.200  34.633  1.00  0.00     0.198 A 
ATOM     89  F   UNL A   1      45.527  30.039  33.551  1.00  0.00    -0.203 F 
ATOM     90  F   UNL A   1      45.022  25.372  36.335  1.00  0.00    -0.200 F 
ATOM     91  C   UNL A   1      46.399  27.014  35.340  1.00  0.00     0.200 A 
ATOM     92  F   UNL A   1      47.733  28.689  34.345  1.00  0.00    -0.200 F 
ATOM     93  F   UNL A   1      47.496  26.367  35.755  1.00  0.00    -0.200 F 
ENDBRANCH  59  83
ENDBRANCH  24  27
ENDBRANCH  15  17
ENDBRANCH  10  13
ENDBRANCH   7  10
ENDBRANCH   4   7
ENDBRANCH   1   4
BRANCH   1  94
ATOM     94  C   UNL A   1      31.769  28.565  27.408  1.00  0.00    -0.036 C 
ATOM     95  H   UNL A   1      30.747  28.566  27.090  1.00  0.00     0.028 H 
ATOM     96  H   UNL A   1      31.881  28.555  28.471  1.00  0.00     0.028 H 
BRANCH  94  97
ATOM     97  C   UNL A   1      32.425  27.289  26.894  1.00  0.00     0.018 C 
ATOM     98  H   UNL A   1      33.350  27.142  27.411  1.00  0.00     0.049 H 
ATOM     99  H   UNL A   1      32.583  27.399  25.841  1.00  0.00     0.049 H 
BRANCH  97 100
ATOM    100  N   UNL A   1      31.586  26.125  27.101  1.00  0.00    -0.352 N 
ATOM    101  C   UNL A   1      30.947  25.360  26.160  1.00  0.00     0.255 C 
ATOM    102  H   UNL A   1      31.459  25.849  28.037  1.00  0.00     0.163 HD
ATOM    103  O   UNL A   1      30.192  24.455  26.508  1.00  0.00    -0.269 OA
BRANCH 101 104
ATOM    104  C   UNL A   1      31.089  25.683  24.727  1.00  0.00     0.082 A 
ATOM    105  C   UNL A   1      30.603  26.930  24.312  1.00  0.00    -0.038 A 
ATOM    106  C   UNL A   1      31.661  24.807  23.802  1.00  0.00     0.128 A 
ATOM    107  C   UNL A   1      30.721  27.336  22.978  1.00  0.00    -0.025 A 
ATOM    108  H   UNL A   1      30.153  27.557  24.998  1.00  0.00     0.064 H 
ATOM    109  C   UNL A   1      31.795  25.199  22.473  1.00  0.00    -0.019 A 
ATOM    110  C   UNL A   1      31.334  26.458  22.069  1.00  0.00    -0.051 A 
ATOM    111  H   UNL A   1      32.234  24.564  21.788  1.00  0.00     0.066 H 
ATOM    112  H   UNL A   1      31.449  26.746  21.086  1.00  0.00     0.063 H 
BRANCH 106 113
ATOM    113  O   UNL A   1      32.099  23.572  24.190  1.00  0.00    -0.507 OA
ATOM    114  H   UNL A   1      32.896  23.227  23.838  1.00  0.00     0.293 HD
ENDBRANCH 106 113
BRANCH 107 115
ATOM    115  C   UNL A   1      30.227  28.633  22.479  1.00  0.00    -0.054 C 
ATOM    116  C   UNL A   1      29.244  29.364  23.030  1.00  0.00    -0.054 C 
ATOM    117  H   UNL A   1      30.678  29.013  21.632  1.00  0.00     0.063 H 
ATOM    118  H   UNL A   1      28.797  29.016  23.892  1.00  0.00     0.063 H 
BRANCH 116 119
ATOM    119  C   UNL A   1      28.776  30.637  22.464  1.00  0.00    -0.018 A 
ATOM    120  C   UNL A   1      28.932  31.847  23.154  1.00  0.00    -0.013 A 
ATOM    121  C   UNL A   1      28.227  30.646  21.174  1.00  0.00    -0.013 A 
ATOM    122  C   UNL A   1      28.521  33.039  22.562  1.00  0.00     0.119 A 
ATOM    123  H   UNL A   1      29.350  31.855  24.097  1.00  0.00     0.067 H 
ATOM    124  C   UNL A   1      27.820  31.850  20.603  1.00  0.00     0.119 A 
ATOM    125  H   UNL A   1      28.124  29.764  20.649  1.00  0.00     0.067 H 
ATOM    126  C   UNL A   1      27.961  33.049  21.292  1.00  0.00     0.022 A 
ATOM    127  H   UNL A   1      27.653  33.936  20.863  1.00  0.00     0.070 H 
BRANCH 122 128
ATOM    128  O   UNL A   1      28.663  34.235  23.206  1.00  0.00    -0.508 OA
ATOM    129  H   UNL A   1      28.741  34.258  24.139  1.00  0.00     0.293 HD
ENDBRANCH 122 128
BRANCH 124 130
ATOM    130  O   UNL A   1      27.278  31.894  19.353  1.00  0.00    -0.508 OA
ATOM    131  H   UNL A   1      26.548  32.454  19.178  1.00  0.00     0.293 HD
ENDBRANCH 124 130
ENDBRANCH 116 119
ENDBRANCH 107 115
ENDBRANCH 101 104
ENDBRANCH  97 100
ENDBRANCH  94  97
ENDBRANCH   1  94
TORSDOF 18
ENDMDL
MODEL 3
REMARK VINA RESULT:     -12.9      1.953      4.687
REMARK SMILES O=C(NCCCCCCNC(=O)c1cc(/C=C/c2cc(O)cc(O)c2)ccc1O)c1ccc(-c2c3nc(c(-c4c(F)c(F)c(F)c(F)c4F)c4ccc([nH]4)c(-c4c(F)c(F)c(F)c(F)c4F)c4nc(c(-c5c(F)c(F)c(F)c(F)c5F)c5ccc2[nH]5)C=C4)C=C3)cc1
REMARK SMILES IDX 7 1 6 4 5 7 4 10 3 13 1 14 2 15 30 17 31 18 92 19 32 20
REMARK SMILES IDX 91 22 33 24 34 27 35 28 85 29 36 30 90 31 84 32 86 33 37 34
REMARK SMILES IDX 89 35 83 37 82 39 38 41 70 44 50 45 69 46 51 47 54 48 68 49
REMARK SMILES IDX 87 50 52 51 53 53 67 55 88 56 55 59 39 61 40 62 48 63 41 64
REMARK SMILES IDX 42 65 46 66 49 67 43 68 44 69 47 70 45 71 71 72 72 73 80 74
REMARK SMILES IDX 73 75 74 76 78 77 81 78 75 79 76 80 79 81 77 82 56 83 57 84
REMARK SMILES IDX 65 85 58 86 59 87 63 88 66 89 60 90 61 91 64 92 62 93 8 94
REMARK SMILES IDX 9 97 10 100 11 101 12 103 13 104 14 105 28 106 15 107 27 109
REMARK SMILES IDX 26 110 29 113 16 115 17 116 18 119 19 120 25 121 20 122
REMARK SMILES IDX 23 124 22 126 21 128 24 130
REMARK H PARENT 7 2 7 3 6 5 6 6 5 8 5 9 4 11 4 12 3 16 31 21 92 23 32 25 91 26
REMARK H PARENT 90 36 84 38 86 40 89 42 83 43 51 52 54 54 87 57 52 58 88 60
REMARK H PARENT 8 95 8 96 9 98 9 99 10 102 14 108 27 111 26 112 29 114 16 117
REMARK H PARENT 17 118 19 123 25 125 22 127 21 129 24 131
REMARK Flexibility Score: inf
ROOT
ATOM      1  C   UNL A   1      32.367  29.877  27.145  1.00  0.00    -0.052 C 
ATOM      2  H   UNL A   1      31.986  30.107  28.118  1.00  0.00     0.027 H 
ATOM      3  H   UNL A   1      33.401  30.121  27.020  1.00  0.00     0.027 H 
ENDROOT
BRANCH   1   4
ATOM      4  C   UNL A   1      31.605  30.730  26.125  1.00  0.00    -0.052 C 
ATOM      5  H   UNL A   1      32.144  30.703  25.201  1.00  0.00     0.027 H 
ATOM      6  H   UNL A   1      30.623  30.309  26.058  1.00  0.00     0.027 H 
BRANCH   4   7
ATOM      7  C   UNL A   1      31.415  32.194  26.519  1.00  0.00    -0.036 C 
ATOM      8  H   UNL A   1      31.280  32.766  25.625  1.00  0.00     0.028 H 
ATOM      9  H   UNL A   1      30.565  32.228  27.168  1.00  0.00     0.028 H 
BRANCH   7  10
ATOM     10  C   UNL A   1      32.577  32.793  27.295  1.00  0.00     0.018 C 
ATOM     11  H   UNL A   1      32.705  32.243  28.204  1.00  0.00     0.049 H 
ATOM     12  H   UNL A   1      33.448  32.736  26.677  1.00  0.00     0.049 H 
BRANCH  10  13
ATOM     13  N   UNL A   1      32.357  34.191  27.624  1.00  0.00    -0.352 N 
ATOM     14  O   UNL A   1      32.553  36.068  28.870  1.00  0.00    -0.269 OA
ATOM     15  C   UNL A   1      32.970  34.948  28.590  1.00  0.00     0.251 C 
ATOM     16  H   UNL A   1      31.679  34.657  27.082  1.00  0.00     0.163 HD
BRANCH  15  17
ATOM     17  C   UNL A   1      34.140  34.395  29.302  1.00  0.00     0.039 A 
ATOM     18  C   UNL A   1      33.963  33.659  30.478  1.00  0.00    -0.049 A 
ATOM     19  C   UNL A   1      35.419  34.600  28.781  1.00  0.00    -0.049 A 
ATOM     20  C   UNL A   1      35.070  33.216  31.188  1.00  0.00    -0.053 A 
ATOM     21  H   UNL A   1      33.012  33.446  30.816  1.00  0.00     0.063 H 
ATOM     22  C   UNL A   1      36.528  34.075  29.449  1.00  0.00    -0.053 A 
ATOM     23  H   UNL A   1      35.546  35.135  27.908  1.00  0.00     0.063 H 
ATOM     24  C   UNL A   1      36.360  33.380  30.658  1.00  0.00    -0.014 A 
ATOM     25  H   UNL A   1      34.945  32.765  32.108  1.00  0.00     0.063 H 
ATOM     26  H   UNL A   1      37.474  34.199  29.054  1.00  0.00     0.063 H 
BRANCH  24  27
ATOM     27  C   UNL A   1      37.497  32.683  31.304  1.00  0.00     0.031 A 
ATOM     28  C   UNL A   1      38.192  31.530  30.644  1.00  0.00     0.074 A 
ATOM     29  C   UNL A   1      37.880  33.110  32.524  1.00  0.00     0.049 A 
ATOM     30  N   UNL A   1      39.176  30.797  31.102  1.00  0.00    -0.248 NA
ATOM     31  C   UNL A   1      37.727  31.141  29.305  1.00  0.00    -0.034 C 
ATOM     32  C   UNL A   1      37.253  34.211  33.264  1.00  0.00    -0.036 A 
ATOM     33  N   UNL A   1      38.876  32.678  33.361  1.00  0.00    -0.354 N 
ATOM     34  C   UNL A   1      39.434  29.851  30.119  1.00  0.00     0.074 A 
ATOM     35  C   UNL A   1      38.497  30.092  29.044  1.00  0.00    -0.034 C 
ATOM     36  H   UNL A   1      36.993  31.572  28.721  1.00  0.00     0.065 H 
ATOM     37  C   UNL A   1      37.892  34.382  34.428  1.00  0.00    -0.036 A 
ATOM     38  H   UNL A   1      36.447  34.767  32.937  1.00  0.00     0.065 H 
ATOM     39  C   UNL A   1      38.920  33.358  34.554  1.00  0.00     0.049 A 
ATOM     40  H   UNL A   1      39.499  31.951  33.130  1.00  0.00     0.167 HD
ATOM     41  C   UNL A   1      40.371  28.873  30.129  1.00  0.00     0.037 A 
ATOM     42  H   UNL A   1      38.436  29.523  28.185  1.00  0.00     0.065 H 
ATOM     43  H   UNL A   1      37.689  35.119  35.123  1.00  0.00     0.065 H 
ATOM     44  C   UNL A   1      39.673  33.152  35.650  1.00  0.00     0.037 A 
ATOM     45  C   UNL A   1      41.309  28.659  31.203  1.00  0.00     0.049 A 
ATOM     46  C   UNL A   1      40.672  32.031  35.635  1.00  0.00     0.074 A 
ATOM     47  C   UNL A   1      42.349  27.748  31.268  1.00  0.00    -0.036 A 
ATOM     48  N   UNL A   1      41.309  29.350  32.406  1.00  0.00    -0.354 N 
ATOM     49  N   UNL A   1      40.963  31.196  34.669  1.00  0.00    -0.248 NA
ATOM     50  C   UNL A   1      41.443  31.818  36.867  1.00  0.00    -0.034 C 
ATOM     51  C   UNL A   1      42.932  27.839  32.535  1.00  0.00    -0.036 A 
ATOM     52  H   UNL A   1      42.643  27.111  30.511  1.00  0.00     0.065 H 
ATOM     53  C   UNL A   1      42.298  28.849  33.238  1.00  0.00     0.049 A 
ATOM     54  H   UNL A   1      40.698  30.087  32.634  1.00  0.00     0.167 HD
ATOM     55  C   UNL A   1      41.954  30.366  35.169  1.00  0.00     0.074 A 
ATOM     56  C   UNL A   1      42.240  30.821  36.514  1.00  0.00    -0.034 C 
ATOM     57  H   UNL A   1      41.379  32.313  37.771  1.00  0.00     0.065 H 
ATOM     58  H   UNL A   1      43.705  27.251  32.887  1.00  0.00     0.065 H 
ATOM     59  C   UNL A   1      42.565  29.313  34.575  1.00  0.00     0.037 A 
ATOM     60  H   UNL A   1      42.974  30.421  37.119  1.00  0.00     0.065 H 
BRANCH  41  61
ATOM     61  C   UNL A   1      40.438  27.932  28.961  1.00  0.00     0.064 A 
ATOM     62  C   UNL A   1      39.659  26.768  28.903  1.00  0.00     0.173 A 
ATOM     63  C   UNL A   1      41.208  28.263  27.834  1.00  0.00     0.173 A 
ATOM     64  F   UNL A   1      38.910  26.403  29.954  1.00  0.00    -0.203 F 
ATOM     65  C   UNL A   1      39.649  25.970  27.760  1.00  0.00     0.198 A 
ATOM     66  C   UNL A   1      41.176  27.478  26.686  1.00  0.00     0.198 A 
ATOM     67  F   UNL A   1      41.966  29.371  27.836  1.00  0.00    -0.203 F 
ATOM     68  F   UNL A   1      38.909  24.853  27.731  1.00  0.00    -0.200 F 
ATOM     69  C   UNL A   1      40.397  26.332  26.649  1.00  0.00     0.200 A 
ATOM     70  F   UNL A   1      41.887  27.839  25.608  1.00  0.00    -0.200 F 
ATOM     71  F   UNL A   1      40.366  25.577  25.542  1.00  0.00    -0.200 F 
ENDBRANCH  41  61
BRANCH  44  72
ATOM     72  C   UNL A   1      39.471  33.987  36.863  1.00  0.00     0.064 A 
ATOM     73  C   UNL A   1      40.056  35.254  36.978  1.00  0.00     0.173 A 
ATOM     74  C   UNL A   1      38.709  33.520  37.946  1.00  0.00     0.173 A 
ATOM     75  F   UNL A   1      40.807  35.739  35.978  1.00  0.00    -0.203 F 
ATOM     76  C   UNL A   1      39.917  36.007  38.142  1.00  0.00     0.198 A 
ATOM     77  C   UNL A   1      38.537  34.290  39.092  1.00  0.00     0.198 A 
ATOM     78  F   UNL A   1      38.120  32.317  37.885  1.00  0.00    -0.203 F 
ATOM     79  F   UNL A   1      40.543  37.187  38.252  1.00  0.00    -0.200 F 
ATOM     80  C   UNL A   1      39.155  35.526  39.196  1.00  0.00     0.200 A 
ATOM     81  F   UNL A   1      37.782  33.830  40.099  1.00  0.00    -0.200 F 
ATOM     82  F   UNL A   1      39.024  36.249  40.317  1.00  0.00    -0.200 F 
ENDBRANCH  44  72
BRANCH  59  83
ATOM     83  C   UNL A   1      43.607  28.589  35.375  1.00  0.00     0.064 A 
ATOM     84  C   UNL A   1      44.959  28.964  35.324  1.00  0.00     0.173 A 
ATOM     85  C   UNL A   1      43.248  27.534  36.226  1.00  0.00     0.173 A 
ATOM     86  F   UNL A   1      45.355  29.954  34.509  1.00  0.00    -0.203 F 
ATOM     87  C   UNL A   1      45.916  28.292  36.079  1.00  0.00     0.198 A 
ATOM     88  C   UNL A   1      44.203  26.887  37.006  1.00  0.00     0.198 A 
ATOM     89  F   UNL A   1      41.969  27.140  36.314  1.00  0.00    -0.203 F 
ATOM     90  F   UNL A   1      47.208  28.633  35.975  1.00  0.00    -0.200 F 
ATOM     91  C   UNL A   1      45.536  27.261  36.926  1.00  0.00     0.200 A 
ATOM     92  F   UNL A   1      43.833  25.902  37.834  1.00  0.00    -0.200 F 
ATOM     93  F   UNL A   1      46.457  26.623  37.660  1.00  0.00    -0.200 F 
ENDBRANCH  59  83
ENDBRANCH  24  27
ENDBRANCH  15  17
ENDBRANCH  10  13
ENDBRANCH   7  10
ENDBRANCH   4   7
ENDBRANCH   1   4
BRANCH   1  94
ATOM     94  C   UNL A   1      32.263  28.362  26.940  1.00  0.00    -0.036 C 
ATOM     95  H   UNL A   1      31.521  28.179  26.191  1.00  0.00     0.028 H 
ATOM     96  H   UNL A   1      32.012  27.947  27.893  1.00  0.00     0.028 H 
BRANCH  94  97
ATOM     97  C   UNL A   1      33.557  27.685  26.503  1.00  0.00     0.018 C 
ATOM     98  H   UNL A   1      33.401  26.627  26.472  1.00  0.00     0.049 H 
ATOM     99  H   UNL A   1      34.320  27.944  27.207  1.00  0.00     0.049 H 
BRANCH  97 100
ATOM    100  N   UNL A   1      33.988  28.131  25.193  1.00  0.00    -0.352 N 
ATOM    101  C   UNL A   1      33.457  27.814  23.969  1.00  0.00     0.255 C 
ATOM    102  H   UNL A   1      34.762  28.739  25.180  1.00  0.00     0.163 HD
ATOM    103  O   UNL A   1      34.001  28.205  22.940  1.00  0.00    -0.269 OA
BRANCH 101 104
ATOM    104  C   UNL A   1      32.285  26.922  23.883  1.00  0.00     0.082 A 
ATOM    105  C   UNL A   1      32.513  25.559  24.118  1.00  0.00    -0.038 A 
ATOM    106  C   UNL A   1      31.002  27.378  23.571  1.00  0.00     0.128 A 
ATOM    107  C   UNL A   1      31.456  24.642  24.088  1.00  0.00    -0.025 A 
ATOM    108  H   UNL A   1      33.470  25.229  24.317  1.00  0.00     0.064 H 
ATOM    109  C   UNL A   1      29.939  26.480  23.547  1.00  0.00    -0.019 A 
ATOM    110  C   UNL A   1      30.167  25.124  23.811  1.00  0.00    -0.051 A 
ATOM    111  H   UNL A   1      28.985  26.814  23.336  1.00  0.00     0.066 H 
ATOM    112  H   UNL A   1      29.371  24.468  23.804  1.00  0.00     0.063 H 
BRANCH 106 113
ATOM    113  O   UNL A   1      30.778  28.698  23.300  1.00  0.00    -0.507 OA
ATOM    114  H   UNL A   1      30.574  29.291  23.996  1.00  0.00     0.293 HD
ENDBRANCH 106 113
BRANCH 107 115
ATOM    115  C   UNL A   1      31.632  23.197  24.324  1.00  0.00    -0.054 C 
ATOM    116  C   UNL A   1      32.252  22.336  23.500  1.00  0.00    -0.054 C 
ATOM    117  H   UNL A   1      31.244  22.813  25.200  1.00  0.00     0.063 H 
ATOM    118  H   UNL A   1      32.670  22.702  22.631  1.00  0.00     0.063 H 
BRANCH 116 119
ATOM    119  C   UNL A   1      32.366  20.898  23.778  1.00  0.00    -0.018 A 
ATOM    120  C   UNL A   1      32.609  20.419  25.073  1.00  0.00    -0.013 A 
ATOM    121  C   UNL A   1      32.154  19.985  22.736  1.00  0.00    -0.013 A 
ATOM    122  C   UNL A   1      32.660  19.047  25.306  1.00  0.00     0.119 A 
ATOM    123  H   UNL A   1      32.751  21.081  25.852  1.00  0.00     0.067 H 
ATOM    124  C   UNL A   1      32.211  18.616  22.992  1.00  0.00     0.119 A 
ATOM    125  H   UNL A   1      31.955  20.326  21.783  1.00  0.00     0.067 H 
ATOM    126  C   UNL A   1      32.467  18.140  24.271  1.00  0.00     0.022 A 
ATOM    127  H   UNL A   1      32.512  17.125  24.452  1.00  0.00     0.070 H 
BRANCH 122 128
ATOM    128  O   UNL A   1      32.891  18.548  26.555  1.00  0.00    -0.508 OA
ATOM    129  H   UNL A   1      33.710  18.139  26.753  1.00  0.00     0.293 HD
ENDBRANCH 122 128
BRANCH 124 130
ATOM    130  O   UNL A   1      32.014  17.702  21.999  1.00  0.00    -0.508 OA
ATOM    131  H   UNL A   1      31.190  17.263  21.924  1.00  0.00     0.293 HD
ENDBRANCH 124 130
ENDBRANCH 116 119
ENDBRANCH 107 115
ENDBRANCH 101 104
ENDBRANCH  97 100
ENDBRANCH  94  97
ENDBRANCH   1  94
TORSDOF 18
ENDMDL
MODEL 4
REMARK VINA RESULT:     -12.6      5.620     10.795
REMARK SMILES O=C(NCCCCCCNC(=O)c1cc(/C=C/c2cc(O)cc(O)c2)ccc1O)c1ccc(-c2c3nc(c(-c4c(F)c(F)c(F)c(F)c4F)c4ccc([nH]4)c(-c4c(F)c(F)c(F)c(F)c4F)c4nc(c(-c5c(F)c(F)c(F)c(F)c5F)c5ccc2[nH]5)C=C4)C=C3)cc1
REMARK SMILES IDX 7 1 6 4 5 7 4 10 3 13 1 14 2 15 30 17 31 18 92 19 32 20
REMARK SMILES IDX 91 22 33 24 34 27 35 28 85 29 36 30 90 31 84 32 86 33 37 34
REMARK SMILES IDX 89 35 83 37 82 39 38 41 70 44 50 45 69 46 51 47 54 48 68 49
REMARK SMILES IDX 87 50 52 51 53 53 67 55 88 56 55 59 39 61 40 62 48 63 41 64
REMARK SMILES IDX 42 65 46 66 49 67 43 68 44 69 47 70 45 71 71 72 72 73 80 74
REMARK SMILES IDX 73 75 74 76 78 77 81 78 75 79 76 80 79 81 77 82 56 83 57 84
REMARK SMILES IDX 65 85 58 86 59 87 63 88 66 89 60 90 61 91 64 92 62 93 8 94
REMARK SMILES IDX 9 97 10 100 11 101 12 103 13 104 14 105 28 106 15 107 27 109
REMARK SMILES IDX 26 110 29 113 16 115 17 116 18 119 19 120 25 121 20 122
REMARK SMILES IDX 23 124 22 126 21 128 24 130
REMARK H PARENT 7 2 7 3 6 5 6 6 5 8 5 9 4 11 4 12 3 16 31 21 92 23 32 25 91 26
REMARK H PARENT 90 36 84 38 86 40 89 42 83 43 51 52 54 54 87 57 52 58 88 60
REMARK H PARENT 8 95 8 96 9 98 9 99 10 102 14 108 27 111 26 112 29 114 16 117
REMARK H PARENT 17 118 19 123 25 125 22 127 21 129 24 131
REMARK Flexibility Score: inf
ROOT
ATOM      1  C   UNL A   1      35.302  20.618  25.001  1.00  0.00    -0.052 C 
ATOM      2  H   UNL A   1      35.167  20.747  26.054  1.00  0.00     0.027 H 
ATOM      3  H   UNL A   1      35.127  19.617  24.665  1.00  0.00     0.027 H 
ENDROOT
BRANCH   1   4
ATOM      4  C   UNL A   1      36.766  20.925  24.671  1.00  0.00    -0.052 C 
ATOM      5  H   UNL A   1      36.834  21.129  23.623  1.00  0.00     0.027 H 
ATOM      6  H   UNL A   1      37.042  21.757  25.285  1.00  0.00     0.027 H 
BRANCH   4   7
ATOM      7  C   UNL A   1      37.753  19.806  25.001  1.00  0.00    -0.036 C 
ATOM      8  H   UNL A   1      37.243  19.075  25.593  1.00  0.00     0.028 H 
ATOM      9  H   UNL A   1      38.097  19.418  24.064  1.00  0.00     0.028 H 
BRANCH   7  10
ATOM     10  C   UNL A   1      38.988  20.260  25.762  1.00  0.00     0.018 C 
ATOM     11  H   UNL A   1      39.429  21.084  25.243  1.00  0.00     0.049 H 
ATOM     12  H   UNL A   1      38.681  20.537  26.748  1.00  0.00     0.049 H 
BRANCH  10  13
ATOM     13  N   UNL A   1      39.977  19.203  25.885  1.00  0.00    -0.352 N 
ATOM     14  O   UNL A   1      42.065  18.339  25.985  1.00  0.00    -0.269 OA
ATOM     15  C   UNL A   1      41.330  19.318  26.079  1.00  0.00     0.251 C 
ATOM     16  H   UNL A   1      39.632  18.283  25.823  1.00  0.00     0.163 HD
BRANCH  15  17
ATOM     17  C   UNL A   1      41.901  20.643  26.396  1.00  0.00     0.039 A 
ATOM     18  C   UNL A   1      42.211  21.539  25.368  1.00  0.00    -0.049 A 
ATOM     19  C   UNL A   1      42.111  20.998  27.730  1.00  0.00    -0.049 A 
ATOM     20  C   UNL A   1      42.827  22.746  25.666  1.00  0.00    -0.053 A 
ATOM     21  H   UNL A   1      41.983  21.301  24.390  1.00  0.00     0.063 H 
ATOM     22  C   UNL A   1      42.647  22.252  28.034  1.00  0.00    -0.053 A 
ATOM     23  H   UNL A   1      41.872  20.339  28.487  1.00  0.00     0.063 H 
ATOM     24  C   UNL A   1      43.009  23.134  27.003  1.00  0.00    -0.014 A 
ATOM     25  H   UNL A   1      43.151  23.361  24.903  1.00  0.00     0.063 H 
ATOM     26  H   UNL A   1      42.778  22.531  29.020  1.00  0.00     0.063 H 
BRANCH  24  27
ATOM     27  C   UNL A   1      43.432  24.523  27.298  1.00  0.00     0.031 A 
ATOM     28  C   UNL A   1      42.462  25.556  27.786  1.00  0.00     0.074 A 
ATOM     29  C   UNL A   1      44.727  24.838  27.094  1.00  0.00     0.049 A 
ATOM     30  N   UNL A   1      42.675  26.821  28.050  1.00  0.00    -0.248 NA
ATOM     31  C   UNL A   1      41.073  25.125  28.002  1.00  0.00    -0.034 C 
ATOM     32  C   UNL A   1      45.749  23.910  26.598  1.00  0.00    -0.036 A 
ATOM     33  N   UNL A   1      45.409  26.014  27.270  1.00  0.00    -0.354 N 
ATOM     34  C   UNL A   1      41.450  27.340  28.443  1.00  0.00     0.074 A 
ATOM     35  C   UNL A   1      40.490  26.259  28.373  1.00  0.00    -0.034 C 
ATOM     36  H   UNL A   1      40.659  24.185  27.894  1.00  0.00     0.065 H 
ATOM     37  C   UNL A   1      46.928  24.543  26.533  1.00  0.00    -0.036 A 
ATOM     38  H   UNL A   1      45.586  22.924  26.340  1.00  0.00     0.065 H 
ATOM     39  C   UNL A   1      46.732  25.937  26.907  1.00  0.00     0.049 A 
ATOM     40  H   UNL A   1      44.992  26.833  27.623  1.00  0.00     0.167 HD
ATOM     41  C   UNL A   1      41.165  28.608  28.824  1.00  0.00     0.037 A 
ATOM     42  H   UNL A   1      39.485  26.357  28.585  1.00  0.00     0.065 H 
ATOM     43  H   UNL A   1      47.827  24.114  26.264  1.00  0.00     0.065 H 
ATOM     44  C   UNL A   1      47.676  26.894  26.836  1.00  0.00     0.037 A 
ATOM     45  C   UNL A   1      42.138  29.668  28.905  1.00  0.00     0.049 A 
ATOM     46  C   UNL A   1      47.308  28.296  27.228  1.00  0.00     0.074 A 
ATOM     47  C   UNL A   1      41.963  30.965  29.360  1.00  0.00    -0.036 A 
ATOM     48  N   UNL A   1      43.463  29.562  28.507  1.00  0.00    -0.354 N 
ATOM     49  N   UNL A   1      46.166  28.756  27.677  1.00  0.00    -0.248 NA
ATOM     50  C   UNL A   1      48.358  29.315  27.097  1.00  0.00    -0.034 C 
ATOM     51  C   UNL A   1      43.160  31.661  29.169  1.00  0.00    -0.036 A 
ATOM     52  H   UNL A   1      41.097  31.350  29.768  1.00  0.00     0.065 H 
ATOM     53  C   UNL A   1      44.100  30.783  28.656  1.00  0.00     0.049 A 
ATOM     54  H   UNL A   1      43.887  28.740  28.168  1.00  0.00     0.167 HD
ATOM     55  C   UNL A   1      46.362  30.112  27.890  1.00  0.00     0.074 A 
ATOM     56  C   UNL A   1      47.742  30.394  27.556  1.00  0.00    -0.034 C 
ATOM     57  H   UNL A   1      49.322  29.216  26.740  1.00  0.00     0.065 H 
ATOM     58  H   UNL A   1      43.316  32.660  29.376  1.00  0.00     0.065 H 
ATOM     59  C   UNL A   1      45.475  31.045  28.313  1.00  0.00     0.037 A 
ATOM     60  H   UNL A   1      48.190  31.317  27.663  1.00  0.00     0.065 H 
BRANCH  41  61
ATOM     61  C   UNL A   1      39.745  28.951  29.169  1.00  0.00     0.064 A 
ATOM     62  C   UNL A   1      38.829  29.380  28.198  1.00  0.00     0.173 A 
ATOM     63  C   UNL A   1      39.267  28.736  30.473  1.00  0.00     0.173 A 
ATOM     64  F   UNL A   1      39.236  29.606  26.940  1.00  0.00    -0.203 F 
ATOM     65  C   UNL A   1      37.489  29.582  28.519  1.00  0.00     0.198 A 
ATOM     66  C   UNL A   1      37.922  28.913  30.783  1.00  0.00     0.198 A 
ATOM     67  F   UNL A   1      40.100  28.318  31.438  1.00  0.00    -0.203 F 
ATOM     68  F   UNL A   1      36.633  30.007  27.579  1.00  0.00    -0.200 F 
ATOM     69  C   UNL A   1      37.033  29.337  29.806  1.00  0.00     0.200 A 
ATOM     70  F   UNL A   1      37.482  28.660  32.023  1.00  0.00    -0.200 F 
ATOM     71  F   UNL A   1      35.738  29.506  30.105  1.00  0.00    -0.200 F 
ENDBRANCH  41  61
BRANCH  44  72
ATOM     72  C   UNL A   1      49.032  26.568  26.325  1.00  0.00     0.064 A 
ATOM     73  C   UNL A   1      50.024  26.055  27.172  1.00  0.00     0.173 A 
ATOM     74  C   UNL A   1      49.375  26.791  24.982  1.00  0.00     0.173 A 
ATOM     75  F   UNL A   1      49.752  25.839  28.468  1.00  0.00    -0.203 F 
ATOM     76  C   UNL A   1      51.314  25.811  26.704  1.00  0.00     0.198 A 
ATOM     77  C   UNL A   1      50.652  26.509  24.506  1.00  0.00     0.198 A 
ATOM     78  F   UNL A   1      48.462  27.274  24.126  1.00  0.00    -0.203 F 
ATOM     79  F   UNL A   1      52.260  25.384  27.550  1.00  0.00    -0.200 F 
ATOM     80  C   UNL A   1      51.625  26.035  25.371  1.00  0.00     0.200 A 
ATOM     81  F   UNL A   1      50.941  26.707  23.213  1.00  0.00    -0.200 F 
ATOM     82  F   UNL A   1      52.866  25.802  24.923  1.00  0.00    -0.200 F 
ENDBRANCH  44  72
BRANCH  59  83
ATOM     83  C   UNL A   1      45.976  32.452  28.444  1.00  0.00     0.064 A 
ATOM     84  C   UNL A   1      45.857  33.373  27.391  1.00  0.00     0.173 A 
ATOM     85  C   UNL A   1      46.551  32.897  29.644  1.00  0.00     0.173 A 
ATOM     86  F   UNL A   1      45.333  32.990  26.217  1.00  0.00    -0.203 F 
ATOM     87  C   UNL A   1      46.316  34.679  27.527  1.00  0.00     0.198 A 
ATOM     88  C   UNL A   1      46.978  34.214  29.788  1.00  0.00     0.198 A 
ATOM     89  F   UNL A   1      46.685  32.058  30.682  1.00  0.00    -0.203 F 
ATOM     90  F   UNL A   1      46.238  35.525  26.492  1.00  0.00    -0.200 F 
ATOM     91  C   UNL A   1      46.868  35.101  28.729  1.00  0.00     0.200 A 
ATOM     92  F   UNL A   1      47.497  34.624  30.954  1.00  0.00    -0.200 F 
ATOM     93  F   UNL A   1      47.299  36.362  28.862  1.00  0.00    -0.200 F 
ENDBRANCH  59  83
ENDBRANCH  24  27
ENDBRANCH  15  17
ENDBRANCH  10  13
ENDBRANCH   7  10
ENDBRANCH   4   7
ENDBRANCH   1   4
BRANCH   1  94
ATOM     94  C   UNL A   1      34.270  21.492  24.280  1.00  0.00    -0.036 C 
ATOM     95  H   UNL A   1      34.366  21.319  23.228  1.00  0.00     0.028 H 
ATOM     96  H   UNL A   1      34.482  22.502  24.562  1.00  0.00     0.028 H 
BRANCH  94  97
ATOM     97  C   UNL A   1      32.821  21.230  24.674  1.00  0.00     0.018 C 
ATOM     98  H   UNL A   1      32.571  20.221  24.423  1.00  0.00     0.049 H 
ATOM     99  H   UNL A   1      32.204  21.926  24.146  1.00  0.00     0.049 H 
BRANCH  97 100
ATOM    100  N   UNL A   1      32.600  21.426  26.094  1.00  0.00    -0.352 N 
ATOM    101  C   UNL A   1      32.644  22.595  26.808  1.00  0.00     0.255 C 
ATOM    102  H   UNL A   1      32.393  20.615  26.611  1.00  0.00     0.163 HD
ATOM    103  O   UNL A   1      32.523  22.578  28.030  1.00  0.00    -0.269 OA
BRANCH 101 104
ATOM    104  C   UNL A   1      32.931  23.869  26.120  1.00  0.00     0.082 A 
ATOM    105  C   UNL A   1      31.835  24.544  25.564  1.00  0.00    -0.038 A 
ATOM    106  C   UNL A   1      34.218  24.396  25.998  1.00  0.00     0.128 A 
ATOM    107  C   UNL A   1      32.006  25.774  24.918  1.00  0.00    -0.025 A 
ATOM    108  H   UNL A   1      30.892  24.130  25.631  1.00  0.00     0.064 H 
ATOM    109  C   UNL A   1      34.404  25.622  25.368  1.00  0.00    -0.019 A 
ATOM    110  C   UNL A   1      33.303  26.307  24.840  1.00  0.00    -0.051 A 
ATOM    111  H   UNL A   1      35.351  26.027  25.291  1.00  0.00     0.066 H 
ATOM    112  H   UNL A   1      33.448  27.222  24.386  1.00  0.00     0.063 H 
BRANCH 106 113
ATOM    113  O   UNL A   1      35.297  23.724  26.501  1.00  0.00    -0.507 OA
ATOM    114  H   UNL A   1      35.186  23.134  27.221  1.00  0.00     0.293 HD
ENDBRANCH 106 113
BRANCH 107 115
ATOM    115  C   UNL A   1      30.896  26.531  24.311  1.00  0.00    -0.054 C 
ATOM    116  C   UNL A   1      30.992  27.739  23.731  1.00  0.00    -0.054 C 
ATOM    117  H   UNL A   1      29.962  26.093  24.333  1.00  0.00     0.063 H 
ATOM    118  H   UNL A   1      31.921  28.184  23.676  1.00  0.00     0.063 H 
BRANCH 116 119
ATOM    119  C   UNL A   1      29.839  28.456  23.171  1.00  0.00    -0.018 A 
ATOM    120  C   UNL A   1      28.525  28.031  23.413  1.00  0.00    -0.013 A 
ATOM    121  C   UNL A   1      30.058  29.631  22.440  1.00  0.00    -0.013 A 
ATOM    122  C   UNL A   1      27.456  28.767  22.906  1.00  0.00     0.119 A 
ATOM    123  H   UNL A   1      28.350  27.176  23.963  1.00  0.00     0.067 H 
ATOM    124  C   UNL A   1      28.974  30.350  21.942  1.00  0.00     0.119 A 
ATOM    125  H   UNL A   1      31.021  29.963  22.272  1.00  0.00     0.067 H 
ATOM    126  C   UNL A   1      27.671  29.922  22.167  1.00  0.00     0.022 A 
ATOM    127  H   UNL A   1      26.873  30.458  21.790  1.00  0.00     0.070 H 
BRANCH 122 128
ATOM    128  O   UNL A   1      26.165  28.383  23.127  1.00  0.00    -0.508 OA
ATOM    129  H   UNL A   1      25.741  27.797  22.531  1.00  0.00     0.293 HD
ENDBRANCH 122 128
BRANCH 124 130
ATOM    130  O   UNL A   1      29.153  31.495  21.222  1.00  0.00    -0.508 OA
ATOM    131  H   UNL A   1      28.725  31.600  20.396  1.00  0.00     0.293 HD
ENDBRANCH 124 130
ENDBRANCH 116 119
ENDBRANCH 107 115
ENDBRANCH 101 104
ENDBRANCH  97 100
ENDBRANCH  94  97
ENDBRANCH   1  94
TORSDOF 18
ENDMDL
MODEL 5
REMARK VINA RESULT:     -12.6      1.986      4.789
REMARK SMILES O=C(NCCCCCCNC(=O)c1cc(/C=C/c2cc(O)cc(O)c2)ccc1O)c1ccc(-c2c3nc(c(-c4c(F)c(F)c(F)c(F)c4F)c4ccc([nH]4)c(-c4c(F)c(F)c(F)c(F)c4F)c4nc(c(-c5c(F)c(F)c(F)c(F)c5F)c5ccc2[nH]5)C=C4)C=C3)cc1
REMARK SMILES IDX 7 1 6 4 5 7 4 10 3 13 1 14 2 15 30 17 31 18 92 19 32 20
REMARK SMILES IDX 91 22 33 24 34 27 35 28 85 29 36 30 90 31 84 32 86 33 37 34
REMARK SMILES IDX 89 35 83 37 82 39 38 41 70 44 50 45 69 46 51 47 54 48 68 49
REMARK SMILES IDX 87 50 52 51 53 53 67 55 88 56 55 59 39 61 40 62 48 63 41 64
REMARK SMILES IDX 42 65 46 66 49 67 43 68 44 69 47 70 45 71 71 72 72 73 80 74
REMARK SMILES IDX 73 75 74 76 78 77 81 78 75 79 76 80 79 81 77 82 56 83 57 84
REMARK SMILES IDX 65 85 58 86 59 87 63 88 66 89 60 90 61 91 64 92 62 93 8 94
REMARK SMILES IDX 9 97 10 100 11 101 12 103 13 104 14 105 28 106 15 107 27 109
REMARK SMILES IDX 26 110 29 113 16 115 17 116 18 119 19 120 25 121 20 122
REMARK SMILES IDX 23 124 22 126 21 128 24 130
REMARK H PARENT 7 2 7 3 6 5 6 6 5 8 5 9 4 11 4 12 3 16 31 21 92 23 32 25 91 26
REMARK H PARENT 90 36 84 38 86 40 89 42 83 43 51 52 54 54 87 57 52 58 88 60
REMARK H PARENT 8 95 8 96 9 98 9 99 10 102 14 108 27 111 26 112 29 114 16 117
REMARK H PARENT 17 118 19 123 25 125 22 127 21 129 24 131
REMARK Flexibility Score: inf
ROOT
ATOM      1  C   UNL A   1      32.245  30.021  25.473  1.00  0.00    -0.052 C 
ATOM      2  H   UNL A   1      33.085  30.652  25.275  1.00  0.00     0.027 H 
ATOM      3  H   UNL A   1      31.582  29.914  24.639  1.00  0.00     0.027 H 
ENDROOT
BRANCH   1   4
ATOM      4  C   UNL A   1      31.418  30.670  26.588  1.00  0.00    -0.052 C 
ATOM      5  H   UNL A   1      30.408  30.329  26.494  1.00  0.00     0.027 H 
ATOM      6  H   UNL A   1      31.881  30.380  27.509  1.00  0.00     0.027 H 
BRANCH   4   7
ATOM      7  C   UNL A   1      31.405  32.197  26.580  1.00  0.00    -0.036 C 
ATOM      8  H   UNL A   1      31.342  32.526  25.563  1.00  0.00     0.028 H 
ATOM      9  H   UNL A   1      30.563  32.498  27.169  1.00  0.00     0.028 H 
BRANCH   7  10
ATOM     10  C   UNL A   1      32.629  32.841  27.212  1.00  0.00     0.018 C 
ATOM     11  H   UNL A   1      32.914  32.270  28.071  1.00  0.00     0.049 H 
ATOM     12  H   UNL A   1      33.406  32.858  26.478  1.00  0.00     0.049 H 
BRANCH  10  13
ATOM     13  N   UNL A   1      32.378  34.211  27.626  1.00  0.00    -0.352 N 
ATOM     14  O   UNL A   1      32.530  36.011  28.987  1.00  0.00    -0.269 OA
ATOM     15  C   UNL A   1      32.972  34.919  28.640  1.00  0.00     0.251 C 
ATOM     16  H   UNL A   1      31.693  34.696  27.111  1.00  0.00     0.163 HD
BRANCH  15  17
ATOM     17  C   UNL A   1      34.150  34.347  29.323  1.00  0.00     0.039 A 
ATOM     18  C   UNL A   1      33.987  33.565  30.470  1.00  0.00    -0.049 A 
ATOM     19  C   UNL A   1      35.425  34.581  28.801  1.00  0.00    -0.049 A 
ATOM     20  C   UNL A   1      35.102  33.103  31.155  1.00  0.00    -0.053 A 
ATOM     21  H   UNL A   1      33.039  33.332  30.806  1.00  0.00     0.063 H 
ATOM     22  C   UNL A   1      36.542  34.038  29.441  1.00  0.00    -0.053 A 
ATOM     23  H   UNL A   1      35.542  35.150  27.949  1.00  0.00     0.063 H 
ATOM     24  C   UNL A   1      36.387  33.296  30.623  1.00  0.00    -0.014 A 
ATOM     25  H   UNL A   1      34.986  32.615  32.057  1.00  0.00     0.063 H 
ATOM     26  H   UNL A   1      37.484  34.184  29.045  1.00  0.00     0.063 H 
BRANCH  24  27
ATOM     27  C   UNL A   1      37.533  32.582  31.235  1.00  0.00     0.031 A 
ATOM     28  C   UNL A   1      38.199  31.429  30.548  1.00  0.00     0.074 A 
ATOM     29  C   UNL A   1      37.950  32.995  32.448  1.00  0.00     0.049 A 
ATOM     30  N   UNL A   1      39.187  30.681  30.973  1.00  0.00    -0.248 NA
ATOM     31  C   UNL A   1      37.696  31.056  29.217  1.00  0.00    -0.034 C 
ATOM     32  C   UNL A   1      37.354  34.095  33.212  1.00  0.00    -0.036 A 
ATOM     33  N   UNL A   1      38.963  32.546  33.255  1.00  0.00    -0.354 N 
ATOM     34  C   UNL A   1      39.411  29.741  29.977  1.00  0.00     0.074 A 
ATOM     35  C   UNL A   1      38.449  30.001  28.928  1.00  0.00    -0.034 C 
ATOM     36  H   UNL A   1      36.952  31.499  28.656  1.00  0.00     0.065 H 
ATOM     37  C   UNL A   1      38.023  34.250  34.362  1.00  0.00    -0.036 A 
ATOM     38  H   UNL A   1      36.545  34.662  32.911  1.00  0.00     0.065 H 
ATOM     39  C   UNL A   1      39.044  33.215  34.452  1.00  0.00     0.049 A 
ATOM     40  H   UNL A   1      39.573  31.815  33.002  1.00  0.00     0.167 HD
ATOM     41  C   UNL A   1      40.338  28.754  29.954  1.00  0.00     0.037 A 
ATOM     42  H   UNL A   1      38.360  29.440  28.066  1.00  0.00     0.065 H 
ATOM     43  H   UNL A   1      37.846  34.983  35.067  1.00  0.00     0.065 H 
ATOM     44  C   UNL A   1      39.823  32.993  35.527  1.00  0.00     0.037 A 
ATOM     45  C   UNL A   1      41.300  28.522  31.002  1.00  0.00     0.049 A 
ATOM     46  C   UNL A   1      40.810  31.862  35.478  1.00  0.00     0.074 A 
ATOM     47  C   UNL A   1      42.333  27.600  31.033  1.00  0.00    -0.036 A 
ATOM     48  N   UNL A   1      41.338  29.203  32.210  1.00  0.00    -0.354 N 
ATOM     49  N   UNL A   1      41.068  31.032  34.497  1.00  0.00    -0.248 NA
ATOM     50  C   UNL A   1      41.610  31.631  36.687  1.00  0.00    -0.034 C 
ATOM     51  C   UNL A   1      42.949  27.675  32.286  1.00  0.00    -0.036 A 
ATOM     52  H   UNL A   1      42.601  26.967  30.264  1.00  0.00     0.065 H 
ATOM     53  C   UNL A   1      42.342  28.685  33.013  1.00  0.00     0.049 A 
ATOM     54  H   UNL A   1      40.740  29.944  32.460  1.00  0.00     0.167 HD
ATOM     55  C   UNL A   1      42.063  30.189  34.965  1.00  0.00     0.074 A 
ATOM     56  C   UNL A   1      42.388  30.629  36.305  1.00  0.00    -0.034 C 
ATOM     57  H   UNL A   1      41.574  32.119  37.597  1.00  0.00     0.065 H 
ATOM     58  H   UNL A   1      43.724  27.077  32.613  1.00  0.00     0.065 H 
ATOM     59  C   UNL A   1      42.648  29.135  34.347  1.00  0.00     0.037 A 
ATOM     60  H   UNL A   1      43.133  30.217  36.889  1.00  0.00     0.065 H 
BRANCH  41  61
ATOM     61  C   UNL A   1      40.365  27.823  28.777  1.00  0.00     0.064 A 
ATOM     62  C   UNL A   1      41.160  28.076  27.651  1.00  0.00     0.173 A 
ATOM     63  C   UNL A   1      39.672  26.602  28.831  1.00  0.00     0.173 A 
ATOM     64  F   UNL A   1      41.837  29.229  27.547  1.00  0.00    -0.203 F 
ATOM     65  C   UNL A   1      41.260  27.142  26.622  1.00  0.00     0.198 A 
ATOM     66  C   UNL A   1      39.795  25.661  27.813  1.00  0.00     0.198 A 
ATOM     67  F   UNL A   1      38.904  26.308  29.891  1.00  0.00    -0.203 F 
ATOM     68  F   UNL A   1      42.014  27.411  25.546  1.00  0.00    -0.200 F 
ATOM     69  C   UNL A   1      40.588  25.932  26.709  1.00  0.00     0.200 A 
ATOM     70  F   UNL A   1      39.158  24.486  27.908  1.00  0.00    -0.200 F 
ATOM     71  F   UNL A   1      40.707  25.025  25.729  1.00  0.00    -0.200 F 
ENDBRANCH  41  61
BRANCH  44  72
ATOM     72  C   UNL A   1      39.660  33.819  36.752  1.00  0.00     0.064 A 
ATOM     73  C   UNL A   1      38.815  33.415  37.794  1.00  0.00     0.173 A 
ATOM     74  C   UNL A   1      40.326  35.046  36.893  1.00  0.00     0.173 A 
ATOM     75  F   UNL A   1      38.143  32.257  37.700  1.00  0.00    -0.203 F 
ATOM     76  C   UNL A   1      38.615  34.221  38.912  1.00  0.00     0.198 A 
ATOM     77  C   UNL A   1      40.157  35.833  38.028  1.00  0.00     0.198 A 
ATOM     78  F   UNL A   1      41.153  35.478  35.928  1.00  0.00    -0.203 F 
ATOM     79  F   UNL A   1      37.751  33.842  39.862  1.00  0.00    -0.200 F 
ATOM     80  C   UNL A   1      39.289  35.427  39.029  1.00  0.00     0.200 A 
ATOM     81  F   UNL A   1      40.827  36.987  38.146  1.00  0.00    -0.200 F 
ATOM     82  F   UNL A   1      39.095  36.204  40.104  1.00  0.00    -0.200 F 
ENDBRANCH  44  72
BRANCH  59  83
ATOM     83  C   UNL A   1      43.703  28.394  35.114  1.00  0.00     0.064 A 
ATOM     84  C   UNL A   1      45.051  28.784  35.067  1.00  0.00     0.173 A 
ATOM     85  C   UNL A   1      43.361  27.306  35.930  1.00  0.00     0.173 A 
ATOM     86  F   UNL A   1      45.431  29.805  34.284  1.00  0.00    -0.203 F 
ATOM     87  C   UNL A   1      46.020  28.095  35.791  1.00  0.00     0.198 A 
ATOM     88  C   UNL A   1      44.328  26.642  36.680  1.00  0.00     0.198 A 
ATOM     89  F   UNL A   1      42.086  26.897  36.013  1.00  0.00    -0.203 F 
ATOM     90  F   UNL A   1      47.307  28.453  35.690  1.00  0.00    -0.200 F 
ATOM     91  C   UNL A   1      45.656  27.032  36.604  1.00  0.00     0.200 A 
ATOM     92  F   UNL A   1      43.973  25.625  37.477  1.00  0.00    -0.200 F 
ATOM     93  F   UNL A   1      46.589  26.378  37.309  1.00  0.00    -0.200 F 
ENDBRANCH  59  83
ENDBRANCH  24  27
ENDBRANCH  15  17
ENDBRANCH  10  13
ENDBRANCH   7  10
ENDBRANCH   4   7
ENDBRANCH   1   4
BRANCH   1  94
ATOM     94  C   UNL A   1      32.769  28.614  25.779  1.00  0.00    -0.036 C 
ATOM     95  H   UNL A   1      33.293  28.651  26.712  1.00  0.00     0.028 H 
ATOM     96  H   UNL A   1      33.393  28.341  24.955  1.00  0.00     0.028 H 
BRANCH  94  97
ATOM     97  C   UNL A   1      31.694  27.538  25.881  1.00  0.00     0.018 C 
ATOM     98  H   UNL A   1      31.352  27.485  26.893  1.00  0.00     0.049 H 
ATOM     99  H   UNL A   1      32.126  26.610  25.568  1.00  0.00     0.049 H 
BRANCH  97 100
ATOM    100  N   UNL A   1      30.562  27.817  25.019  1.00  0.00    -0.352 N 
ATOM    101  C   UNL A   1      30.359  27.412  23.725  1.00  0.00     0.255 C 
ATOM    102  H   UNL A   1      29.849  28.368  25.414  1.00  0.00     0.163 HD
ATOM    103  O   UNL A   1      29.381  27.813  23.099  1.00  0.00    -0.269 OA
BRANCH 101 104
ATOM    104  C   UNL A   1      31.364  26.568  23.050  1.00  0.00     0.082 A 
ATOM    105  C   UNL A   1      31.257  25.184  23.246  1.00  0.00    -0.038 A 
ATOM    106  C   UNL A   1      32.391  27.090  22.261  1.00  0.00     0.128 A 
ATOM    107  C   UNL A   1      32.146  24.302  22.621  1.00  0.00    -0.025 A 
ATOM    108  H   UNL A   1      30.513  24.810  23.857  1.00  0.00     0.064 H 
ATOM    109  C   UNL A   1      33.277  26.227  21.625  1.00  0.00    -0.019 A 
ATOM    110  C   UNL A   1      33.149  24.844  21.800  1.00  0.00    -0.051 A 
ATOM    111  H   UNL A   1      34.028  26.605  21.025  1.00  0.00     0.066 H 
ATOM    112  H   UNL A   1      33.802  24.210  21.315  1.00  0.00     0.063 H 
BRANCH 106 113
ATOM    113  O   UNL A   1      32.527  28.440  22.099  1.00  0.00    -0.507 OA
ATOM    114  H   UNL A   1      33.343  28.855  22.300  1.00  0.00     0.293 HD
ENDBRANCH 106 113
BRANCH 107 115
ATOM    115  C   UNL A   1      32.088  22.839  22.790  1.00  0.00    -0.054 C 
ATOM    116  C   UNL A   1      32.441  22.160  23.894  1.00  0.00    -0.054 C 
ATOM    117  H   UNL A   1      31.745  22.287  21.988  1.00  0.00     0.063 H 
ATOM    118  H   UNL A   1      32.762  22.693  24.716  1.00  0.00     0.063 H 
BRANCH 116 119
ATOM    119  C   UNL A   1      32.389  20.694  23.987  1.00  0.00    -0.018 A 
ATOM    120  C   UNL A   1      32.154  19.897  22.859  1.00  0.00    -0.013 A 
ATOM    121  C   UNL A   1      32.654  20.082  25.220  1.00  0.00    -0.013 A 
ATOM    122  C   UNL A   1      32.163  18.509  22.978  1.00  0.00     0.119 A 
ATOM    123  H   UNL A   1      31.973  20.336  21.942  1.00  0.00     0.067 H 
ATOM    124  C   UNL A   1      32.656  18.692  25.316  1.00  0.00     0.119 A 
ATOM    125  H   UNL A   1      32.847  20.659  26.053  1.00  0.00     0.067 H 
ATOM    126  C   UNL A   1      32.408  17.900  24.202  1.00  0.00     0.022 A 
ATOM    127  H   UNL A   1      32.407  16.870  24.283  1.00  0.00     0.070 H 
BRANCH 122 128
ATOM    128  O   UNL A   1      31.941  17.704  21.898  1.00  0.00    -0.508 OA
ATOM    129  H   UNL A   1      32.647  17.212  21.527  1.00  0.00     0.293 HD
ENDBRANCH 122 128
BRANCH 124 130
ATOM    130  O   UNL A   1      32.905  18.065  26.501  1.00  0.00    -0.508 OA
ATOM    131  H   UNL A   1      33.674  18.279  26.992  1.00  0.00     0.293 HD
ENDBRANCH 124 130
ENDBRANCH 116 119
ENDBRANCH 107 115
ENDBRANCH 101 104
ENDBRANCH  97 100
ENDBRANCH  94  97
ENDBRANCH   1  94
TORSDOF 18
ENDMDL
MODEL 6
REMARK VINA RESULT:     -12.5      2.016      8.547
REMARK SMILES O=C(NCCCCCCNC(=O)c1cc(/C=C/c2cc(O)cc(O)c2)ccc1O)c1ccc(-c2c3nc(c(-c4c(F)c(F)c(F)c(F)c4F)c4ccc([nH]4)c(-c4c(F)c(F)c(F)c(F)c4F)c4nc(c(-c5c(F)c(F)c(F)c(F)c5F)c5ccc2[nH]5)C=C4)C=C3)cc1
REMARK SMILES IDX 7 1 6 4 5 7 4 10 3 13 1 14 2 15 30 17 31 18 92 19 32 20
REMARK SMILES IDX 91 22 33 24 34 27 35 28 85 29 36 30 90 31 84 32 86 33 37 34
REMARK SMILES IDX 89 35 83 37 82 39 38 41 70 44 50 45 69 46 51 47 54 48 68 49
REMARK SMILES IDX 87 50 52 51 53 53 67 55 88 56 55 59 39 61 40 62 48 63 41 64
REMARK SMILES IDX 42 65 46 66 49 67 43 68 44 69 47 70 45 71 71 72 72 73 80 74
REMARK SMILES IDX 73 75 74 76 78 77 81 78 75 79 76 80 79 81 77 82 56 83 57 84
REMARK SMILES IDX 65 85 58 86 59 87 63 88 66 89 60 90 61 91 64 92 62 93 8 94
REMARK SMILES IDX 9 97 10 100 11 101 12 103 13 104 14 105 28 106 15 107 27 109
REMARK SMILES IDX 26 110 29 113 16 115 17 116 18 119 19 120 25 121 20 122
REMARK SMILES IDX 23 124 22 126 21 128 24 130
REMARK H PARENT 7 2 7 3 6 5 6 6 5 8 5 9 4 11 4 12 3 16 31 21 92 23 32 25 91 26
REMARK H PARENT 90 36 84 38 86 40 89 42 83 43 51 52 54 54 87 57 52 58 88 60
REMARK H PARENT 8 95 8 96 9 98 9 99 10 102 14 108 27 111 26 112 29 114 16 117
REMARK H PARENT 17 118 19 123 25 125 22 127 21 129 24 131
REMARK Flexibility Score: inf
ROOT
ATOM      1  C   UNL A   1      32.719  30.316  26.579  1.00  0.00    -0.052 C 
ATOM      2  H   UNL A   1      32.711  29.797  27.515  1.00  0.00     0.027 H 
ATOM      3  H   UNL A   1      33.503  31.039  26.496  1.00  0.00     0.027 H 
ENDROOT
BRANCH   1   4
ATOM      4  C   UNL A   1      31.407  31.100  26.464  1.00  0.00    -0.052 C 
ATOM      5  H   UNL A   1      30.951  30.847  25.529  1.00  0.00     0.027 H 
ATOM      6  H   UNL A   1      30.818  30.823  27.314  1.00  0.00     0.027 H 
BRANCH   4   7
ATOM      7  C   UNL A   1      31.554  32.619  26.523  1.00  0.00    -0.036 C 
ATOM      8  H   UNL A   1      31.739  32.977  25.532  1.00  0.00     0.028 H 
ATOM      9  H   UNL A   1      30.642  32.997  26.939  1.00  0.00     0.028 H 
BRANCH   7  10
ATOM     10  C   UNL A   1      32.677  33.109  27.424  1.00  0.00     0.018 C 
ATOM     11  H   UNL A   1      32.686  32.518  28.316  1.00  0.00     0.049 H 
ATOM     12  H   UNL A   1      33.594  33.015  26.883  1.00  0.00     0.049 H 
BRANCH  10  13
ATOM     13  N   UNL A   1      32.518  34.506  27.792  1.00  0.00    -0.352 N 
ATOM     14  O   UNL A   1      32.784  36.334  29.096  1.00  0.00    -0.269 OA
ATOM     15  C   UNL A   1      33.152  35.204  28.787  1.00  0.00     0.251 C 
ATOM     16  H   UNL A   1      31.871  35.019  27.255  1.00  0.00     0.163 HD
BRANCH  15  17
ATOM     17  C   UNL A   1      34.284  34.575  29.498  1.00  0.00     0.039 A 
ATOM     18  C   UNL A   1      34.084  33.971  30.744  1.00  0.00    -0.049 A 
ATOM     19  C   UNL A   1      35.549  34.574  28.907  1.00  0.00    -0.049 A 
ATOM     20  C   UNL A   1      35.167  33.459  31.445  1.00  0.00    -0.053 A 
ATOM     21  H   UNL A   1      33.133  33.908  31.140  1.00  0.00     0.063 H 
ATOM     22  C   UNL A   1      36.622  33.977  29.573  1.00  0.00    -0.053 A 
ATOM     23  H   UNL A   1      35.692  35.012  27.983  1.00  0.00     0.063 H 
ATOM     24  C   UNL A   1      36.437  33.416  30.847  1.00  0.00    -0.014 A 
ATOM     25  H   UNL A   1      35.038  33.108  32.406  1.00  0.00     0.063 H 
ATOM     26  H   UNL A   1      37.553  33.949  29.129  1.00  0.00     0.063 H 
BRANCH  24  27
ATOM     27  C   UNL A   1      37.515  32.643  31.507  1.00  0.00     0.031 A 
ATOM     28  C   UNL A   1      38.016  32.999  32.875  1.00  0.00     0.074 A 
ATOM     29  C   UNL A   1      38.050  31.610  30.826  1.00  0.00     0.049 A 
ATOM     30  N   UNL A   1      38.978  32.440  33.566  1.00  0.00    -0.248 NA
ATOM     31  C   UNL A   1      37.364  34.127  33.557  1.00  0.00    -0.034 C 
ATOM     32  C   UNL A   1      37.649  31.194  29.479  1.00  0.00    -0.036 A 
ATOM     33  N   UNL A   1      39.041  30.724  31.161  1.00  0.00    -0.354 N 
ATOM     34  C   UNL A   1      39.061  33.157  34.752  1.00  0.00     0.074 A 
ATOM     35  C   UNL A   1      38.061  34.201  34.685  1.00  0.00    -0.034 C 
ATOM     36  H   UNL A   1      36.573  34.709  33.241  1.00  0.00     0.065 H 
ATOM     37  C   UNL A   1      38.366  30.125  29.113  1.00  0.00    -0.036 A 
ATOM     38  H   UNL A   1      36.926  31.654  28.902  1.00  0.00     0.065 H 
ATOM     39  C   UNL A   1      39.330  29.825  30.163  1.00  0.00     0.049 A 
ATOM     40  H   UNL A   1      39.500  30.730  32.032  1.00  0.00     0.167 HD
ATOM     41  C   UNL A   1      39.903  32.953  35.793  1.00  0.00     0.037 A 
ATOM     42  H   UNL A   1      37.908  34.910  35.420  1.00  0.00     0.065 H 
ATOM     43  H   UNL A   1      38.255  29.598  28.232  1.00  0.00     0.065 H 
ATOM     44  C   UNL A   1      40.295  28.892  30.080  1.00  0.00     0.037 A 
ATOM     45  C   UNL A   1      40.881  31.896  35.848  1.00  0.00     0.049 A 
ATOM     46  C   UNL A   1      41.235  28.724  31.240  1.00  0.00     0.074 A 
ATOM     47  C   UNL A   1      41.723  31.556  36.894  1.00  0.00    -0.036 A 
ATOM     48  N   UNL A   1      41.163  31.020  34.810  1.00  0.00    -0.354 N 
ATOM     49  N   UNL A   1      41.250  29.354  32.389  1.00  0.00    -0.248 NA
ATOM     50  C   UNL A   1      42.298  27.722  31.089  1.00  0.00    -0.034 C 
ATOM     51  C   UNL A   1      42.562  30.524  36.464  1.00  0.00    -0.036 A 
ATOM     52  H   UNL A   1      41.730  31.992  37.830  1.00  0.00     0.065 H 
ATOM     53  C   UNL A   1      42.202  30.176  35.173  1.00  0.00     0.049 A 
ATOM     54  H   UNL A   1      40.696  31.001  33.944  1.00  0.00     0.167 HD
ATOM     55  C   UNL A   1      42.313  28.819  33.100  1.00  0.00     0.074 A 
ATOM     56  C   UNL A   1      42.897  27.789  32.268  1.00  0.00    -0.034 C 
ATOM     57  H   UNL A   1      42.520  27.123  30.277  1.00  0.00     0.065 H 
ATOM     58  H   UNL A   1      43.320  30.094  37.016  1.00  0.00     0.065 H 
ATOM     59  C   UNL A   1      42.773  29.159  34.329  1.00  0.00     0.037 A 
ATOM     60  H   UNL A   1      43.680  27.182  32.557  1.00  0.00     0.065 H 
BRANCH  41  61
ATOM     61  C   UNL A   1      39.837  33.890  36.963  1.00  0.00     0.064 A 
ATOM     62  C   UNL A   1      40.475  35.138  36.950  1.00  0.00     0.173 A 
ATOM     63  C   UNL A   1      39.025  33.580  38.067  1.00  0.00     0.173 A 
ATOM     64  F   UNL A   1      41.266  35.481  35.922  1.00  0.00    -0.203 F 
ATOM     65  C   UNL A   1      40.305  36.040  37.998  1.00  0.00     0.198 A 
ATOM     66  C   UNL A   1      38.838  34.494  39.100  1.00  0.00     0.198 A 
ATOM     67  F   UNL A   1      38.386  32.402  38.126  1.00  0.00    -0.203 F 
ATOM     68  F   UNL A   1      40.938  37.221  37.973  1.00  0.00    -0.200 F 
ATOM     69  C   UNL A   1      39.478  35.722  39.066  1.00  0.00     0.200 A 
ATOM     70  F   UNL A   1      38.025  34.191  40.122  1.00  0.00    -0.200 F 
ATOM     71  F   UNL A   1      39.296  36.603  40.060  1.00  0.00    -0.200 F 
ENDBRANCH  41  61
BRANCH  44  72
ATOM     72  C   UNL A   1      40.454  28.089  28.839  1.00  0.00     0.064 A 
ATOM     73  C   UNL A   1      41.230  28.552  27.769  1.00  0.00     0.173 A 
ATOM     74  C   UNL A   1      39.808  26.852  28.688  1.00  0.00     0.173 A 
ATOM     75  F   UNL A   1      41.855  29.737  27.857  1.00  0.00    -0.203 F 
ATOM     76  C   UNL A   1      41.325  27.828  26.583  1.00  0.00     0.198 A 
ATOM     77  C   UNL A   1      39.936  26.109  27.518  1.00  0.00     0.198 A 
ATOM     78  F   UNL A   1      39.059  26.358  29.684  1.00  0.00    -0.203 F 
ATOM     79  F   UNL A   1      42.019  28.325  25.551  1.00  0.00    -0.200 F 
ATOM     80  C   UNL A   1      40.682  26.605  26.460  1.00  0.00     0.200 A 
ATOM     81  F   UNL A   1      39.330  24.919  27.413  1.00  0.00    -0.200 F 
ATOM     82  F   UNL A   1      40.771  25.910  25.318  1.00  0.00    -0.200 F 
ENDBRANCH  44  72
BRANCH  59  83
ATOM     83  C   UNL A   1      43.960  28.402  34.845  1.00  0.00     0.064 A 
ATOM     84  C   UNL A   1      43.811  27.197  35.548  1.00  0.00     0.173 A 
ATOM     85  C   UNL A   1      45.262  28.867  34.605  1.00  0.00     0.173 A 
ATOM     86  F   UNL A   1      42.586  26.722  35.821  1.00  0.00    -0.203 F 
ATOM     87  C   UNL A   1      44.921  26.498  36.014  1.00  0.00     0.198 A 
ATOM     88  C   UNL A   1      46.371  28.147  35.041  1.00  0.00     0.198 A 
ATOM     89  F   UNL A   1      45.460  30.012  33.934  1.00  0.00    -0.203 F 
ATOM     90  F   UNL A   1      44.753  25.377  36.727  1.00  0.00    -0.200 F 
ATOM     91  C   UNL A   1      46.200  26.969  35.751  1.00  0.00     0.200 A 
ATOM     92  F   UNL A   1      47.605  28.595  34.775  1.00  0.00    -0.200 F 
ATOM     93  F   UNL A   1      47.267  26.289  36.190  1.00  0.00    -0.200 F 
ENDBRANCH  59  83
ENDBRANCH  24  27
ENDBRANCH  15  17
ENDBRANCH  10  13
ENDBRANCH   7  10
ENDBRANCH   4   7
ENDBRANCH   1   4
BRANCH   1  94
ATOM     94  C   UNL A   1      32.970  29.290  25.469  1.00  0.00    -0.036 C 
ATOM     95  H   UNL A   1      34.025  29.120  25.408  1.00  0.00     0.028 H 
ATOM     96  H   UNL A   1      32.557  29.708  24.576  1.00  0.00     0.028 H 
BRANCH  94  97
ATOM     97  C   UNL A   1      32.283  27.945  25.672  1.00  0.00     0.018 C 
ATOM     98  H   UNL A   1      32.241  27.732  26.720  1.00  0.00     0.049 H 
ATOM     99  H   UNL A   1      32.848  27.203  25.148  1.00  0.00     0.049 H 
BRANCH  97 100
ATOM    100  N   UNL A   1      30.934  27.938  25.140  1.00  0.00    -0.352 N 
ATOM    101  C   UNL A   1      30.462  27.287  24.030  1.00  0.00     0.255 C 
ATOM    102  H   UNL A   1      30.273  28.468  25.640  1.00  0.00     0.163 HD
ATOM    103  O   UNL A   1      29.303  27.459  23.659  1.00  0.00    -0.269 OA
BRANCH 101 104
ATOM    104  C   UNL A   1      31.372  26.452  23.222  1.00  0.00     0.082 A 
ATOM    105  C   UNL A   1      31.319  25.069  23.442  1.00  0.00    -0.038 A 
ATOM    106  C   UNL A   1      32.263  26.982  22.286  1.00  0.00     0.128 A 
ATOM    107  C   UNL A   1      32.123  24.196  22.701  1.00  0.00    -0.025 A 
ATOM    108  H   UNL A   1      30.679  24.690  24.159  1.00  0.00     0.064 H 
ATOM    109  C   UNL A   1      33.062  26.127  21.534  1.00  0.00    -0.019 A 
ATOM    110  C   UNL A   1      32.985  24.744  21.738  1.00  0.00    -0.051 A 
ATOM    111  H   UNL A   1      33.710  26.511  20.828  1.00  0.00     0.066 H 
ATOM    112  H   UNL A   1      33.571  24.116  21.167  1.00  0.00     0.063 H 
BRANCH 106 113
ATOM    113  O   UNL A   1      32.350  28.333  22.095  1.00  0.00    -0.507 OA
ATOM    114  H   UNL A   1      32.662  28.884  22.785  1.00  0.00     0.293 HD
ENDBRANCH 106 113
BRANCH 107 115
ATOM    115  C   UNL A   1      32.115  22.733  22.889  1.00  0.00    -0.054 C 
ATOM    116  C   UNL A   1      32.541  22.078  23.982  1.00  0.00    -0.054 C 
ATOM    117  H   UNL A   1      31.750  22.162  22.111  1.00  0.00     0.063 H 
ATOM    118  H   UNL A   1      32.887  22.631  24.782  1.00  0.00     0.063 H 
BRANCH 116 119
ATOM    119  C   UNL A   1      32.537  20.613  24.093  1.00  0.00    -0.018 A 
ATOM    120  C   UNL A   1      32.716  19.972  25.327  1.00  0.00    -0.013 A 
ATOM    121  C   UNL A   1      32.276  19.845  22.950  1.00  0.00    -0.013 A 
ATOM    122  C   UNL A   1      32.655  18.582  25.400  1.00  0.00     0.119 A 
ATOM    123  H   UNL A   1      32.892  20.528  26.178  1.00  0.00     0.067 H 
ATOM    124  C   UNL A   1      32.222  18.456  23.047  1.00  0.00     0.119 A 
ATOM    125  H   UNL A   1      32.124  20.307  22.040  1.00  0.00     0.067 H 
ATOM    126  C   UNL A   1      32.414  17.818  24.266  1.00  0.00     0.022 A 
ATOM    127  H   UNL A   1      32.377  16.788  24.328  1.00  0.00     0.070 H 
BRANCH 122 128
ATOM    128  O   UNL A   1      32.821  17.928  26.586  1.00  0.00    -0.508 OA
ATOM    129  H   UNL A   1      32.101  17.471  26.974  1.00  0.00     0.293 HD
ENDBRANCH 122 128
BRANCH 124 130
ATOM    130  O   UNL A   1      31.975  17.679  21.953  1.00  0.00    -0.508 OA
ATOM    131  H   UNL A   1      32.623  17.598  21.281  1.00  0.00     0.293 HD
ENDBRANCH 124 130
ENDBRANCH 116 119
ENDBRANCH 107 115
ENDBRANCH 101 104
ENDBRANCH  97 100
ENDBRANCH  94  97
ENDBRANCH   1  94
TORSDOF 18
ENDMDL
MODEL 7
REMARK VINA RESULT:     -12.4      3.935      8.552
REMARK SMILES O=C(NCCCCCCNC(=O)c1cc(/C=C/c2cc(O)cc(O)c2)ccc1O)c1ccc(-c2c3nc(c(-c4c(F)c(F)c(F)c(F)c4F)c4ccc([nH]4)c(-c4c(F)c(F)c(F)c(F)c4F)c4nc(c(-c5c(F)c(F)c(F)c(F)c5F)c5ccc2[nH]5)C=C4)C=C3)cc1
REMARK SMILES IDX 7 1 6 4 5 7 4 10 3 13 1 14 2 15 30 17 31 18 92 19 32 20
REMARK SMILES IDX 91 22 33 24 34 27 35 28 85 29 36 30 90 31 84 32 86 33 37 34
REMARK SMILES IDX 89 35 83 37 82 39 38 41 70 44 50 45 69 46 51 47 54 48 68 49
REMARK SMILES IDX 87 50 52 51 53 53 67 55 88 56 55 59 39 61 40 62 48 63 41 64
REMARK SMILES IDX 42 65 46 66 49 67 43 68 44 69 47 70 45 71 71 72 72 73 80 74
REMARK SMILES IDX 73 75 74 76 78 77 81 78 75 79 76 80 79 81 77 82 56 83 57 84
REMARK SMILES IDX 65 85 58 86 59 87 63 88 66 89 60 90 61 91 64 92 62 93 8 94
REMARK SMILES IDX 9 97 10 100 11 101 12 103 13 104 14 105 28 106 15 107 27 109
REMARK SMILES IDX 26 110 29 113 16 115 17 116 18 119 19 120 25 121 20 122
REMARK SMILES IDX 23 124 22 126 21 128 24 130
REMARK H PARENT 7 2 7 3 6 5 6 6 5 8 5 9 4 11 4 12 3 16 31 21 92 23 32 25 91 26
REMARK H PARENT 90 36 84 38 86 40 89 42 83 43 51 52 54 54 87 57 52 58 88 60
REMARK H PARENT 8 95 8 96 9 98 9 99 10 102 14 108 27 111 26 112 29 114 16 117
REMARK H PARENT 17 118 19 123 25 125 22 127 21 129 24 131
REMARK Flexibility Score: inf
ROOT
ATOM      1  C   UNL A   1      34.125  25.446  25.662  1.00  0.00    -0.052 C 
ATOM      2  H   UNL A   1      33.864  25.283  24.638  1.00  0.00     0.027 H 
ATOM      3  H   UNL A   1      35.055  25.959  25.792  1.00  0.00     0.027 H 
ENDROOT
BRANCH   1   4
ATOM      4  C   UNL A   1      34.301  24.077  26.328  1.00  0.00    -0.052 C 
ATOM      5  H   UNL A   1      34.459  24.235  27.374  1.00  0.00     0.027 H 
ATOM      6  H   UNL A   1      33.412  23.523  26.111  1.00  0.00     0.027 H 
BRANCH   4   7
ATOM      7  C   UNL A   1      35.464  23.243  25.795  1.00  0.00    -0.036 C 
ATOM      8  H   UNL A   1      35.493  22.321  26.339  1.00  0.00     0.028 H 
ATOM      9  H   UNL A   1      35.286  23.103  24.749  1.00  0.00     0.028 H 
BRANCH   7  10
ATOM     10  C   UNL A   1      36.825  23.909  25.917  1.00  0.00     0.018 C 
ATOM     11  H   UNL A   1      36.998  24.503  25.044  1.00  0.00     0.049 H 
ATOM     12  H   UNL A   1      36.818  24.509  26.803  1.00  0.00     0.049 H 
BRANCH  10  13
ATOM     13  N   UNL A   1      37.902  22.942  26.044  1.00  0.00    -0.352 N 
ATOM     14  O   UNL A   1      40.035  22.268  26.378  1.00  0.00    -0.269 OA
ATOM     15  C   UNL A   1      39.182  23.143  26.496  1.00  0.00     0.251 C 
ATOM     16  H   UNL A   1      37.685  22.021  25.771  1.00  0.00     0.163 HD
BRANCH  15  17
ATOM     17  C   UNL A   1      39.529  24.435  27.121  1.00  0.00     0.039 A 
ATOM     18  C   UNL A   1      39.188  24.685  28.454  1.00  0.00    -0.049 A 
ATOM     19  C   UNL A   1      40.217  25.395  26.375  1.00  0.00    -0.049 A 
ATOM     20  C   UNL A   1      39.441  25.932  29.009  1.00  0.00    -0.053 A 
ATOM     21  H   UNL A   1      38.749  23.945  29.023  1.00  0.00     0.063 H 
ATOM     22  C   UNL A   1      40.551  26.617  26.964  1.00  0.00    -0.053 A 
ATOM     23  H   UNL A   1      40.476  25.204  25.395  1.00  0.00     0.063 H 
ATOM     24  C   UNL A   1      40.165  26.893  28.285  1.00  0.00    -0.014 A 
ATOM     25  H   UNL A   1      39.096  26.153  29.957  1.00  0.00     0.063 H 
ATOM     26  H   UNL A   1      41.084  27.319  26.426  1.00  0.00     0.063 H 
BRANCH  24  27
ATOM     27  C   UNL A   1      40.638  28.112  28.983  1.00  0.00     0.031 A 
ATOM     28  C   UNL A   1      42.041  28.229  29.499  1.00  0.00     0.074 A 
ATOM     29  C   UNL A   1      39.755  29.115  29.157  1.00  0.00     0.049 A 
ATOM     30  N   UNL A   1      42.590  29.217  30.162  1.00  0.00    -0.248 NA
ATOM     31  C   UNL A   1      42.947  27.098  29.249  1.00  0.00    -0.034 C 
ATOM     32  C   UNL A   1      38.358  29.091  28.711  1.00  0.00    -0.036 A 
ATOM     33  N   UNL A   1      39.889  30.343  29.751  1.00  0.00    -0.354 N 
ATOM     34  C   UNL A   1      43.894  28.820  30.425  1.00  0.00     0.074 A 
ATOM     35  C   UNL A   1      44.055  27.497  29.862  1.00  0.00    -0.034 C 
ATOM     36  H   UNL A   1      42.767  26.223  28.732  1.00  0.00     0.065 H 
ATOM     37  C   UNL A   1      37.773  30.254  29.026  1.00  0.00    -0.036 A 
ATOM     38  H   UNL A   1      37.898  28.302  28.231  1.00  0.00     0.065 H 
ATOM     39  C   UNL A   1      38.726  31.074  29.761  1.00  0.00     0.049 A 
ATOM     40  H   UNL A   1      40.735  30.669  30.133  1.00  0.00     0.167 HD
ATOM     41  C   UNL A   1      44.859  29.509  31.080  1.00  0.00     0.037 A 
ATOM     42  H   UNL A   1      44.919  26.937  29.927  1.00  0.00     0.065 H 
ATOM     43  H   UNL A   1      36.806  30.525  28.786  1.00  0.00     0.065 H 
ATOM     44  C   UNL A   1      38.441  32.255  30.339  1.00  0.00     0.037 A 
ATOM     45  C   UNL A   1      44.684  30.834  31.619  1.00  0.00     0.049 A 
ATOM     46  C   UNL A   1      39.528  32.968  31.092  1.00  0.00     0.074 A 
ATOM     47  C   UNL A   1      45.627  31.647  32.226  1.00  0.00    -0.036 A 
ATOM     48  N   UNL A   1      43.487  31.535  31.632  1.00  0.00    -0.354 N 
ATOM     49  N   UNL A   1      40.779  32.620  31.263  1.00  0.00    -0.248 NA
ATOM     50  C   UNL A   1      39.161  34.233  31.740  1.00  0.00    -0.034 C 
ATOM     51  C   UNL A   1      44.984  32.806  32.670  1.00  0.00    -0.036 A 
ATOM     52  H   UNL A   1      46.631  31.433  32.333  1.00  0.00     0.065 H 
ATOM     53  C   UNL A   1      43.656  32.746  32.285  1.00  0.00     0.049 A 
ATOM     54  H   UNL A   1      42.643  31.218  31.238  1.00  0.00     0.167 HD
ATOM     55  C   UNL A   1      41.351  33.625  32.027  1.00  0.00     0.074 A 
ATOM     56  C   UNL A   1      40.319  34.614  32.257  1.00  0.00    -0.034 C 
ATOM     57  H   UNL A   1      38.242  34.703  31.783  1.00  0.00     0.065 H 
ATOM     58  H   UNL A   1      45.426  33.577  33.197  1.00  0.00     0.065 H 
ATOM     59  C   UNL A   1      42.615  33.716  32.507  1.00  0.00     0.037 A 
ATOM     60  H   UNL A   1      40.468  35.504  32.759  1.00  0.00     0.065 H 
BRANCH  41  61
ATOM     61  C   UNL A   1      46.195  28.855  31.283  1.00  0.00     0.064 A 
ATOM     62  C   UNL A   1      46.463  28.049  32.397  1.00  0.00     0.173 A 
ATOM     63  C   UNL A   1      47.180  28.945  30.285  1.00  0.00     0.173 A 
ATOM     64  F   UNL A   1      45.559  27.934  33.381  1.00  0.00    -0.203 F 
ATOM     65  C   UNL A   1      47.669  27.359  32.507  1.00  0.00     0.198 A 
ATOM     66  C   UNL A   1      48.371  28.234  30.386  1.00  0.00     0.198 A 
ATOM     67  F   UNL A   1      46.969  29.697  29.194  1.00  0.00    -0.203 F 
ATOM     68  F   UNL A   1      47.912  26.606  33.589  1.00  0.00    -0.200 F 
ATOM     69  C   UNL A   1      48.616  27.442  31.497  1.00  0.00     0.200 A 
ATOM     70  F   UNL A   1      49.278  28.302  29.401  1.00  0.00    -0.200 F 
ATOM     71  F   UNL A   1      49.763  26.755  31.593  1.00  0.00    -0.200 F 
ENDBRANCH  41  61
BRANCH  44  72
ATOM     72  C   UNL A   1      37.062  32.805  30.275  1.00  0.00     0.064 A 
ATOM     73  C   UNL A   1      36.665  33.653  29.232  1.00  0.00     0.173 A 
ATOM     74  C   UNL A   1      36.118  32.516  31.273  1.00  0.00     0.173 A 
ATOM     75  F   UNL A   1      37.535  33.973  28.262  1.00  0.00    -0.203 F 
ATOM     76  C   UNL A   1      35.392  34.218  29.209  1.00  0.00     0.198 A 
ATOM     77  C   UNL A   1      34.833  33.049  31.227  1.00  0.00     0.198 A 
ATOM     78  F   UNL A   1      36.442  31.705  32.291  1.00  0.00    -0.203 F 
ATOM     79  F   UNL A   1      35.062  35.077  28.236  1.00  0.00    -0.200 F 
ATOM     80  C   UNL A   1      34.476  33.912  30.204  1.00  0.00     0.200 A 
ATOM     81  F   UNL A   1      33.946  32.733  32.180  1.00  0.00    -0.200 F 
ATOM     82  F   UNL A   1      33.252  34.458  30.183  1.00  0.00    -0.200 F 
ENDBRANCH  44  72
BRANCH  59  83
ATOM     83  C   UNL A   1      42.949  34.931  33.321  1.00  0.00     0.064 A 
ATOM     84  C   UNL A   1      43.319  36.140  32.713  1.00  0.00     0.173 A 
ATOM     85  C   UNL A   1      42.865  34.897  34.721  1.00  0.00     0.173 A 
ATOM     86  F   UNL A   1      43.434  36.217  31.378  1.00  0.00    -0.203 F 
ATOM     87  C   UNL A   1      43.617  37.264  33.478  1.00  0.00     0.198 A 
ATOM     88  C   UNL A   1      43.129  36.034  35.481  1.00  0.00     0.198 A 
ATOM     89  F   UNL A   1      42.511  33.767  35.351  1.00  0.00    -0.203 F 
ATOM     90  F   UNL A   1      44.018  38.393  32.878  1.00  0.00    -0.200 F 
ATOM     91  C   UNL A   1      43.512  37.212  34.860  1.00  0.00     0.200 A 
ATOM     92  F   UNL A   1      43.013  35.986  36.815  1.00  0.00    -0.200 F 
ATOM     93  F   UNL A   1      43.788  38.298  35.594  1.00  0.00    -0.200 F 
ENDBRANCH  59  83
ENDBRANCH  24  27
ENDBRANCH  15  17
ENDBRANCH  10  13
ENDBRANCH   7  10
ENDBRANCH   4   7
ENDBRANCH   1   4
BRANCH   1  94
ATOM     94  C   UNL A   1      33.054  26.346  26.287  1.00  0.00    -0.036 C 
ATOM     95  H   UNL A   1      33.247  26.409  27.338  1.00  0.00     0.028 H 
ATOM     96  H   UNL A   1      32.112  25.896  26.057  1.00  0.00     0.028 H 
BRANCH  94  97
ATOM     97  C   UNL A   1      33.003  27.763  25.728  1.00  0.00     0.018 C 
ATOM     98  H   UNL A   1      33.686  27.837  24.908  1.00  0.00     0.049 H 
ATOM     99  H   UNL A   1      33.268  28.439  26.515  1.00  0.00     0.049 H 
BRANCH  97 100
ATOM    100  N   UNL A   1      31.676  28.117  25.264  1.00  0.00    -0.352 N 
ATOM    101  C   UNL A   1      31.018  27.668  24.148  1.00  0.00     0.255 C 
ATOM    102  H   UNL A   1      31.185  28.762  25.821  1.00  0.00     0.163 HD
ATOM    103  O   UNL A   1      29.925  28.139  23.843  1.00  0.00    -0.269 OA
BRANCH 101 104
ATOM    104  C   UNL A   1      31.665  26.685  23.256  1.00  0.00     0.082 A 
ATOM    105  C   UNL A   1      31.486  25.332  23.576  1.00  0.00    -0.038 A 
ATOM    106  C   UNL A   1      32.434  27.051  22.150  1.00  0.00     0.128 A 
ATOM    107  C   UNL A   1      32.036  24.328  22.771  1.00  0.00    -0.025 A 
ATOM    108  H   UNL A   1      30.942  25.074  24.414  1.00  0.00     0.064 H 
ATOM    109  C   UNL A   1      32.979  26.066  21.333  1.00  0.00    -0.019 A 
ATOM    110  C   UNL A   1      32.774  24.715  21.641  1.00  0.00    -0.051 A 
ATOM    111  H   UNL A   1      33.534  26.329  20.503  1.00  0.00     0.066 H 
ATOM    112  H   UNL A   1      33.171  23.990  21.023  1.00  0.00     0.063 H 
BRANCH 106 113
ATOM    113  O   UNL A   1      32.648  28.368  21.854  1.00  0.00    -0.507 OA
ATOM    114  H   UNL A   1      32.192  28.767  21.139  1.00  0.00     0.293 HD
ENDBRANCH 106 113
BRANCH 107 115
ATOM    115  C   UNL A   1      31.887  22.889  23.056  1.00  0.00    -0.054 C 
ATOM    116  C   UNL A   1      32.819  22.097  23.610  1.00  0.00    -0.054 C 
ATOM    117  H   UNL A   1      30.985  22.453  22.808  1.00  0.00     0.063 H 
ATOM    118  H   UNL A   1      33.719  22.518  23.889  1.00  0.00     0.063 H 
BRANCH 116 119
ATOM    119  C   UNL A   1      32.619  20.659  23.839  1.00  0.00    -0.018 A 
ATOM    120  C   UNL A   1      32.313  19.786  22.786  1.00  0.00    -0.013 A 
ATOM    121  C   UNL A   1      32.809  20.143  25.128  1.00  0.00    -0.013 A 
ATOM    122  C   UNL A   1      32.180  18.421  23.036  1.00  0.00     0.119 A 
ATOM    123  H   UNL A   1      32.186  20.152  21.830  1.00  0.00     0.067 H 
ATOM    124  C   UNL A   1      32.670  18.776  25.354  1.00  0.00     0.119 A 
ATOM    125  H   UNL A   1      33.053  20.775  25.907  1.00  0.00     0.067 H 
ATOM    126  C   UNL A   1      32.352  17.910  24.315  1.00  0.00     0.022 A 
ATOM    127  H   UNL A   1      32.246  16.898  24.492  1.00  0.00     0.070 H 
BRANCH 122 128
ATOM    128  O   UNL A   1      31.888  17.544  22.032  1.00  0.00    -0.508 OA
ATOM    129  H   UNL A   1      32.171  17.721  21.157  1.00  0.00     0.293 HD
ENDBRANCH 122 128
BRANCH 124 130
ATOM    130  O   UNL A   1      32.844  18.242  26.598  1.00  0.00    -0.508 OA
ATOM    131  H   UNL A   1      33.708  18.099  26.929  1.00  0.00     0.293 HD
ENDBRANCH 124 130
ENDBRANCH 116 119
ENDBRANCH 107 115
ENDBRANCH 101 104
ENDBRANCH  97 100
ENDBRANCH  94  97
ENDBRANCH   1  94
TORSDOF 18
ENDMDL
MODEL 8
REMARK VINA RESULT:     -12.4      6.113     11.894
REMARK SMILES O=C(NCCCCCCNC(=O)c1cc(/C=C/c2cc(O)cc(O)c2)ccc1O)c1ccc(-c2c3nc(c(-c4c(F)c(F)c(F)c(F)c4F)c4ccc([nH]4)c(-c4c(F)c(F)c(F)c(F)c4F)c4nc(c(-c5c(F)c(F)c(F)c(F)c5F)c5ccc2[nH]5)C=C4)C=C3)cc1
REMARK SMILES IDX 7 1 6 4 5 7 4 10 3 13 1 14 2 15 30 17 31 18 92 19 32 20
REMARK SMILES IDX 91 22 33 24 34 27 35 28 85 29 36 30 90 31 84 32 86 33 37 34
REMARK SMILES IDX 89 35 83 37 82 39 38 41 70 44 50 45 69 46 51 47 54 48 68 49
REMARK SMILES IDX 87 50 52 51 53 53 67 55 88 56 55 59 39 61 40 62 48 63 41 64
REMARK SMILES IDX 42 65 46 66 49 67 43 68 44 69 47 70 45 71 71 72 72 73 80 74
REMARK SMILES IDX 73 75 74 76 78 77 81 78 75 79 76 80 79 81 77 82 56 83 57 84
REMARK SMILES IDX 65 85 58 86 59 87 63 88 66 89 60 90 61 91 64 92 62 93 8 94
REMARK SMILES IDX 9 97 10 100 11 101 12 103 13 104 14 105 28 106 15 107 27 109
REMARK SMILES IDX 26 110 29 113 16 115 17 116 18 119 19 120 25 121 20 122
REMARK SMILES IDX 23 124 22 126 21 128 24 130
REMARK H PARENT 7 2 7 3 6 5 6 6 5 8 5 9 4 11 4 12 3 16 31 21 92 23 32 25 91 26
REMARK H PARENT 90 36 84 38 86 40 89 42 83 43 51 52 54 54 87 57 52 58 88 60
REMARK H PARENT 8 95 8 96 9 98 9 99 10 102 14 108 27 111 26 112 29 114 16 117
REMARK H PARENT 17 118 19 123 25 125 22 127 21 129 24 131
REMARK Flexibility Score: inf
ROOT
ATOM      1  C   UNL A   1      37.162  22.255  24.624  1.00  0.00    -0.052 C 
ATOM      2  H   UNL A   1      37.935  22.215  23.886  1.00  0.00     0.027 H 
ATOM      3  H   UNL A   1      37.477  22.685  25.552  1.00  0.00     0.027 H 
ENDROOT
BRANCH   1   4
ATOM      4  C   UNL A   1      36.740  20.818  24.945  1.00  0.00    -0.052 C 
ATOM      5  H   UNL A   1      36.259  20.819  25.901  1.00  0.00     0.027 H 
ATOM      6  H   UNL A   1      36.098  20.510  24.146  1.00  0.00     0.027 H 
BRANCH   4   7
ATOM      7  C   UNL A   1      37.880  19.802  24.990  1.00  0.00    -0.036 C 
ATOM      8  H   UNL A   1      37.520  18.915  25.468  1.00  0.00     0.028 H 
ATOM      9  H   UNL A   1      38.181  19.637  23.976  1.00  0.00     0.028 H 
BRANCH   7  10
ATOM     10  C   UNL A   1      39.117  20.277  25.737  1.00  0.00     0.018 C 
ATOM     11  H   UNL A   1      39.550  21.095  25.201  1.00  0.00     0.049 H 
ATOM     12  H   UNL A   1      38.813  20.569  26.720  1.00  0.00     0.049 H 
BRANCH  10  13
ATOM     13  N   UNL A   1      40.114  19.229  25.873  1.00  0.00    -0.352 N 
ATOM     14  O   UNL A   1      42.207  18.383  26.000  1.00  0.00    -0.269 OA
ATOM     15  C   UNL A   1      41.463  19.356  26.084  1.00  0.00     0.251 C 
ATOM     16  H   UNL A   1      39.777  18.306  25.807  1.00  0.00     0.163 HD
BRANCH  15  17
ATOM     17  C   UNL A   1      42.018  20.686  26.408  1.00  0.00     0.039 A 
ATOM     18  C   UNL A   1      42.284  21.603  25.386  1.00  0.00    -0.049 A 
ATOM     19  C   UNL A   1      42.257  21.023  27.742  1.00  0.00    -0.049 A 
ATOM     20  C   UNL A   1      42.886  22.817  25.688  1.00  0.00    -0.053 A 
ATOM     21  H   UNL A   1      42.035  21.378  24.411  1.00  0.00     0.063 H 
ATOM     22  C   UNL A   1      42.779  22.281  28.052  1.00  0.00    -0.053 A 
ATOM     23  H   UNL A   1      42.051  20.348  28.494  1.00  0.00     0.063 H 
ATOM     24  C   UNL A   1      43.097  23.186  27.027  1.00  0.00    -0.014 A 
ATOM     25  H   UNL A   1      43.178  23.450  24.927  1.00  0.00     0.063 H 
ATOM     26  H   UNL A   1      42.931  22.547  29.038  1.00  0.00     0.063 H 
BRANCH  24  27
ATOM     27  C   UNL A   1      43.503  24.578  27.332  1.00  0.00     0.031 A 
ATOM     28  C   UNL A   1      42.525  25.588  27.853  1.00  0.00     0.074 A 
ATOM     29  C   UNL A   1      44.789  24.917  27.109  1.00  0.00     0.049 A 
ATOM     30  N   UNL A   1      42.723  26.853  28.131  1.00  0.00    -0.248 NA
ATOM     31  C   UNL A   1      41.148  25.131  28.089  1.00  0.00    -0.034 C 
ATOM     32  C   UNL A   1      45.816  24.013  26.582  1.00  0.00    -0.036 A 
ATOM     33  N   UNL A   1      45.455  26.101  27.290  1.00  0.00    -0.354 N 
ATOM     34  C   UNL A   1      41.497  27.346  28.554  1.00  0.00     0.074 A 
ATOM     35  C   UNL A   1      40.554  26.251  28.486  1.00  0.00    -0.034 C 
ATOM     36  H   UNL A   1      40.747  24.187  27.975  1.00  0.00     0.065 H 
ATOM     37  C   UNL A   1      46.983  24.666  26.505  1.00  0.00    -0.036 A 
ATOM     38  H   UNL A   1      45.664  23.028  26.314  1.00  0.00     0.065 H 
ATOM     39  C   UNL A   1      46.772  26.052  26.901  1.00  0.00     0.049 A 
ATOM     40  H   UNL A   1      45.031  26.909  27.662  1.00  0.00     0.167 HD
ATOM     41  C   UNL A   1      41.198  28.604  28.957  1.00  0.00     0.037 A 
ATOM     42  H   UNL A   1      39.551  26.329  28.717  1.00  0.00     0.065 H 
ATOM     43  H   UNL A   1      47.884  24.256  26.213  1.00  0.00     0.065 H 
ATOM     44  C   UNL A   1      47.698  27.025  26.827  1.00  0.00     0.037 A 
ATOM     45  C   UNL A   1      42.156  29.679  29.035  1.00  0.00     0.049 A 
ATOM     46  C   UNL A   1      47.315  28.416  27.245  1.00  0.00     0.074 A 
ATOM     47  C   UNL A   1      41.968  30.966  29.511  1.00  0.00    -0.036 A 
ATOM     48  N   UNL A   1      43.474  29.600  28.611  1.00  0.00    -0.354 N 
ATOM     49  N   UNL A   1      46.175  28.851  27.721  1.00  0.00    -0.248 NA
ATOM     50  C   UNL A   1      48.346  29.453  27.109  1.00  0.00    -0.034 C 
ATOM     51  C   UNL A   1      43.150  31.684  29.308  1.00  0.00    -0.036 A 
ATOM     52  H   UNL A   1      41.104  31.331  29.940  1.00  0.00     0.065 H 
ATOM     53  C   UNL A   1      44.095  30.830  28.765  1.00  0.00     0.049 A 
ATOM     54  H   UNL A   1      43.905  28.790  28.253  1.00  0.00     0.167 HD
ATOM     55  C   UNL A   1      46.352  30.206  27.950  1.00  0.00     0.074 A 
ATOM     56  C   UNL A   1      47.721  30.515  27.594  1.00  0.00    -0.034 C 
ATOM     57  H   UNL A   1      49.304  29.375  26.733  1.00  0.00     0.065 H 
ATOM     58  H   UNL A   1      43.293  32.683  29.527  1.00  0.00     0.065 H 
ATOM     59  C   UNL A   1      45.458  31.118  28.402  1.00  0.00     0.037 A 
ATOM     60  H   UNL A   1      48.156  31.444  27.706  1.00  0.00     0.065 H 
BRANCH  41  61
ATOM     61  C   UNL A   1      39.779  28.919  29.333  1.00  0.00     0.064 A 
ATOM     62  C   UNL A   1      38.840  29.348  28.386  1.00  0.00     0.173 A 
ATOM     63  C   UNL A   1      39.328  28.675  30.641  1.00  0.00     0.173 A 
ATOM     64  F   UNL A   1      39.220  29.601  27.124  1.00  0.00    -0.203 F 
ATOM     65  C   UNL A   1      37.502  29.524  28.733  1.00  0.00     0.198 A 
ATOM     66  C   UNL A   1      37.986  28.826  30.978  1.00  0.00     0.198 A 
ATOM     67  F   UNL A   1      40.185  28.256  31.584  1.00  0.00    -0.203 F 
ATOM     68  F   UNL A   1      36.624  29.950  27.815  1.00  0.00    -0.200 F 
ATOM     69  C   UNL A   1      37.074  29.251  30.024  1.00  0.00     0.200 A 
ATOM     70  F   UNL A   1      37.573  28.546  32.222  1.00  0.00    -0.200 F 
ATOM     71  F   UNL A   1      35.782  29.395  30.349  1.00  0.00    -0.200 F 
ENDBRANCH  41  61
BRANCH  44  72
ATOM     72  C   UNL A   1      49.051  26.729  26.287  1.00  0.00     0.064 A 
ATOM     73  C   UNL A   1      49.366  26.974  24.944  1.00  0.00     0.173 A 
ATOM     74  C   UNL A   1      50.049  26.167  27.098  1.00  0.00     0.173 A 
ATOM     75  F   UNL A   1      48.442  27.495  24.123  1.00  0.00    -0.203 F 
ATOM     76  C   UNL A   1      50.615  26.636  24.425  1.00  0.00     0.198 A 
ATOM     77  C   UNL A   1      51.309  25.867  26.589  1.00  0.00     0.198 A 
ATOM     78  F   UNL A   1      49.803  25.918  28.393  1.00  0.00    -0.203 F 
ATOM     79  F   UNL A   1      50.867  26.820  23.123  1.00  0.00    -0.200 F 
ATOM     80  C   UNL A   1      51.585  26.087  25.249  1.00  0.00     0.200 A 
ATOM     81  F   UNL A   1      52.250  25.356  27.394  1.00  0.00    -0.200 F 
ATOM     82  F   UNL A   1      52.785  25.760  24.749  1.00  0.00    -0.200 F 
ENDBRANCH  44  72
BRANCH  59  83
ATOM     83  C   UNL A   1      45.939  32.532  28.543  1.00  0.00     0.064 A 
ATOM     84  C   UNL A   1      46.565  32.978  29.717  1.00  0.00     0.173 A 
ATOM     85  C   UNL A   1      45.803  33.441  27.483  1.00  0.00     0.173 A 
ATOM     86  F   UNL A   1      46.699  32.152  30.766  1.00  0.00    -0.203 F 
ATOM     87  C   UNL A   1      47.017  34.289  29.834  1.00  0.00     0.198 A 
ATOM     88  C   UNL A   1      46.288  34.742  27.591  1.00  0.00     0.198 A 
ATOM     89  F   UNL A   1      45.215  33.064  26.338  1.00  0.00    -0.203 F 
ATOM     90  F   UNL A   1      47.566  34.707  30.982  1.00  0.00    -0.200 F 
ATOM     91  C   UNL A   1      46.886  35.167  28.767  1.00  0.00     0.200 A 
ATOM     92  F   UNL A   1      46.174  35.584  26.555  1.00  0.00    -0.200 F 
ATOM     93  F   UNL A   1      47.332  36.426  28.876  1.00  0.00    -0.200 F 
ENDBRANCH  59  83
ENDBRANCH  24  27
ENDBRANCH  15  17
ENDBRANCH  10  13
ENDBRANCH   7  10
ENDBRANCH   4   7
ENDBRANCH   1   4
BRANCH   1  94
ATOM     94  C   UNL A   1      36.047  23.163  24.095  1.00  0.00    -0.036 C 
ATOM     95  H   UNL A   1      35.259  22.540  23.725  1.00  0.00     0.028 H 
ATOM     96  H   UNL A   1      36.492  23.775  23.339  1.00  0.00     0.028 H 
BRANCH  94  97
ATOM     97  C   UNL A   1      35.454  24.117  25.125  1.00  0.00     0.018 C 
ATOM     98  H   UNL A   1      36.242  24.491  25.744  1.00  0.00     0.049 H 
ATOM     99  H   UNL A   1      34.733  23.575  25.701  1.00  0.00     0.049 H 
BRANCH  97 100
ATOM    100  N   UNL A   1      34.777  25.237  24.503  1.00  0.00    -0.352 N 
ATOM    101  C   UNL A   1      33.430  25.473  24.412  1.00  0.00     0.255 C 
ATOM    102  H   UNL A   1      35.360  25.916  24.093  1.00  0.00     0.163 HD
ATOM    103  O   UNL A   1      33.012  26.430  23.766  1.00  0.00    -0.269 OA
BRANCH 101 104
ATOM    104  C   UNL A   1      32.473  24.521  25.010  1.00  0.00     0.082 A 
ATOM    105  C   UNL A   1      32.661  23.165  24.706  1.00  0.00    -0.038 A 
ATOM    106  C   UNL A   1      31.416  24.918  25.831  1.00  0.00     0.128 A 
ATOM    107  C   UNL A   1      31.822  22.187  25.251  1.00  0.00    -0.025 A 
ATOM    108  H   UNL A   1      33.426  22.886  24.072  1.00  0.00     0.064 H 
ATOM    109  C   UNL A   1      30.579  23.957  26.390  1.00  0.00    -0.019 A 
ATOM    110  C   UNL A   1      30.787  22.602  26.106  1.00  0.00    -0.051 A 
ATOM    111  H   UNL A   1      29.806  24.243  27.012  1.00  0.00     0.066 H 
ATOM    112  H   UNL A   1      30.170  21.896  26.534  1.00  0.00     0.063 H 
BRANCH 106 113
ATOM    113  O   UNL A   1      31.201  26.241  26.100  1.00  0.00    -0.507 OA
ATOM    114  H   UNL A   1      31.348  26.883  25.434  1.00  0.00     0.293 HD
ENDBRANCH 106 113
BRANCH 107 115
ATOM    115  C   UNL A   1      31.965  20.747  24.967  1.00  0.00    -0.054 C 
ATOM    116  C   UNL A   1      32.945  19.950  25.422  1.00  0.00    -0.054 C 
ATOM    117  H   UNL A   1      31.247  20.314  24.365  1.00  0.00     0.063 H 
ATOM    118  H   UNL A   1      33.659  20.356  26.046  1.00  0.00     0.063 H 
BRANCH 116 119
ATOM    119  C   UNL A   1      33.049  18.526  25.075  1.00  0.00    -0.018 A 
ATOM    120  C   UNL A   1      33.656  18.105  23.884  1.00  0.00    -0.013 A 
ATOM    121  C   UNL A   1      32.594  17.568  25.992  1.00  0.00    -0.013 A 
ATOM    122  C   UNL A   1      33.780  16.744  23.614  1.00  0.00     0.119 A 
ATOM    123  H   UNL A   1      34.009  18.801  23.208  1.00  0.00     0.067 H 
ATOM    124  C   UNL A   1      32.727  16.212  25.699  1.00  0.00     0.119 A 
ATOM    125  H   UNL A   1      32.163  17.866  26.880  1.00  0.00     0.067 H 
ATOM    126  C   UNL A   1      33.315  15.793  24.513  1.00  0.00     0.022 A 
ATOM    127  H   UNL A   1      33.406  14.786  24.302  1.00  0.00     0.070 H 
BRANCH 122 128
ATOM    128  O   UNL A   1      34.370  16.301  22.465  1.00  0.00    -0.508 OA
ATOM    129  H   UNL A   1      34.763  16.912  21.874  1.00  0.00     0.293 HD
ENDBRANCH 122 128
BRANCH 124 130
ATOM    130  O   UNL A   1      32.291  15.254  26.568  1.00  0.00    -0.508 OA
ATOM    131  H   UNL A   1      31.413  14.935  26.509  1.00  0.00     0.293 HD
ENDBRANCH 124 130
ENDBRANCH 116 119
ENDBRANCH 107 115
ENDBRANCH 101 104
ENDBRANCH  97 100
ENDBRANCH  94  97
ENDBRANCH   1  94
TORSDOF 18
ENDMDL
MODEL 9
REMARK VINA RESULT:     -12.4      5.713     10.818
REMARK SMILES O=C(NCCCCCCNC(=O)c1cc(/C=C/c2cc(O)cc(O)c2)ccc1O)c1ccc(-c2c3nc(c(-c4c(F)c(F)c(F)c(F)c4F)c4ccc([nH]4)c(-c4c(F)c(F)c(F)c(F)c4F)c4nc(c(-c5c(F)c(F)c(F)c(F)c5F)c5ccc2[nH]5)C=C4)C=C3)cc1
REMARK SMILES IDX 7 1 6 4 5 7 4 10 3 13 1 14 2 15 30 17 31 18 92 19 32 20
REMARK SMILES IDX 91 22 33 24 34 27 35 28 85 29 36 30 90 31 84 32 86 33 37 34
REMARK SMILES IDX 89 35 83 37 82 39 38 41 70 44 50 45 69 46 51 47 54 48 68 49
REMARK SMILES IDX 87 50 52 51 53 53 67 55 88 56 55 59 39 61 40 62 48 63 41 64
REMARK SMILES IDX 42 65 46 66 49 67 43 68 44 69 47 70 45 71 71 72 72 73 80 74
REMARK SMILES IDX 73 75 74 76 78 77 81 78 75 79 76 80 79 81 77 82 56 83 57 84
REMARK SMILES IDX 65 85 58 86 59 87 63 88 66 89 60 90 61 91 64 92 62 93 8 94
REMARK SMILES IDX 9 97 10 100 11 101 12 103 13 104 14 105 28 106 15 107 27 109
REMARK SMILES IDX 26 110 29 113 16 115 17 116 18 119 19 120 25 121 20 122
REMARK SMILES IDX 23 124 22 126 21 128 24 130
REMARK H PARENT 7 2 7 3 6 5 6 6 5 8 5 9 4 11 4 12 3 16 31 21 92 23 32 25 91 26
REMARK H PARENT 90 36 84 38 86 40 89 42 83 43 51 52 54 54 87 57 52 58 88 60
REMARK H PARENT 8 95 8 96 9 98 9 99 10 102 14 108 27 111 26 112 29 114 16 117
REMARK H PARENT 17 118 19 123 25 125 22 127 21 129 24 131
REMARK Flexibility Score: inf
ROOT
ATOM      1  C   UNL A   1      37.089  21.694  25.058  1.00  0.00    -0.052 C 
ATOM      2  H   UNL A   1      37.593  21.995  24.164  1.00  0.00     0.027 H 
ATOM      3  H   UNL A   1      37.611  21.957  25.955  1.00  0.00     0.027 H 
ENDROOT
BRANCH   1   4
ATOM      4  C   UNL A   1      36.995  20.165  25.057  1.00  0.00    -0.052 C 
ATOM      5  H   UNL A   1      36.600  19.856  26.002  1.00  0.00     0.027 H 
ATOM      6  H   UNL A   1      36.369  19.905  24.229  1.00  0.00     0.027 H 
BRANCH   4   7
ATOM      7  C   UNL A   1      38.319  19.435  24.836  1.00  0.00    -0.036 C 
ATOM      8  H   UNL A   1      38.149  18.386  24.966  1.00  0.00     0.028 H 
ATOM      9  H   UNL A   1      38.644  19.685  23.847  1.00  0.00     0.028 H 
BRANCH   7  10
ATOM     10  C   UNL A   1      39.435  19.856  25.778  1.00  0.00     0.018 C 
ATOM     11  H   UNL A   1      39.860  20.772  25.422  1.00  0.00     0.049 H 
ATOM     12  H   UNL A   1      39.014  19.974  26.753  1.00  0.00     0.049 H 
BRANCH  10  13
ATOM     13  N   UNL A   1      40.488  18.858  25.866  1.00  0.00    -0.352 N 
ATOM     14  O   UNL A   1      42.624  18.119  25.931  1.00  0.00    -0.269 OA
ATOM     15  C   UNL A   1      41.832  19.049  26.057  1.00  0.00     0.251 C 
ATOM     16  H   UNL A   1      40.197  17.921  25.778  1.00  0.00     0.163 HD
BRANCH  15  17
ATOM     17  C   UNL A   1      42.325  20.396  26.409  1.00  0.00     0.039 A 
ATOM     18  C   UNL A   1      42.858  21.230  25.421  1.00  0.00    -0.049 A 
ATOM     19  C   UNL A   1      42.235  20.835  27.732  1.00  0.00    -0.049 A 
ATOM     20  C   UNL A   1      43.397  22.460  25.772  1.00  0.00    -0.053 A 
ATOM     21  H   UNL A   1      42.851  20.931  24.433  1.00  0.00     0.063 H 
ATOM     22  C   UNL A   1      42.696  22.110  28.068  1.00  0.00    -0.053 A 
ATOM     23  H   UNL A   1      41.832  20.222  28.457  1.00  0.00     0.063 H 
ATOM     24  C   UNL A   1      43.280  22.930  27.090  1.00  0.00    -0.014 A 
ATOM     25  H   UNL A   1      43.885  23.029  25.063  1.00  0.00     0.063 H 
ATOM     26  H   UNL A   1      42.606  22.451  29.039  1.00  0.00     0.063 H 
BRANCH  24  27
ATOM     27  C   UNL A   1      43.634  24.339  27.384  1.00  0.00     0.031 A 
ATOM     28  C   UNL A   1      42.606  25.332  27.836  1.00  0.00     0.074 A 
ATOM     29  C   UNL A   1      44.919  24.709  27.213  1.00  0.00     0.049 A 
ATOM     30  N   UNL A   1      42.756  26.607  28.095  1.00  0.00    -0.248 NA
ATOM     31  C   UNL A   1      41.232  24.841  28.017  1.00  0.00    -0.034 C 
ATOM     32  C   UNL A   1      45.994  23.824  26.754  1.00  0.00    -0.036 A 
ATOM     33  N   UNL A   1      45.544  25.915  27.398  1.00  0.00    -0.354 N 
ATOM     34  C   UNL A   1      41.498  27.075  28.449  1.00  0.00     0.074 A 
ATOM     35  C   UNL A   1      40.590  25.952  28.362  1.00  0.00    -0.034 C 
ATOM     36  H   UNL A   1      40.863  23.884  27.906  1.00  0.00     0.065 H 
ATOM     37  C   UNL A   1      47.145  24.508  26.716  1.00  0.00    -0.036 A 
ATOM     38  H   UNL A   1      45.882  22.829  26.501  1.00  0.00     0.065 H 
ATOM     39  C   UNL A   1      46.878  25.895  27.072  1.00  0.00     0.049 A 
ATOM     40  H   UNL A   1      45.081  26.718  27.732  1.00  0.00     0.167 HD
ATOM     41  C   UNL A   1      41.147  28.332  28.811  1.00  0.00     0.037 A 
ATOM     42  H   UNL A   1      39.576  26.006  28.545  1.00  0.00     0.065 H 
ATOM     43  H   UNL A   1      48.070  24.116  26.475  1.00  0.00     0.065 H 
ATOM     44  C   UNL A   1      47.781  26.891  27.019  1.00  0.00     0.037 A 
ATOM     45  C   UNL A   1      42.071  29.434  28.909  1.00  0.00     0.049 A 
ATOM     46  C   UNL A   1      47.341  28.279  27.389  1.00  0.00     0.074 A 
ATOM     47  C   UNL A   1      41.826  30.725  29.347  1.00  0.00    -0.036 A 
ATOM     48  N   UNL A   1      43.410  29.384  28.549  1.00  0.00    -0.354 N 
ATOM     49  N   UNL A   1      46.168  28.692  27.801  1.00  0.00    -0.248 NA
ATOM     50  C   UNL A   1      48.348  29.342  27.277  1.00  0.00    -0.034 C 
ATOM     51  C   UNL A   1      42.997  31.472  29.184  1.00  0.00    -0.036 A 
ATOM     52  H   UNL A   1      40.933  31.075  29.728  1.00  0.00     0.065 H 
ATOM     53  C   UNL A   1      43.988  30.633  28.705  1.00  0.00     0.049 A 
ATOM     54  H   UNL A   1      43.878  28.579  28.229  1.00  0.00     0.167 HD
ATOM     55  C   UNL A   1      46.297  30.057  28.008  1.00  0.00     0.074 A 
ATOM     56  C   UNL A   1      47.673  30.396  27.710  1.00  0.00    -0.034 C 
ATOM     57  H   UNL A   1      49.325  29.283  26.948  1.00  0.00     0.065 H 
ATOM     58  H   UNL A   1      43.103  32.479  29.387  1.00  0.00     0.065 H 
ATOM     59  C   UNL A   1      45.359  30.952  28.398  1.00  0.00     0.037 A 
ATOM     60  H   UNL A   1      48.077  31.339  27.821  1.00  0.00     0.065 H 
BRANCH  41  61
ATOM     61  C   UNL A   1      39.704  28.615  29.114  1.00  0.00     0.064 A 
ATOM     62  C   UNL A   1      39.166  28.428  30.394  1.00  0.00     0.173 A 
ATOM     63  C   UNL A   1      38.880  29.190  28.132  1.00  0.00     0.173 A 
ATOM     64  F   UNL A   1      39.909  27.877  31.366  1.00  0.00    -0.203 F 
ATOM     65  C   UNL A   1      37.856  28.806  30.681  1.00  0.00     0.198 A 
ATOM     66  C   UNL A   1      37.581  29.590  28.430  1.00  0.00     0.198 A 
ATOM     67  F   UNL A   1      39.350  29.397  26.893  1.00  0.00    -0.203 F 
ATOM     68  F   UNL A   1      37.356  28.605  31.908  1.00  0.00    -0.200 F 
ATOM     69  C   UNL A   1      37.069  29.397  29.704  1.00  0.00     0.200 A 
ATOM     70  F   UNL A   1      36.829  30.176  27.488  1.00  0.00    -0.200 F 
ATOM     71  F   UNL A   1      35.818  29.784  29.990  1.00  0.00    -0.200 F 
ENDBRANCH  41  61
BRANCH  44  72
ATOM     72  C   UNL A   1      49.164  26.622  26.549  1.00  0.00     0.064 A 
ATOM     73  C   UNL A   1      50.162  26.194  27.434  1.00  0.00     0.173 A 
ATOM     74  C   UNL A   1      49.525  26.816  25.206  1.00  0.00     0.173 A 
ATOM     75  F   UNL A   1      49.873  26.009  28.731  1.00  0.00    -0.203 F 
ATOM     76  C   UNL A   1      51.473  26.004  27.003  1.00  0.00     0.198 A 
ATOM     77  C   UNL A   1      50.826  26.587  24.768  1.00  0.00     0.198 A 
ATOM     78  F   UNL A   1      48.607  27.219  24.314  1.00  0.00    -0.203 F 
ATOM     79  F   UNL A   1      52.421  25.658  27.884  1.00  0.00    -0.200 F 
ATOM     80  C   UNL A   1      51.802  26.197  25.670  1.00  0.00     0.200 A 
ATOM     81  F   UNL A   1      51.133  26.755  23.474  1.00  0.00    -0.200 F 
ATOM     82  F   UNL A   1      53.064  26.017  25.256  1.00  0.00    -0.200 F 
ENDBRANCH  44  72
BRANCH  59  83
ATOM     83  C   UNL A   1      45.794  32.382  28.531  1.00  0.00     0.064 A 
ATOM     84  C   UNL A   1      46.346  32.871  29.725  1.00  0.00     0.173 A 
ATOM     85  C   UNL A   1      45.691  33.263  27.444  1.00  0.00     0.173 A 
ATOM     86  F   UNL A   1      46.446  32.073  30.799  1.00  0.00    -0.203 F 
ATOM     87  C   UNL A   1      46.756  34.197  29.833  1.00  0.00     0.198 A 
ATOM     88  C   UNL A   1      46.135  34.579  27.545  1.00  0.00     0.198 A 
ATOM     89  F   UNL A   1      45.175  32.844  26.279  1.00  0.00    -0.203 F 
ATOM     90  F   UNL A   1      47.232  34.655  30.998  1.00  0.00    -0.200 F 
ATOM     91  C   UNL A   1      46.659  35.046  28.740  1.00  0.00     0.200 A 
ATOM     92  F   UNL A   1      46.054  35.393  26.485  1.00  0.00    -0.200 F 
ATOM     93  F   UNL A   1      47.065  36.319  28.843  1.00  0.00    -0.200 F 
ENDBRANCH  59  83
ENDBRANCH  24  27
ENDBRANCH  15  17
ENDBRANCH  10  13
ENDBRANCH   7  10
ENDBRANCH   4   7
ENDBRANCH   1   4
BRANCH   1  94
ATOM     94  C   UNL A   1      35.748  22.433  25.119  1.00  0.00    -0.036 C 
ATOM     95  H   UNL A   1      34.977  21.708  25.281  1.00  0.00     0.028 H 
ATOM     96  H   UNL A   1      35.650  22.953  24.190  1.00  0.00     0.028 H 
BRANCH  94  97
ATOM     97  C   UNL A   1      35.647  23.488  26.215  1.00  0.00     0.018 C 
ATOM     98  H   UNL A   1      35.217  24.376  25.802  1.00  0.00     0.049 H 
ATOM     99  H   UNL A   1      36.633  23.672  26.588  1.00  0.00     0.049 H 
BRANCH  97 100
ATOM    100  N   UNL A   1      34.825  23.043  27.323  1.00  0.00    -0.352 N 
ATOM    101  C   UNL A   1      33.513  22.647  27.303  1.00  0.00     0.255 C 
ATOM    102  H   UNL A   1      35.266  23.023  28.203  1.00  0.00     0.163 HD
ATOM    103  O   UNL A   1      32.930  22.386  28.353  1.00  0.00    -0.269 OA
BRANCH 101 104
ATOM    104  C   UNL A   1      32.768  22.626  26.029  1.00  0.00     0.082 A 
ATOM    105  C   UNL A   1      32.318  23.862  25.544  1.00  0.00    -0.038 A 
ATOM    106  C   UNL A   1      32.496  21.452  25.325  1.00  0.00     0.128 A 
ATOM    107  C   UNL A   1      31.630  23.945  24.328  1.00  0.00    -0.025 A 
ATOM    108  H   UNL A   1      32.497  24.720  26.088  1.00  0.00     0.064 H 
ATOM    109  C   UNL A   1      31.822  21.517  24.110  1.00  0.00    -0.019 A 
ATOM    110  C   UNL A   1      31.399  22.757  23.614  1.00  0.00    -0.051 A 
ATOM    111  H   UNL A   1      31.634  20.655  23.575  1.00  0.00     0.066 H 
ATOM    112  H   UNL A   1      30.911  22.799  22.707  1.00  0.00     0.063 H 
BRANCH 106 113
ATOM    113  O   UNL A   1      32.895  20.239  25.812  1.00  0.00    -0.507 OA
ATOM    114  H   UNL A   1      33.795  19.985  25.754  1.00  0.00     0.293 HD
ENDBRANCH 106 113
BRANCH 107 115
ATOM    115  C   UNL A   1      31.128  25.212  23.766  1.00  0.00    -0.054 C 
ATOM    116  C   UNL A   1      30.057  25.896  24.202  1.00  0.00    -0.054 C 
ATOM    117  H   UNL A   1      31.647  25.610  22.968  1.00  0.00     0.063 H 
ATOM    118  H   UNL A   1      29.538  25.530  25.015  1.00  0.00     0.063 H 
BRANCH 116 119
ATOM    119  C   UNL A   1      29.589  27.140  23.576  1.00  0.00    -0.018 A 
ATOM    120  C   UNL A   1      30.476  28.020  22.941  1.00  0.00    -0.013 A 
ATOM    121  C   UNL A   1      28.214  27.414  23.553  1.00  0.00    -0.013 A 
ATOM    122  C   UNL A   1      29.988  29.164  22.316  1.00  0.00     0.119 A 
ATOM    123  H   UNL A   1      31.489  27.820  22.938  1.00  0.00     0.067 H 
ATOM    124  C   UNL A   1      27.748  28.566  22.923  1.00  0.00     0.119 A 
ATOM    125  H   UNL A   1      27.550  26.764  24.000  1.00  0.00     0.067 H 
ATOM    126  C   UNL A   1      28.628  29.447  22.306  1.00  0.00     0.022 A 
ATOM    127  H   UNL A   1      28.275  30.301  21.845  1.00  0.00     0.070 H 
BRANCH 122 128
ATOM    128  O   UNL A   1      30.825  30.039  21.685  1.00  0.00    -0.508 OA
ATOM    129  H   UNL A   1      31.639  30.278  22.083  1.00  0.00     0.293 HD
ENDBRANCH 122 128
BRANCH 124 130
ATOM    130  O   UNL A   1      26.418  28.864  22.886  1.00  0.00    -0.508 OA
ATOM    131  H   UNL A   1      26.113  29.685  23.219  1.00  0.00     0.293 HD
ENDBRANCH 124 130
ENDBRANCH 116 119
ENDBRANCH 107 115
ENDBRANCH 101 104
ENDBRANCH  97 100
ENDBRANCH  94  97
ENDBRANCH   1  94
TORSDOF 18
ENDMDL
MODEL 10
REMARK VINA RESULT:     -12.4      2.544      5.866
REMARK SMILES O=C(NCCCCCCNC(=O)c1cc(/C=C/c2cc(O)cc(O)c2)ccc1O)c1ccc(-c2c3nc(c(-c4c(F)c(F)c(F)c(F)c4F)c4ccc([nH]4)c(-c4c(F)c(F)c(F)c(F)c4F)c4nc(c(-c5c(F)c(F)c(F)c(F)c5F)c5ccc2[nH]5)C=C4)C=C3)cc1
REMARK SMILES IDX 7 1 6 4 5 7 4 10 3 13 1 14 2 15 30 17 31 18 92 19 32 20
REMARK SMILES IDX 91 22 33 24 34 27 35 28 85 29 36 30 90 31 84 32 86 33 37 34
REMARK SMILES IDX 89 35 83 37 82 39 38 41 70 44 50 45 69 46 51 47 54 48 68 49
REMARK SMILES IDX 87 50 52 51 53 53 67 55 88 56 55 59 39 61 40 62 48 63 41 64
REMARK SMILES IDX 42 65 46 66 49 67 43 68 44 69 47 70 45 71 71 72 72 73 80 74
REMARK SMILES IDX 73 75 74 76 78 77 81 78 75 79 76 80 79 81 77 82 56 83 57 84
REMARK SMILES IDX 65 85 58 86 59 87 63 88 66 89 60 90 61 91 64 92 62 93 8 94
REMARK SMILES IDX 9 97 10 100 11 101 12 103 13 104 14 105 28 106 15 107 27 109
REMARK SMILES IDX 26 110 29 113 16 115 17 116 18 119 19 120 25 121 20 122
REMARK SMILES IDX 23 124 22 126 21 128 24 130
REMARK H PARENT 7 2 7 3 6 5 6 6 5 8 5 9 4 11 4 12 3 16 31 21 92 23 32 25 91 26
REMARK H PARENT 90 36 84 38 86 40 89 42 83 43 51 52 54 54 87 57 52 58 88 60
REMARK H PARENT 8 95 8 96 9 98 9 99 10 102 14 108 27 111 26 112 29 114 16 117
REMARK H PARENT 17 118 19 123 25 125 22 127 21 129 24 131
REMARK Flexibility Score: inf
ROOT
ATOM      1  C   UNL A   1      33.285  29.744  25.868  1.00  0.00    -0.052 C 
ATOM      2  H   UNL A   1      33.929  30.511  26.244  1.00  0.00     0.027 H 
ATOM      3  H   UNL A   1      33.457  29.505  24.839  1.00  0.00     0.027 H 
ENDROOT
BRANCH   1   4
ATOM      4  C   UNL A   1      31.843  30.254  25.949  1.00  0.00    -0.052 C 
ATOM      5  H   UNL A   1      31.532  30.527  24.963  1.00  0.00     0.027 H 
ATOM      6  H   UNL A   1      31.268  29.457  26.373  1.00  0.00     0.027 H 
BRANCH   4   7
ATOM      7  C   UNL A   1      31.634  31.462  26.862  1.00  0.00    -0.036 C 
ATOM      8  H   UNL A   1      30.890  32.091  26.420  1.00  0.00     0.028 H 
ATOM      9  H   UNL A   1      31.340  31.075  27.816  1.00  0.00     0.028 H 
BRANCH   7  10
ATOM     10  C   UNL A   1      32.883  32.296  27.098  1.00  0.00     0.018 C 
ATOM     11  H   UNL A   1      33.440  31.862  27.902  1.00  0.00     0.049 H 
ATOM     12  H   UNL A   1      33.448  32.304  26.191  1.00  0.00     0.049 H 
BRANCH  10  13
ATOM     13  N   UNL A   1      32.569  33.673  27.439  1.00  0.00    -0.352 N 
ATOM     14  O   UNL A   1      32.600  35.535  28.721  1.00  0.00    -0.269 OA
ATOM     15  C   UNL A   1      33.093  34.446  28.443  1.00  0.00     0.251 C 
ATOM     16  H   UNL A   1      31.891  34.110  26.873  1.00  0.00     0.163 HD
BRANCH  15  17
ATOM     17  C   UNL A   1      34.259  33.947  29.200  1.00  0.00     0.039 A 
ATOM     18  C   UNL A   1      34.074  33.114  30.308  1.00  0.00    -0.049 A 
ATOM     19  C   UNL A   1      35.546  34.300  28.788  1.00  0.00    -0.049 A 
ATOM     20  C   UNL A   1      35.168  32.720  31.066  1.00  0.00    -0.053 A 
ATOM     21  H   UNL A   1      33.126  32.795  30.562  1.00  0.00     0.063 H 
ATOM     22  C   UNL A   1      36.652  33.827  29.498  1.00  0.00    -0.053 A 
ATOM     23  H   UNL A   1      35.680  34.906  27.964  1.00  0.00     0.063 H 
ATOM     24  C   UNL A   1      36.469  33.034  30.643  1.00  0.00    -0.014 A 
ATOM     25  H   UNL A   1      35.024  32.193  31.942  1.00  0.00     0.063 H 
ATOM     26  H   UNL A   1      37.606  34.061  29.182  1.00  0.00     0.063 H 
BRANCH  24  27
ATOM     27  C   UNL A   1      37.620  32.393  31.322  1.00  0.00     0.031 A 
ATOM     28  C   UNL A   1      38.330  31.215  30.726  1.00  0.00     0.074 A 
ATOM     29  C   UNL A   1      38.001  32.896  32.513  1.00  0.00     0.049 A 
ATOM     30  N   UNL A   1      39.328  30.525  31.220  1.00  0.00    -0.248 NA
ATOM     31  C   UNL A   1      37.865  30.742  29.415  1.00  0.00    -0.034 C 
ATOM     32  C   UNL A   1      37.361  34.028  33.191  1.00  0.00    -0.036 A 
ATOM     33  N   UNL A   1      39.008  32.529  33.368  1.00  0.00    -0.354 N 
ATOM     34  C   UNL A   1      39.596  29.527  30.293  1.00  0.00     0.074 A 
ATOM     35  C   UNL A   1      38.650  29.691  29.210  1.00  0.00    -0.034 C 
ATOM     36  H   UNL A   1      37.121  31.126  28.811  1.00  0.00     0.065 H 
ATOM     37  C   UNL A   1      38.002  34.277  34.340  1.00  0.00    -0.036 A 
ATOM     38  H   UNL A   1      36.544  34.551  32.838  1.00  0.00     0.065 H 
ATOM     39  C   UNL A   1      39.047  33.278  34.519  1.00  0.00     0.049 A 
ATOM     40  H   UNL A   1      39.642  31.800  33.176  1.00  0.00     0.167 HD
ATOM     41  C   UNL A   1      40.549  28.566  30.353  1.00  0.00     0.037 A 
ATOM     42  H   UNL A   1      38.594  29.072  28.386  1.00  0.00     0.065 H 
ATOM     43  H   UNL A   1      37.792  35.049  34.992  1.00  0.00     0.065 H 
ATOM     44  C   UNL A   1      39.809  33.148  35.621  1.00  0.00     0.037 A 
ATOM     45  C   UNL A   1      41.495  28.430  31.433  1.00  0.00     0.049 A 
ATOM     46  C   UNL A   1      40.826  32.044  35.666  1.00  0.00     0.074 A 
ATOM     47  C   UNL A   1      42.550  27.541  31.545  1.00  0.00    -0.036 A 
ATOM     48  N   UNL A   1      41.490  29.190  32.593  1.00  0.00    -0.354 N 
ATOM     49  N   UNL A   1      41.125  31.158  34.747  1.00  0.00    -0.248 NA
ATOM     50  C   UNL A   1      41.606  31.915  36.903  1.00  0.00    -0.034 C 
ATOM     51  C   UNL A   1      43.138  27.714  32.801  1.00  0.00    -0.036 A 
ATOM     52  H   UNL A   1      42.850  26.865  30.824  1.00  0.00     0.065 H 
ATOM     53  C   UNL A   1      42.490  28.754  33.448  1.00  0.00     0.049 A 
ATOM     54  H   UNL A   1      40.868  29.930  32.782  1.00  0.00     0.167 HD
ATOM     55  C   UNL A   1      42.132  30.375  35.290  1.00  0.00     0.074 A 
ATOM     56  C   UNL A   1      42.418  30.912  36.604  1.00  0.00    -0.034 C 
ATOM     57  H   UNL A   1      41.539  32.461  37.777  1.00  0.00     0.065 H 
ATOM     58  H   UNL A   1      43.921  27.161  33.182  1.00  0.00     0.065 H 
ATOM     59  C   UNL A   1      42.757  29.299  34.754  1.00  0.00     0.037 A 
ATOM     60  H   UNL A   1      43.160  30.559  37.227  1.00  0.00     0.065 H 
BRANCH  41  61
ATOM     61  C   UNL A   1      40.625  27.560  29.242  1.00  0.00     0.064 A 
ATOM     62  C   UNL A   1      39.729  26.486  29.153  1.00  0.00     0.173 A 
ATOM     63  C   UNL A   1      41.537  27.744  28.189  1.00  0.00     0.173 A 
ATOM     64  F   UNL A   1      38.842  26.263  30.135  1.00  0.00    -0.203 F 
ATOM     65  C   UNL A   1      39.744  25.632  28.053  1.00  0.00     0.198 A 
ATOM     66  C   UNL A   1      41.531  26.904  27.079  1.00  0.00     0.198 A 
ATOM     67  F   UNL A   1      42.410  28.761  28.222  1.00  0.00    -0.203 F 
ATOM     68  F   UNL A   1      38.889  24.601  27.995  1.00  0.00    -0.200 F 
ATOM     69  C   UNL A   1      40.635  25.848  27.012  1.00  0.00     0.200 A 
ATOM     70  F   UNL A   1      42.382  27.125  26.068  1.00  0.00    -0.200 F 
ATOM     71  F   UNL A   1      40.629  25.041  25.942  1.00  0.00    -0.200 F 
ENDBRANCH  41  61
BRANCH  44  72
ATOM     72  C   UNL A   1      39.599  34.048  36.784  1.00  0.00     0.064 A 
ATOM     73  C   UNL A   1      40.194  35.316  36.839  1.00  0.00     0.173 A 
ATOM     74  C   UNL A   1      38.820  33.647  37.881  1.00  0.00     0.173 A 
ATOM     75  F   UNL A   1      40.961  35.740  35.823  1.00  0.00    -0.203 F 
ATOM     76  C   UNL A   1      40.048  36.131  37.959  1.00  0.00     0.198 A 
ATOM     77  C   UNL A   1      38.641  34.479  38.982  1.00  0.00     0.198 A 
ATOM     78  F   UNL A   1      38.222  32.447  37.878  1.00  0.00    -0.203 F 
ATOM     79  F   UNL A   1      40.682  37.310  38.012  1.00  0.00    -0.200 F 
ATOM     80  C   UNL A   1      39.268  35.714  39.027  1.00  0.00     0.200 A 
ATOM     81  F   UNL A   1      37.870  34.080  40.002  1.00  0.00    -0.200 F 
ATOM     82  F   UNL A   1      39.130  36.498  40.105  1.00  0.00    -0.200 F 
ENDBRANCH  44  72
BRANCH  59  83
ATOM     83  C   UNL A   1      43.814  28.639  35.588  1.00  0.00     0.064 A 
ATOM     84  C   UNL A   1      43.495  27.634  36.514  1.00  0.00     0.173 A 
ATOM     85  C   UNL A   1      45.164  28.991  35.439  1.00  0.00     0.173 A 
ATOM     86  F   UNL A   1      42.216  27.277  36.708  1.00  0.00    -0.203 F 
ATOM     87  C   UNL A   1      44.486  27.021  37.276  1.00  0.00     0.198 A 
ATOM     88  C   UNL A   1      46.156  28.352  36.178  1.00  0.00     0.198 A 
ATOM     89  F   UNL A   1      45.523  29.944  34.565  1.00  0.00    -0.203 F 
ATOM     90  F   UNL A   1      44.152  26.100  38.189  1.00  0.00    -0.200 F 
ATOM     91  C   UNL A   1      45.816  27.375  37.100  1.00  0.00     0.200 A 
ATOM     92  F   UNL A   1      47.442  28.684  35.996  1.00  0.00    -0.200 F 
ATOM     93  F   UNL A   1      46.770  26.776  37.826  1.00  0.00    -0.200 F 
ENDBRANCH  59  83
ENDBRANCH  24  27
ENDBRANCH  15  17
ENDBRANCH  10  13
ENDBRANCH   7  10
ENDBRANCH   4   7
ENDBRANCH   1   4
BRANCH   1  94
ATOM     94  C   UNL A   1      33.571  28.459  26.652  1.00  0.00    -0.036 C 
ATOM     95  H   UNL A   1      32.782  28.321  27.362  1.00  0.00     0.028 H 
ATOM     96  H   UNL A   1      34.530  28.592  27.107  1.00  0.00     0.028 H 
BRANCH  94  97
ATOM     97  C   UNL A   1      33.670  27.198  25.802  1.00  0.00     0.018 C 
ATOM     98  H   UNL A   1      34.692  26.883  25.767  1.00  0.00     0.049 H 
ATOM     99  H   UNL A   1      33.302  27.429  24.824  1.00  0.00     0.049 H 
BRANCH  97 100
ATOM    100  N   UNL A   1      32.866  26.117  26.337  1.00  0.00    -0.352 N 
ATOM    101  C   UNL A   1      32.999  24.770  26.119  1.00  0.00     0.255 C 
ATOM    102  H   UNL A   1      32.130  26.384  26.933  1.00  0.00     0.163 HD
ATOM    103  O   UNL A   1      32.172  23.985  26.577  1.00  0.00    -0.269 OA
BRANCH 101 104
ATOM    104  C   UNL A   1      34.083  24.267  25.253  1.00  0.00     0.082 A 
ATOM    105  C   UNL A   1      35.232  23.787  25.897  1.00  0.00    -0.038 A 
ATOM    106  C   UNL A   1      34.006  24.267  23.859  1.00  0.00     0.128 A 
ATOM    107  C   UNL A   1      36.299  23.262  25.159  1.00  0.00    -0.025 A 
ATOM    108  H   UNL A   1      35.291  23.820  26.927  1.00  0.00     0.064 H 
ATOM    109  C   UNL A   1      35.054  23.740  23.110  1.00  0.00    -0.019 A 
ATOM    110  C   UNL A   1      36.187  23.235  23.760  1.00  0.00    -0.051 A 
ATOM    111  H   UNL A   1      34.996  23.721  22.080  1.00  0.00     0.066 H 
ATOM    112  H   UNL A   1      36.954  22.834  23.198  1.00  0.00     0.063 H 
BRANCH 106 113
ATOM    113  O   UNL A   1      32.907  24.771  23.221  1.00  0.00    -0.507 OA
ATOM    114  H   UNL A   1      32.751  25.695  23.218  1.00  0.00     0.293 HD
ENDBRANCH 106 113
BRANCH 107 115
ATOM    115  C   UNL A   1      37.534  22.746  25.777  1.00  0.00    -0.054 C 
ATOM    116  C   UNL A   1      38.193  21.635  25.408  1.00  0.00    -0.054 C 
ATOM    117  H   UNL A   1      37.927  23.287  26.563  1.00  0.00     0.063 H 
ATOM    118  H   UNL A   1      37.831  21.093  24.608  1.00  0.00     0.063 H 
BRANCH 116 119
ATOM    119  C   UNL A   1      39.404  21.156  26.087  1.00  0.00    -0.018 A 
ATOM    120  C   UNL A   1      40.009  19.941  25.737  1.00  0.00    -0.013 A 
ATOM    121  C   UNL A   1      40.007  21.970  27.057  1.00  0.00    -0.013 A 
ATOM    122  C   UNL A   1      41.185  19.545  26.370  1.00  0.00     0.119 A 
ATOM    123  H   UNL A   1      39.583  19.341  25.014  1.00  0.00     0.067 H 
ATOM    124  C   UNL A   1      41.182  21.552  27.678  1.00  0.00     0.119 A 
ATOM    125  H   UNL A   1      39.581  22.875  27.309  1.00  0.00     0.067 H 
ATOM    126  C   UNL A   1      41.774  20.341  27.343  1.00  0.00     0.022 A 
ATOM    127  H   UNL A   1      42.643  20.037  27.811  1.00  0.00     0.070 H 
BRANCH 122 128
ATOM    128  O   UNL A   1      41.800  18.370  26.049  1.00  0.00    -0.508 OA
ATOM    129  H   UNL A   1      42.400  17.975  26.650  1.00  0.00     0.293 HD
ENDBRANCH 122 128
BRANCH 124 130
ATOM    130  O   UNL A   1      41.791  22.318  28.628  1.00  0.00    -0.508 OA
ATOM    131  H   UNL A   1      41.894  21.989  29.499  1.00  0.00     0.293 HD
ENDBRANCH 124 130
ENDBRANCH 116 119
ENDBRANCH 107 115
ENDBRANCH 101 104
ENDBRANCH  97 100
ENDBRANCH  94  97
ENDBRANCH   1  94
TORSDOF 18
ENDMDL
