MODEL 1
REMARK VINA RESULT:      -9.8      0.000      0.000
REMARK SMILES CC(=O)Oc1ccccc1SCCCCCC(=O)NCCCCCCNC(=O)c1ccc(-c2c3nc(c(-c4c(F)c(F)c(F)c(F)c4F)c4ccc([nH]4)c(-c4c(F)c(F)c(F)c(F)c4F)c4nc(c(-c5c(F)c(F)c(F)c(F)c5F)c5ccc2[nH]5)C=C4)C=C3)cc1
REMARK SMILES IDX 17 1 18 2 19 3 16 5 15 8 14 11 13 14 12 17 11 20 10 21 5 22
REMARK SMILES IDX 6 23 7 24 9 26 8 27 4 31 2 32 3 33 1 34 20 38 21 41 22 44
REMARK SMILES IDX 23 47 24 50 25 53 26 56 27 57 28 59 29 60 30 61 91 62 31 63
REMARK SMILES IDX 90 65 32 67 33 70 34 71 84 72 35 73 89 74 83 75 85 76 36 77
REMARK SMILES IDX 88 78 82 80 81 82 37 84 69 87 49 88 68 89 50 90 53 91 67 92
REMARK SMILES IDX 86 93 51 94 52 96 66 98 87 99 54 102 38 104 39 105 47 106
REMARK SMILES IDX 40 107 41 108 45 109 48 110 42 111 43 112 46 113 44 114
REMARK SMILES IDX 70 115 71 116 79 117 72 118 73 119 77 120 80 121 74 122
REMARK SMILES IDX 75 123 78 124 76 125 55 126 56 127 64 128 57 129 58 130
REMARK SMILES IDX 62 131 65 132 59 133 60 134 63 135 61 136
REMARK H PARENT 19 4 16 6 16 7 15 9 15 10 14 12 14 13 13 15 13 16 12 18 12 19
REMARK H PARENT 6 25 7 28 9 29 8 30 1 35 1 36 1 37 20 39 20 40 21 42 21 43
REMARK H PARENT 22 45 22 46 23 48 23 49 24 51 24 52 25 54 25 55 26 58 30 64
REMARK H PARENT 91 66 31 68 90 69 89 79 83 81 85 83 88 85 82 86 50 95 53 97
REMARK H PARENT 86 100 51 101 87 103
REMARK Flexibility Score: inf
ROOT
ATOM      1  C   UNL A   1      37.206  22.711  24.743  1.00  0.00     0.219 C 
ATOM      2  O   UNL A   1      36.988  21.881  23.858  1.00  0.00    -0.275 OA
ATOM      3  N   UNL A   1      38.380  22.650  25.425  1.00  0.00    -0.356 N 
ATOM      4  H   UNL A   1      39.036  21.996  25.093  1.00  0.00     0.163 HD
ENDROOT
BRANCH   1   5
ATOM      5  C   UNL A   1      36.207  23.803  25.060  1.00  0.00     0.026 C 
ATOM      6  H   UNL A   1      36.630  24.436  25.812  1.00  0.00     0.037 H 
ATOM      7  H   UNL A   1      36.015  24.321  24.143  1.00  0.00     0.037 H 
BRANCH   5   8
ATOM      8  C   UNL A   1      34.856  23.293  25.567  1.00  0.00    -0.044 C 
ATOM      9  H   UNL A   1      34.416  22.736  24.766  1.00  0.00     0.027 H 
ATOM     10  H   UNL A   1      35.113  22.756  26.455  1.00  0.00     0.027 H 
BRANCH   8  11
ATOM     11  C   UNL A   1      33.790  24.297  26.052  1.00  0.00    -0.052 C 
ATOM     12  H   UNL A   1      34.066  24.590  27.044  1.00  0.00     0.027 H 
ATOM     13  H   UNL A   1      33.801  25.058  25.299  1.00  0.00     0.027 H 
BRANCH  11  14
ATOM     14  C   UNL A   1      32.318  23.873  26.108  1.00  0.00    -0.044 C 
ATOM     15  H   UNL A   1      32.141  23.331  25.202  1.00  0.00     0.028 H 
ATOM     16  H   UNL A   1      32.289  23.391  27.062  1.00  0.00     0.028 H 
BRANCH  14  17
ATOM     17  C   UNL A   1      31.131  24.843  26.245  1.00  0.00    -0.002 C 
ATOM     18  H   UNL A   1      30.345  24.251  26.666  1.00  0.00     0.038 H 
ATOM     19  H   UNL A   1      31.633  25.640  26.754  1.00  0.00     0.038 H 
BRANCH  17  20
ATOM     20  S   UNL A   1      30.322  25.820  24.941  1.00  0.00    -0.122 SA
BRANCH  20  21
ATOM     21  C   UNL A   1      31.009  27.456  24.982  1.00  0.00     0.050 A 
ATOM     22  C   UNL A   1      30.578  28.627  24.354  1.00  0.00     0.144 A 
ATOM     23  C   UNL A   1      31.080  29.879  24.755  1.00  0.00    -0.018 A 
ATOM     24  C   UNL A   1      32.059  29.969  25.744  1.00  0.00    -0.058 A 
ATOM     25  H   UNL A   1      30.720  30.739  24.314  1.00  0.00     0.066 H 
ATOM     26  C   UNL A   1      32.069  27.569  25.907  1.00  0.00    -0.045 A 
ATOM     27  C   UNL A   1      32.578  28.808  26.298  1.00  0.00    -0.061 A 
ATOM     28  H   UNL A   1      32.395  30.892  26.059  1.00  0.00     0.062 H 
ATOM     29  H   UNL A   1      32.481  26.709  26.305  1.00  0.00     0.064 H 
ATOM     30  H   UNL A   1      33.336  28.861  26.997  1.00  0.00     0.062 H 
BRANCH  22  31
ATOM     31  O   UNL A   1      29.440  28.745  23.508  1.00  0.00    -0.426 OA
BRANCH  31  32
ATOM     32  C   UNL A   1      29.207  29.558  22.400  1.00  0.00     0.308 C 
ATOM     33  O   UNL A   1      29.959  29.753  21.464  1.00  0.00    -0.252 OA
BRANCH  32  34
ATOM     34  C   UNL A   1      27.830  30.151  22.559  1.00  0.00     0.034 C 
ATOM     35  H   UNL A   1      27.428  30.385  21.596  1.00  0.00     0.035 H 
ATOM     36  H   UNL A   1      27.891  31.044  23.147  1.00  0.00     0.035 H 
ATOM     37  H   UNL A   1      27.192  29.445  23.050  1.00  0.00     0.035 H 
ENDBRANCH  32  34
ENDBRANCH  31  32
ENDBRANCH  22  31
ENDBRANCH  20  21
ENDBRANCH  17  20
ENDBRANCH  14  17
ENDBRANCH  11  14
ENDBRANCH   8  11
ENDBRANCH   5   8
ENDBRANCH   1   5
BRANCH   3  38
ATOM     38  C   UNL A   1      38.790  23.423  26.574  1.00  0.00     0.017 C 
ATOM     39  H   UNL A   1      38.073  23.299  27.358  1.00  0.00     0.049 H 
ATOM     40  H   UNL A   1      38.854  24.454  26.297  1.00  0.00     0.049 H 
BRANCH  38  41
ATOM     41  C   UNL A   1      40.158  22.952  27.064  1.00  0.00    -0.036 C 
ATOM     42  H   UNL A   1      40.266  23.238  28.089  1.00  0.00     0.028 H 
ATOM     43  H   UNL A   1      40.891  23.409  26.433  1.00  0.00     0.028 H 
BRANCH  41  44
ATOM     44  C   UNL A   1      40.357  21.447  26.961  1.00  0.00    -0.052 C 
ATOM     45  H   UNL A   1      39.681  21.065  26.226  1.00  0.00     0.027 H 
ATOM     46  H   UNL A   1      40.174  21.038  27.933  1.00  0.00     0.027 H 
BRANCH  44  47
ATOM     47  C   UNL A   1      41.782  21.049  26.564  1.00  0.00    -0.052 C 
ATOM     48  H   UNL A   1      42.383  21.044  27.450  1.00  0.00     0.027 H 
ATOM     49  H   UNL A   1      42.099  21.767  25.837  1.00  0.00     0.027 H 
BRANCH  47  50
ATOM     50  C   UNL A   1      41.913  19.676  25.892  1.00  0.00    -0.036 C 
ATOM     51  H   UNL A   1      41.904  19.821  24.832  1.00  0.00     0.028 H 
ATOM     52  H   UNL A   1      41.090  19.087  26.241  1.00  0.00     0.028 H 
BRANCH  50  53
ATOM     53  C   UNL A   1      43.183  18.910  26.258  1.00  0.00     0.018 C 
ATOM     54  H   UNL A   1      42.910  17.975  26.701  1.00  0.00     0.049 H 
ATOM     55  H   UNL A   1      43.748  19.504  26.945  1.00  0.00     0.049 H 
BRANCH  53  56
ATOM     56  N   UNL A   1      44.004  18.658  25.085  1.00  0.00    -0.352 N 
ATOM     57  C   UNL A   1      44.620  19.543  24.243  1.00  0.00     0.251 C 
ATOM     58  H   UNL A   1      44.135  17.707  24.863  1.00  0.00     0.163 HD
ATOM     59  O   UNL A   1      44.998  19.181  23.134  1.00  0.00    -0.269 OA
BRANCH  57  60
ATOM     60  C   UNL A   1      44.835  20.935  24.678  1.00  0.00     0.039 A 
ATOM     61  C   UNL A   1      44.427  21.978  23.844  1.00  0.00    -0.049 A 
ATOM     62  C   UNL A   1      45.481  21.207  25.888  1.00  0.00    -0.049 A 
ATOM     63  C   UNL A   1      44.629  23.298  24.244  1.00  0.00    -0.053 A 
ATOM     64  H   UNL A   1      43.980  21.773  22.937  1.00  0.00     0.063 H 
ATOM     65  C   UNL A   1      45.614  22.521  26.320  1.00  0.00    -0.053 A 
ATOM     66  H   UNL A   1      45.857  20.434  26.458  1.00  0.00     0.063 H 
ATOM     67  C   UNL A   1      45.202  23.579  25.496  1.00  0.00    -0.014 A 
ATOM     68  H   UNL A   1      44.358  24.072  23.618  1.00  0.00     0.063 H 
ATOM     69  H   UNL A   1      46.016  22.719  27.249  1.00  0.00     0.063 H 
BRANCH  67  70
ATOM     70  C   UNL A   1      45.388  24.976  25.957  1.00  0.00     0.031 A 
ATOM     71  C   UNL A   1      46.748  25.612  25.902  1.00  0.00     0.074 A 
ATOM     72  C   UNL A   1      44.344  25.645  26.480  1.00  0.00     0.049 A 
ATOM     73  N   UNL A   1      47.127  26.794  26.318  1.00  0.00    -0.248 NA
ATOM     74  C   UNL A   1      47.834  24.800  25.331  1.00  0.00    -0.034 C 
ATOM     75  C   UNL A   1      42.990  25.112  26.630  1.00  0.00    -0.036 A 
ATOM     76  N   UNL A   1      44.262  26.914  26.995  1.00  0.00    -0.354 N 
ATOM     77  C   UNL A   1      48.491  26.863  26.065  1.00  0.00     0.074 A 
ATOM     78  C   UNL A   1      48.886  25.582  25.520  1.00  0.00    -0.034 C 
ATOM     79  H   UNL A   1      47.788  23.865  24.895  1.00  0.00     0.065 H 
ATOM     80  C   UNL A   1      42.208  26.050  27.185  1.00  0.00    -0.036 A 
ATOM     81  H   UNL A   1      42.685  24.165  26.354  1.00  0.00     0.065 H 
ATOM     82  C   UNL A   1      43.013  27.235  27.464  1.00  0.00     0.049 A 
ATOM     83  H   UNL A   1      45.026  27.533  27.025  1.00  0.00     0.167 HD
ATOM     84  C   UNL A   1      49.332  27.909  26.246  1.00  0.00     0.037 A 
ATOM     85  H   UNL A   1      49.859  25.313  25.308  1.00  0.00     0.065 H 
ATOM     86  H   UNL A   1      41.200  25.951  27.382  1.00  0.00     0.065 H 
ATOM     87  C   UNL A   1      42.570  28.357  28.062  1.00  0.00     0.037 A 
ATOM     88  C   UNL A   1      48.927  29.183  26.780  1.00  0.00     0.049 A 
ATOM     89  C   UNL A   1      43.525  29.502  28.264  1.00  0.00     0.074 A 
ATOM     90  C   UNL A   1      49.688  30.325  26.962  1.00  0.00    -0.036 A 
ATOM     91  N   UNL A   1      47.646  29.482  27.224  1.00  0.00    -0.354 N 
ATOM     92  N   UNL A   1      44.797  29.583  27.958  1.00  0.00    -0.248 NA
ATOM     93  C   UNL A   1      42.980  30.717  28.885  1.00  0.00    -0.034 C 
ATOM     94  C   UNL A   1      48.880  31.297  27.562  1.00  0.00    -0.036 A 
ATOM     95  H   UNL A   1      50.680  30.439  26.700  1.00  0.00     0.065 H 
ATOM     96  C   UNL A   1      47.601  30.782  27.701  1.00  0.00     0.049 A 
ATOM     97  H   UNL A   1      46.883  28.861  27.205  1.00  0.00     0.167 HD
ATOM     98  C   UNL A   1      45.200  30.860  28.324  1.00  0.00     0.074 A 
ATOM     99  C   UNL A   1      44.030  31.526  28.859  1.00  0.00    -0.034 C 
ATOM    100  H   UNL A   1      42.030  30.893  29.247  1.00  0.00     0.065 H 
ATOM    101  H   UNL A   1      49.187  32.239  27.853  1.00  0.00     0.065 H 
ATOM    102  C   UNL A   1      46.426  31.430  28.228  1.00  0.00     0.037 A 
ATOM    103  H   UNL A   1      44.015  32.507  29.180  1.00  0.00     0.065 H 
BRANCH  84 104
ATOM    104  C   UNL A   1      50.770  27.716  25.859  1.00  0.00     0.064 A 
ATOM    105  C   UNL A   1      51.738  27.330  26.800  1.00  0.00     0.173 A 
ATOM    106  C   UNL A   1      51.185  27.897  24.531  1.00  0.00     0.173 A 
ATOM    107  F   UNL A   1      51.399  27.153  28.086  1.00  0.00    -0.203 F 
ATOM    108  C   UNL A   1      53.072  27.168  26.433  1.00  0.00     0.198 A 
ATOM    109  C   UNL A   1      52.513  27.702  24.161  1.00  0.00     0.198 A 
ATOM    110  F   UNL A   1      50.302  28.261  23.589  1.00  0.00    -0.203 F 
ATOM    111  F   UNL A   1      53.988  26.857  27.361  1.00  0.00    -0.200 F 
ATOM    112  C   UNL A   1      53.457  27.348  25.114  1.00  0.00     0.200 A 
ATOM    113  F   UNL A   1      52.881  27.862  22.883  1.00  0.00    -0.200 F 
ATOM    114  F   UNL A   1      54.741  27.188  24.760  1.00  0.00    -0.200 F 
ENDBRANCH  84 104
BRANCH  87 115
ATOM    115  C   UNL A   1      41.152  28.453  28.495  1.00  0.00     0.064 A 
ATOM    116  C   UNL A   1      40.163  28.935  27.626  1.00  0.00     0.173 A 
ATOM    117  C   UNL A   1      40.754  28.055  29.779  1.00  0.00     0.173 A 
ATOM    118  F   UNL A   1      40.497  29.345  26.394  1.00  0.00    -0.203 F 
ATOM    119  C   UNL A   1      38.835  29.036  28.034  1.00  0.00     0.198 A 
ATOM    120  C   UNL A   1      39.420  28.127  30.175  1.00  0.00     0.198 A 
ATOM    121  F   UNL A   1      41.660  27.577  30.645  1.00  0.00    -0.203 F 
ATOM    122  F   UNL A   1      37.917  29.542  27.198  1.00  0.00    -0.200 F 
ATOM    123  C   UNL A   1      38.463  28.625  29.305  1.00  0.00     0.200 A 
ATOM    124  F   UNL A   1      39.063  27.711  31.397  1.00  0.00    -0.200 F 
ATOM    125  F   UNL A   1      37.183  28.714  29.692  1.00  0.00    -0.200 F 
ENDBRANCH  87 115
BRANCH 102 126
ATOM    126  C   UNL A   1      46.559  32.856  28.680  1.00  0.00     0.064 A 
ATOM    127  C   UNL A   1      46.916  33.181  29.997  1.00  0.00     0.173 A 
ATOM    128  C   UNL A   1      46.364  33.908  27.773  1.00  0.00     0.173 A 
ATOM    129  F   UNL A   1      47.100  32.212  30.907  1.00  0.00    -0.203 F 
ATOM    130  C   UNL A   1      47.046  34.509  30.395  1.00  0.00     0.198 A 
ATOM    131  C   UNL A   1      46.526  35.233  28.166  1.00  0.00     0.198 A 
ATOM    132  F   UNL A   1      46.027  33.651  26.500  1.00  0.00    -0.203 F 
ATOM    133  F   UNL A   1      47.339  34.799  31.671  1.00  0.00    -0.200 F 
ATOM    134  C   UNL A   1      46.860  35.533  29.479  1.00  0.00     0.200 A 
ATOM    135  F   UNL A   1      46.360  36.220  27.276  1.00  0.00    -0.200 F 
ATOM    136  F   UNL A   1      46.993  36.810  29.862  1.00  0.00    -0.200 F 
ENDBRANCH 102 126
ENDBRANCH  67  70
ENDBRANCH  57  60
ENDBRANCH  53  56
ENDBRANCH  50  53
ENDBRANCH  47  50
ENDBRANCH  44  47
ENDBRANCH  41  44
ENDBRANCH  38  41
ENDBRANCH   3  38
TORSDOF 22
ENDMDL
MODEL 2
REMARK VINA RESULT:      -9.8      6.069     10.751
REMARK SMILES CC(=O)Oc1ccccc1SCCCCCC(=O)NCCCCCCNC(=O)c1ccc(-c2c3nc(c(-c4c(F)c(F)c(F)c(F)c4F)c4ccc([nH]4)c(-c4c(F)c(F)c(F)c(F)c4F)c4nc(c(-c5c(F)c(F)c(F)c(F)c5F)c5ccc2[nH]5)C=C4)C=C3)cc1
REMARK SMILES IDX 17 1 18 2 19 3 16 5 15 8 14 11 13 14 12 17 11 20 10 21 5 22
REMARK SMILES IDX 6 23 7 24 9 26 8 27 4 31 2 32 3 33 1 34 20 38 21 41 22 44
REMARK SMILES IDX 23 47 24 50 25 53 26 56 27 57 28 59 29 60 30 61 91 62 31 63
REMARK SMILES IDX 90 65 32 67 33 70 34 71 84 72 35 73 89 74 83 75 85 76 36 77
REMARK SMILES IDX 88 78 82 80 81 82 37 84 69 87 49 88 68 89 50 90 53 91 67 92
REMARK SMILES IDX 86 93 51 94 52 96 66 98 87 99 54 102 38 104 39 105 47 106
REMARK SMILES IDX 40 107 41 108 45 109 48 110 42 111 43 112 46 113 44 114
REMARK SMILES IDX 70 115 71 116 79 117 72 118 73 119 77 120 80 121 74 122
REMARK SMILES IDX 75 123 78 124 76 125 55 126 56 127 64 128 57 129 58 130
REMARK SMILES IDX 62 131 65 132 59 133 60 134 63 135 61 136
REMARK H PARENT 19 4 16 6 16 7 15 9 15 10 14 12 14 13 13 15 13 16 12 18 12 19
REMARK H PARENT 6 25 7 28 9 29 8 30 1 35 1 36 1 37 20 39 20 40 21 42 21 43
REMARK H PARENT 22 45 22 46 23 48 23 49 24 51 24 52 25 54 25 55 26 58 30 64
REMARK H PARENT 91 66 31 68 90 69 89 79 83 81 85 83 88 85 82 86 50 95 53 97
REMARK H PARENT 86 100 51 101 87 103
REMARK Flexibility Score: inf
ROOT
ATOM      1  C   UNL A   1      30.620  29.051  22.287  1.00  0.00     0.219 C 
ATOM      2  O   UNL A   1      29.873  29.776  21.627  1.00  0.00    -0.275 OA
ATOM      3  N   UNL A   1      31.787  29.565  22.756  1.00  0.00    -0.356 N 
ATOM      4  H   UNL A   1      31.916  30.531  22.620  1.00  0.00     0.163 HD
ENDROOT
BRANCH   1   5
ATOM      5  C   UNL A   1      30.247  27.619  22.604  1.00  0.00     0.026 C 
ATOM      6  H   UNL A   1      29.718  27.216  21.765  1.00  0.00     0.037 H 
ATOM      7  H   UNL A   1      31.162  27.100  22.803  1.00  0.00     0.037 H 
BRANCH   5   8
ATOM      8  C   UNL A   1      29.372  27.456  23.848  1.00  0.00    -0.044 C 
ATOM      9  H   UNL A   1      29.652  28.233  24.528  1.00  0.00     0.027 H 
ATOM     10  H   UNL A   1      28.377  27.483  23.455  1.00  0.00     0.027 H 
BRANCH   8  11
ATOM     11  C   UNL A   1      29.405  26.134  24.643  1.00  0.00    -0.052 C 
ATOM     12  H   UNL A   1      29.115  26.367  25.646  1.00  0.00     0.027 H 
ATOM     13  H   UNL A   1      28.757  25.490  24.086  1.00  0.00     0.027 H 
BRANCH  11  14
ATOM     14  C   UNL A   1      30.710  25.335  24.731  1.00  0.00    -0.044 C 
ATOM     15  H   UNL A   1      30.969  25.095  23.721  1.00  0.00     0.028 H 
ATOM     16  H   UNL A   1      31.308  26.000  25.318  1.00  0.00     0.028 H 
BRANCH  14  17
ATOM     17  C   UNL A   1      30.884  24.026  25.522  1.00  0.00    -0.002 C 
ATOM     18  H   UNL A   1      31.320  24.327  26.451  1.00  0.00     0.038 H 
ATOM     19  H   UNL A   1      29.892  23.639  25.412  1.00  0.00     0.038 H 
BRANCH  17  20
ATOM     20  S   UNL A   1      31.810  22.536  25.040  1.00  0.00    -0.122 SA
BRANCH  20  21
ATOM     21  C   UNL A   1      33.540  22.932  25.088  1.00  0.00     0.050 A 
ATOM     22  C   UNL A   1      34.277  23.832  24.312  1.00  0.00     0.144 A 
ATOM     23  C   UNL A   1      35.570  24.222  24.708  1.00  0.00    -0.018 A 
ATOM     24  C   UNL A   1      36.161  23.674  25.845  1.00  0.00    -0.058 A 
ATOM     25  H   UNL A   1      36.085  24.921  24.150  1.00  0.00     0.066 H 
ATOM     26  C   UNL A   1      34.200  22.321  26.175  1.00  0.00    -0.045 A 
ATOM     27  C   UNL A   1      35.487  22.698  26.563  1.00  0.00    -0.061 A 
ATOM     28  H   UNL A   1      37.094  23.993  26.150  1.00  0.00     0.062 H 
ATOM     29  H   UNL A   1      33.717  21.573  26.699  1.00  0.00     0.064 H 
ATOM     30  H   UNL A   1      35.934  22.252  27.380  1.00  0.00     0.062 H 
BRANCH  22  31
ATOM     31  O   UNL A   1      33.757  24.651  23.273  1.00  0.00    -0.426 OA
BRANCH  31  32
ATOM     32  C   UNL A   1      33.305  24.327  21.995  1.00  0.00     0.308 C 
ATOM     33  O   UNL A   1      33.367  23.241  21.451  1.00  0.00    -0.252 OA
BRANCH  32  34
ATOM     34  C   UNL A   1      32.698  25.574  21.402  1.00  0.00     0.034 C 
ATOM     35  H   UNL A   1      33.128  26.436  21.868  1.00  0.00     0.035 H 
ATOM     36  H   UNL A   1      31.640  25.569  21.566  1.00  0.00     0.035 H 
ATOM     37  H   UNL A   1      32.895  25.600  20.350  1.00  0.00     0.035 H 
ENDBRANCH  32  34
ENDBRANCH  31  32
ENDBRANCH  22  31
ENDBRANCH  20  21
ENDBRANCH  17  20
ENDBRANCH  14  17
ENDBRANCH  11  14
ENDBRANCH   8  11
ENDBRANCH   5   8
ENDBRANCH   1   5
BRANCH   3  38
ATOM     38  C   UNL A   1      32.864  28.877  23.429  1.00  0.00     0.017 C 
ATOM     39  H   UNL A   1      33.777  29.410  23.271  1.00  0.00     0.049 H 
ATOM     40  H   UNL A   1      32.946  27.886  23.034  1.00  0.00     0.049 H 
BRANCH  38  41
ATOM     41  C   UNL A   1      32.582  28.794  24.928  1.00  0.00    -0.036 C 
ATOM     42  H   UNL A   1      33.326  28.171  25.378  1.00  0.00     0.028 H 
ATOM     43  H   UNL A   1      31.595  28.397  25.039  1.00  0.00     0.028 H 
BRANCH  41  44
ATOM     44  C   UNL A   1      32.600  30.146  25.626  1.00  0.00    -0.052 C 
ATOM     45  H   UNL A   1      33.239  30.803  25.076  1.00  0.00     0.027 H 
ATOM     46  H   UNL A   1      32.951  29.981  26.624  1.00  0.00     0.027 H 
BRANCH  44  47
ATOM     47  C   UNL A   1      31.216  30.793  25.735  1.00  0.00    -0.052 C 
ATOM     48  H   UNL A   1      30.540  30.063  26.131  1.00  0.00     0.027 H 
ATOM     49  H   UNL A   1      30.962  31.117  24.747  1.00  0.00     0.027 H 
BRANCH  47  50
ATOM     50  C   UNL A   1      31.145  32.040  26.625  1.00  0.00    -0.036 C 
ATOM     51  H   UNL A   1      30.555  31.802  27.486  1.00  0.00     0.028 H 
ATOM     52  H   UNL A   1      30.719  32.817  26.026  1.00  0.00     0.028 H 
BRANCH  50  53
ATOM     53  C   UNL A   1      32.501  32.554  27.104  1.00  0.00     0.018 C 
ATOM     54  H   UNL A   1      33.214  32.443  26.315  1.00  0.00     0.049 H 
ATOM     55  H   UNL A   1      32.793  31.985  27.962  1.00  0.00     0.049 H 
BRANCH  53  56
ATOM     56  N   UNL A   1      32.430  33.955  27.486  1.00  0.00    -0.352 N 
ATOM     57  C   UNL A   1      33.066  34.618  28.500  1.00  0.00     0.251 C 
ATOM     58  H   UNL A   1      31.835  34.511  26.931  1.00  0.00     0.163 HD
ATOM     59  O   UNL A   1      32.653  35.709  28.880  1.00  0.00    -0.269 OA
BRANCH  57  60
ATOM     60  C   UNL A   1      34.254  34.018  29.132  1.00  0.00     0.039 A 
ATOM     61  C   UNL A   1      35.514  34.265  28.582  1.00  0.00    -0.049 A 
ATOM     62  C   UNL A   1      34.118  33.176  30.240  1.00  0.00    -0.049 A 
ATOM     63  C   UNL A   1      36.644  33.699  29.170  1.00  0.00    -0.053 A 
ATOM     64  H   UNL A   1      35.607  34.861  27.745  1.00  0.00     0.063 H 
ATOM     65  C   UNL A   1      35.250  32.674  30.870  1.00  0.00    -0.053 A 
ATOM     66  H   UNL A   1      33.179  32.928  30.588  1.00  0.00     0.063 H 
ATOM     67  C   UNL A   1      36.523  32.920  30.333  1.00  0.00    -0.014 A 
ATOM     68  H   UNL A   1      37.574  33.853  28.750  1.00  0.00     0.063 H 
ATOM     69  H   UNL A   1      35.156  32.120  31.735  1.00  0.00     0.063 H 
BRANCH  67  70
ATOM     70  C   UNL A   1      37.717  32.343  30.996  1.00  0.00     0.031 A 
ATOM     71  C   UNL A   1      38.491  31.242  30.328  1.00  0.00     0.074 A 
ATOM     72  C   UNL A   1      38.062  32.769  32.226  1.00  0.00     0.049 A 
ATOM     73  N   UNL A   1      39.519  30.565  30.774  1.00  0.00    -0.248 NA
ATOM     74  C   UNL A   1      38.031  30.828  28.994  1.00  0.00    -0.034 C 
ATOM     75  C   UNL A   1      37.355  33.796  32.992  1.00  0.00    -0.036 A 
ATOM     76  N   UNL A   1      39.087  32.383  33.051  1.00  0.00    -0.354 N 
ATOM     77  C   UNL A   1      39.822  29.643  29.779  1.00  0.00     0.074 A 
ATOM     78  C   UNL A   1      38.831  29.804  28.737  1.00  0.00    -0.034 C 
ATOM     79  H   UNL A   1      37.282  31.230  28.409  1.00  0.00     0.065 H 
ATOM     80  C   UNL A   1      37.974  33.969  34.169  1.00  0.00    -0.036 A 
ATOM     81  H   UNL A   1      36.514  34.305  32.677  1.00  0.00     0.065 H 
ATOM     82  C   UNL A   1      39.097  33.041  34.256  1.00  0.00     0.049 A 
ATOM     83  H   UNL A   1      39.750  31.699  32.804  1.00  0.00     0.167 HD
ATOM     84  C   UNL A   1      40.849  28.762  29.729  1.00  0.00     0.037 A 
ATOM     85  H   UNL A   1      38.758  29.200  27.904  1.00  0.00     0.065 H 
ATOM     86  H   UNL A   1      37.701  34.649  34.896  1.00  0.00     0.065 H 
ATOM     87  C   UNL A   1      39.916  32.901  35.316  1.00  0.00     0.037 A 
ATOM     88  C   UNL A   1      41.836  28.616  30.767  1.00  0.00     0.049 A 
ATOM     89  C   UNL A   1      41.043  31.907  35.243  1.00  0.00     0.074 A 
ATOM     90  C   UNL A   1      42.943  27.786  30.797  1.00  0.00    -0.036 A 
ATOM     91  N   UNL A   1      41.829  29.316  31.966  1.00  0.00    -0.354 N 
ATOM     92  N   UNL A   1      41.363  31.089  34.270  1.00  0.00    -0.248 NA
ATOM     93  C   UNL A   1      41.929  31.825  36.411  1.00  0.00    -0.034 C 
ATOM     94  C   UNL A   1      43.577  27.948  32.034  1.00  0.00    -0.036 A 
ATOM     95  H   UNL A   1      43.248  27.157  30.038  1.00  0.00     0.065 H 
ATOM     96  C   UNL A   1      42.900  28.921  32.752  1.00  0.00     0.049 A 
ATOM     97  H   UNL A   1      41.161  29.993  32.221  1.00  0.00     0.167 HD
ATOM     98  C   UNL A   1      42.498  30.413  34.694  1.00  0.00     0.074 A 
ATOM     99  C   UNL A   1      42.822  30.932  36.008  1.00  0.00    -0.034 C 
ATOM    100  H   UNL A   1      41.872  32.329  37.309  1.00  0.00     0.065 H 
ATOM    101  H   UNL A   1      44.409  27.430  32.356  1.00  0.00     0.065 H 
ATOM    102  C   UNL A   1      43.208  29.450  34.057  1.00  0.00     0.037 A 
ATOM    103  H   UNL A   1      43.645  30.642  36.561  1.00  0.00     0.065 H 
BRANCH  84 104
ATOM    104  C   UNL A   1      40.955  27.892  28.510  1.00  0.00     0.064 A 
ATOM    105  C   UNL A   1      40.271  26.669  28.417  1.00  0.00     0.173 A 
ATOM    106  C   UNL A   1      41.732  28.291  27.412  1.00  0.00     0.173 A 
ATOM    107  F   UNL A   1      39.523  26.234  29.442  1.00  0.00    -0.203 F 
ATOM    108  C   UNL A   1      40.389  25.864  27.287  1.00  0.00     0.198 A 
ATOM    109  C   UNL A   1      41.821  27.498  26.270  1.00  0.00     0.198 A 
ATOM    110  F   UNL A   1      42.404  29.452  27.443  1.00  0.00    -0.203 F 
ATOM    111  F   UNL A   1      39.773  24.674  27.247  1.00  0.00    -0.200 F 
ATOM    112  C   UNL A   1      41.158  26.282  26.213  1.00  0.00     0.200 A 
ATOM    113  F   UNL A   1      42.553  27.910  25.226  1.00  0.00    -0.200 F 
ATOM    114  F   UNL A   1      41.268  25.507  25.124  1.00  0.00    -0.200 F 
ENDBRANCH  84 104
BRANCH  87 115
ATOM    115  C   UNL A   1      39.706  33.738  36.526  1.00  0.00     0.064 A 
ATOM    116  C   UNL A   1      40.278  35.013  36.630  1.00  0.00     0.173 A 
ATOM    117  C   UNL A   1      38.921  33.285  37.597  1.00  0.00     0.173 A 
ATOM    118  F   UNL A   1      41.050  35.483  35.640  1.00  0.00    -0.203 F 
ATOM    119  C   UNL A   1      40.090  35.795  37.768  1.00  0.00     0.198 A 
ATOM    120  C   UNL A   1      38.709  34.081  38.721  1.00  0.00     0.198 A 
ATOM    121  F   UNL A   1      38.343  32.076  37.542  1.00  0.00    -0.203 F 
ATOM    122  F   UNL A   1      40.685  36.993  37.860  1.00  0.00    -0.200 F 
ATOM    123  C   UNL A   1      39.300  35.331  38.810  1.00  0.00     0.200 A 
ATOM    124  F   UNL A   1      37.930  33.637  39.716  1.00  0.00    -0.200 F 
ATOM    125  F   UNL A   1      39.114  36.088  39.899  1.00  0.00    -0.200 F 
ENDBRANCH  87 115
BRANCH 102 126
ATOM    126  C   UNL A   1      44.425  28.917  34.756  1.00  0.00     0.064 A 
ATOM    127  C   UNL A   1      44.365  27.786  35.584  1.00  0.00     0.173 A 
ATOM    128  C   UNL A   1      45.676  29.523  34.563  1.00  0.00     0.173 A 
ATOM    129  F   UNL A   1      43.190  27.179  35.812  1.00  0.00    -0.203 F 
ATOM    130  C   UNL A   1      45.506  27.299  36.214  1.00  0.00     0.198 A 
ATOM    131  C   UNL A   1      46.821  29.014  35.169  1.00  0.00     0.198 A 
ATOM    132  F   UNL A   1      45.790  30.604  33.777  1.00  0.00    -0.203 F 
ATOM    133  F   UNL A   1      45.417  26.248  37.041  1.00  0.00    -0.200 F 
ATOM    134  C   UNL A   1      46.734  27.907  36.000  1.00  0.00     0.200 A 
ATOM    135  F   UNL A   1      48.008  29.595  34.949  1.00  0.00    -0.200 F 
ATOM    136  F   UNL A   1      47.833  27.432  36.602  1.00  0.00    -0.200 F 
ENDBRANCH 102 126
ENDBRANCH  67  70
ENDBRANCH  57  60
ENDBRANCH  53  56
ENDBRANCH  50  53
ENDBRANCH  47  50
ENDBRANCH  44  47
ENDBRANCH  41  44
ENDBRANCH  38  41
ENDBRANCH   3  38
TORSDOF 22
ENDMDL
MODEL 3
REMARK VINA RESULT:      -9.7      5.895     11.635
REMARK SMILES CC(=O)Oc1ccccc1SCCCCCC(=O)NCCCCCCNC(=O)c1ccc(-c2c3nc(c(-c4c(F)c(F)c(F)c(F)c4F)c4ccc([nH]4)c(-c4c(F)c(F)c(F)c(F)c4F)c4nc(c(-c5c(F)c(F)c(F)c(F)c5F)c5ccc2[nH]5)C=C4)C=C3)cc1
REMARK SMILES IDX 17 1 18 2 19 3 16 5 15 8 14 11 13 14 12 17 11 20 10 21 5 22
REMARK SMILES IDX 6 23 7 24 9 26 8 27 4 31 2 32 3 33 1 34 20 38 21 41 22 44
REMARK SMILES IDX 23 47 24 50 25 53 26 56 27 57 28 59 29 60 30 61 91 62 31 63
REMARK SMILES IDX 90 65 32 67 33 70 34 71 84 72 35 73 89 74 83 75 85 76 36 77
REMARK SMILES IDX 88 78 82 80 81 82 37 84 69 87 49 88 68 89 50 90 53 91 67 92
REMARK SMILES IDX 86 93 51 94 52 96 66 98 87 99 54 102 38 104 39 105 47 106
REMARK SMILES IDX 40 107 41 108 45 109 48 110 42 111 43 112 46 113 44 114
REMARK SMILES IDX 70 115 71 116 79 117 72 118 73 119 77 120 80 121 74 122
REMARK SMILES IDX 75 123 78 124 76 125 55 126 56 127 64 128 57 129 58 130
REMARK SMILES IDX 62 131 65 132 59 133 60 134 63 135 61 136
REMARK H PARENT 19 4 16 6 16 7 15 9 15 10 14 12 14 13 13 15 13 16 12 18 12 19
REMARK H PARENT 6 25 7 28 9 29 8 30 1 35 1 36 1 37 20 39 20 40 21 42 21 43
REMARK H PARENT 22 45 22 46 23 48 23 49 24 51 24 52 25 54 25 55 26 58 30 64
REMARK H PARENT 91 66 31 68 90 69 89 79 83 81 85 83 88 85 82 86 50 95 53 97
REMARK H PARENT 86 100 51 101 87 103
REMARK Flexibility Score: inf
ROOT
ATOM      1  C   UNL A   1      30.588  29.022  22.189  1.00  0.00     0.219 C 
ATOM      2  O   UNL A   1      29.814  29.744  21.560  1.00  0.00    -0.275 OA
ATOM      3  N   UNL A   1      31.792  29.525  22.572  1.00  0.00    -0.356 N 
ATOM      4  H   UNL A   1      31.928  30.485  22.404  1.00  0.00     0.163 HD
ENDROOT
BRANCH   1   5
ATOM      5  C   UNL A   1      30.213  27.604  22.564  1.00  0.00     0.026 C 
ATOM      6  H   UNL A   1      29.639  27.187  21.764  1.00  0.00     0.037 H 
ATOM      7  H   UNL A   1      31.129  27.078  22.735  1.00  0.00     0.037 H 
BRANCH   5   8
ATOM      8  C   UNL A   1      29.395  27.489  23.852  1.00  0.00    -0.044 C 
ATOM      9  H   UNL A   1      29.756  28.246  24.517  1.00  0.00     0.027 H 
ATOM     10  H   UNL A   1      28.385  27.577  23.512  1.00  0.00     0.027 H 
BRANCH   8  11
ATOM     11  C   UNL A   1      29.392  26.164  24.644  1.00  0.00    -0.052 C 
ATOM     12  H   UNL A   1      29.141  26.407  25.655  1.00  0.00     0.027 H 
ATOM     13  H   UNL A   1      28.700  25.552  24.104  1.00  0.00     0.027 H 
BRANCH  11  14
ATOM     14  C   UNL A   1      30.662  25.308  24.694  1.00  0.00    -0.044 C 
ATOM     15  H   UNL A   1      30.890  25.072  23.676  1.00  0.00     0.028 H 
ATOM     16  H   UNL A   1      31.299  25.937  25.279  1.00  0.00     0.028 H 
BRANCH  14  17
ATOM     17  C   UNL A   1      30.793  23.981  25.462  1.00  0.00    -0.002 C 
ATOM     18  H   UNL A   1      31.221  24.254  26.404  1.00  0.00     0.038 H 
ATOM     19  H   UNL A   1      29.795  23.619  25.329  1.00  0.00     0.038 H 
BRANCH  17  20
ATOM     20  S   UNL A   1      31.694  22.480  24.967  1.00  0.00    -0.122 SA
BRANCH  20  21
ATOM     21  C   UNL A   1      33.431  22.824  25.083  1.00  0.00     0.050 A 
ATOM     22  C   UNL A   1      34.220  23.721  24.357  1.00  0.00     0.144 A 
ATOM     23  C   UNL A   1      35.509  24.063  24.806  1.00  0.00    -0.018 A 
ATOM     24  C   UNL A   1      36.044  23.471  25.948  1.00  0.00    -0.058 A 
ATOM     25  H   UNL A   1      36.062  24.761  24.284  1.00  0.00     0.066 H 
ATOM     26  C   UNL A   1      34.036  22.168  26.176  1.00  0.00    -0.045 A 
ATOM     27  C   UNL A   1      35.318  22.497  26.617  1.00  0.00    -0.061 A 
ATOM     28  H   UNL A   1      36.975  23.755  26.293  1.00  0.00     0.062 H 
ATOM     29  H   UNL A   1      33.514  21.421  26.664  1.00  0.00     0.064 H 
ATOM     30  H   UNL A   1      35.724  22.019  27.437  1.00  0.00     0.062 H 
BRANCH  22  31
ATOM     31  O   UNL A   1      33.759  24.580  23.321  1.00  0.00    -0.426 OA
BRANCH  31  32
ATOM     32  C   UNL A   1      33.353  24.302  22.018  1.00  0.00     0.308 C 
ATOM     33  O   UNL A   1      33.436  23.237  21.437  1.00  0.00    -0.252 OA
BRANCH  32  34
ATOM     34  C   UNL A   1      32.768  25.571  21.448  1.00  0.00     0.034 C 
ATOM     35  H   UNL A   1      33.180  26.415  21.960  1.00  0.00     0.035 H 
ATOM     36  H   UNL A   1      31.705  25.560  21.574  1.00  0.00     0.035 H 
ATOM     37  H   UNL A   1      33.002  25.634  20.406  1.00  0.00     0.035 H 
ENDBRANCH  32  34
ENDBRANCH  31  32
ENDBRANCH  22  31
ENDBRANCH  20  21
ENDBRANCH  17  20
ENDBRANCH  14  17
ENDBRANCH  11  14
ENDBRANCH   8  11
ENDBRANCH   5   8
ENDBRANCH   1   5
BRANCH   3  38
ATOM     38  C   UNL A   1      32.897  28.833  23.192  1.00  0.00     0.017 C 
ATOM     39  H   UNL A   1      33.800  29.378  23.014  1.00  0.00     0.049 H 
ATOM     40  H   UNL A   1      32.974  27.852  22.772  1.00  0.00     0.049 H 
BRANCH  38  41
ATOM     41  C   UNL A   1      32.668  28.716  24.697  1.00  0.00    -0.036 C 
ATOM     42  H   UNL A   1      33.441  28.103  25.110  1.00  0.00     0.028 H 
ATOM     43  H   UNL A   1      31.695  28.292  24.834  1.00  0.00     0.028 H 
BRANCH  41  44
ATOM     44  C   UNL A   1      32.677  30.054  25.421  1.00  0.00    -0.052 C 
ATOM     45  H   UNL A   1      33.284  30.737  24.863  1.00  0.00     0.027 H 
ATOM     46  H   UNL A   1      33.063  29.879  26.403  1.00  0.00     0.027 H 
BRANCH  44  47
ATOM     47  C   UNL A   1      31.283  30.666  25.585  1.00  0.00    -0.052 C 
ATOM     48  H   UNL A   1      30.627  29.903  25.950  1.00  0.00     0.027 H 
ATOM     49  H   UNL A   1      31.007  31.040  24.620  1.00  0.00     0.027 H 
BRANCH  47  50
ATOM     50  C   UNL A   1      31.202  31.862  26.543  1.00  0.00    -0.036 C 
ATOM     51  H   UNL A   1      30.596  31.579  27.379  1.00  0.00     0.028 H 
ATOM     52  H   UNL A   1      30.790  32.674  25.981  1.00  0.00     0.028 H 
BRANCH  50  53
ATOM     53  C   UNL A   1      32.552  32.341  27.073  1.00  0.00     0.018 C 
ATOM     54  H   UNL A   1      33.295  32.196  26.317  1.00  0.00     0.049 H 
ATOM     55  H   UNL A   1      32.788  31.777  27.951  1.00  0.00     0.049 H 
BRANCH  53  56
ATOM     56  N   UNL A   1      32.509  33.750  27.431  1.00  0.00    -0.352 N 
ATOM     57  C   UNL A   1      33.149  34.414  28.442  1.00  0.00     0.251 C 
ATOM     58  H   UNL A   1      31.932  34.309  26.861  1.00  0.00     0.163 HD
ATOM     59  O   UNL A   1      32.758  35.520  28.800  1.00  0.00    -0.269 OA
BRANCH  57  60
ATOM     60  C   UNL A   1      34.317  33.798  29.096  1.00  0.00     0.039 A 
ATOM     61  C   UNL A   1      34.111  32.821  30.073  1.00  0.00    -0.049 A 
ATOM     62  C   UNL A   1      35.611  34.218  28.777  1.00  0.00    -0.049 A 
ATOM     63  C   UNL A   1      35.209  32.234  30.700  1.00  0.00    -0.053 A 
ATOM     64  H   UNL A   1      33.153  32.536  30.328  1.00  0.00     0.063 H 
ATOM     65  C   UNL A   1      36.706  33.581  29.348  1.00  0.00    -0.053 A 
ATOM     66  H   UNL A   1      35.753  35.000  28.119  1.00  0.00     0.063 H 
ATOM     67  C   UNL A   1      36.515  32.592  30.324  1.00  0.00    -0.014 A 
ATOM     68  H   UNL A   1      35.063  31.534  31.444  1.00  0.00     0.063 H 
ATOM     69  H   UNL A   1      37.661  33.834  29.052  1.00  0.00     0.063 H 
BRANCH  67  70
ATOM     70  C   UNL A   1      37.695  31.951  30.952  1.00  0.00     0.031 A 
ATOM     71  C   UNL A   1      38.159  32.392  32.311  1.00  0.00     0.074 A 
ATOM     72  C   UNL A   1      38.383  31.016  30.268  1.00  0.00     0.049 A 
ATOM     73  N   UNL A   1      39.204  32.003  32.996  1.00  0.00    -0.248 NA
ATOM     74  C   UNL A   1      37.358  33.431  32.976  1.00  0.00    -0.034 C 
ATOM     75  C   UNL A   1      38.055  30.545  28.922  1.00  0.00    -0.036 A 
ATOM     76  N   UNL A   1      39.505  30.306  30.606  1.00  0.00    -0.354 N 
ATOM     77  C   UNL A   1      39.188  32.752  34.166  1.00  0.00     0.074 A 
ATOM     78  C   UNL A   1      38.069  33.663  34.069  1.00  0.00    -0.034 C 
ATOM     79  H   UNL A   1      36.472  33.865  32.672  1.00  0.00     0.065 H 
ATOM     80  C   UNL A   1      38.948  29.614  28.554  1.00  0.00    -0.036 A 
ATOM     81  H   UNL A   1      37.264  30.877  28.347  1.00  0.00     0.065 H 
ATOM     82  C   UNL A   1      39.931  29.450  29.621  1.00  0.00     0.049 A 
ATOM     83  H   UNL A   1      39.963  30.401  31.472  1.00  0.00     0.167 HD
ATOM     84  C   UNL A   1      40.017  32.667  35.234  1.00  0.00     0.037 A 
ATOM     85  H   UNL A   1      37.854  34.398  34.761  1.00  0.00     0.065 H 
ATOM     86  H   UNL A   1      38.941  29.096  27.661  1.00  0.00     0.065 H 
ATOM     87  C   UNL A   1      40.999  28.632  29.580  1.00  0.00     0.037 A 
ATOM     88  C   UNL A   1      41.122  31.750  35.324  1.00  0.00     0.049 A 
ATOM     89  C   UNL A   1      41.913  28.565  30.773  1.00  0.00     0.074 A 
ATOM     90  C   UNL A   1      41.996  31.551  36.379  1.00  0.00    -0.036 A 
ATOM     91  N   UNL A   1      41.511  30.880  34.314  1.00  0.00    -0.354 N 
ATOM     92  N   UNL A   1      41.850  29.227  31.903  1.00  0.00    -0.248 NA
ATOM     93  C   UNL A   1      43.040  27.627  30.690  1.00  0.00    -0.034 C 
ATOM     94  C   UNL A   1      42.942  30.597  35.989  1.00  0.00    -0.036 A 
ATOM     95  H   UNL A   1      41.957  32.025  37.295  1.00  0.00     0.065 H 
ATOM     96  C   UNL A   1      42.625  30.158  34.713  1.00  0.00     0.049 A 
ATOM     97  H   UNL A   1      41.061  30.790  33.443  1.00  0.00     0.167 HD
ATOM     98  C   UNL A   1      42.909  28.771  32.674  1.00  0.00     0.074 A 
ATOM     99  C   UNL A   1      43.590  27.761  31.889  1.00  0.00    -0.034 C 
ATOM    100  H   UNL A   1      43.330  27.023  29.905  1.00  0.00     0.065 H 
ATOM    101  H   UNL A   1      43.742  30.275  36.556  1.00  0.00     0.065 H 
ATOM    102  C   UNL A   1      43.287  29.155  33.919  1.00  0.00     0.037 A 
ATOM    103  H   UNL A   1      44.400  27.215  32.221  1.00  0.00     0.065 H 
BRANCH  84 104
ATOM    104  C   UNL A   1      39.753  33.591  36.388  1.00  0.00     0.064 A 
ATOM    105  C   UNL A   1      40.337  34.866  36.458  1.00  0.00     0.173 A 
ATOM    106  C   UNL A   1      38.891  33.209  37.427  1.00  0.00     0.173 A 
ATOM    107  F   UNL A   1      41.177  35.278  35.497  1.00  0.00    -0.203 F 
ATOM    108  C   UNL A   1      40.097  35.708  37.541  1.00  0.00     0.198 A 
ATOM    109  C   UNL A   1      38.627  34.067  38.492  1.00  0.00     0.198 A 
ATOM    110  F   UNL A   1      38.301  32.005  37.411  1.00  0.00    -0.203 F 
ATOM    111  F   UNL A   1      40.712  36.896  37.613  1.00  0.00    -0.200 F 
ATOM    112  C   UNL A   1      39.238  35.311  38.553  1.00  0.00     0.200 A 
ATOM    113  F   UNL A   1      37.785  33.688  39.463  1.00  0.00    -0.200 F 
ATOM    114  F   UNL A   1      39.004  36.123  39.594  1.00  0.00    -0.200 F 
ENDBRANCH  84 104
BRANCH  87 115
ATOM    115  C   UNL A   1      41.249  27.804  28.372  1.00  0.00     0.064 A 
ATOM    116  C   UNL A   1      40.651  26.544  28.224  1.00  0.00     0.173 A 
ATOM    117  C   UNL A   1      42.079  28.257  27.336  1.00  0.00     0.173 A 
ATOM    118  F   UNL A   1      39.863  26.060  29.195  1.00  0.00    -0.203 F 
ATOM    119  C   UNL A   1      40.892  25.761  27.097  1.00  0.00     0.198 A 
ATOM    120  C   UNL A   1      42.295  27.486  26.196  1.00  0.00     0.198 A 
ATOM    121  F   UNL A   1      42.667  29.459  27.424  1.00  0.00    -0.203 F 
ATOM    122  F   UNL A   1      40.344  24.542  27.002  1.00  0.00    -0.200 F 
ATOM    123  C   UNL A   1      41.708  26.236  26.081  1.00  0.00     0.200 A 
ATOM    124  F   UNL A   1      43.068  27.957  25.208  1.00  0.00    -0.200 F 
ATOM    125  F   UNL A   1      41.932  25.485  24.994  1.00  0.00    -0.200 F 
ENDBRANCH  87 115
BRANCH 102 126
ATOM    126  C   UNL A   1      44.471  28.456  34.524  1.00  0.00     0.064 A 
ATOM    127  C   UNL A   1      45.772  28.967  34.400  1.00  0.00     0.173 A 
ATOM    128  C   UNL A   1      44.296  27.280  35.269  1.00  0.00     0.173 A 
ATOM    129  F   UNL A   1      45.994  30.080  33.685  1.00  0.00    -0.203 F 
ATOM    130  C   UNL A   1      46.855  28.312  34.978  1.00  0.00     0.198 A 
ATOM    131  C   UNL A   1      45.378  26.646  35.872  1.00  0.00     0.198 A 
ATOM    132  F   UNL A   1      43.072  26.752  35.423  1.00  0.00    -0.203 F 
ATOM    133  F   UNL A   1      48.096  28.790  34.804  1.00  0.00    -0.200 F 
ATOM    134  C   UNL A   1      46.657  27.157  35.720  1.00  0.00     0.200 A 
ATOM    135  F   UNL A   1      45.182  25.539  36.601  1.00  0.00    -0.200 F 
ATOM    136  F   UNL A   1      47.701  26.533  36.282  1.00  0.00    -0.200 F 
ENDBRANCH 102 126
ENDBRANCH  67  70
ENDBRANCH  57  60
ENDBRANCH  53  56
ENDBRANCH  50  53
ENDBRANCH  47  50
ENDBRANCH  44  47
ENDBRANCH  41  44
ENDBRANCH  38  41
ENDBRANCH   3  38
TORSDOF 22
ENDMDL
MODEL 4
REMARK VINA RESULT:      -9.7      2.422      8.537
REMARK SMILES CC(=O)Oc1ccccc1SCCCCCC(=O)NCCCCCCNC(=O)c1ccc(-c2c3nc(c(-c4c(F)c(F)c(F)c(F)c4F)c4ccc([nH]4)c(-c4c(F)c(F)c(F)c(F)c4F)c4nc(c(-c5c(F)c(F)c(F)c(F)c5F)c5ccc2[nH]5)C=C4)C=C3)cc1
REMARK SMILES IDX 17 1 18 2 19 3 16 5 15 8 14 11 13 14 12 17 11 20 10 21 5 22
REMARK SMILES IDX 6 23 7 24 9 26 8 27 4 31 2 32 3 33 1 34 20 38 21 41 22 44
REMARK SMILES IDX 23 47 24 50 25 53 26 56 27 57 28 59 29 60 30 61 91 62 31 63
REMARK SMILES IDX 90 65 32 67 33 70 34 71 84 72 35 73 89 74 83 75 85 76 36 77
REMARK SMILES IDX 88 78 82 80 81 82 37 84 69 87 49 88 68 89 50 90 53 91 67 92
REMARK SMILES IDX 86 93 51 94 52 96 66 98 87 99 54 102 38 104 39 105 47 106
REMARK SMILES IDX 40 107 41 108 45 109 48 110 42 111 43 112 46 113 44 114
REMARK SMILES IDX 70 115 71 116 79 117 72 118 73 119 77 120 80 121 74 122
REMARK SMILES IDX 75 123 78 124 76 125 55 126 56 127 64 128 57 129 58 130
REMARK SMILES IDX 62 131 65 132 59 133 60 134 63 135 61 136
REMARK H PARENT 19 4 16 6 16 7 15 9 15 10 14 12 14 13 13 15 13 16 12 18 12 19
REMARK H PARENT 6 25 7 28 9 29 8 30 1 35 1 36 1 37 20 39 20 40 21 42 21 43
REMARK H PARENT 22 45 22 46 23 48 23 49 24 51 24 52 25 54 25 55 26 58 30 64
REMARK H PARENT 91 66 31 68 90 69 89 79 83 81 85 83 88 85 82 86 50 95 53 97
REMARK H PARENT 86 100 51 101 87 103
REMARK Flexibility Score: inf
ROOT
ATOM      1  C   UNL A   1      33.873  25.187  24.236  1.00  0.00     0.219 C 
ATOM      2  O   UNL A   1      33.129  25.679  23.387  1.00  0.00    -0.275 OA
ATOM      3  N   UNL A   1      34.981  24.513  23.828  1.00  0.00    -0.356 N 
ATOM      4  H   UNL A   1      35.174  24.549  22.864  1.00  0.00     0.163 HD
ENDROOT
BRANCH   1   5
ATOM      5  C   UNL A   1      33.590  25.343  25.715  1.00  0.00     0.026 C 
ATOM      6  H   UNL A   1      34.226  24.669  26.251  1.00  0.00     0.037 H 
ATOM      7  H   UNL A   1      33.776  26.369  25.957  1.00  0.00     0.037 H 
BRANCH   5   8
ATOM      8  C   UNL A   1      32.141  25.054  26.112  1.00  0.00    -0.044 C 
ATOM      9  H   UNL A   1      31.826  25.860  26.742  1.00  0.00     0.027 H 
ATOM     10  H   UNL A   1      31.645  24.943  25.172  1.00  0.00     0.027 H 
BRANCH   8  11
ATOM     11  C   UNL A   1      31.795  23.746  26.855  1.00  0.00    -0.052 C 
ATOM     12  H   UNL A   1      31.101  24.001  27.629  1.00  0.00     0.027 H 
ATOM     13  H   UNL A   1      31.442  23.102  26.077  1.00  0.00     0.027 H 
BRANCH  11  14
ATOM     14  C   UNL A   1      32.913  22.929  27.513  1.00  0.00    -0.044 C 
ATOM     15  H   UNL A   1      33.614  23.648  27.883  1.00  0.00     0.028 H 
ATOM     16  H   UNL A   1      32.342  22.313  28.175  1.00  0.00     0.028 H 
BRANCH  14  17
ATOM     17  C   UNL A   1      33.759  21.863  26.794  1.00  0.00    -0.002 C 
ATOM     18  H   UNL A   1      34.092  22.341  25.897  1.00  0.00     0.038 H 
ATOM     19  H   UNL A   1      34.395  21.587  27.609  1.00  0.00     0.038 H 
BRANCH  17  20
ATOM     20  S   UNL A   1      33.255  20.196  26.266  1.00  0.00    -0.122 SA
BRANCH  20  21
ATOM     21  C   UNL A   1      32.918  20.256  24.525  1.00  0.00     0.050 A 
ATOM     22  C   UNL A   1      32.542  19.235  23.647  1.00  0.00     0.144 A 
ATOM     23  C   UNL A   1      32.028  19.542  22.374  1.00  0.00    -0.018 A 
ATOM     24  C   UNL A   1      31.940  20.865  21.942  1.00  0.00    -0.058 A 
ATOM     25  H   UNL A   1      31.712  18.780  21.754  1.00  0.00     0.066 H 
ATOM     26  C   UNL A   1      32.912  21.575  24.025  1.00  0.00    -0.045 A 
ATOM     27  C   UNL A   1      32.413  21.882  22.758  1.00  0.00    -0.061 A 
ATOM     28  H   UNL A   1      31.527  21.085  21.022  1.00  0.00     0.062 H 
ATOM     29  H   UNL A   1      33.287  22.336  24.614  1.00  0.00     0.064 H 
ATOM     30  H   UNL A   1      32.396  22.861  22.430  1.00  0.00     0.062 H 
BRANCH  22  31
ATOM     31  O   UNL A   1      32.347  17.870  23.996  1.00  0.00    -0.426 OA
BRANCH  31  32
ATOM     32  C   UNL A   1      33.250  16.901  24.428  1.00  0.00     0.308 C 
ATOM     33  O   UNL A   1      33.292  16.376  25.524  1.00  0.00    -0.252 OA
BRANCH  32  34
ATOM     34  C   UNL A   1      34.171  16.597  23.272  1.00  0.00     0.034 C 
ATOM     35  H   UNL A   1      34.833  15.803  23.543  1.00  0.00     0.035 H 
ATOM     36  H   UNL A   1      34.740  17.471  23.031  1.00  0.00     0.035 H 
ATOM     37  H   UNL A   1      33.590  16.305  22.421  1.00  0.00     0.035 H 
ENDBRANCH  32  34
ENDBRANCH  31  32
ENDBRANCH  22  31
ENDBRANCH  20  21
ENDBRANCH  17  20
ENDBRANCH  14  17
ENDBRANCH  11  14
ENDBRANCH   8  11
ENDBRANCH   5   8
ENDBRANCH   1   5
BRANCH   3  38
ATOM     38  C   UNL A   1      35.913  23.751  24.627  1.00  0.00     0.017 C 
ATOM     39  H   UNL A   1      35.399  23.335  25.468  1.00  0.00     0.049 H 
ATOM     40  H   UNL A   1      36.697  24.399  24.962  1.00  0.00     0.049 H 
BRANCH  38  41
ATOM     41  C   UNL A   1      36.518  22.622  23.797  1.00  0.00    -0.036 C 
ATOM     42  H   UNL A   1      37.429  22.974  23.361  1.00  0.00     0.028 H 
ATOM     43  H   UNL A   1      35.792  22.350  23.060  1.00  0.00     0.028 H 
BRANCH  41  44
ATOM     44  C   UNL A   1      36.824  21.369  24.604  1.00  0.00    -0.052 C 
ATOM     45  H   UNL A   1      36.770  20.523  23.951  1.00  0.00     0.027 H 
ATOM     46  H   UNL A   1      36.103  21.318  25.393  1.00  0.00     0.027 H 
BRANCH  44  47
ATOM     47  C   UNL A   1      38.209  21.390  25.257  1.00  0.00    -0.052 C 
ATOM     48  H   UNL A   1      38.085  21.646  26.289  1.00  0.00     0.027 H 
ATOM     49  H   UNL A   1      38.786  22.103  24.707  1.00  0.00     0.027 H 
BRANCH  47  50
ATOM     50  C   UNL A   1      38.986  20.069  25.186  1.00  0.00    -0.036 C 
ATOM     51  H   UNL A   1      39.696  20.142  24.388  1.00  0.00     0.028 H 
ATOM     52  H   UNL A   1      38.260  19.298  25.030  1.00  0.00     0.028 H 
BRANCH  50  53
ATOM     53  C   UNL A   1      39.739  19.706  26.464  1.00  0.00     0.018 C 
ATOM     54  H   UNL A   1      39.105  19.107  27.083  1.00  0.00     0.049 H 
ATOM     55  H   UNL A   1      40.010  20.612  26.963  1.00  0.00     0.049 H 
BRANCH  53  56
ATOM     56  N   UNL A   1      40.953  18.963  26.169  1.00  0.00    -0.352 N 
ATOM     57  C   UNL A   1      42.208  19.422  25.875  1.00  0.00     0.251 C 
ATOM     58  H   UNL A   1      40.858  17.982  26.182  1.00  0.00     0.163 HD
ATOM     59  O   UNL A   1      43.028  18.682  25.341  1.00  0.00    -0.269 OA
BRANCH  57  60
ATOM     60  C   UNL A   1      42.575  20.810  26.208  1.00  0.00     0.039 A 
ATOM     61  C   UNL A   1      42.724  21.170  27.549  1.00  0.00    -0.049 A 
ATOM     62  C   UNL A   1      42.726  21.764  25.198  1.00  0.00    -0.049 A 
ATOM     63  C   UNL A   1      43.068  22.481  27.875  1.00  0.00    -0.053 A 
ATOM     64  H   UNL A   1      42.581  20.470  28.294  1.00  0.00     0.063 H 
ATOM     65  C   UNL A   1      43.141  23.051  25.519  1.00  0.00    -0.053 A 
ATOM     66  H   UNL A   1      42.529  21.514  24.216  1.00  0.00     0.063 H 
ATOM     67  C   UNL A   1      43.303  23.425  26.861  1.00  0.00    -0.014 A 
ATOM     68  H   UNL A   1      43.149  22.760  28.865  1.00  0.00     0.063 H 
ATOM     69  H   UNL A   1      43.332  23.733  24.769  1.00  0.00     0.063 H 
BRANCH  67  70
ATOM     70  C   UNL A   1      43.707  24.813  27.186  1.00  0.00     0.031 A 
ATOM     71  C   UNL A   1      42.702  25.781  27.744  1.00  0.00     0.074 A 
ATOM     72  C   UNL A   1      44.964  25.216  26.920  1.00  0.00     0.049 A 
ATOM     73  N   UNL A   1      42.843  27.050  28.028  1.00  0.00    -0.248 NA
ATOM     74  C   UNL A   1      41.348  25.258  27.986  1.00  0.00    -0.034 C 
ATOM     75  C   UNL A   1      46.011  24.380  26.333  1.00  0.00    -0.036 A 
ATOM     76  N   UNL A   1      45.569  26.434  27.097  1.00  0.00    -0.354 N 
ATOM     77  C   UNL A   1      41.599  27.477  28.475  1.00  0.00     0.074 A 
ATOM     78  C   UNL A   1      40.699  26.349  28.363  1.00  0.00    -0.034 C 
ATOM     79  H   UNL A   1      40.995  24.292  27.889  1.00  0.00     0.065 H 
ATOM     80  C   UNL A   1      47.134  25.104  26.211  1.00  0.00    -0.036 A 
ATOM     81  H   UNL A   1      45.903  23.391  26.056  1.00  0.00     0.065 H 
ATOM     82  C   UNL A   1      46.876  26.464  26.675  1.00  0.00     0.049 A 
ATOM     83  H   UNL A   1      45.111  27.212  27.488  1.00  0.00     0.167 HD
ATOM     84  C   UNL A   1      41.246  28.691  28.960  1.00  0.00     0.037 A 
ATOM     85  H   UNL A   1      39.685  26.391  28.551  1.00  0.00     0.065 H 
ATOM     86  H   UNL A   1      48.035  24.756  25.848  1.00  0.00     0.065 H 
ATOM     87  C   UNL A   1      47.761  27.478  26.656  1.00  0.00     0.037 A 
ATOM     88  C   UNL A   1      42.152  29.805  29.076  1.00  0.00     0.049 A 
ATOM     89  C   UNL A   1      47.343  28.822  27.188  1.00  0.00     0.074 A 
ATOM     90  C   UNL A   1      41.910  31.065  29.595  1.00  0.00    -0.036 A 
ATOM     91  N   UNL A   1      43.476  29.792  28.660  1.00  0.00    -0.354 N 
ATOM     92  N   UNL A   1      46.184  29.196  27.673  1.00  0.00    -0.248 NA
ATOM     93  C   UNL A   1      48.361  29.881  27.181  1.00  0.00    -0.034 C 
ATOM     94  C   UNL A   1      43.072  31.828  29.448  1.00  0.00    -0.036 A 
ATOM     95  H   UNL A   1      41.025  31.385  30.019  1.00  0.00     0.065 H 
ATOM     96  C   UNL A   1      44.057  31.029  28.890  1.00  0.00     0.049 A 
ATOM     97  H   UNL A   1      43.934  29.019  28.259  1.00  0.00     0.167 HD
ATOM     98  C   UNL A   1      46.337  30.523  28.051  1.00  0.00     0.074 A 
ATOM     99  C   UNL A   1      47.709  30.883  27.755  1.00  0.00    -0.034 C 
ATOM    100  H   UNL A   1      49.328  29.853  26.822  1.00  0.00     0.065 H 
ATOM    101  H   UNL A   1      43.178  32.821  29.710  1.00  0.00     0.065 H 
ATOM    102  C   UNL A   1      45.426  31.368  28.592  1.00  0.00     0.037 A 
ATOM    103  H   UNL A   1      48.127  31.803  27.965  1.00  0.00     0.065 H 
BRANCH  84 104
ATOM    104  C   UNL A   1      39.823  28.874  29.401  1.00  0.00     0.064 A 
ATOM    105  C   UNL A   1      38.834  29.342  28.520  1.00  0.00     0.173 A 
ATOM    106  C   UNL A   1      39.434  28.559  30.712  1.00  0.00     0.173 A 
ATOM    107  F   UNL A   1      39.153  29.668  27.259  1.00  0.00    -0.203 F 
ATOM    108  C   UNL A   1      37.520  29.521  28.945  1.00  0.00     0.198 A 
ATOM    109  C   UNL A   1      38.112  28.707  31.124  1.00  0.00     0.198 A 
ATOM    110  F   UNL A   1      40.335  28.103  31.595  1.00  0.00    -0.203 F 
ATOM    111  F   UNL A   1      36.608  30.024  28.102  1.00  0.00    -0.200 F 
ATOM    112  C   UNL A   1      37.159  29.198  30.244  1.00  0.00     0.200 A 
ATOM    113  F   UNL A   1      37.761  28.381  32.375  1.00  0.00    -0.200 F 
ATOM    114  F   UNL A   1      35.893  29.367  30.651  1.00  0.00    -0.200 F 
ENDBRANCH  84 104
BRANCH  87 115
ATOM    115  C   UNL A   1      49.132  27.251  26.129  1.00  0.00     0.064 A 
ATOM    116  C   UNL A   1      50.182  26.887  26.983  1.00  0.00     0.173 A 
ATOM    117  C   UNL A   1      49.418  27.382  24.763  1.00  0.00     0.173 A 
ATOM    118  F   UNL A   1      49.962  26.766  28.301  1.00  0.00    -0.203 F 
ATOM    119  C   UNL A   1      51.470  26.684  26.493  1.00  0.00     0.198 A 
ATOM    120  C   UNL A   1      50.700  27.148  24.270  1.00  0.00     0.198 A 
ATOM    121  F   UNL A   1      48.446  27.718  23.902  1.00  0.00    -0.203 F 
ATOM    122  F   UNL A   1      52.465  26.380  27.338  1.00  0.00    -0.200 F 
ATOM    123  C   UNL A   1      51.727  26.808  25.136  1.00  0.00     0.200 A 
ATOM    124  F   UNL A   1      50.938  27.250  22.955  1.00  0.00    -0.200 F 
ATOM    125  F   UNL A   1      52.964  26.604  24.665  1.00  0.00    -0.200 F 
ENDBRANCH  87 115
BRANCH 102 126
ATOM    126  C   UNL A   1      45.890  32.755  28.930  1.00  0.00     0.064 A 
ATOM    127  C   UNL A   1      45.767  33.817  28.022  1.00  0.00     0.173 A 
ATOM    128  C   UNL A   1      46.431  33.032  30.195  1.00  0.00     0.173 A 
ATOM    129  F   UNL A   1      45.270  33.601  26.794  1.00  0.00    -0.203 F 
ATOM    130  C   UNL A   1      46.193  35.099  28.359  1.00  0.00     0.198 A 
ATOM    131  C   UNL A   1      46.825  34.322  30.540  1.00  0.00     0.198 A 
ATOM    132  F   UNL A   1      46.565  32.054  31.103  1.00  0.00    -0.203 F 
ATOM    133  F   UNL A   1      46.112  36.088  27.457  1.00  0.00    -0.200 F 
ATOM    134  C   UNL A   1      46.713  35.353  29.619  1.00  0.00     0.200 A 
ATOM    135  F   UNL A   1      47.314  34.568  31.763  1.00  0.00    -0.200 F 
ATOM    136  F   UNL A   1      47.115  36.590  29.943  1.00  0.00    -0.200 F 
ENDBRANCH 102 126
ENDBRANCH  67  70
ENDBRANCH  57  60
ENDBRANCH  53  56
ENDBRANCH  50  53
ENDBRANCH  47  50
ENDBRANCH  44  47
ENDBRANCH  41  44
ENDBRANCH  38  41
ENDBRANCH   3  38
TORSDOF 22
ENDMDL
MODEL 5
REMARK VINA RESULT:      -9.4      5.052     10.305
REMARK SMILES CC(=O)Oc1ccccc1SCCCCCC(=O)NCCCCCCNC(=O)c1ccc(-c2c3nc(c(-c4c(F)c(F)c(F)c(F)c4F)c4ccc([nH]4)c(-c4c(F)c(F)c(F)c(F)c4F)c4nc(c(-c5c(F)c(F)c(F)c(F)c5F)c5ccc2[nH]5)C=C4)C=C3)cc1
REMARK SMILES IDX 17 1 18 2 19 3 16 5 15 8 14 11 13 14 12 17 11 20 10 21 5 22
REMARK SMILES IDX 6 23 7 24 9 26 8 27 4 31 2 32 3 33 1 34 20 38 21 41 22 44
REMARK SMILES IDX 23 47 24 50 25 53 26 56 27 57 28 59 29 60 30 61 91 62 31 63
REMARK SMILES IDX 90 65 32 67 33 70 34 71 84 72 35 73 89 74 83 75 85 76 36 77
REMARK SMILES IDX 88 78 82 80 81 82 37 84 69 87 49 88 68 89 50 90 53 91 67 92
REMARK SMILES IDX 86 93 51 94 52 96 66 98 87 99 54 102 38 104 39 105 47 106
REMARK SMILES IDX 40 107 41 108 45 109 48 110 42 111 43 112 46 113 44 114
REMARK SMILES IDX 70 115 71 116 79 117 72 118 73 119 77 120 80 121 74 122
REMARK SMILES IDX 75 123 78 124 76 125 55 126 56 127 64 128 57 129 58 130
REMARK SMILES IDX 62 131 65 132 59 133 60 134 63 135 61 136
REMARK H PARENT 19 4 16 6 16 7 15 9 15 10 14 12 14 13 13 15 13 16 12 18 12 19
REMARK H PARENT 6 25 7 28 9 29 8 30 1 35 1 36 1 37 20 39 20 40 21 42 21 43
REMARK H PARENT 22 45 22 46 23 48 23 49 24 51 24 52 25 54 25 55 26 58 30 64
REMARK H PARENT 91 66 31 68 90 69 89 79 83 81 85 83 88 85 82 86 50 95 53 97
REMARK H PARENT 86 100 51 101 87 103
REMARK Flexibility Score: inf
ROOT
ATOM      1  C   UNL A   1      30.067  28.959  22.493  1.00  0.00     0.219 C 
ATOM      2  O   UNL A   1      29.351  29.455  21.622  1.00  0.00    -0.275 OA
ATOM      3  N   UNL A   1      30.684  29.781  23.383  1.00  0.00    -0.356 N 
ATOM      4  H   UNL A   1      30.434  30.731  23.334  1.00  0.00     0.163 HD
ENDROOT
BRANCH   1   5
ATOM      5  C   UNL A   1      30.248  27.460  22.603  1.00  0.00     0.026 C 
ATOM      6  H   UNL A   1      29.905  27.013  21.693  1.00  0.00     0.037 H 
ATOM      7  H   UNL A   1      31.290  27.288  22.781  1.00  0.00     0.037 H 
BRANCH   5   8
ATOM      8  C   UNL A   1      29.492  26.819  23.768  1.00  0.00    -0.044 C 
ATOM      9  H   UNL A   1      29.557  27.500  24.591  1.00  0.00     0.027 H 
ATOM     10  H   UNL A   1      28.521  26.633  23.360  1.00  0.00     0.027 H 
BRANCH   8  11
ATOM     11  C   UNL A   1      29.928  25.436  24.298  1.00  0.00    -0.052 C 
ATOM     12  H   UNL A   1      30.556  25.612  25.146  1.00  0.00     0.027 H 
ATOM     13  H   UNL A   1      29.001  24.932  24.475  1.00  0.00     0.027 H 
BRANCH  11  14
ATOM     14  C   UNL A   1      30.686  24.475  23.375  1.00  0.00    -0.044 C 
ATOM     15  H   UNL A   1      30.018  23.656  23.203  1.00  0.00     0.028 H 
ATOM     16  H   UNL A   1      30.968  25.141  22.587  1.00  0.00     0.028 H 
BRANCH  14  17
ATOM     17  C   UNL A   1      32.046  23.834  23.704  1.00  0.00    -0.002 C 
ATOM     18  H   UNL A   1      32.052  22.915  23.156  1.00  0.00     0.038 H 
ATOM     19  H   UNL A   1      32.674  24.674  23.492  1.00  0.00     0.038 H 
BRANCH  17  20
ATOM     20  S   UNL A   1      32.717  23.399  25.338  1.00  0.00    -0.122 SA
BRANCH  20  21
ATOM     21  C   UNL A   1      34.371  22.799  25.103  1.00  0.00     0.050 A 
ATOM     22  C   UNL A   1      34.897  21.517  25.290  1.00  0.00     0.144 A 
ATOM     23  C   UNL A   1      36.155  21.177  24.760  1.00  0.00    -0.018 A 
ATOM     24  C   UNL A   1      36.925  22.128  24.091  1.00  0.00    -0.058 A 
ATOM     25  H   UNL A   1      36.511  20.214  24.866  1.00  0.00     0.066 H 
ATOM     26  C   UNL A   1      35.213  23.764  24.512  1.00  0.00    -0.045 A 
ATOM     27  C   UNL A   1      36.467  23.433  23.995  1.00  0.00    -0.061 A 
ATOM     28  H   UNL A   1      37.830  21.861  23.672  1.00  0.00     0.062 H 
ATOM     29  H   UNL A   1      34.892  24.745  24.460  1.00  0.00     0.064 H 
ATOM     30  H   UNL A   1      37.049  24.156  23.543  1.00  0.00     0.062 H 
BRANCH  22  31
ATOM     31  O   UNL A   1      34.169  20.378  25.732  1.00  0.00    -0.426 OA
BRANCH  31  32
ATOM     32  C   UNL A   1      33.187  19.619  25.097  1.00  0.00     0.308 C 
ATOM     33  O   UNL A   1      32.002  19.880  25.012  1.00  0.00    -0.252 OA
BRANCH  32  34
ATOM     34  C   UNL A   1      33.865  18.406  24.510  1.00  0.00     0.034 C 
ATOM     35  H   UNL A   1      34.874  18.357  24.859  1.00  0.00     0.035 H 
ATOM     36  H   UNL A   1      33.859  18.477  23.441  1.00  0.00     0.035 H 
ATOM     37  H   UNL A   1      33.338  17.524  24.811  1.00  0.00     0.035 H 
ENDBRANCH  32  34
ENDBRANCH  31  32
ENDBRANCH  22  31
ENDBRANCH  20  21
ENDBRANCH  17  20
ENDBRANCH  14  17
ENDBRANCH  11  14
ENDBRANCH   8  11
ENDBRANCH   5   8
ENDBRANCH   1   5
BRANCH   3  38
ATOM     38  C   UNL A   1      31.661  29.440  24.391  1.00  0.00     0.017 C 
ATOM     39  H   UNL A   1      31.276  28.652  25.003  1.00  0.00     0.049 H 
ATOM     40  H   UNL A   1      31.861  30.304  24.990  1.00  0.00     0.049 H 
BRANCH  38  41
ATOM     41  C   UNL A   1      32.959  28.978  23.732  1.00  0.00    -0.036 C 
ATOM     42  H   UNL A   1      33.671  29.773  23.793  1.00  0.00     0.028 H 
ATOM     43  H   UNL A   1      32.722  28.718  22.722  1.00  0.00     0.028 H 
BRANCH  41  44
ATOM     44  C   UNL A   1      33.563  27.741  24.380  1.00  0.00    -0.052 C 
ATOM     45  H   UNL A   1      34.594  27.938  24.591  1.00  0.00     0.027 H 
ATOM     46  H   UNL A   1      33.440  26.931  23.691  1.00  0.00     0.027 H 
BRANCH  44  47
ATOM     47  C   UNL A   1      32.869  27.336  25.684  1.00  0.00    -0.052 C 
ATOM     48  H   UNL A   1      33.005  26.283  25.818  1.00  0.00     0.027 H 
ATOM     49  H   UNL A   1      31.844  27.624  25.576  1.00  0.00     0.027 H 
BRANCH  47  50
ATOM     50  C   UNL A   1      33.380  28.046  26.944  1.00  0.00    -0.036 C 
ATOM     51  H   UNL A   1      33.664  27.298  27.656  1.00  0.00     0.028 H 
ATOM     52  H   UNL A   1      32.581  28.669  27.287  1.00  0.00     0.028 H 
BRANCH  50  53
ATOM     53  C   UNL A   1      34.579  28.963  26.712  1.00  0.00     0.018 C 
ATOM     54  H   UNL A   1      34.798  28.993  25.666  1.00  0.00     0.049 H 
ATOM     55  H   UNL A   1      35.410  28.577  27.264  1.00  0.00     0.049 H 
BRANCH  53  56
ATOM     56  N   UNL A   1      34.309  30.314  27.178  1.00  0.00    -0.352 N 
ATOM     57  C   UNL A   1      34.870  31.010  28.215  1.00  0.00     0.251 C 
ATOM     58  H   UNL A   1      33.617  30.801  26.673  1.00  0.00     0.163 HD
ATOM     59  O   UNL A   1      34.310  32.001  28.669  1.00  0.00    -0.269 OA
BRANCH  57  60
ATOM     60  C   UNL A   1      36.157  30.566  28.779  1.00  0.00     0.039 A 
ATOM     61  C   UNL A   1      36.162  29.573  29.762  1.00  0.00    -0.049 A 
ATOM     62  C   UNL A   1      37.353  31.162  28.370  1.00  0.00    -0.049 A 
ATOM     63  C   UNL A   1      37.373  29.149  30.306  1.00  0.00    -0.053 A 
ATOM     64  H   UNL A   1      35.274  29.158  30.085  1.00  0.00     0.063 H 
ATOM     65  C   UNL A   1      38.565  30.687  28.857  1.00  0.00    -0.053 A 
ATOM     66  H   UNL A   1      37.337  31.954  27.708  1.00  0.00     0.063 H 
ATOM     67  C   UNL A   1      38.585  29.685  29.839  1.00  0.00    -0.014 A 
ATOM     68  H   UNL A   1      37.381  28.439  31.054  1.00  0.00     0.063 H 
ATOM     69  H   UNL A   1      39.451  31.070  28.495  1.00  0.00     0.063 H 
BRANCH  67  70
ATOM     70  C   UNL A   1      39.886  29.219  30.375  1.00  0.00     0.031 A 
ATOM     71  C   UNL A   1      40.526  29.935  31.531  1.00  0.00     0.074 A 
ATOM     72  C   UNL A   1      40.517  28.188  29.780  1.00  0.00     0.049 A 
ATOM     73  N   UNL A   1      41.686  29.723  32.097  1.00  0.00    -0.248 NA
ATOM     74  C   UNL A   1      39.773  31.060  32.107  1.00  0.00    -0.034 C 
ATOM     75  C   UNL A   1      40.016  27.449  28.621  1.00  0.00    -0.036 A 
ATOM     76  N   UNL A   1      41.721  27.595  30.060  1.00  0.00    -0.354 N 
ATOM     77  C   UNL A   1      41.804  30.689  33.089  1.00  0.00     0.074 A 
ATOM     78  C   UNL A   1      40.628  31.528  33.004  1.00  0.00    -0.034 C 
ATOM     79  H   UNL A   1      38.826  31.397  31.874  1.00  0.00     0.065 H 
ATOM     80  C   UNL A   1      40.897  26.491  28.298  1.00  0.00    -0.036 A 
ATOM     81  H   UNL A   1      39.127  27.635  28.131  1.00  0.00     0.065 H 
ATOM     82  C   UNL A   1      42.041  26.573  29.200  1.00  0.00     0.049 A 
ATOM     83  H   UNL A   1      42.299  27.874  30.805  1.00  0.00     0.167 HD
ATOM     84  C   UNL A   1      42.790  30.844  34.003  1.00  0.00     0.037 A 
ATOM     85  H   UNL A   1      40.477  32.378  33.568  1.00  0.00     0.065 H 
ATOM     86  H   UNL A   1      40.785  25.807  27.533  1.00  0.00     0.065 H 
ATOM     87  C   UNL A   1      43.140  25.798  29.142  1.00  0.00     0.037 A 
ATOM     88  C   UNL A   1      43.952  29.998  34.086  1.00  0.00     0.049 A 
ATOM     89  C   UNL A   1      44.229  25.997  30.161  1.00  0.00     0.074 A 
ATOM     90  C   UNL A   1      44.989  30.040  35.001  1.00  0.00    -0.036 A 
ATOM     91  N   UNL A   1      44.234  28.957  33.211  1.00  0.00    -0.354 N 
ATOM     92  N   UNL A   1      44.299  26.868  31.138  1.00  0.00    -0.248 NA
ATOM     93  C   UNL A   1      45.387  25.097  30.076  1.00  0.00    -0.034 C 
ATOM     94  C   UNL A   1      45.921  29.057  34.652  1.00  0.00    -0.036 A 
ATOM     95  H   UNL A   1      45.061  30.684  35.804  1.00  0.00     0.065 H 
ATOM     96  C   UNL A   1      45.439  28.364  33.553  1.00  0.00     0.049 A 
ATOM     97  H   UNL A   1      43.662  28.682  32.459  1.00  0.00     0.167 HD
ATOM     98  C   UNL A   1      45.492  26.609  31.799  1.00  0.00     0.074 A 
ATOM     99  C   UNL A   1      46.105  25.484  31.121  1.00  0.00    -0.034 C 
ATOM    100  H   UNL A   1      45.589  24.359  29.385  1.00  0.00     0.065 H 
ATOM    101  H   UNL A   1      46.817  28.879  35.131  1.00  0.00     0.065 H 
ATOM    102  C   UNL A   1      46.032  27.243  32.868  1.00  0.00     0.037 A 
ATOM    103  H   UNL A   1      46.990  25.040  31.414  1.00  0.00     0.065 H 
BRANCH  84 104
ATOM    104  C   UNL A   1      42.651  31.970  34.987  1.00  0.00     0.064 A 
ATOM    105  C   UNL A   1      43.172  33.247  34.722  1.00  0.00     0.173 A 
ATOM    106  C   UNL A   1      41.971  31.781  36.199  1.00  0.00     0.173 A 
ATOM    107  F   UNL A   1      43.841  33.480  33.583  1.00  0.00    -0.203 F 
ATOM    108  C   UNL A   1      43.049  34.279  35.648  1.00  0.00     0.198 A 
ATOM    109  C   UNL A   1      41.820  32.825  37.109  1.00  0.00     0.198 A 
ATOM    110  F   UNL A   1      41.447  30.584  36.503  1.00  0.00    -0.203 F 
ATOM    111  F   UNL A   1      43.607  35.472  35.398  1.00  0.00    -0.200 F 
ATOM    112  C   UNL A   1      42.369  34.069  36.838  1.00  0.00     0.200 A 
ATOM    113  F   UNL A   1      41.150  32.625  38.251  1.00  0.00    -0.200 F 
ATOM    114  F   UNL A   1      42.248  35.065  37.727  1.00  0.00    -0.200 F 
ENDBRANCH  84 104
BRANCH  87 115
ATOM    115  C   UNL A   1      43.252  24.753  28.091  1.00  0.00     0.064 A 
ATOM    116  C   UNL A   1      43.778  25.055  26.828  1.00  0.00     0.173 A 
ATOM    117  C   UNL A   1      42.845  23.433  28.330  1.00  0.00     0.173 A 
ATOM    118  F   UNL A   1      44.165  26.307  26.545  1.00  0.00    -0.203 F 
ATOM    119  C   UNL A   1      43.874  24.080  25.837  1.00  0.00     0.198 A 
ATOM    120  C   UNL A   1      42.970  22.452  27.349  1.00  0.00     0.198 A 
ATOM    121  F   UNL A   1      42.343  23.091  29.526  1.00  0.00    -0.203 F 
ATOM    122  F   UNL A   1      44.340  24.405  24.623  1.00  0.00    -0.200 F 
ATOM    123  C   UNL A   1      43.476  22.777  26.101  1.00  0.00     0.200 A 
ATOM    124  F   UNL A   1      42.602  21.191  27.615  1.00  0.00    -0.200 F 
ATOM    125  F   UNL A   1      43.576  21.839  25.150  1.00  0.00    -0.200 F 
ENDBRANCH  87 115
BRANCH 102 126
ATOM    126  C   UNL A   1      47.337  26.716  33.394  1.00  0.00     0.064 A 
ATOM    127  C   UNL A   1      48.568  27.236  32.967  1.00  0.00     0.173 A 
ATOM    128  C   UNL A   1      47.352  25.703  34.365  1.00  0.00     0.173 A 
ATOM    129  F   UNL A   1      48.608  28.194  32.029  1.00  0.00    -0.203 F 
ATOM    130  C   UNL A   1      49.767  26.742  33.474  1.00  0.00     0.198 A 
ATOM    131  C   UNL A   1      48.552  25.235  34.894  1.00  0.00     0.198 A 
ATOM    132  F   UNL A   1      46.202  25.176  34.811  1.00  0.00    -0.203 F 
ATOM    133  F   UNL A   1      50.933  27.218  33.016  1.00  0.00    -0.200 F 
ATOM    134  C   UNL A   1      49.758  25.749  34.443  1.00  0.00     0.200 A 
ATOM    135  F   UNL A   1      48.540  24.287  35.839  1.00  0.00    -0.200 F 
ATOM    136  F   UNL A   1      50.913  25.281  34.935  1.00  0.00    -0.200 F 
ENDBRANCH 102 126
ENDBRANCH  67  70
ENDBRANCH  57  60
ENDBRANCH  53  56
ENDBRANCH  50  53
ENDBRANCH  47  50
ENDBRANCH  44  47
ENDBRANCH  41  44
ENDBRANCH  38  41
ENDBRANCH   3  38
TORSDOF 22
ENDMDL
MODEL 6
REMARK VINA RESULT:      -9.4      5.413     11.219
REMARK SMILES CC(=O)Oc1ccccc1SCCCCCC(=O)NCCCCCCNC(=O)c1ccc(-c2c3nc(c(-c4c(F)c(F)c(F)c(F)c4F)c4ccc([nH]4)c(-c4c(F)c(F)c(F)c(F)c4F)c4nc(c(-c5c(F)c(F)c(F)c(F)c5F)c5ccc2[nH]5)C=C4)C=C3)cc1
REMARK SMILES IDX 17 1 18 2 19 3 16 5 15 8 14 11 13 14 12 17 11 20 10 21 5 22
REMARK SMILES IDX 6 23 7 24 9 26 8 27 4 31 2 32 3 33 1 34 20 38 21 41 22 44
REMARK SMILES IDX 23 47 24 50 25 53 26 56 27 57 28 59 29 60 30 61 91 62 31 63
REMARK SMILES IDX 90 65 32 67 33 70 34 71 84 72 35 73 89 74 83 75 85 76 36 77
REMARK SMILES IDX 88 78 82 80 81 82 37 84 69 87 49 88 68 89 50 90 53 91 67 92
REMARK SMILES IDX 86 93 51 94 52 96 66 98 87 99 54 102 38 104 39 105 47 106
REMARK SMILES IDX 40 107 41 108 45 109 48 110 42 111 43 112 46 113 44 114
REMARK SMILES IDX 70 115 71 116 79 117 72 118 73 119 77 120 80 121 74 122
REMARK SMILES IDX 75 123 78 124 76 125 55 126 56 127 64 128 57 129 58 130
REMARK SMILES IDX 62 131 65 132 59 133 60 134 63 135 61 136
REMARK H PARENT 19 4 16 6 16 7 15 9 15 10 14 12 14 13 13 15 13 16 12 18 12 19
REMARK H PARENT 6 25 7 28 9 29 8 30 1 35 1 36 1 37 20 39 20 40 21 42 21 43
REMARK H PARENT 22 45 22 46 23 48 23 49 24 51 24 52 25 54 25 55 26 58 30 64
REMARK H PARENT 91 66 31 68 90 69 89 79 83 81 85 83 88 85 82 86 50 95 53 97
REMARK H PARENT 86 100 51 101 87 103
REMARK Flexibility Score: inf
ROOT
ATOM      1  C   UNL A   1      30.773  28.885  22.385  1.00  0.00     0.219 C 
ATOM      2  O   UNL A   1      29.917  29.756  22.223  1.00  0.00    -0.275 OA
ATOM      3  N   UNL A   1      32.085  29.237  22.341  1.00  0.00    -0.356 N 
ATOM      4  H   UNL A   1      32.268  30.202  22.280  1.00  0.00     0.163 HD
ENDROOT
BRANCH   1   5
ATOM      5  C   UNL A   1      30.389  27.447  22.658  1.00  0.00     0.026 C 
ATOM      6  H   UNL A   1      30.001  27.026  21.754  1.00  0.00     0.037 H 
ATOM      7  H   UNL A   1      31.275  26.951  22.999  1.00  0.00     0.037 H 
BRANCH   5   8
ATOM      8  C   UNL A   1      29.339  27.273  23.758  1.00  0.00    -0.044 C 
ATOM      9  H   UNL A   1      29.488  28.069  24.457  1.00  0.00     0.027 H 
ATOM     10  H   UNL A   1      28.416  27.260  23.218  1.00  0.00     0.027 H 
BRANCH   8  11
ATOM     11  C   UNL A   1      29.293  25.964  24.575  1.00  0.00    -0.052 C 
ATOM     12  H   UNL A   1      28.304  25.883  24.976  1.00  0.00     0.027 H 
ATOM     13  H   UNL A   1      29.595  25.218  23.870  1.00  0.00     0.027 H 
BRANCH  11  14
ATOM     14  C   UNL A   1      30.265  25.765  25.744  1.00  0.00    -0.044 C 
ATOM     15  H   UNL A   1      31.230  26.022  25.361  1.00  0.00     0.028 H 
ATOM     16  H   UNL A   1      29.787  26.354  26.498  1.00  0.00     0.028 H 
BRANCH  14  17
ATOM     17  C   UNL A   1      30.463  24.441  26.502  1.00  0.00    -0.002 C 
ATOM     18  H   UNL A   1      30.306  24.691  27.530  1.00  0.00     0.038 H 
ATOM     19  H   UNL A   1      29.811  23.823  25.919  1.00  0.00     0.038 H 
BRANCH  17  20
ATOM     20  S   UNL A   1      31.925  23.358  26.511  1.00  0.00    -0.122 SA
BRANCH  20  21
ATOM     21  C   UNL A   1      32.771  23.573  24.966  1.00  0.00     0.050 A 
ATOM     22  C   UNL A   1      34.131  23.756  24.704  1.00  0.00     0.144 A 
ATOM     23  C   UNL A   1      34.634  23.601  23.399  1.00  0.00    -0.018 A 
ATOM     24  C   UNL A   1      33.778  23.322  22.335  1.00  0.00    -0.058 A 
ATOM     25  H   UNL A   1      35.648  23.694  23.228  1.00  0.00     0.066 H 
ATOM     26  C   UNL A   1      31.916  23.391  23.858  1.00  0.00    -0.045 A 
ATOM     27  C   UNL A   1      32.411  23.249  22.560  1.00  0.00    -0.061 A 
ATOM     28  H   UNL A   1      34.158  23.173  21.388  1.00  0.00     0.062 H 
ATOM     29  H   UNL A   1      30.895  23.362  24.011  1.00  0.00     0.064 H 
ATOM     30  H   UNL A   1      31.763  23.089  21.772  1.00  0.00     0.062 H 
BRANCH  22  31
ATOM     31  O   UNL A   1      35.164  23.811  25.680  1.00  0.00    -0.426 OA
BRANCH  31  32
ATOM     32  C   UNL A   1      36.183  22.910  25.983  1.00  0.00     0.308 C 
ATOM     33  O   UNL A   1      36.077  21.708  26.130  1.00  0.00    -0.252 OA
BRANCH  32  34
ATOM     34  C   UNL A   1      37.466  23.697  26.080  1.00  0.00     0.034 C 
ATOM     35  H   UNL A   1      38.190  23.133  26.629  1.00  0.00     0.035 H 
ATOM     36  H   UNL A   1      37.279  24.624  26.582  1.00  0.00     0.035 H 
ATOM     37  H   UNL A   1      37.838  23.895  25.095  1.00  0.00     0.035 H 
ENDBRANCH  32  34
ENDBRANCH  31  32
ENDBRANCH  22  31
ENDBRANCH  20  21
ENDBRANCH  17  20
ENDBRANCH  14  17
ENDBRANCH  11  14
ENDBRANCH   8  11
ENDBRANCH   5   8
ENDBRANCH   1   5
BRANCH   3  38
ATOM     38  C   UNL A   1      33.245  28.378  22.371  1.00  0.00     0.017 C 
ATOM     39  H   UNL A   1      34.083  28.929  22.743  1.00  0.00     0.049 H 
ATOM     40  H   UNL A   1      33.449  28.031  21.379  1.00  0.00     0.049 H 
BRANCH  38  41
ATOM     41  C   UNL A   1      32.989  27.177  23.277  1.00  0.00    -0.036 C 
ATOM     42  H   UNL A   1      33.354  26.299  22.787  1.00  0.00     0.028 H 
ATOM     43  H   UNL A   1      31.935  27.137  23.454  1.00  0.00     0.028 H 
BRANCH  41  44
ATOM     44  C   UNL A   1      33.664  27.284  24.637  1.00  0.00    -0.052 C 
ATOM     45  H   UNL A   1      34.712  27.109  24.509  1.00  0.00     0.027 H 
ATOM     46  H   UNL A   1      33.207  26.556  25.274  1.00  0.00     0.027 H 
BRANCH  44  47
ATOM     47  C   UNL A   1      33.477  28.650  25.302  1.00  0.00    -0.052 C 
ATOM     48  H   UNL A   1      33.615  29.404  24.555  1.00  0.00     0.027 H 
ATOM     49  H   UNL A   1      34.198  28.696  26.092  1.00  0.00     0.027 H 
BRANCH  47  50
ATOM     50  C   UNL A   1      32.110  28.876  25.960  1.00  0.00    -0.036 C 
ATOM     51  H   UNL A   1      31.704  27.920  26.222  1.00  0.00     0.028 H 
ATOM     52  H   UNL A   1      31.512  29.402  25.245  1.00  0.00     0.028 H 
BRANCH  50  53
ATOM     53  C   UNL A   1      32.146  29.741  27.218  1.00  0.00     0.018 C 
ATOM     54  H   UNL A   1      32.946  29.409  27.845  1.00  0.00     0.049 H 
ATOM     55  H   UNL A   1      31.206  29.645  27.719  1.00  0.00     0.049 H 
BRANCH  53  56
ATOM     56  N   UNL A   1      32.351  31.142  26.890  1.00  0.00    -0.352 N 
ATOM     57  C   UNL A   1      33.268  32.030  27.384  1.00  0.00     0.251 C 
ATOM     58  H   UNL A   1      31.737  31.507  26.211  1.00  0.00     0.163 HD
ATOM     59  O   UNL A   1      33.099  33.236  27.242  1.00  0.00    -0.269 OA
BRANCH  57  60
ATOM     60  C   UNL A   1      34.466  31.530  28.082  1.00  0.00     0.039 A 
ATOM     61  C   UNL A   1      35.447  32.439  28.484  1.00  0.00    -0.049 A 
ATOM     62  C   UNL A   1      34.639  30.160  28.298  1.00  0.00    -0.049 A 
ATOM     63  C   UNL A   1      36.585  31.976  29.142  1.00  0.00    -0.053 A 
ATOM     64  H   UNL A   1      35.330  33.446  28.295  1.00  0.00     0.063 H 
ATOM     65  C   UNL A   1      35.737  29.707  29.019  1.00  0.00    -0.053 A 
ATOM     66  H   UNL A   1      33.954  29.486  27.922  1.00  0.00     0.063 H 
ATOM     67  C   UNL A   1      36.726  30.609  29.436  1.00  0.00    -0.014 A 
ATOM     68  H   UNL A   1      37.328  32.639  29.414  1.00  0.00     0.063 H 
ATOM     69  H   UNL A   1      35.824  28.705  29.250  1.00  0.00     0.063 H 
BRANCH  67  70
ATOM     70  C   UNL A   1      37.911  30.102  30.170  1.00  0.00     0.031 A 
ATOM     71  C   UNL A   1      38.179  30.559  31.576  1.00  0.00     0.074 A 
ATOM     72  C   UNL A   1      38.775  29.280  29.545  1.00  0.00     0.049 A 
ATOM     73  N   UNL A   1      39.192  30.284  32.358  1.00  0.00    -0.248 NA
ATOM     74  C   UNL A   1      37.190  31.471  32.173  1.00  0.00    -0.034 C 
ATOM     75  C   UNL A   1      38.644  28.810  28.166  1.00  0.00    -0.036 A 
ATOM     76  N   UNL A   1      39.940  28.706  29.985  1.00  0.00    -0.354 N 
ATOM     77  C   UNL A   1      38.966  30.992  33.531  1.00  0.00     0.074 A 
ATOM     78  C   UNL A   1      37.755  31.759  33.336  1.00  0.00    -0.034 C 
ATOM     79  H   UNL A   1      36.291  31.800  31.787  1.00  0.00     0.065 H 
ATOM     80  C   UNL A   1      39.680  28.008  27.876  1.00  0.00    -0.036 A 
ATOM     81  H   UNL A   1      37.879  29.057  27.519  1.00  0.00     0.065 H 
ATOM     82  C   UNL A   1      40.565  27.937  29.034  1.00  0.00     0.049 A 
ATOM     83  H   UNL A   1      40.294  28.833  30.894  1.00  0.00     0.167 HD
ATOM     84  C   UNL A   1      39.688  30.981  34.677  1.00  0.00     0.037 A 
ATOM     85  H   UNL A   1      37.381  32.441  34.014  1.00  0.00     0.065 H 
ATOM     86  H   UNL A   1      39.827  27.519  26.979  1.00  0.00     0.065 H 
ATOM     87  C   UNL A   1      41.728  27.261  29.089  1.00  0.00     0.037 A 
ATOM     88  C   UNL A   1      40.887  30.206  34.865  1.00  0.00     0.049 A 
ATOM     89  C   UNL A   1      42.520  27.274  30.368  1.00  0.00     0.074 A 
ATOM     90  C   UNL A   1      41.671  30.087  35.999  1.00  0.00    -0.036 A 
ATOM     91  N   UNL A   1      41.480  29.420  33.886  1.00  0.00    -0.354 N 
ATOM     92  N   UNL A   1      42.262  27.891  31.495  1.00  0.00    -0.248 NA
ATOM     93  C   UNL A   1      43.760  26.487  30.385  1.00  0.00    -0.034 C 
ATOM     94  C   UNL A   1      42.763  29.270  35.692  1.00  0.00    -0.036 A 
ATOM     95  H   UNL A   1      41.481  30.526  36.914  1.00  0.00     0.065 H 
ATOM     96  C   UNL A   1      42.632  28.831  34.384  1.00  0.00     0.049 A 
ATOM     97  H   UNL A   1      41.134  29.299  32.972  1.00  0.00     0.167 HD
ATOM     98  C   UNL A   1      43.290  27.549  32.363  1.00  0.00     0.074 A 
ATOM     99  C   UNL A   1      44.167  26.654  31.636  1.00  0.00    -0.034 C 
ATOM    100  H   UNL A   1      44.200  25.946  29.624  1.00  0.00     0.065 H 
ATOM    101  H   UNL A   1      43.538  29.034  36.332  1.00  0.00     0.065 H 
ATOM    102  C   UNL A   1      43.491  27.941  33.646  1.00  0.00     0.037 A 
ATOM    103  H   UNL A   1      45.003  26.204  32.040  1.00  0.00     0.065 H 
BRANCH  84 104
ATOM    104  C   UNL A   1      39.197  31.831  35.813  1.00  0.00     0.064 A 
ATOM    105  C   UNL A   1      39.642  33.152  35.988  1.00  0.00     0.173 A 
ATOM    106  C   UNL A   1      38.256  31.332  36.725  1.00  0.00     0.173 A 
ATOM    107  F   UNL A   1      40.549  33.676  35.151  1.00  0.00    -0.203 F 
ATOM    108  C   UNL A   1      39.190  33.926  37.054  1.00  0.00     0.198 A 
ATOM    109  C   UNL A   1      37.781  32.120  37.771  1.00  0.00     0.198 A 
ATOM    110  F   UNL A   1      37.793  30.079  36.603  1.00  0.00    -0.203 F 
ATOM    111  F   UNL A   1      39.674  35.162  37.234  1.00  0.00    -0.200 F 
ATOM    112  C   UNL A   1      38.256  33.412  37.940  1.00  0.00     0.200 A 
ATOM    113  F   UNL A   1      36.868  31.628  38.618  1.00  0.00    -0.200 F 
ATOM    114  F   UNL A   1      37.819  34.159  38.964  1.00  0.00    -0.200 F 
ENDBRANCH  84 104
BRANCH  87 115
ATOM    115  C   UNL A   1      42.198  26.504  27.900  1.00  0.00     0.064 A 
ATOM    116  C   UNL A   1      41.746  25.202  27.648  1.00  0.00     0.173 A 
ATOM    117  C   UNL A   1      43.100  27.070  26.986  1.00  0.00     0.173 A 
ATOM    118  F   UNL A   1      40.897  24.612  28.501  1.00  0.00    -0.203 F 
ATOM    119  C   UNL A   1      42.194  24.487  26.539  1.00  0.00     0.198 A 
ATOM    120  C   UNL A   1      43.523  26.366  25.861  1.00  0.00     0.198 A 
ATOM    121  F   UNL A   1      43.555  28.317  27.177  1.00  0.00    -0.203 F 
ATOM    122  F   UNL A   1      41.780  23.227  26.346  1.00  0.00    -0.200 F 
ATOM    123  C   UNL A   1      43.077  25.072  25.643  1.00  0.00     0.200 A 
ATOM    124  F   UNL A   1      44.360  26.942  24.989  1.00  0.00    -0.200 F 
ATOM    125  F   UNL A   1      43.500  24.386  24.572  1.00  0.00    -0.200 F 
ENDBRANCH  87 115
BRANCH 102 126
ATOM    126  C   UNL A   1      44.689  27.378  34.357  1.00  0.00     0.064 A 
ATOM    127  C   UNL A   1      44.632  26.158  35.046  1.00  0.00     0.173 A 
ATOM    128  C   UNL A   1      45.919  28.052  34.314  1.00  0.00     0.173 A 
ATOM    129  F   UNL A   1      43.475  25.482  35.128  1.00  0.00    -0.203 F 
ATOM    130  C   UNL A   1      45.755  25.646  35.689  1.00  0.00     0.198 A 
ATOM    131  C   UNL A   1      47.048  27.521  34.931  1.00  0.00     0.198 A 
ATOM    132  F   UNL A   1      46.029  29.220  33.664  1.00  0.00    -0.203 F 
ATOM    133  F   UNL A   1      45.666  24.504  36.384  1.00  0.00    -0.200 F 
ATOM    134  C   UNL A   1      46.964  26.323  35.624  1.00  0.00     0.200 A 
ATOM    135  F   UNL A   1      48.218  28.170  34.854  1.00  0.00    -0.200 F 
ATOM    136  F   UNL A   1      48.046  25.825  36.237  1.00  0.00    -0.200 F 
ENDBRANCH 102 126
ENDBRANCH  67  70
ENDBRANCH  57  60
ENDBRANCH  53  56
ENDBRANCH  50  53
ENDBRANCH  47  50
ENDBRANCH  44  47
ENDBRANCH  41  44
ENDBRANCH  38  41
ENDBRANCH   3  38
TORSDOF 22
ENDMDL
MODEL 7
REMARK VINA RESULT:      -9.4      3.943      9.412
REMARK SMILES CC(=O)Oc1ccccc1SCCCCCC(=O)NCCCCCCNC(=O)c1ccc(-c2c3nc(c(-c4c(F)c(F)c(F)c(F)c4F)c4ccc([nH]4)c(-c4c(F)c(F)c(F)c(F)c4F)c4nc(c(-c5c(F)c(F)c(F)c(F)c5F)c5ccc2[nH]5)C=C4)C=C3)cc1
REMARK SMILES IDX 17 1 18 2 19 3 16 5 15 8 14 11 13 14 12 17 11 20 10 21 5 22
REMARK SMILES IDX 6 23 7 24 9 26 8 27 4 31 2 32 3 33 1 34 20 38 21 41 22 44
REMARK SMILES IDX 23 47 24 50 25 53 26 56 27 57 28 59 29 60 30 61 91 62 31 63
REMARK SMILES IDX 90 65 32 67 33 70 34 71 84 72 35 73 89 74 83 75 85 76 36 77
REMARK SMILES IDX 88 78 82 80 81 82 37 84 69 87 49 88 68 89 50 90 53 91 67 92
REMARK SMILES IDX 86 93 51 94 52 96 66 98 87 99 54 102 38 104 39 105 47 106
REMARK SMILES IDX 40 107 41 108 45 109 48 110 42 111 43 112 46 113 44 114
REMARK SMILES IDX 70 115 71 116 79 117 72 118 73 119 77 120 80 121 74 122
REMARK SMILES IDX 75 123 78 124 76 125 55 126 56 127 64 128 57 129 58 130
REMARK SMILES IDX 62 131 65 132 59 133 60 134 63 135 61 136
REMARK H PARENT 19 4 16 6 16 7 15 9 15 10 14 12 14 13 13 15 13 16 12 18 12 19
REMARK H PARENT 6 25 7 28 9 29 8 30 1 35 1 36 1 37 20 39 20 40 21 42 21 43
REMARK H PARENT 22 45 22 46 23 48 23 49 24 51 24 52 25 54 25 55 26 58 30 64
REMARK H PARENT 91 66 31 68 90 69 89 79 83 81 85 83 88 85 82 86 50 95 53 97
REMARK H PARENT 86 100 51 101 87 103
REMARK Flexibility Score: inf
ROOT
ATOM      1  C   UNL A   1      30.061  29.329  22.415  1.00  0.00     0.219 C 
ATOM      2  O   UNL A   1      29.437  29.893  21.515  1.00  0.00    -0.275 OA
ATOM      3  N   UNL A   1      30.532  30.069  23.453  1.00  0.00    -0.356 N 
ATOM      4  H   UNL A   1      30.251  31.012  23.469  1.00  0.00     0.163 HD
ENDROOT
BRANCH   1   5
ATOM      5  C   UNL A   1      30.288  27.832  22.396  1.00  0.00     0.026 C 
ATOM      6  H   UNL A   1      29.956  27.455  21.451  1.00  0.00     0.037 H 
ATOM      7  H   UNL A   1      31.334  27.677  22.560  1.00  0.00     0.037 H 
BRANCH   5   8
ATOM      8  C   UNL A   1      29.553  27.070  23.501  1.00  0.00    -0.044 C 
ATOM      9  H   UNL A   1      29.473  27.735  24.335  1.00  0.00     0.027 H 
ATOM     10  H   UNL A   1      28.643  26.765  23.028  1.00  0.00     0.027 H 
BRANCH   8  11
ATOM     11  C   UNL A   1      30.136  25.746  24.039  1.00  0.00    -0.052 C 
ATOM     12  H   UNL A   1      30.962  26.004  24.668  1.00  0.00     0.027 H 
ATOM     13  H   UNL A   1      29.297  25.274  24.506  1.00  0.00     0.027 H 
BRANCH  11  14
ATOM     14  C   UNL A   1      30.641  24.684  23.056  1.00  0.00    -0.044 C 
ATOM     15  H   UNL A   1      29.859  23.956  22.994  1.00  0.00     0.028 H 
ATOM     16  H   UNL A   1      30.900  25.299  22.220  1.00  0.00     0.028 H 
BRANCH  14  17
ATOM     17  C   UNL A   1      31.941  23.878  23.228  1.00  0.00    -0.002 C 
ATOM     18  H   UNL A   1      31.807  23.341  24.143  1.00  0.00     0.038 H 
ATOM     19  H   UNL A   1      31.980  23.428  22.257  1.00  0.00     0.038 H 
BRANCH  17  20
ATOM     20  S   UNL A   1      33.648  24.501  23.306  1.00  0.00    -0.122 SA
BRANCH  20  21
ATOM     21  C   UNL A   1      34.615  23.325  24.218  1.00  0.00     0.050 A 
ATOM     22  C   UNL A   1      34.273  22.550  25.330  1.00  0.00     0.144 A 
ATOM     23  C   UNL A   1      35.076  21.461  25.715  1.00  0.00    -0.018 A 
ATOM     24  C   UNL A   1      36.256  21.171  25.032  1.00  0.00    -0.058 A 
ATOM     25  H   UNL A   1      34.787  20.869  26.510  1.00  0.00     0.066 H 
ATOM     26  C   UNL A   1      35.862  23.071  23.610  1.00  0.00    -0.045 A 
ATOM     27  C   UNL A   1      36.667  21.998  23.997  1.00  0.00    -0.061 A 
ATOM     28  H   UNL A   1      36.820  20.348  25.297  1.00  0.00     0.062 H 
ATOM     29  H   UNL A   1      36.190  23.697  22.857  1.00  0.00     0.064 H 
ATOM     30  H   UNL A   1      37.562  21.820  23.515  1.00  0.00     0.062 H 
BRANCH  22  31
ATOM     31  O   UNL A   1      33.012  22.554  25.988  1.00  0.00    -0.426 OA
BRANCH  31  32
ATOM     32  C   UNL A   1      31.856  21.813  25.749  1.00  0.00     0.308 C 
ATOM     33  O   UNL A   1      31.778  20.739  25.185  1.00  0.00    -0.252 OA
BRANCH  32  34
ATOM     34  C   UNL A   1      30.699  22.581  26.339  1.00  0.00     0.034 C 
ATOM     35  H   UNL A   1      29.983  21.896  26.740  1.00  0.00     0.035 H 
ATOM     36  H   UNL A   1      30.239  23.175  25.576  1.00  0.00     0.035 H 
ATOM     37  H   UNL A   1      31.058  23.221  27.119  1.00  0.00     0.035 H 
ENDBRANCH  32  34
ENDBRANCH  31  32
ENDBRANCH  22  31
ENDBRANCH  20  21
ENDBRANCH  17  20
ENDBRANCH  14  17
ENDBRANCH  11  14
ENDBRANCH   8  11
ENDBRANCH   5   8
ENDBRANCH   1   5
BRANCH   3  38
ATOM     38  C   UNL A   1      31.391  29.651  24.536  1.00  0.00     0.017 C 
ATOM     39  H   UNL A   1      30.928  28.845  25.063  1.00  0.00     0.049 H 
ATOM     40  H   UNL A   1      31.547  30.479  25.197  1.00  0.00     0.049 H 
BRANCH  38  41
ATOM     41  C   UNL A   1      32.740  29.188  23.990  1.00  0.00    -0.036 C 
ATOM     42  H   UNL A   1      33.427  30.006  24.049  1.00  0.00     0.028 H 
ATOM     43  H   UNL A   1      32.576  28.865  22.984  1.00  0.00     0.028 H 
BRANCH  41  44
ATOM     44  C   UNL A   1      33.330  28.008  24.747  1.00  0.00    -0.052 C 
ATOM     45  H   UNL A   1      34.310  28.277  25.084  1.00  0.00     0.027 H 
ATOM     46  H   UNL A   1      33.349  27.177  24.072  1.00  0.00     0.027 H 
BRANCH  44  47
ATOM     47  C   UNL A   1      32.498  27.586  25.961  1.00  0.00    -0.052 C 
ATOM     48  H   UNL A   1      32.561  26.521  26.052  1.00  0.00     0.027 H 
ATOM     49  H   UNL A   1      31.505  27.940  25.777  1.00  0.00     0.027 H 
BRANCH  47  50
ATOM     50  C   UNL A   1      32.931  28.204  27.296  1.00  0.00    -0.036 C 
ATOM     51  H   UNL A   1      32.994  27.419  28.022  1.00  0.00     0.028 H 
ATOM     52  H   UNL A   1      32.196  28.943  27.542  1.00  0.00     0.028 H 
BRANCH  50  53
ATOM     53  C   UNL A   1      34.276  28.925  27.255  1.00  0.00     0.018 C 
ATOM     54  H   UNL A   1      34.599  29.002  26.238  1.00  0.00     0.049 H 
ATOM     55  H   UNL A   1      34.978  28.362  27.834  1.00  0.00     0.049 H 
BRANCH  53  56
ATOM     56  N   UNL A   1      34.178  30.260  27.823  1.00  0.00    -0.352 N 
ATOM     57  C   UNL A   1      34.996  30.889  28.722  1.00  0.00     0.251 C 
ATOM     58  H   UNL A   1      33.407  30.790  27.515  1.00  0.00     0.163 HD
ATOM     59  O   UNL A   1      34.599  31.875  29.335  1.00  0.00    -0.269 OA
BRANCH  57  60
ATOM     60  C   UNL A   1      36.360  30.380  28.949  1.00  0.00     0.039 A 
ATOM     61  C   UNL A   1      37.329  30.569  27.960  1.00  0.00    -0.049 A 
ATOM     62  C   UNL A   1      36.669  29.677  30.117  1.00  0.00    -0.049 A 
ATOM     63  C   UNL A   1      38.622  30.089  28.163  1.00  0.00    -0.053 A 
ATOM     64  H   UNL A   1      37.088  31.061  27.086  1.00  0.00     0.063 H 
ATOM     65  C   UNL A   1      37.975  29.265  30.351  1.00  0.00    -0.053 A 
ATOM     66  H   UNL A   1      35.929  29.465  30.804  1.00  0.00     0.063 H 
ATOM     67  C   UNL A   1      38.960  29.455  29.371  1.00  0.00    -0.014 A 
ATOM     68  H   UNL A   1      39.333  30.198  27.424  1.00  0.00     0.063 H 
ATOM     69  H   UNL A   1      38.222  28.819  31.248  1.00  0.00     0.063 H 
BRANCH  67  70
ATOM     70  C   UNL A   1      40.340  28.973  29.621  1.00  0.00     0.031 A 
ATOM     71  C   UNL A   1      41.317  29.837  30.367  1.00  0.00     0.074 A 
ATOM     72  C   UNL A   1      40.726  27.783  29.122  1.00  0.00     0.049 A 
ATOM     73  N   UNL A   1      42.581  29.622  30.627  1.00  0.00    -0.248 NA
ATOM     74  C   UNL A   1      40.812  31.128  30.860  1.00  0.00    -0.034 C 
ATOM     75  C   UNL A   1      39.879  26.881  28.341  1.00  0.00    -0.036 A 
ATOM     76  N   UNL A   1      41.932  27.135  29.188  1.00  0.00    -0.354 N 
ATOM     77  C   UNL A   1      43.023  30.751  31.306  1.00  0.00     0.074 A 
ATOM     78  C   UNL A   1      41.910  31.674  31.361  1.00  0.00    -0.034 C 
ATOM     79  H   UNL A   1      39.854  31.509  30.826  1.00  0.00     0.065 H 
ATOM     80  C   UNL A   1      40.587  25.791  28.011  1.00  0.00    -0.036 A 
ATOM     81  H   UNL A   1      38.895  27.057  28.083  1.00  0.00     0.065 H 
ATOM     82  C   UNL A   1      41.946  25.933  28.524  1.00  0.00     0.049 A 
ATOM     83  H   UNL A   1      42.713  27.497  29.664  1.00  0.00     0.167 HD
ATOM     84  C   UNL A   1      44.238  30.983  31.857  1.00  0.00     0.037 A 
ATOM     85  H   UNL A   1      41.965  32.632  31.740  1.00  0.00     0.065 H 
ATOM     86  H   UNL A   1      40.229  24.982  27.480  1.00  0.00     0.065 H 
ATOM     87  C   UNL A   1      42.946  25.051  28.343  1.00  0.00     0.037 A 
ATOM     88  C   UNL A   1      45.336  30.054  31.806  1.00  0.00     0.049 A 
ATOM     89  C   UNL A   1      44.291  25.336  28.953  1.00  0.00     0.074 A 
ATOM     90  C   UNL A   1      46.594  30.171  32.369  1.00  0.00    -0.036 A 
ATOM     91  N   UNL A   1      45.307  28.834  31.143  1.00  0.00    -0.354 N 
ATOM     92  N   UNL A   1      44.679  26.375  29.653  1.00  0.00    -0.248 NA
ATOM     93  C   UNL A   1      45.335  24.321  28.758  1.00  0.00    -0.034 C 
ATOM     94  C   UNL A   1      47.342  29.045  32.007  1.00  0.00    -0.036 A 
ATOM     95  H   UNL A   1      46.924  30.953  32.956  1.00  0.00     0.065 H 
ATOM     96  C   UNL A   1      46.533  28.199  31.266  1.00  0.00     0.049 A 
ATOM     97  H   UNL A   1      44.530  28.474  30.658  1.00  0.00     0.167 HD
ATOM     98  C   UNL A   1      45.999  26.130  30.003  1.00  0.00     0.074 A 
ATOM     99  C   UNL A   1      46.341  24.834  29.453  1.00  0.00    -0.034 C 
ATOM    100  H   UNL A   1      45.295  23.441  28.222  1.00  0.00     0.065 H 
ATOM    101  H   UNL A   1      48.330  28.875  32.250  1.00  0.00     0.065 H 
ATOM    102  C   UNL A   1      46.853  26.907  30.714  1.00  0.00     0.037 A 
ATOM    103  H   UNL A   1      47.253  24.368  29.585  1.00  0.00     0.065 H 
BRANCH  84 104
ATOM    104  C   UNL A   1      44.438  32.293  32.563  1.00  0.00     0.064 A 
ATOM    105  C   UNL A   1      44.155  32.442  33.931  1.00  0.00     0.173 A 
ATOM    106  C   UNL A   1      44.938  33.409  31.875  1.00  0.00     0.173 A 
ATOM    107  F   UNL A   1      43.665  31.411  34.635  1.00  0.00    -0.203 F 
ATOM    108  C   UNL A   1      44.331  33.666  34.572  1.00  0.00     0.198 A 
ATOM    109  C   UNL A   1      45.144  34.622  32.527  1.00  0.00     0.198 A 
ATOM    110  F   UNL A   1      45.230  33.323  30.568  1.00  0.00    -0.203 F 
ATOM    111  F   UNL A   1      43.998  33.798  35.863  1.00  0.00    -0.200 F 
ATOM    112  C   UNL A   1      44.831  34.753  33.871  1.00  0.00     0.200 A 
ATOM    113  F   UNL A   1      45.641  35.668  31.852  1.00  0.00    -0.200 F 
ATOM    114  F   UNL A   1      45.003  35.930  34.490  1.00  0.00    -0.200 F 
ENDBRANCH  84 104
BRANCH  87 115
ATOM    115  C   UNL A   1      42.703  23.809  27.563  1.00  0.00     0.064 A 
ATOM    116  C   UNL A   1      43.005  23.746  26.195  1.00  0.00     0.173 A 
ATOM    117  C   UNL A   1      42.175  22.660  28.168  1.00  0.00     0.173 A 
ATOM    118  F   UNL A   1      43.495  24.825  25.568  1.00  0.00    -0.203 F 
ATOM    119  C   UNL A   1      42.768  22.587  25.460  1.00  0.00     0.198 A 
ATOM    120  C   UNL A   1      41.968  21.492  27.438  1.00  0.00     0.198 A 
ATOM    121  F   UNL A   1      41.879  22.666  29.476  1.00  0.00    -0.203 F 
ATOM    122  F   UNL A   1      43.024  22.568  24.144  1.00  0.00    -0.200 F 
ATOM    123  C   UNL A   1      42.256  21.458  26.083  1.00  0.00     0.200 A 
ATOM    124  F   UNL A   1      41.492  20.399  28.049  1.00  0.00    -0.200 F 
ATOM    125  F   UNL A   1      42.037  20.342  25.376  1.00  0.00    -0.200 F 
ENDBRANCH  87 115
BRANCH 102 126
ATOM    126  C   UNL A   1      48.230  26.363  30.966  1.00  0.00     0.064 A 
ATOM    127  C   UNL A   1      49.304  26.646  30.109  1.00  0.00     0.173 A 
ATOM    128  C   UNL A   1      48.485  25.580  32.102  1.00  0.00     0.173 A 
ATOM    129  F   UNL A   1      49.109  27.377  29.002  1.00  0.00    -0.203 F 
ATOM    130  C   UNL A   1      50.576  26.142  30.366  1.00  0.00     0.198 A 
ATOM    131  C   UNL A   1      49.765  25.105  32.373  1.00  0.00     0.198 A 
ATOM    132  F   UNL A   1      47.495  25.284  32.957  1.00  0.00    -0.203 F 
ATOM    133  F   UNL A   1      51.576  26.383  29.507  1.00  0.00    -0.200 F 
ATOM    134  C   UNL A   1      50.808  25.380  31.501  1.00  0.00     0.200 A 
ATOM    135  F   UNL A   1      49.990  24.381  33.478  1.00  0.00    -0.200 F 
ATOM    136  F   UNL A   1      52.035  24.903  31.751  1.00  0.00    -0.200 F 
ENDBRANCH 102 126
ENDBRANCH  67  70
ENDBRANCH  57  60
ENDBRANCH  53  56
ENDBRANCH  50  53
ENDBRANCH  47  50
ENDBRANCH  44  47
ENDBRANCH  41  44
ENDBRANCH  38  41
ENDBRANCH   3  38
TORSDOF 22
ENDMDL
MODEL 8
REMARK VINA RESULT:      -9.2      5.191     11.168
REMARK SMILES CC(=O)Oc1ccccc1SCCCCCC(=O)NCCCCCCNC(=O)c1ccc(-c2c3nc(c(-c4c(F)c(F)c(F)c(F)c4F)c4ccc([nH]4)c(-c4c(F)c(F)c(F)c(F)c4F)c4nc(c(-c5c(F)c(F)c(F)c(F)c5F)c5ccc2[nH]5)C=C4)C=C3)cc1
REMARK SMILES IDX 17 1 18 2 19 3 16 5 15 8 14 11 13 14 12 17 11 20 10 21 5 22
REMARK SMILES IDX 6 23 7 24 9 26 8 27 4 31 2 32 3 33 1 34 20 38 21 41 22 44
REMARK SMILES IDX 23 47 24 50 25 53 26 56 27 57 28 59 29 60 30 61 91 62 31 63
REMARK SMILES IDX 90 65 32 67 33 70 34 71 84 72 35 73 89 74 83 75 85 76 36 77
REMARK SMILES IDX 88 78 82 80 81 82 37 84 69 87 49 88 68 89 50 90 53 91 67 92
REMARK SMILES IDX 86 93 51 94 52 96 66 98 87 99 54 102 38 104 39 105 47 106
REMARK SMILES IDX 40 107 41 108 45 109 48 110 42 111 43 112 46 113 44 114
REMARK SMILES IDX 70 115 71 116 79 117 72 118 73 119 77 120 80 121 74 122
REMARK SMILES IDX 75 123 78 124 76 125 55 126 56 127 64 128 57 129 58 130
REMARK SMILES IDX 62 131 65 132 59 133 60 134 63 135 61 136
REMARK H PARENT 19 4 16 6 16 7 15 9 15 10 14 12 14 13 13 15 13 16 12 18 12 19
REMARK H PARENT 6 25 7 28 9 29 8 30 1 35 1 36 1 37 20 39 20 40 21 42 21 43
REMARK H PARENT 22 45 22 46 23 48 23 49 24 51 24 52 25 54 25 55 26 58 30 64
REMARK H PARENT 91 66 31 68 90 69 89 79 83 81 85 83 88 85 82 86 50 95 53 97
REMARK H PARENT 86 100 51 101 87 103
REMARK Flexibility Score: inf
ROOT
ATOM      1  C   UNL A   1      37.120  29.872  30.504  1.00  0.00     0.219 C 
ATOM      2  O   UNL A   1      36.442  29.328  31.377  1.00  0.00    -0.275 OA
ATOM      3  N   UNL A   1      37.170  31.230  30.462  1.00  0.00    -0.356 N 
ATOM      4  H   UNL A   1      36.732  31.699  31.208  1.00  0.00     0.163 HD
ENDROOT
BRANCH   1   5
ATOM      5  C   UNL A   1      37.914  29.059  29.504  1.00  0.00     0.026 C 
ATOM      6  H   UNL A   1      37.526  28.062  29.500  1.00  0.00     0.037 H 
ATOM      7  H   UNL A   1      37.808  29.548  28.557  1.00  0.00     0.037 H 
BRANCH   5   8
ATOM      8  C   UNL A   1      39.414  28.991  29.796  1.00  0.00    -0.044 C 
ATOM      9  H   UNL A   1      39.587  29.588  30.667  1.00  0.00     0.027 H 
ATOM     10  H   UNL A   1      39.602  27.941  29.877  1.00  0.00     0.027 H 
BRANCH   8  11
ATOM     11  C   UNL A   1      40.427  29.454  28.728  1.00  0.00    -0.052 C 
ATOM     12  H   UNL A   1      39.885  30.051  28.024  1.00  0.00     0.027 H 
ATOM     13  H   UNL A   1      41.186  29.946  29.300  1.00  0.00     0.027 H 
BRANCH  11  14
ATOM     14  C   UNL A   1      41.207  28.412  27.920  1.00  0.00    -0.044 C 
ATOM     15  H   UNL A   1      40.922  27.463  28.325  1.00  0.00     0.028 H 
ATOM     16  H   UNL A   1      40.943  28.697  26.924  1.00  0.00     0.028 H 
BRANCH  14  17
ATOM     17  C   UNL A   1      42.741  28.364  27.803  1.00  0.00    -0.002 C 
ATOM     18  H   UNL A   1      43.023  29.359  27.526  1.00  0.00     0.038 H 
ATOM     19  H   UNL A   1      42.960  27.910  28.747  1.00  0.00     0.038 H 
BRANCH  17  20
ATOM     20  S   UNL A   1      43.755  27.288  26.743  1.00  0.00    -0.122 SA
BRANCH  20  21
ATOM     21  C   UNL A   1      43.809  25.680  27.493  1.00  0.00     0.050 A 
ATOM     22  C   UNL A   1      44.117  24.437  26.932  1.00  0.00     0.144 A 
ATOM     23  C   UNL A   1      44.400  23.333  27.757  1.00  0.00    -0.018 A 
ATOM     24  C   UNL A   1      44.322  23.443  29.144  1.00  0.00    -0.058 A 
ATOM     25  H   UNL A   1      44.670  22.433  27.330  1.00  0.00     0.066 H 
ATOM     26  C   UNL A   1      43.639  25.736  28.892  1.00  0.00    -0.045 A 
ATOM     27  C   UNL A   1      43.909  24.639  29.713  1.00  0.00    -0.061 A 
ATOM     28  H   UNL A   1      44.568  22.640  29.744  1.00  0.00     0.062 H 
ATOM     29  H   UNL A   1      43.306  26.614  29.322  1.00  0.00     0.064 H 
ATOM     30  H   UNL A   1      43.802  24.718  30.736  1.00  0.00     0.062 H 
BRANCH  22  31
ATOM     31  O   UNL A   1      44.464  24.203  25.573  1.00  0.00    -0.426 OA
BRANCH  31  32
ATOM     32  C   UNL A   1      44.126  23.161  24.711  1.00  0.00     0.308 C 
ATOM     33  O   UNL A   1      43.050  22.602  24.627  1.00  0.00    -0.252 OA
BRANCH  32  34
ATOM     34  C   UNL A   1      45.344  22.854  23.876  1.00  0.00     0.034 C 
ATOM     35  H   UNL A   1      45.081  22.876  22.840  1.00  0.00     0.035 H 
ATOM     36  H   UNL A   1      45.716  21.883  24.131  1.00  0.00     0.035 H 
ATOM     37  H   UNL A   1      46.101  23.587  24.069  1.00  0.00     0.035 H 
ENDBRANCH  32  34
ENDBRANCH  31  32
ENDBRANCH  22  31
ENDBRANCH  20  21
ENDBRANCH  17  20
ENDBRANCH  14  17
ENDBRANCH  11  14
ENDBRANCH   8  11
ENDBRANCH   5   8
ENDBRANCH   1   5
BRANCH   3  38
ATOM     38  C   UNL A   1      37.782  32.074  29.463  1.00  0.00     0.017 C 
ATOM     39  H   UNL A   1      37.018  32.522  28.863  1.00  0.00     0.049 H 
ATOM     40  H   UNL A   1      38.426  31.479  28.849  1.00  0.00     0.049 H 
BRANCH  38  41
ATOM     41  C   UNL A   1      38.605  33.172  30.133  1.00  0.00    -0.036 C 
ATOM     42  H   UNL A   1      38.725  33.976  29.438  1.00  0.00     0.028 H 
ATOM     43  H   UNL A   1      39.539  32.735  30.416  1.00  0.00     0.028 H 
BRANCH  41  44
ATOM     44  C   UNL A   1      37.968  33.723  31.400  1.00  0.00    -0.052 C 
ATOM     45  H   UNL A   1      37.397  32.943  31.860  1.00  0.00     0.027 H 
ATOM     46  H   UNL A   1      37.359  34.554  31.112  1.00  0.00     0.027 H 
BRANCH  44  47
ATOM     47  C   UNL A   1      38.989  34.241  32.418  1.00  0.00    -0.052 C 
ATOM     48  H   UNL A   1      39.434  35.129  32.017  1.00  0.00     0.027 H 
ATOM     49  H   UNL A   1      39.688  33.445  32.569  1.00  0.00     0.027 H 
BRANCH  47  50
ATOM     50  C   UNL A   1      38.420  34.577  33.802  1.00  0.00    -0.036 C 
ATOM     51  H   UNL A   1      38.280  35.637  33.857  1.00  0.00     0.028 H 
ATOM     52  H   UNL A   1      39.125  34.209  34.518  1.00  0.00     0.028 H 
BRANCH  50  53
ATOM     53  C   UNL A   1      37.086  33.903  34.119  1.00  0.00     0.018 C 
ATOM     54  H   UNL A   1      36.893  33.150  33.385  1.00  0.00     0.049 H 
ATOM     55  H   UNL A   1      36.321  34.650  34.107  1.00  0.00     0.049 H 
BRANCH  53  56
ATOM     56  N   UNL A   1      37.106  33.287  35.436  1.00  0.00    -0.352 N 
ATOM     57  C   UNL A   1      37.749  32.157  35.862  1.00  0.00     0.251 C 
ATOM     58  H   UNL A   1      36.576  33.753  36.124  1.00  0.00     0.163 HD
ATOM     59  O   UNL A   1      37.406  31.605  36.902  1.00  0.00    -0.269 OA
BRANCH  57  60
ATOM     60  C   UNL A   1      38.863  31.608  35.069  1.00  0.00     0.039 A 
ATOM     61  C   UNL A   1      38.579  30.768  33.989  1.00  0.00    -0.049 A 
ATOM     62  C   UNL A   1      40.187  31.886  35.421  1.00  0.00    -0.049 A 
ATOM     63  C   UNL A   1      39.626  30.241  33.235  1.00  0.00    -0.053 A 
ATOM     64  H   UNL A   1      37.601  30.540  33.753  1.00  0.00     0.063 H 
ATOM     65  C   UNL A   1      41.226  31.421  34.623  1.00  0.00    -0.053 A 
ATOM     66  H   UNL A   1      40.393  32.435  36.270  1.00  0.00     0.063 H 
ATOM     67  C   UNL A   1      40.956  30.584  33.531  1.00  0.00    -0.014 A 
ATOM     68  H   UNL A   1      39.424  29.596  32.456  1.00  0.00     0.063 H 
ATOM     69  H   UNL A   1      42.199  31.693  34.834  1.00  0.00     0.063 H 
BRANCH  67  70
ATOM     70  C   UNL A   1      42.080  30.064  32.716  1.00  0.00     0.031 A 
ATOM     71  C   UNL A   1      42.794  28.809  33.129  1.00  0.00     0.074 A 
ATOM     72  C   UNL A   1      42.495  30.761  31.640  1.00  0.00     0.049 A 
ATOM     73  N   UNL A   1      43.838  28.233  32.588  1.00  0.00    -0.248 NA
ATOM     74  C   UNL A   1      42.283  28.124  34.327  1.00  0.00    -0.034 C 
ATOM     75  C   UNL A   1      41.911  32.018  31.174  1.00  0.00    -0.036 A 
ATOM     76  N   UNL A   1      43.511  30.515  30.754  1.00  0.00    -0.354 N 
ATOM     77  C   UNL A   1      44.111  27.127  33.383  1.00  0.00     0.074 A 
ATOM     78  C   UNL A   1      43.165  27.147  34.477  1.00  0.00    -0.034 C 
ATOM     79  H   UNL A   1      41.454  28.345  34.900  1.00  0.00     0.065 H 
ATOM     80  C   UNL A   1      42.569  32.427  30.079  1.00  0.00    -0.036 A 
ATOM     81  H   UNL A   1      41.120  32.512  31.616  1.00  0.00     0.065 H 
ATOM     82  C   UNL A   1      43.643  31.483  29.789  1.00  0.00     0.049 A 
ATOM     83  H   UNL A   1      44.092  29.722  30.805  1.00  0.00     0.167 HD
ATOM     84  C   UNL A   1      45.049  26.167  33.199  1.00  0.00     0.037 A 
ATOM     85  H   UNL A   1      43.177  26.488  35.271  1.00  0.00     0.065 H 
ATOM     86  H   UNL A   1      42.351  33.274  29.530  1.00  0.00     0.065 H 
ATOM     87  C   UNL A   1      44.538  31.599  28.790  1.00  0.00     0.037 A 
ATOM     88  C   UNL A   1      45.979  26.150  32.101  1.00  0.00     0.049 A 
ATOM     89  C   UNL A   1      45.578  30.527  28.613  1.00  0.00     0.074 A 
ATOM     90  C   UNL A   1      46.940  25.201  31.796  1.00  0.00    -0.036 A 
ATOM     91  N   UNL A   1      46.070  27.136  31.128  1.00  0.00    -0.354 N 
ATOM     92  N   UNL A   1      45.785  29.448  29.328  1.00  0.00    -0.248 NA
ATOM     93  C   UNL A   1      46.503  30.683  27.483  1.00  0.00    -0.034 C 
ATOM     94  C   UNL A   1      47.643  25.638  30.668  1.00  0.00    -0.036 A 
ATOM     95  H   UNL A   1      47.108  24.323  32.312  1.00  0.00     0.065 H 
ATOM     96  C   UNL A   1      47.084  26.830  30.235  1.00  0.00     0.049 A 
ATOM     97  H   UNL A   1      45.498  27.936  31.080  1.00  0.00     0.167 HD
ATOM     98  C   UNL A   1      46.843  28.784  28.724  1.00  0.00     0.074 A 
ATOM     99  C   UNL A   1      47.225  29.574  27.571  1.00  0.00    -0.034 C 
ATOM    100  H   UNL A   1      46.573  31.453  26.800  1.00  0.00     0.065 H 
ATOM    101  H   UNL A   1      48.443  25.153  30.233  1.00  0.00     0.065 H 
ATOM    102  C   UNL A   1      47.447  27.627  29.091  1.00  0.00     0.037 A 
ATOM    103  H   UNL A   1      47.965  29.308  26.903  1.00  0.00     0.065 H 
BRANCH  84 104
ATOM    104  C   UNL A   1      45.109  25.057  34.209  1.00  0.00     0.064 A 
ATOM    105  C   UNL A   1      44.524  23.805  33.961  1.00  0.00     0.173 A 
ATOM    106  C   UNL A   1      45.777  25.236  35.430  1.00  0.00     0.173 A 
ATOM    107  F   UNL A   1      43.863  23.583  32.815  1.00  0.00    -0.203 F 
ATOM    108  C   UNL A   1      44.574  22.788  34.912  1.00  0.00     0.198 A 
ATOM    109  C   UNL A   1      45.854  24.205  36.364  1.00  0.00     0.198 A 
ATOM    110  F   UNL A   1      46.360  26.410  35.718  1.00  0.00    -0.203 F 
ATOM    111  F   UNL A   1      43.956  21.622  34.676  1.00  0.00    -0.200 F 
ATOM    112  C   UNL A   1      45.244  22.987  36.109  1.00  0.00     0.200 A 
ATOM    113  F   UNL A   1      46.515  24.394  37.514  1.00  0.00    -0.200 F 
ATOM    114  F   UNL A   1      45.294  22.006  37.021  1.00  0.00    -0.200 F 
ENDBRANCH  84 104
BRANCH  87 115
ATOM    115  C   UNL A   1      44.473  32.767  27.873  1.00  0.00     0.064 A 
ATOM    116  C   UNL A   1      44.935  34.027  28.276  1.00  0.00     0.173 A 
ATOM    117  C   UNL A   1      43.958  32.645  26.574  1.00  0.00     0.173 A 
ATOM    118  F   UNL A   1      45.419  34.197  29.515  1.00  0.00    -0.203 F 
ATOM    119  C   UNL A   1      44.865  35.126  27.422  1.00  0.00     0.198 A 
ATOM    120  C   UNL A   1      43.918  33.738  25.710  1.00  0.00     0.198 A 
ATOM    121  F   UNL A   1      43.512  31.459  26.136  1.00  0.00    -0.203 F 
ATOM    122  F   UNL A   1      45.273  36.329  27.848  1.00  0.00    -0.200 F 
ATOM    123  C   UNL A   1      44.363  34.979  26.137  1.00  0.00     0.200 A 
ATOM    124  F   UNL A   1      43.450  33.587  24.464  1.00  0.00    -0.200 F 
ATOM    125  F   UNL A   1      44.304  36.034  25.314  1.00  0.00    -0.200 F 
ENDBRANCH  87 115
BRANCH 102 126
ATOM    126  C   UNL A   1      48.562  27.127  28.218  1.00  0.00     0.064 A 
ATOM    127  C   UNL A   1      49.909  27.319  28.558  1.00  0.00     0.173 A 
ATOM    128  C   UNL A   1      48.277  26.412  27.044  1.00  0.00     0.173 A 
ATOM    129  F   UNL A   1      50.235  28.009  29.662  1.00  0.00    -0.203 F 
ATOM    130  C   UNL A   1      50.929  26.837  27.742  1.00  0.00     0.198 A 
ATOM    131  C   UNL A   1      49.299  25.904  26.248  1.00  0.00     0.198 A 
ATOM    132  F   UNL A   1      47.005  26.195  26.676  1.00  0.00    -0.203 F 
ATOM    133  F   UNL A   1      52.209  27.076  28.060  1.00  0.00    -0.200 F 
ATOM    134  C   UNL A   1      50.624  26.123  26.593  1.00  0.00     0.200 A 
ATOM    135  F   UNL A   1      49.002  25.202  25.146  1.00  0.00    -0.200 F 
ATOM    136  F   UNL A   1      51.608  25.654  25.813  1.00  0.00    -0.200 F 
ENDBRANCH 102 126
ENDBRANCH  67  70
ENDBRANCH  57  60
ENDBRANCH  53  56
ENDBRANCH  50  53
ENDBRANCH  47  50
ENDBRANCH  44  47
ENDBRANCH  41  44
ENDBRANCH  38  41
ENDBRANCH   3  38
TORSDOF 22
ENDMDL
MODEL 9
REMARK VINA RESULT:      -9.0      7.667     13.035
REMARK SMILES CC(=O)Oc1ccccc1SCCCCCC(=O)NCCCCCCNC(=O)c1ccc(-c2c3nc(c(-c4c(F)c(F)c(F)c(F)c4F)c4ccc([nH]4)c(-c4c(F)c(F)c(F)c(F)c4F)c4nc(c(-c5c(F)c(F)c(F)c(F)c5F)c5ccc2[nH]5)C=C4)C=C3)cc1
REMARK SMILES IDX 17 1 18 2 19 3 16 5 15 8 14 11 13 14 12 17 11 20 10 21 5 22
REMARK SMILES IDX 6 23 7 24 9 26 8 27 4 31 2 32 3 33 1 34 20 38 21 41 22 44
REMARK SMILES IDX 23 47 24 50 25 53 26 56 27 57 28 59 29 60 30 61 91 62 31 63
REMARK SMILES IDX 90 65 32 67 33 70 34 71 84 72 35 73 89 74 83 75 85 76 36 77
REMARK SMILES IDX 88 78 82 80 81 82 37 84 69 87 49 88 68 89 50 90 53 91 67 92
REMARK SMILES IDX 86 93 51 94 52 96 66 98 87 99 54 102 38 104 39 105 47 106
REMARK SMILES IDX 40 107 41 108 45 109 48 110 42 111 43 112 46 113 44 114
REMARK SMILES IDX 70 115 71 116 79 117 72 118 73 119 77 120 80 121 74 122
REMARK SMILES IDX 75 123 78 124 76 125 55 126 56 127 64 128 57 129 58 130
REMARK SMILES IDX 62 131 65 132 59 133 60 134 63 135 61 136
REMARK H PARENT 19 4 16 6 16 7 15 9 15 10 14 12 14 13 13 15 13 16 12 18 12 19
REMARK H PARENT 6 25 7 28 9 29 8 30 1 35 1 36 1 37 20 39 20 40 21 42 21 43
REMARK H PARENT 22 45 22 46 23 48 23 49 24 51 24 52 25 54 25 55 26 58 30 64
REMARK H PARENT 91 66 31 68 90 69 89 79 83 81 85 83 88 85 82 86 50 95 53 97
REMARK H PARENT 86 100 51 101 87 103
REMARK Flexibility Score: inf
ROOT
ATOM      1  C   UNL A   1      44.776  24.050  30.563  1.00  0.00     0.219 C 
ATOM      2  O   UNL A   1      44.124  23.120  30.086  1.00  0.00    -0.275 OA
ATOM      3  N   UNL A   1      45.463  24.869  29.723  1.00  0.00    -0.356 N 
ATOM      4  H   UNL A   1      45.311  24.724  28.762  1.00  0.00     0.163 HD
ENDROOT
BRANCH   1   5
ATOM      5  C   UNL A   1      44.804  24.308  32.054  1.00  0.00     0.026 C 
ATOM      6  H   UNL A   1      45.802  24.575  32.330  1.00  0.00     0.037 H 
ATOM      7  H   UNL A   1      44.098  25.089  32.244  1.00  0.00     0.037 H 
BRANCH   5   8
ATOM      8  C   UNL A   1      44.374  23.113  32.908  1.00  0.00    -0.044 C 
ATOM      9  H   UNL A   1      43.311  23.174  33.014  1.00  0.00     0.027 H 
ATOM     10  H   UNL A   1      44.765  22.273  32.372  1.00  0.00     0.027 H 
BRANCH   8  11
ATOM     11  C   UNL A   1      44.955  22.934  34.326  1.00  0.00    -0.052 C 
ATOM     12  H   UNL A   1      46.018  23.025  34.240  1.00  0.00     0.027 H 
ATOM     13  H   UNL A   1      44.447  23.679  34.901  1.00  0.00     0.027 H 
BRANCH  11  14
ATOM     14  C   UNL A   1      44.682  21.639  35.100  1.00  0.00    -0.044 C 
ATOM     15  H   UNL A   1      44.440  21.946  36.096  1.00  0.00     0.028 H 
ATOM     16  H   UNL A   1      43.954  21.181  34.464  1.00  0.00     0.028 H 
BRANCH  14  17
ATOM     17  C   UNL A   1      45.687  20.484  35.259  1.00  0.00    -0.002 C 
ATOM     18  H   UNL A   1      45.838  20.118  34.265  1.00  0.00     0.038 H 
ATOM     19  H   UNL A   1      46.427  20.995  35.839  1.00  0.00     0.038 H 
BRANCH  17  20
ATOM     20  S   UNL A   1      45.527  18.987  36.280  1.00  0.00    -0.122 SA
BRANCH  20  21
ATOM     21  C   UNL A   1      46.541  19.202  37.721  1.00  0.00     0.050 A 
ATOM     22  C   UNL A   1      46.355  18.740  39.027  1.00  0.00     0.144 A 
ATOM     23  C   UNL A   1      47.418  18.757  39.948  1.00  0.00    -0.018 A 
ATOM     24  C   UNL A   1      48.658  19.288  39.594  1.00  0.00    -0.058 A 
ATOM     25  H   UNL A   1      47.279  18.371  40.895  1.00  0.00     0.066 H 
ATOM     26  C   UNL A   1      47.772  19.823  37.423  1.00  0.00    -0.045 A 
ATOM     27  C   UNL A   1      48.825  19.852  38.338  1.00  0.00    -0.061 A 
ATOM     28  H   UNL A   1      49.443  19.262  40.263  1.00  0.00     0.062 H 
ATOM     29  H   UNL A   1      47.898  20.270  36.500  1.00  0.00     0.064 H 
ATOM     30  H   UNL A   1      49.725  20.289  38.082  1.00  0.00     0.062 H 
BRANCH  22  31
ATOM     31  O   UNL A   1      45.253  17.966  39.484  1.00  0.00    -0.426 OA
BRANCH  31  32
ATOM     32  C   UNL A   1      44.986  16.603  39.373  1.00  0.00     0.308 C 
ATOM     33  O   UNL A   1      45.692  15.686  39.749  1.00  0.00    -0.252 OA
BRANCH  32  34
ATOM     34  C   UNL A   1      43.640  16.460  38.708  1.00  0.00     0.034 C 
ATOM     35  H   UNL A   1      43.176  15.552  39.032  1.00  0.00     0.035 H 
ATOM     36  H   UNL A   1      43.768  16.436  37.645  1.00  0.00     0.035 H 
ATOM     37  H   UNL A   1      43.022  17.293  38.973  1.00  0.00     0.035 H 
ENDBRANCH  32  34
ENDBRANCH  31  32
ENDBRANCH  22  31
ENDBRANCH  20  21
ENDBRANCH  17  20
ENDBRANCH  14  17
ENDBRANCH  11  14
ENDBRANCH   8  11
ENDBRANCH   5   8
ENDBRANCH   1   5
BRANCH   3  38
ATOM     38  C   UNL A   1      46.389  25.926  30.059  1.00  0.00     0.017 C 
ATOM     39  H   UNL A   1      46.421  26.042  31.122  1.00  0.00     0.049 H 
ATOM     40  H   UNL A   1      46.060  26.836  29.602  1.00  0.00     0.049 H 
BRANCH  38  41
ATOM     41  C   UNL A   1      47.786  25.585  29.547  1.00  0.00    -0.036 C 
ATOM     42  H   UNL A   1      48.020  26.246  28.739  1.00  0.00     0.028 H 
ATOM     43  H   UNL A   1      47.767  24.560  29.242  1.00  0.00     0.028 H 
BRANCH  41  44
ATOM     44  C   UNL A   1      48.872  25.716  30.605  1.00  0.00    -0.052 C 
ATOM     45  H   UNL A   1      49.658  26.325  30.210  1.00  0.00     0.027 H 
ATOM     46  H   UNL A   1      49.205  24.726  30.839  1.00  0.00     0.027 H 
BRANCH  44  47
ATOM     47  C   UNL A   1      48.377  26.348  31.909  1.00  0.00    -0.052 C 
ATOM     48  H   UNL A   1      47.311  26.245  31.943  1.00  0.00     0.027 H 
ATOM     49  H   UNL A   1      48.707  27.365  31.890  1.00  0.00     0.027 H 
BRANCH  47  50
ATOM     50  C   UNL A   1      48.955  25.737  33.192  1.00  0.00    -0.036 C 
ATOM     51  H   UNL A   1      49.255  26.537  33.837  1.00  0.00     0.028 H 
ATOM     52  H   UNL A   1      49.770  25.113  32.891  1.00  0.00     0.028 H 
BRANCH  50  53
ATOM     53  C   UNL A   1      47.984  24.843  33.961  1.00  0.00     0.018 C 
ATOM     54  H   UNL A   1      48.289  23.823  33.851  1.00  0.00     0.049 H 
ATOM     55  H   UNL A   1      47.002  24.991  33.564  1.00  0.00     0.049 H 
BRANCH  53  56
ATOM     56  N   UNL A   1      47.962  25.181  35.375  1.00  0.00    -0.352 N 
ATOM     57  C   UNL A   1      47.279  26.172  36.026  1.00  0.00     0.251 C 
ATOM     58  H   UNL A   1      48.524  24.611  35.951  1.00  0.00     0.163 HD
ATOM     59  O   UNL A   1      47.618  26.520  37.152  1.00  0.00    -0.269 OA
BRANCH  57  60
ATOM     60  C   UNL A   1      46.128  26.817  35.370  1.00  0.00     0.039 A 
ATOM     61  C   UNL A   1      46.334  27.984  34.629  1.00  0.00    -0.049 A 
ATOM     62  C   UNL A   1      44.841  26.295  35.524  1.00  0.00    -0.049 A 
ATOM     63  C   UNL A   1      45.252  28.604  34.007  1.00  0.00    -0.053 A 
ATOM     64  H   UNL A   1      47.282  28.384  34.544  1.00  0.00     0.063 H 
ATOM     65  C   UNL A   1      43.775  26.871  34.843  1.00  0.00    -0.053 A 
ATOM     66  H   UNL A   1      44.682  25.485  36.143  1.00  0.00     0.063 H 
ATOM     67  C   UNL A   1      43.968  28.038  34.089  1.00  0.00    -0.014 A 
ATOM     68  H   UNL A   1      45.393  29.482  33.485  1.00  0.00     0.063 H 
ATOM     69  H   UNL A   1      42.840  26.439  34.891  1.00  0.00     0.063 H 
BRANCH  67  70
ATOM     70  C   UNL A   1      42.812  28.661  33.402  1.00  0.00     0.031 A 
ATOM     71  C   UNL A   1      42.498  28.301  31.978  1.00  0.00     0.074 A 
ATOM     72  C   UNL A   1      42.085  29.596  34.044  1.00  0.00     0.049 A 
ATOM     73  N   UNL A   1      41.574  28.783  31.186  1.00  0.00    -0.248 NA
ATOM     74  C   UNL A   1      43.355  27.283  31.351  1.00  0.00    -0.034 C 
ATOM     75  C   UNL A   1      42.328  30.061  35.410  1.00  0.00    -0.036 A 
ATOM     76  N   UNL A   1      41.004  30.329  33.628  1.00  0.00    -0.354 N 
ATOM     77  C   UNL A   1      41.744  28.134  29.970  1.00  0.00     0.074 A 
ATOM     78  C   UNL A   1      42.898  27.272  30.108  1.00  0.00    -0.034 C 
ATOM     79  H   UNL A   1      44.114  26.723  31.770  1.00  0.00     0.065 H 
ATOM     80  C   UNL A   1      41.414  30.991  35.725  1.00  0.00    -0.036 A 
ATOM     81  H   UNL A   1      43.082  29.728  36.031  1.00  0.00     0.065 H 
ATOM     82  C   UNL A   1      40.546  31.215  34.573  1.00  0.00     0.049 A 
ATOM     83  H   UNL A   1      40.596  30.231  32.738  1.00  0.00     0.167 HD
ATOM     84  C   UNL A   1      40.990  28.229  28.849  1.00  0.00     0.037 A 
ATOM     85  H   UNL A   1      43.311  26.723  29.338  1.00  0.00     0.065 H 
ATOM     86  H   UNL A   1      41.337  31.472  36.635  1.00  0.00     0.065 H 
ATOM     87  C   UNL A   1      39.545  32.112  34.510  1.00  0.00     0.037 A 
ATOM     88  C   UNL A   1      39.837  29.083  28.725  1.00  0.00     0.049 A 
ATOM     89  C   UNL A   1      38.729  32.209  33.250  1.00  0.00     0.074 A 
ATOM     90  C   UNL A   1      38.976  29.222  27.650  1.00  0.00    -0.036 A 
ATOM     91  N   UNL A   1      39.388  29.951  29.711  1.00  0.00    -0.354 N 
ATOM     92  N   UNL A   1      38.854  31.542  32.129  1.00  0.00    -0.248 NA
ATOM     93  C   UNL A   1      37.623  33.177  33.251  1.00  0.00    -0.034 C 
ATOM     94  C   UNL A   1      38.037  30.208  27.968  1.00  0.00    -0.036 A 
ATOM     95  H   UNL A   1      39.020  28.688  26.767  1.00  0.00     0.065 H 
ATOM     96  C   UNL A   1      38.275  30.644  29.261  1.00  0.00     0.049 A 
ATOM     97  H   UNL A   1      39.800  30.058  30.598  1.00  0.00     0.167 HD
ATOM     98  C   UNL A   1      37.833  31.987  31.301  1.00  0.00     0.074 A 
ATOM     99  C   UNL A   1      37.085  32.971  32.057  1.00  0.00    -0.034 C 
ATOM    100  H   UNL A   1      37.340  33.842  33.987  1.00  0.00     0.065 H 
ATOM    101  H   UNL A   1      37.291  30.553  27.343  1.00  0.00     0.065 H 
ATOM    102  C   UNL A   1      37.542  31.618  30.029  1.00  0.00     0.037 A 
ATOM    103  H   UNL A   1      36.240  33.451  31.710  1.00  0.00     0.065 H 
BRANCH  84 104
ATOM    104  C   UNL A   1      41.389  27.386  27.672  1.00  0.00     0.064 A 
ATOM    105  C   UNL A   1      42.254  27.873  26.679  1.00  0.00     0.173 A 
ATOM    106  C   UNL A   1      40.922  26.069  27.544  1.00  0.00     0.173 A 
ATOM    107  F   UNL A   1      42.722  29.128  26.746  1.00  0.00    -0.203 F 
ATOM    108  C   UNL A   1      42.606  27.086  25.585  1.00  0.00     0.198 A 
ATOM    109  C   UNL A   1      41.303  25.274  26.466  1.00  0.00     0.198 A 
ATOM    110  F   UNL A   1      40.097  25.550  28.466  1.00  0.00    -0.203 F 
ATOM    111  F   UNL A   1      43.385  27.593  24.620  1.00  0.00    -0.200 F 
ATOM    112  C   UNL A   1      42.135  25.786  25.482  1.00  0.00     0.200 A 
ATOM    113  F   UNL A   1      40.859  24.013  26.376  1.00  0.00    -0.200 F 
ATOM    114  F   UNL A   1      42.477  25.029  24.430  1.00  0.00    -0.200 F 
ENDBRANCH  84 104
BRANCH  87 115
ATOM    115  C   UNL A   1      39.253  32.975  35.684  1.00  0.00     0.064 A 
ATOM    116  C   UNL A   1      39.721  34.296  35.743  1.00  0.00     0.173 A 
ATOM    117  C   UNL A   1      38.494  32.503  36.765  1.00  0.00     0.173 A 
ATOM    118  F   UNL A   1      40.465  34.787  34.743  1.00  0.00    -0.203 F 
ATOM    119  C   UNL A   1      39.457  35.103  36.848  1.00  0.00     0.198 A 
ATOM    120  C   UNL A   1      38.206  33.321  37.855  1.00  0.00     0.198 A 
ATOM    121  F   UNL A   1      38.016  31.250  36.753  1.00  0.00    -0.203 F 
ATOM    122  F   UNL A   1      39.954  36.347  36.898  1.00  0.00    -0.200 F 
ATOM    123  C   UNL A   1      38.694  34.617  37.900  1.00  0.00     0.200 A 
ATOM    124  F   UNL A   1      37.452  32.855  38.859  1.00  0.00    -0.200 F 
ATOM    125  F   UNL A   1      38.435  35.398  38.957  1.00  0.00    -0.200 F 
ENDBRANCH  87 115
BRANCH 102 126
ATOM    126  C   UNL A   1      36.344  32.255  29.386  1.00  0.00     0.064 A 
ATOM    127  C   UNL A   1      36.316  33.621  29.068  1.00  0.00     0.173 A 
ATOM    128  C   UNL A   1      35.224  31.480  29.049  1.00  0.00     0.173 A 
ATOM    129  F   UNL A   1      37.356  34.409  29.383  1.00  0.00    -0.203 F 
ATOM    130  C   UNL A   1      35.201  34.192  28.461  1.00  0.00     0.198 A 
ATOM    131  C   UNL A   1      34.124  32.047  28.412  1.00  0.00     0.198 A 
ATOM    132  F   UNL A   1      35.201  30.167  29.326  1.00  0.00    -0.203 F 
ATOM    133  F   UNL A   1      35.176  35.509  28.212  1.00  0.00    -0.200 F 
ATOM    134  C   UNL A   1      34.110  33.404  28.126  1.00  0.00     0.200 A 
ATOM    135  F   UNL A   1      33.077  31.281  28.076  1.00  0.00    -0.200 F 
ATOM    136  F   UNL A   1      33.041  33.954  27.534  1.00  0.00    -0.200 F 
ENDBRANCH 102 126
ENDBRANCH  67  70
ENDBRANCH  57  60
ENDBRANCH  53  56
ENDBRANCH  50  53
ENDBRANCH  47  50
ENDBRANCH  44  47
ENDBRANCH  41  44
ENDBRANCH  38  41
ENDBRANCH   3  38
TORSDOF 22
ENDMDL
MODEL 10
REMARK VINA RESULT:      -9.0      6.673     12.193
REMARK SMILES CC(=O)Oc1ccccc1SCCCCCC(=O)NCCCCCCNC(=O)c1ccc(-c2c3nc(c(-c4c(F)c(F)c(F)c(F)c4F)c4ccc([nH]4)c(-c4c(F)c(F)c(F)c(F)c4F)c4nc(c(-c5c(F)c(F)c(F)c(F)c5F)c5ccc2[nH]5)C=C4)C=C3)cc1
REMARK SMILES IDX 17 1 18 2 19 3 16 5 15 8 14 11 13 14 12 17 11 20 10 21 5 22
REMARK SMILES IDX 6 23 7 24 9 26 8 27 4 31 2 32 3 33 1 34 20 38 21 41 22 44
REMARK SMILES IDX 23 47 24 50 25 53 26 56 27 57 28 59 29 60 30 61 91 62 31 63
REMARK SMILES IDX 90 65 32 67 33 70 34 71 84 72 35 73 89 74 83 75 85 76 36 77
REMARK SMILES IDX 88 78 82 80 81 82 37 84 69 87 49 88 68 89 50 90 53 91 67 92
REMARK SMILES IDX 86 93 51 94 52 96 66 98 87 99 54 102 38 104 39 105 47 106
REMARK SMILES IDX 40 107 41 108 45 109 48 110 42 111 43 112 46 113 44 114
REMARK SMILES IDX 70 115 71 116 79 117 72 118 73 119 77 120 80 121 74 122
REMARK SMILES IDX 75 123 78 124 76 125 55 126 56 127 64 128 57 129 58 130
REMARK SMILES IDX 62 131 65 132 59 133 60 134 63 135 61 136
REMARK H PARENT 19 4 16 6 16 7 15 9 15 10 14 12 14 13 13 15 13 16 12 18 12 19
REMARK H PARENT 6 25 7 28 9 29 8 30 1 35 1 36 1 37 20 39 20 40 21 42 21 43
REMARK H PARENT 22 45 22 46 23 48 23 49 24 51 24 52 25 54 25 55 26 58 30 64
REMARK H PARENT 91 66 31 68 90 69 89 79 83 81 85 83 88 85 82 86 50 95 53 97
REMARK H PARENT 86 100 51 101 87 103
REMARK Flexibility Score: inf
ROOT
ATOM      1  C   UNL A   1      38.388  30.158  33.827  1.00  0.00     0.219 C 
ATOM      2  O   UNL A   1      38.188  29.005  33.444  1.00  0.00    -0.275 OA
ATOM      3  N   UNL A   1      38.126  30.476  35.123  1.00  0.00    -0.356 N 
ATOM      4  H   UNL A   1      37.882  29.723  35.708  1.00  0.00     0.163 HD
ENDROOT
BRANCH   1   5
ATOM      5  C   UNL A   1      38.943  31.213  32.893  1.00  0.00     0.026 C 
ATOM      6  H   UNL A   1      38.129  31.814  32.545  1.00  0.00     0.037 H 
ATOM      7  H   UNL A   1      39.662  31.773  33.453  1.00  0.00     0.037 H 
BRANCH   5   8
ATOM      8  C   UNL A   1      39.678  30.650  31.675  1.00  0.00    -0.044 C 
ATOM      9  H   UNL A   1      40.459  31.342  31.438  1.00  0.00     0.027 H 
ATOM     10  H   UNL A   1      39.970  29.671  31.993  1.00  0.00     0.027 H 
BRANCH   8  11
ATOM     11  C   UNL A   1      38.904  30.384  30.366  1.00  0.00    -0.052 C 
ATOM     12  H   UNL A   1      39.547  29.804  29.737  1.00  0.00     0.027 H 
ATOM     13  H   UNL A   1      38.000  29.920  30.700  1.00  0.00     0.027 H 
BRANCH  11  14
ATOM     14  C   UNL A   1      38.409  31.566  29.525  1.00  0.00    -0.044 C 
ATOM     15  H   UNL A   1      39.274  32.168  29.338  1.00  0.00     0.028 H 
ATOM     16  H   UNL A   1      37.907  31.048  28.735  1.00  0.00     0.028 H 
BRANCH  14  17
ATOM     17  C   UNL A   1      37.309  32.551  29.960  1.00  0.00    -0.002 C 
ATOM     18  H   UNL A   1      37.813  33.264  30.578  1.00  0.00     0.038 H 
ATOM     19  H   UNL A   1      36.895  32.765  28.996  1.00  0.00     0.038 H 
BRANCH  17  20
ATOM     20  S   UNL A   1      35.762  32.189  30.846  1.00  0.00    -0.122 SA
BRANCH  20  21
ATOM     21  C   UNL A   1      35.376  33.591  31.862  1.00  0.00     0.050 A 
ATOM     22  C   UNL A   1      34.336  34.519  31.755  1.00  0.00     0.144 A 
ATOM     23  C   UNL A   1      34.028  35.373  32.831  1.00  0.00    -0.018 A 
ATOM     24  C   UNL A   1      34.789  35.349  33.998  1.00  0.00    -0.058 A 
ATOM     25  H   UNL A   1      33.229  36.021  32.755  1.00  0.00     0.066 H 
ATOM     26  C   UNL A   1      36.189  33.659  33.013  1.00  0.00    -0.045 A 
ATOM     27  C   UNL A   1      35.892  34.512  34.078  1.00  0.00    -0.061 A 
ATOM     28  H   UNL A   1      34.533  35.950  34.797  1.00  0.00     0.062 H 
ATOM     29  H   UNL A   1      37.028  33.060  33.070  1.00  0.00     0.064 H 
ATOM     30  H   UNL A   1      36.490  34.520  34.919  1.00  0.00     0.062 H 
BRANCH  22  31
ATOM     31  O   UNL A   1      33.328  34.524  30.752  1.00  0.00    -0.426 OA
BRANCH  31  32
ATOM     32  C   UNL A   1      33.129  35.369  29.662  1.00  0.00     0.308 C 
ATOM     33  O   UNL A   1      32.849  36.552  29.694  1.00  0.00    -0.252 OA
BRANCH  32  34
ATOM     34  C   UNL A   1      33.343  34.550  28.413  1.00  0.00     0.034 C 
ATOM     35  H   UNL A   1      33.958  33.705  28.641  1.00  0.00     0.035 H 
ATOM     36  H   UNL A   1      33.824  35.152  27.670  1.00  0.00     0.035 H 
ATOM     37  H   UNL A   1      32.396  34.214  28.042  1.00  0.00     0.035 H 
ENDBRANCH  32  34
ENDBRANCH  31  32
ENDBRANCH  22  31
ENDBRANCH  20  21
ENDBRANCH  17  20
ENDBRANCH  14  17
ENDBRANCH  11  14
ENDBRANCH   8  11
ENDBRANCH   5   8
ENDBRANCH   1   5
BRANCH   3  38
ATOM     38  C   UNL A   1      38.157  31.775  35.752  1.00  0.00     0.017 C 
ATOM     39  H   UNL A   1      37.462  32.423  35.261  1.00  0.00     0.049 H 
ATOM     40  H   UNL A   1      39.147  32.176  35.676  1.00  0.00     0.049 H 
BRANCH  38  41
ATOM     41  C   UNL A   1      37.780  31.655  37.227  1.00  0.00    -0.036 C 
ATOM     42  H   UNL A   1      38.468  30.987  37.699  1.00  0.00     0.028 H 
ATOM     43  H   UNL A   1      36.772  31.297  37.264  1.00  0.00     0.028 H 
BRANCH  41  44
ATOM     44  C   UNL A   1      37.809  32.981  37.973  1.00  0.00    -0.052 C 
ATOM     45  H   UNL A   1      36.819  33.388  37.979  1.00  0.00     0.027 H 
ATOM     46  H   UNL A   1      38.504  33.615  37.462  1.00  0.00     0.027 H 
BRANCH  44  47
ATOM     47  C   UNL A   1      38.290  32.854  39.421  1.00  0.00    -0.052 C 
ATOM     48  H   UNL A   1      39.257  32.395  39.409  1.00  0.00     0.027 H 
ATOM     49  H   UNL A   1      37.549  32.275  39.930  1.00  0.00     0.027 H 
BRANCH  47  50
ATOM     50  C   UNL A   1      38.401  34.176  40.191  1.00  0.00    -0.036 C 
ATOM     51  H   UNL A   1      38.003  34.024  41.173  1.00  0.00     0.028 H 
ATOM     52  H   UNL A   1      37.857  34.904  39.626  1.00  0.00     0.028 H 
BRANCH  50  53
ATOM     53  C   UNL A   1      39.825  34.710  40.331  1.00  0.00     0.018 C 
ATOM     54  H   UNL A   1      40.470  34.160  39.679  1.00  0.00     0.049 H 
ATOM     55  H   UNL A   1      40.129  34.595  41.351  1.00  0.00     0.049 H 
BRANCH  53  56
ATOM     56  N   UNL A   1      39.896  36.121  39.988  1.00  0.00    -0.352 N 
ATOM     57  C   UNL A   1      40.527  36.735  38.940  1.00  0.00     0.251 C 
ATOM     58  H   UNL A   1      39.419  36.726  40.602  1.00  0.00     0.163 HD
ATOM     59  O   UNL A   1      40.758  37.939  38.976  1.00  0.00    -0.269 OA
BRANCH  57  60
ATOM     60  C   UNL A   1      40.924  35.943  37.762  1.00  0.00     0.039 A 
ATOM     61  C   UNL A   1      42.276  35.655  37.561  1.00  0.00    -0.049 A 
ATOM     62  C   UNL A   1      39.966  35.525  36.834  1.00  0.00    -0.049 A 
ATOM     63  C   UNL A   1      42.662  34.910  36.448  1.00  0.00    -0.053 A 
ATOM     64  H   UNL A   1      42.984  35.992  38.231  1.00  0.00     0.063 H 
ATOM     65  C   UNL A   1      40.342  34.719  35.766  1.00  0.00    -0.053 A 
ATOM     66  H   UNL A   1      38.981  35.815  36.942  1.00  0.00     0.063 H 
ATOM     67  C   UNL A   1      41.695  34.416  35.556  1.00  0.00    -0.014 A 
ATOM     68  H   UNL A   1      43.662  34.720  36.277  1.00  0.00     0.063 H 
ATOM     69  H   UNL A   1      39.625  34.343  35.128  1.00  0.00     0.063 H 
BRANCH  67  70
ATOM     70  C   UNL A   1      42.082  33.588  34.389  1.00  0.00     0.031 A 
ATOM     71  C   UNL A   1      42.236  32.101  34.536  1.00  0.00     0.074 A 
ATOM     72  C   UNL A   1      42.355  34.187  33.214  1.00  0.00     0.049 A 
ATOM     73  N   UNL A   1      42.630  31.217  33.655  1.00  0.00    -0.248 NA
ATOM     74  C   UNL A   1      41.934  31.535  35.861  1.00  0.00    -0.034 C 
ATOM     75  C   UNL A   1      42.289  35.627  32.966  1.00  0.00    -0.036 A 
ATOM     76  N   UNL A   1      42.755  33.659  32.013  1.00  0.00    -0.354 N 
ATOM     77  C   UNL A   1      42.629  29.997  34.319  1.00  0.00     0.074 A 
ATOM     78  C   UNL A   1      42.259  30.262  35.692  1.00  0.00    -0.034 C 
ATOM     79  H   UNL A   1      41.565  32.006  36.701  1.00  0.00     0.065 H 
ATOM     80  C   UNL A   1      42.622  35.868  31.689  1.00  0.00    -0.036 A 
ATOM     81  H   UNL A   1      42.029  36.343  33.663  1.00  0.00     0.065 H 
ATOM     82  C   UNL A   1      42.961  34.606  31.040  1.00  0.00     0.049 A 
ATOM     83  H   UNL A   1      42.882  32.695  31.863  1.00  0.00     0.167 HD
ATOM     84  C   UNL A   1      42.888  28.764  33.821  1.00  0.00     0.037 A 
ATOM     85  H   UNL A   1      42.250  29.553  36.441  1.00  0.00     0.065 H 
ATOM     86  H   UNL A   1      42.636  36.797  31.238  1.00  0.00     0.065 H 
ATOM     87  C   UNL A   1      43.386  34.470  29.770  1.00  0.00     0.037 A 
ATOM     88  C   UNL A   1      43.246  28.509  32.450  1.00  0.00     0.049 A 
ATOM     89  C   UNL A   1      43.679  33.092  29.242  1.00  0.00     0.074 A 
ATOM     90  C   UNL A   1      43.485  27.295  31.831  1.00  0.00    -0.036 A 
ATOM     91  N   UNL A   1      43.424  29.491  31.485  1.00  0.00    -0.354 N 
ATOM     92  N   UNL A   1      43.609  31.937  29.858  1.00  0.00    -0.248 NA
ATOM     93  C   UNL A   1      44.101  32.998  27.838  1.00  0.00    -0.034 C 
ATOM     94  C   UNL A   1      43.855  27.546  30.505  1.00  0.00    -0.036 A 
ATOM     95  H   UNL A   1      43.404  26.365  32.271  1.00  0.00     0.065 H 
ATOM     96  C   UNL A   1      43.791  28.912  30.281  1.00  0.00     0.049 A 
ATOM     97  H   UNL A   1      43.307  30.457  31.635  1.00  0.00     0.167 HD
ATOM     98  C   UNL A   1      43.951  30.978  28.915  1.00  0.00     0.074 A 
ATOM     99  C   UNL A   1      44.212  31.686  27.679  1.00  0.00    -0.034 C 
ATOM    100  H   UNL A   1      44.267  33.753  27.155  1.00  0.00     0.065 H 
ATOM    101  H   UNL A   1      44.130  26.833  29.811  1.00  0.00     0.065 H 
ATOM    102  C   UNL A   1      44.044  29.633  29.059  1.00  0.00     0.037 A 
ATOM    103  H   UNL A   1      44.454  31.228  26.786  1.00  0.00     0.065 H 
BRANCH  84 104
ATOM    104  C   UNL A   1      42.789  27.601  34.766  1.00  0.00     0.064 A 
ATOM    105  C   UNL A   1      43.832  27.281  35.650  1.00  0.00     0.173 A 
ATOM    106  C   UNL A   1      41.632  26.809  34.806  1.00  0.00     0.173 A 
ATOM    107  F   UNL A   1      44.965  28.000  35.646  1.00  0.00    -0.203 F 
ATOM    108  C   UNL A   1      43.735  26.192  36.511  1.00  0.00     0.198 A 
ATOM    109  C   UNL A   1      41.525  25.740  35.693  1.00  0.00     0.198 A 
ATOM    110  F   UNL A   1      40.602  27.071  33.988  1.00  0.00    -0.203 F 
ATOM    111  F   UNL A   1      44.768  25.871  37.303  1.00  0.00    -0.200 F 
ATOM    112  C   UNL A   1      42.580  25.426  36.536  1.00  0.00     0.200 A 
ATOM    113  F   UNL A   1      40.402  25.009  35.727  1.00  0.00    -0.200 F 
ATOM    114  F   UNL A   1      42.486  24.379  37.369  1.00  0.00    -0.200 F 
ENDBRANCH  84 104
BRANCH  87 115
ATOM    115  C   UNL A   1      43.540  35.672  28.910  1.00  0.00     0.064 A 
ATOM    116  C   UNL A   1      44.782  36.310  28.777  1.00  0.00     0.173 A 
ATOM    117  C   UNL A   1      42.456  36.202  28.197  1.00  0.00     0.173 A 
ATOM    118  F   UNL A   1      45.845  35.851  29.453  1.00  0.00    -0.203 F 
ATOM    119  C   UNL A   1      44.927  37.443  27.981  1.00  0.00     0.198 A 
ATOM    120  C   UNL A   1      42.609  37.318  27.376  1.00  0.00     0.198 A 
ATOM    121  F   UNL A   1      41.249  35.624  28.282  1.00  0.00    -0.203 F 
ATOM    122  F   UNL A   1      46.115  38.059  27.907  1.00  0.00    -0.200 F 
ATOM    123  C   UNL A   1      43.842  37.942  27.275  1.00  0.00     0.200 A 
ATOM    124  F   UNL A   1      41.563  37.784  26.682  1.00  0.00    -0.200 F 
ATOM    125  F   UNL A   1      43.985  39.028  26.503  1.00  0.00    -0.200 F 
ENDBRANCH  87 115
BRANCH 102 126
ATOM    126  C   UNL A   1      44.411  28.835  27.841  1.00  0.00     0.064 A 
ATOM    127  C   UNL A   1      43.450  28.448  26.895  1.00  0.00     0.173 A 
ATOM    128  C   UNL A   1      45.748  28.486  27.600  1.00  0.00     0.173 A 
ATOM    129  F   UNL A   1      42.156  28.744  27.087  1.00  0.00    -0.203 F 
ATOM    130  C   UNL A   1      43.812  27.719  25.766  1.00  0.00     0.198 A 
ATOM    131  C   UNL A   1      46.111  27.784  26.453  1.00  0.00     0.198 A 
ATOM    132  F   UNL A   1      46.707  28.836  28.470  1.00  0.00    -0.203 F 
ATOM    133  F   UNL A   1      42.870  27.316  24.901  1.00  0.00    -0.200 F 
ATOM    134  C   UNL A   1      45.141  27.395  25.541  1.00  0.00     0.200 A 
ATOM    135  F   UNL A   1      47.397  27.485  26.231  1.00  0.00    -0.200 F 
ATOM    136  F   UNL A   1      45.488  26.699  24.449  1.00  0.00    -0.200 F 
ENDBRANCH 102 126
ENDBRANCH  67  70
ENDBRANCH  57  60
ENDBRANCH  53  56
ENDBRANCH  50  53
ENDBRANCH  47  50
ENDBRANCH  44  47
ENDBRANCH  41  44
ENDBRANCH  38  41
ENDBRANCH   3  38
TORSDOF 22
ENDMDL
