MODEL 1
REMARK VINA RESULT:     -12.0      0.000      0.000
REMARK SMILES Nc1ccc(O)c(C(=O)NCCCCCCNC(=O)c2ccc(-c3c4nc(c(-c5c(F)c(F)c(F)c(F)c5F)c5ccc([nH]5)c(-c5c(F)c(F)c(F)c(F)c5F)c5nc(c(-c6c(F)c(F)c(F)c(F)c6F)c6ccc3[nH]6)C=C5)C=C4)cc2)c1
REMARK SMILES IDX 14 1 13 4 12 7 11 10 10 13 8 14 9 15 7 17 2 18 3 19 83 20
REMARK SMILES IDX 4 21 5 24 1 26 6 29 15 31 16 34 17 37 18 38 19 40 20 41
REMARK SMILES IDX 21 42 82 43 22 44 81 46 23 48 24 51 25 52 75 53 26 54 80 55
REMARK SMILES IDX 74 56 76 57 27 58 79 59 73 61 72 63 28 65 60 68 40 69 59 70
REMARK SMILES IDX 41 71 44 72 58 73 77 74 42 75 43 77 57 79 78 80 45 83 29 85
REMARK SMILES IDX 30 86 38 87 31 88 32 89 36 90 39 91 33 92 34 93 37 94 35 95
REMARK SMILES IDX 61 96 62 97 70 98 63 99 64 100 68 101 71 102 65 103 66 104
REMARK SMILES IDX 69 105 67 106 46 107 47 108 55 109 48 110 49 111 53 112
REMARK SMILES IDX 56 113 50 114 51 115 54 116 52 117
REMARK H PARENT 14 2 14 3 13 5 13 6 12 8 12 9 11 11 11 12 10 16 3 22 83 23
REMARK H PARENT 4 25 1 27 1 28 6 30 15 32 15 33 16 35 16 36 17 39 21 45 82 47
REMARK H PARENT 22 49 81 50 80 60 74 62 76 64 79 66 73 67 41 76 44 78 77 81
REMARK H PARENT 42 82 78 84
REMARK Flexibility Score: inf
ROOT
ATOM      1  C   UNL A   1      31.476  30.880  25.946  1.00  0.00    -0.052 C 
ATOM      2  H   UNL A   1      30.554  30.581  25.492  1.00  0.00     0.027 H 
ATOM      3  H   UNL A   1      32.286  30.953  25.251  1.00  0.00     0.027 H 
ENDROOT
BRANCH   1   4
ATOM      4  C   UNL A   1      31.878  29.803  26.963  1.00  0.00    -0.052 C 
ATOM      5  H   UNL A   1      32.587  30.233  27.639  1.00  0.00     0.027 H 
ATOM      6  H   UNL A   1      30.973  29.490  27.441  1.00  0.00     0.027 H 
BRANCH   4   7
ATOM      7  C   UNL A   1      32.503  28.538  26.354  1.00  0.00    -0.036 C 
ATOM      8  H   UNL A   1      33.182  28.833  25.581  1.00  0.00     0.028 H 
ATOM      9  H   UNL A   1      32.998  28.015  27.145  1.00  0.00     0.028 H 
BRANCH   7  10
ATOM     10  C   UNL A   1      31.467  27.585  25.754  1.00  0.00     0.018 C 
ATOM     11  H   UNL A   1      31.396  26.708  26.363  1.00  0.00     0.049 H 
ATOM     12  H   UNL A   1      30.515  28.074  25.718  1.00  0.00     0.049 H 
BRANCH  10  13
ATOM     13  N   UNL A   1      31.863  27.210  24.412  1.00  0.00    -0.352 N 
ATOM     14  C   UNL A   1      31.322  27.400  23.170  1.00  0.00     0.255 C 
ATOM     15  O   UNL A   1      31.938  26.904  22.221  1.00  0.00    -0.269 OA
ATOM     16  H   UNL A   1      32.710  26.708  24.389  1.00  0.00     0.163 HD
BRANCH  14  17
ATOM     17  C   UNL A   1      30.105  28.208  22.868  1.00  0.00     0.083 A 
ATOM     18  C   UNL A   1      27.711  28.687  22.996  1.00  0.00     0.032 A 
ATOM     19  C   UNL A   1      27.915  29.891  22.325  1.00  0.00    -0.035 A 
ATOM     20  C   UNL A   1      28.797  27.821  23.187  1.00  0.00    -0.023 A 
ATOM     21  C   UNL A   1      29.194  30.265  21.921  1.00  0.00    -0.017 A 
ATOM     22  H   UNL A   1      27.113  30.511  22.128  1.00  0.00     0.065 H 
ATOM     23  H   UNL A   1      28.630  26.878  23.572  1.00  0.00     0.065 H 
ATOM     24  C   UNL A   1      30.277  29.436  22.199  1.00  0.00     0.128 A 
ATOM     25  H   UNL A   1      29.338  31.153  21.415  1.00  0.00     0.066 H 
BRANCH  18  26
ATOM     26  N   UNL A   1      26.427  28.294  23.348  1.00  0.00    -0.399 N 
ATOM     27  H   UNL A   1      26.135  28.352  24.287  1.00  0.00     0.156 HD
ATOM     28  H   UNL A   1      25.809  27.957  22.660  1.00  0.00     0.156 HD
ENDBRANCH  18  26
BRANCH  24  29
ATOM     29  O   UNL A   1      31.493  29.899  21.765  1.00  0.00    -0.507 OA
ATOM     30  H   UNL A   1      31.554  30.734  21.343  1.00  0.00     0.293 HD
ENDBRANCH  24  29
ENDBRANCH  14  17
ENDBRANCH  10  13
ENDBRANCH   7  10
ENDBRANCH   4   7
ENDBRANCH   1   4
BRANCH   1  31
ATOM     31  C   UNL A   1      31.285  32.281  26.531  1.00  0.00    -0.036 C 
ATOM     32  H   UNL A   1      30.447  32.255  27.197  1.00  0.00     0.028 H 
ATOM     33  H   UNL A   1      31.136  32.942  25.702  1.00  0.00     0.028 H 
BRANCH  31  34
ATOM     34  C   UNL A   1      32.491  32.809  27.301  1.00  0.00     0.018 C 
ATOM     35  H   UNL A   1      33.368  32.678  26.704  1.00  0.00     0.049 H 
ATOM     36  H   UNL A   1      32.565  32.264  28.219  1.00  0.00     0.049 H 
BRANCH  34  37
ATOM     37  N   UNL A   1      32.347  34.220  27.624  1.00  0.00    -0.352 N 
ATOM     38  C   UNL A   1      32.983  34.962  28.587  1.00  0.00     0.251 C 
ATOM     39  H   UNL A   1      31.700  34.715  27.072  1.00  0.00     0.163 HD
ATOM     40  O   UNL A   1      32.579  36.084  28.872  1.00  0.00    -0.269 OA
BRANCH  38  41
ATOM     41  C   UNL A   1      34.155  34.401  29.294  1.00  0.00     0.039 A 
ATOM     42  C   UNL A   1      33.961  33.764  30.522  1.00  0.00    -0.049 A 
ATOM     43  C   UNL A   1      35.440  34.526  28.759  1.00  0.00    -0.049 A 
ATOM     44  C   UNL A   1      35.053  33.205  31.191  1.00  0.00    -0.053 A 
ATOM     45  H   UNL A   1      33.017  33.706  30.933  1.00  0.00     0.063 H 
ATOM     46  C   UNL A   1      36.516  33.910  29.392  1.00  0.00    -0.053 A 
ATOM     47  H   UNL A   1      35.591  35.073  27.897  1.00  0.00     0.063 H 
ATOM     48  C   UNL A   1      36.335  33.250  30.617  1.00  0.00    -0.014 A 
ATOM     49  H   UNL A   1      34.917  32.758  32.110  1.00  0.00     0.063 H 
ATOM     50  H   UNL A   1      37.452  33.940  28.959  1.00  0.00     0.063 H 
BRANCH  48  51
ATOM     51  C   UNL A   1      37.499  32.617  31.287  1.00  0.00     0.031 A 
ATOM     52  C   UNL A   1      38.236  31.493  30.613  1.00  0.00     0.074 A 
ATOM     53  C   UNL A   1      37.849  33.012  32.526  1.00  0.00     0.049 A 
ATOM     54  N   UNL A   1      39.228  30.767  31.064  1.00  0.00    -0.248 NA
ATOM     55  C   UNL A   1      37.784  31.120  29.264  1.00  0.00    -0.034 C 
ATOM     56  C   UNL A   1      37.183  34.062  33.298  1.00  0.00    -0.036 A 
ATOM     57  N   UNL A   1      38.846  32.569  33.358  1.00  0.00    -0.354 N 
ATOM     58  C   UNL A   1      39.503  29.842  30.065  1.00  0.00     0.074 A 
ATOM     59  C   UNL A   1      38.546  30.068  29.003  1.00  0.00    -0.034 C 
ATOM     60  H   UNL A   1      37.062  31.562  28.673  1.00  0.00     0.065 H 
ATOM     61  C   UNL A   1      37.802  34.195  34.483  1.00  0.00    -0.036 A 
ATOM     62  H   UNL A   1      36.369  34.611  32.984  1.00  0.00     0.065 H 
ATOM     63  C   UNL A   1      38.882  33.217  34.568  1.00  0.00     0.049 A 
ATOM     64  H   UNL A   1      39.476  31.854  33.111  1.00  0.00     0.167 HD
ATOM     65  C   UNL A   1      40.480  28.905  30.028  1.00  0.00     0.037 A 
ATOM     66  H   UNL A   1      38.467  29.485  28.155  1.00  0.00     0.065 H 
ATOM     67  H   UNL A   1      37.554  34.880  35.214  1.00  0.00     0.065 H 
ATOM     68  C   UNL A   1      39.692  33.037  35.630  1.00  0.00     0.037 A 
ATOM     69  C   UNL A   1      41.451  28.707  31.072  1.00  0.00     0.049 A 
ATOM     70  C   UNL A   1      40.766  31.986  35.561  1.00  0.00     0.074 A 
ATOM     71  C   UNL A   1      42.521  27.830  31.100  1.00  0.00    -0.036 A 
ATOM     72  N   UNL A   1      41.468  29.396  32.275  1.00  0.00    -0.354 N 
ATOM     73  N   UNL A   1      41.062  31.166  34.582  1.00  0.00    -0.248 NA
ATOM     74  C   UNL A   1      41.626  31.841  36.745  1.00  0.00    -0.034 C 
ATOM     75  C   UNL A   1      43.157  27.956  32.338  1.00  0.00    -0.036 A 
ATOM     76  H   UNL A   1      42.801  27.193  30.338  1.00  0.00     0.065 H 
ATOM     77  C   UNL A   1      42.515  28.948  33.062  1.00  0.00     0.049 A 
ATOM     78  H   UNL A   1      40.829  30.101  32.532  1.00  0.00     0.167 HD
ATOM     79  C   UNL A   1      42.158  30.432  35.017  1.00  0.00     0.074 A 
ATOM     80  C   UNL A   1      42.483  30.913  36.343  1.00  0.00    -0.034 C 
ATOM     81  H   UNL A   1      41.575  32.332  37.650  1.00  0.00     0.065 H 
ATOM     82  H   UNL A   1      43.968  27.403  32.659  1.00  0.00     0.065 H 
ATOM     83  C   UNL A   1      42.833  29.448  34.375  1.00  0.00     0.037 A 
ATOM     84  H   UNL A   1      43.281  30.577  36.904  1.00  0.00     0.065 H 
BRANCH  65  85
ATOM     85  C   UNL A   1      40.556  28.022  28.816  1.00  0.00     0.064 A 
ATOM     86  C   UNL A   1      39.857  26.808  28.745  1.00  0.00     0.173 A 
ATOM     87  C   UNL A   1      41.295  28.421  27.692  1.00  0.00     0.173 A 
ATOM     88  F   UNL A   1      39.144  26.376  29.796  1.00  0.00    -0.203 F 
ATOM     89  C   UNL A   1      39.914  26.013  27.602  1.00  0.00     0.198 A 
ATOM     90  C   UNL A   1      41.326  27.638  26.539  1.00  0.00     0.198 A 
ATOM     91  F   UNL A   1      41.977  29.575  27.704  1.00  0.00    -0.203 F 
ATOM     92  F   UNL A   1      39.273  24.837  27.573  1.00  0.00    -0.200 F 
ATOM     93  C   UNL A   1      40.641  26.433  26.499  1.00  0.00     0.200 A 
ATOM     94  F   UNL A   1      42.019  28.052  25.469  1.00  0.00    -0.200 F 
ATOM     95  F   UNL A   1      40.686  25.673  25.395  1.00  0.00    -0.200 F 
ENDBRANCH  65  85
BRANCH  68  96
ATOM     96  C   UNL A   1      39.533  33.883  36.841  1.00  0.00     0.064 A 
ATOM     97  C   UNL A   1      38.774  33.439  37.934  1.00  0.00     0.173 A 
ATOM     98  C   UNL A   1      40.119  35.154  36.928  1.00  0.00     0.173 A 
ATOM     99  F   UNL A   1      38.179  32.238  37.891  1.00  0.00    -0.203 F 
ATOM    100  C   UNL A   1      38.586  34.245  39.055  1.00  0.00     0.198 A 
ATOM    101  C   UNL A   1      39.954  35.947  38.061  1.00  0.00     0.198 A 
ATOM    102  F   UNL A   1      40.858  35.624  35.912  1.00  0.00    -0.203 F 
ATOM    103  F   UNL A   1      37.814  33.816  40.062  1.00  0.00    -0.200 F 
ATOM    104  C   UNL A   1      39.179  35.496  39.120  1.00  0.00     0.200 A 
ATOM    105  F   UNL A   1      40.541  37.150  38.126  1.00  0.00    -0.200 F 
ATOM    106  F   UNL A   1      38.997  36.271  40.197  1.00  0.00    -0.200 F 
ENDBRANCH  68  96
BRANCH  83 107
ATOM    107  C   UNL A   1      44.018  28.854  35.080  1.00  0.00     0.064 A 
ATOM    108  C   UNL A   1      43.894  27.728  35.907  1.00  0.00     0.173 A 
ATOM    109  C   UNL A   1      45.298  29.396  34.893  1.00  0.00     0.173 A 
ATOM    110  F   UNL A   1      42.689  27.183  36.130  1.00  0.00    -0.203 F 
ATOM    111  C   UNL A   1      45.007  27.182  36.541  1.00  0.00     0.198 A 
ATOM    112  C   UNL A   1      46.413  28.828  35.503  1.00  0.00     0.198 A 
ATOM    113  F   UNL A   1      45.471  30.468  34.105  1.00  0.00    -0.203 F 
ATOM    114  F   UNL A   1      44.859  26.135  37.366  1.00  0.00    -0.200 F 
ATOM    115  C   UNL A   1      46.266  27.727  36.333  1.00  0.00     0.200 A 
ATOM    116  F   UNL A   1      47.630  29.348  35.290  1.00  0.00    -0.200 F 
ATOM    117  F   UNL A   1      47.337  27.195  36.938  1.00  0.00    -0.200 F 
ENDBRANCH  83 107
ENDBRANCH  48  51
ENDBRANCH  38  41
ENDBRANCH  34  37
ENDBRANCH  31  34
ENDBRANCH   1  31
TORSDOF 15
ENDMDL
MODEL 2
REMARK VINA RESULT:     -11.8      0.775      1.533
REMARK SMILES Nc1ccc(O)c(C(=O)NCCCCCCNC(=O)c2ccc(-c3c4nc(c(-c5c(F)c(F)c(F)c(F)c5F)c5ccc([nH]5)c(-c5c(F)c(F)c(F)c(F)c5F)c5nc(c(-c6c(F)c(F)c(F)c(F)c6F)c6ccc3[nH]6)C=C5)C=C4)cc2)c1
REMARK SMILES IDX 14 1 13 4 12 7 11 10 10 13 8 14 9 15 7 17 2 18 3 19 83 20
REMARK SMILES IDX 4 21 5 24 1 26 6 29 15 31 16 34 17 37 18 38 19 40 20 41
REMARK SMILES IDX 21 42 82 43 22 44 81 46 23 48 24 51 25 52 75 53 26 54 80 55
REMARK SMILES IDX 74 56 76 57 27 58 79 59 73 61 72 63 28 65 60 68 40 69 59 70
REMARK SMILES IDX 41 71 44 72 58 73 77 74 42 75 43 77 57 79 78 80 45 83 29 85
REMARK SMILES IDX 30 86 38 87 31 88 32 89 36 90 39 91 33 92 34 93 37 94 35 95
REMARK SMILES IDX 61 96 62 97 70 98 63 99 64 100 68 101 71 102 65 103 66 104
REMARK SMILES IDX 69 105 67 106 46 107 47 108 55 109 48 110 49 111 53 112
REMARK SMILES IDX 56 113 50 114 51 115 54 116 52 117
REMARK H PARENT 14 2 14 3 13 5 13 6 12 8 12 9 11 11 11 12 10 16 3 22 83 23
REMARK H PARENT 4 25 1 27 1 28 6 30 15 32 15 33 16 35 16 36 17 39 21 45 82 47
REMARK H PARENT 22 49 81 50 80 60 74 62 76 64 79 66 73 67 41 76 44 78 77 81
REMARK H PARENT 42 82 78 84
REMARK Flexibility Score: inf
ROOT
ATOM      1  C   UNL A   1      31.464  30.828  26.013  1.00  0.00    -0.052 C 
ATOM      2  H   UNL A   1      30.488  30.415  25.860  1.00  0.00     0.027 H 
ATOM      3  H   UNL A   1      32.039  30.900  25.114  1.00  0.00     0.027 H 
ENDROOT
BRANCH   1   4
ATOM      4  C   UNL A   1      32.239  29.888  26.945  1.00  0.00    -0.052 C 
ATOM      5  H   UNL A   1      33.175  30.351  27.180  1.00  0.00     0.027 H 
ATOM      6  H   UNL A   1      31.617  29.735  27.802  1.00  0.00     0.027 H 
BRANCH   4   7
ATOM      7  C   UNL A   1      32.528  28.494  26.367  1.00  0.00    -0.036 C 
ATOM      8  H   UNL A   1      32.892  28.609  25.367  1.00  0.00     0.028 H 
ATOM      9  H   UNL A   1      33.248  28.027  27.005  1.00  0.00     0.028 H 
BRANCH   7  10
ATOM     10  C   UNL A   1      31.292  27.590  26.334  1.00  0.00     0.018 C 
ATOM     11  H   UNL A   1      31.292  26.957  27.196  1.00  0.00     0.049 H 
ATOM     12  H   UNL A   1      30.411  28.197  26.334  1.00  0.00     0.049 H 
BRANCH  10  13
ATOM     13  N   UNL A   1      31.312  26.775  25.136  1.00  0.00    -0.352 N 
ATOM     14  C   UNL A   1      30.650  26.823  23.940  1.00  0.00     0.255 C 
ATOM     15  O   UNL A   1      30.906  25.921  23.135  1.00  0.00    -0.269 OA
ATOM     16  H   UNL A   1      31.942  26.022  25.196  1.00  0.00     0.163 HD
BRANCH  14  17
ATOM     17  C   UNL A   1      29.713  27.900  23.509  1.00  0.00     0.083 A 
ATOM     18  C   UNL A   1      29.189  30.104  22.588  1.00  0.00     0.032 A 
ATOM     19  C   UNL A   1      27.831  29.796  22.621  1.00  0.00    -0.035 A 
ATOM     20  C   UNL A   1      30.109  29.183  23.109  1.00  0.00    -0.023 A 
ATOM     21  C   UNL A   1      27.400  28.558  23.092  1.00  0.00    -0.017 A 
ATOM     22  H   UNL A   1      27.139  30.489  22.294  1.00  0.00     0.065 H 
ATOM     23  H   UNL A   1      31.101  29.455  23.199  1.00  0.00     0.065 H 
ATOM     24  C   UNL A   1      28.332  27.619  23.521  1.00  0.00     0.128 A 
ATOM     25  H   UNL A   1      26.391  28.339  23.124  1.00  0.00     0.066 H 
BRANCH  18  26
ATOM     26  N   UNL A   1      29.610  31.359  22.170  1.00  0.00    -0.399 N 
ATOM     27  H   UNL A   1      30.562  31.603  22.229  1.00  0.00     0.156 HD
ATOM     28  H   UNL A   1      28.957  32.004  21.814  1.00  0.00     0.156 HD
ENDBRANCH  18  26
BRANCH  24  29
ATOM     29  O   UNL A   1      27.805  26.430  23.958  1.00  0.00    -0.507 OA
ATOM     30  H   UNL A   1      26.886  26.360  24.130  1.00  0.00     0.293 HD
ENDBRANCH  24  29
ENDBRANCH  14  17
ENDBRANCH  10  13
ENDBRANCH   7  10
ENDBRANCH   4   7
ENDBRANCH   1   4
BRANCH   1  31
ATOM     31  C   UNL A   1      31.297  32.259  26.530  1.00  0.00    -0.036 C 
ATOM     32  H   UNL A   1      30.466  32.277  27.203  1.00  0.00     0.028 H 
ATOM     33  H   UNL A   1      31.151  32.880  25.671  1.00  0.00     0.028 H 
BRANCH  31  34
ATOM     34  C   UNL A   1      32.517  32.807  27.264  1.00  0.00     0.018 C 
ATOM     35  H   UNL A   1      33.377  32.696  26.638  1.00  0.00     0.049 H 
ATOM     36  H   UNL A   1      32.632  32.257  28.175  1.00  0.00     0.049 H 
BRANCH  34  37
ATOM     37  N   UNL A   1      32.356  34.212  27.601  1.00  0.00    -0.352 N 
ATOM     38  C   UNL A   1      32.975  34.950  28.578  1.00  0.00     0.251 C 
ATOM     39  H   UNL A   1      31.709  34.707  27.047  1.00  0.00     0.163 HD
ATOM     40  O   UNL A   1      32.558  36.065  28.871  1.00  0.00    -0.269 OA
BRANCH  38  41
ATOM     41  C   UNL A   1      34.145  34.393  29.290  1.00  0.00     0.039 A 
ATOM     42  C   UNL A   1      33.947  33.749  30.514  1.00  0.00    -0.049 A 
ATOM     43  C   UNL A   1      35.433  34.528  28.765  1.00  0.00    -0.049 A 
ATOM     44  C   UNL A   1      35.038  33.195  31.188  1.00  0.00    -0.053 A 
ATOM     45  H   UNL A   1      33.001  33.684  30.919  1.00  0.00     0.063 H 
ATOM     46  C   UNL A   1      36.509  33.916  29.403  1.00  0.00    -0.053 A 
ATOM     47  H   UNL A   1      35.587  35.079  27.907  1.00  0.00     0.063 H 
ATOM     48  C   UNL A   1      36.323  33.250  30.623  1.00  0.00    -0.014 A 
ATOM     49  H   UNL A   1      34.899  32.742  32.105  1.00  0.00     0.063 H 
ATOM     50  H   UNL A   1      37.448  33.954  28.976  1.00  0.00     0.063 H 
BRANCH  48  51
ATOM     51  C   UNL A   1      37.487  32.621  31.298  1.00  0.00     0.031 A 
ATOM     52  C   UNL A   1      38.226  31.494  30.631  1.00  0.00     0.074 A 
ATOM     53  C   UNL A   1      37.834  33.022  32.536  1.00  0.00     0.049 A 
ATOM     54  N   UNL A   1      39.217  30.771  31.087  1.00  0.00    -0.248 NA
ATOM     55  C   UNL A   1      37.778  31.114  29.283  1.00  0.00    -0.034 C 
ATOM     56  C   UNL A   1      37.166  34.075  33.303  1.00  0.00    -0.036 A 
ATOM     57  N   UNL A   1      38.830  32.583  33.373  1.00  0.00    -0.354 N 
ATOM     58  C   UNL A   1      39.496  29.842  30.093  1.00  0.00     0.074 A 
ATOM     59  C   UNL A   1      38.540  30.062  29.028  1.00  0.00    -0.034 C 
ATOM     60  H   UNL A   1      37.056  31.553  28.689  1.00  0.00     0.065 H 
ATOM     61  C   UNL A   1      37.782  34.214  34.488  1.00  0.00    -0.036 A 
ATOM     62  H   UNL A   1      36.351  34.621  32.984  1.00  0.00     0.065 H 
ATOM     63  C   UNL A   1      38.863  33.237  34.580  1.00  0.00     0.049 A 
ATOM     64  H   UNL A   1      39.461  31.867  33.130  1.00  0.00     0.167 HD
ATOM     65  C   UNL A   1      40.474  28.905  30.062  1.00  0.00     0.037 A 
ATOM     66  H   UNL A   1      38.464  29.475  28.183  1.00  0.00     0.065 H 
ATOM     67  H   UNL A   1      37.532  34.902  35.215  1.00  0.00     0.065 H 
ATOM     68  C   UNL A   1      39.670  33.062  35.644  1.00  0.00     0.037 A 
ATOM     69  C   UNL A   1      41.442  28.713  31.110  1.00  0.00     0.049 A 
ATOM     70  C   UNL A   1      40.746  32.012  35.582  1.00  0.00     0.074 A 
ATOM     71  C   UNL A   1      42.513  27.837  31.144  1.00  0.00    -0.036 A 
ATOM     72  N   UNL A   1      41.456  29.408  32.309  1.00  0.00    -0.354 N 
ATOM     73  N   UNL A   1      41.045  31.188  34.607  1.00  0.00    -0.248 NA
ATOM     74  C   UNL A   1      41.604  31.874  36.768  1.00  0.00    -0.034 C 
ATOM     75  C   UNL A   1      43.147  27.969  32.383  1.00  0.00    -0.036 A 
ATOM     76  H   UNL A   1      42.795  27.197  30.385  1.00  0.00     0.065 H 
ATOM     77  C   UNL A   1      42.503  28.964  33.101  1.00  0.00     0.049 A 
ATOM     78  H   UNL A   1      40.816  30.113  32.561  1.00  0.00     0.167 HD
ATOM     79  C   UNL A   1      42.140  30.457  35.048  1.00  0.00     0.074 A 
ATOM     80  C   UNL A   1      42.463  30.945  36.372  1.00  0.00    -0.034 C 
ATOM     81  H   UNL A   1      41.550  32.368  37.671  1.00  0.00     0.065 H 
ATOM     82  H   UNL A   1      43.958  27.419  32.708  1.00  0.00     0.065 H 
ATOM     83  C   UNL A   1      42.818  29.471  34.411  1.00  0.00     0.037 A 
ATOM     84  H   UNL A   1      43.260  30.611  36.936  1.00  0.00     0.065 H 
BRANCH  65  85
ATOM     85  C   UNL A   1      40.553  28.017  28.855  1.00  0.00     0.064 A 
ATOM     86  C   UNL A   1      39.843  26.809  28.782  1.00  0.00     0.173 A 
ATOM     87  C   UNL A   1      41.305  28.405  27.736  1.00  0.00     0.173 A 
ATOM     88  F   UNL A   1      39.117  26.388  29.828  1.00  0.00    -0.203 F 
ATOM     89  C   UNL A   1      39.904  26.009  27.643  1.00  0.00     0.198 A 
ATOM     90  C   UNL A   1      41.341  27.617  26.587  1.00  0.00     0.198 A 
ATOM     91  F   UNL A   1      41.998  29.553  27.750  1.00  0.00    -0.203 F 
ATOM     92  F   UNL A   1      39.253  24.838  27.613  1.00  0.00    -0.200 F 
ATOM     93  C   UNL A   1      40.645  26.418  26.545  1.00  0.00     0.200 A 
ATOM     94  F   UNL A   1      42.046  28.020  25.522  1.00  0.00    -0.200 F 
ATOM     95  F   UNL A   1      40.694  25.653  25.444  1.00  0.00    -0.200 F 
ENDBRANCH  65  85
BRANCH  68  96
ATOM     96  C   UNL A   1      39.509  33.914  36.851  1.00  0.00     0.064 A 
ATOM     97  C   UNL A   1      40.125  35.171  36.931  1.00  0.00     0.173 A 
ATOM     98  C   UNL A   1      38.754  33.486  37.953  1.00  0.00     0.173 A 
ATOM     99  F   UNL A   1      40.873  35.616  35.910  1.00  0.00    -0.203 F 
ATOM    100  C   UNL A   1      40.014  35.956  38.077  1.00  0.00     0.198 A 
ATOM    101  C   UNL A   1      38.620  34.285  39.086  1.00  0.00     0.198 A 
ATOM    102  F   UNL A   1      38.141  32.294  37.925  1.00  0.00    -0.203 F 
ATOM    103  F   UNL A   1      40.655  37.130  38.145  1.00  0.00    -0.200 F 
ATOM    104  C   UNL A   1      39.258  35.515  39.152  1.00  0.00     0.200 A 
ATOM    105  F   UNL A   1      37.876  33.861  40.117  1.00  0.00    -0.200 F 
ATOM    106  F   UNL A   1      39.151  36.269  40.253  1.00  0.00    -0.200 F 
ENDBRANCH  68  96
BRANCH  83 107
ATOM    107  C   UNL A   1      44.001  28.881  35.121  1.00  0.00     0.064 A 
ATOM    108  C   UNL A   1      43.874  27.773  35.971  1.00  0.00     0.173 A 
ATOM    109  C   UNL A   1      45.285  29.408  34.916  1.00  0.00     0.173 A 
ATOM    110  F   UNL A   1      42.665  27.242  36.213  1.00  0.00    -0.203 F 
ATOM    111  C   UNL A   1      44.985  27.230  36.611  1.00  0.00     0.198 A 
ATOM    112  C   UNL A   1      46.399  28.844  35.531  1.00  0.00     0.198 A 
ATOM    113  F   UNL A   1      45.462  30.463  34.107  1.00  0.00    -0.203 F 
ATOM    114  F   UNL A   1      44.834  26.201  37.457  1.00  0.00    -0.200 F 
ATOM    115  C   UNL A   1      46.248  27.761  36.385  1.00  0.00     0.200 A 
ATOM    116  F   UNL A   1      47.619  29.349  35.302  1.00  0.00    -0.200 F 
ATOM    117  F   UNL A   1      47.317  27.231  36.994  1.00  0.00    -0.200 F 
ENDBRANCH  83 107
ENDBRANCH  48  51
ENDBRANCH  38  41
ENDBRANCH  34  37
ENDBRANCH  31  34
ENDBRANCH   1  31
TORSDOF 15
ENDMDL
MODEL 3
REMARK VINA RESULT:     -11.8      4.307     10.183
REMARK SMILES Nc1ccc(O)c(C(=O)NCCCCCCNC(=O)c2ccc(-c3c4nc(c(-c5c(F)c(F)c(F)c(F)c5F)c5ccc([nH]5)c(-c5c(F)c(F)c(F)c(F)c5F)c5nc(c(-c6c(F)c(F)c(F)c(F)c6F)c6ccc3[nH]6)C=C5)C=C4)cc2)c1
REMARK SMILES IDX 14 1 13 4 12 7 11 10 10 13 8 14 9 15 7 17 2 18 3 19 83 20
REMARK SMILES IDX 4 21 5 24 1 26 6 29 15 31 16 34 17 37 18 38 19 40 20 41
REMARK SMILES IDX 21 42 82 43 22 44 81 46 23 48 24 51 25 52 75 53 26 54 80 55
REMARK SMILES IDX 74 56 76 57 27 58 79 59 73 61 72 63 28 65 60 68 40 69 59 70
REMARK SMILES IDX 41 71 44 72 58 73 77 74 42 75 43 77 57 79 78 80 45 83 29 85
REMARK SMILES IDX 30 86 38 87 31 88 32 89 36 90 39 91 33 92 34 93 37 94 35 95
REMARK SMILES IDX 61 96 62 97 70 98 63 99 64 100 68 101 71 102 65 103 66 104
REMARK SMILES IDX 69 105 67 106 46 107 47 108 55 109 48 110 49 111 53 112
REMARK SMILES IDX 56 113 50 114 51 115 54 116 52 117
REMARK H PARENT 14 2 14 3 13 5 13 6 12 8 12 9 11 11 11 12 10 16 3 22 83 23
REMARK H PARENT 4 25 1 27 1 28 6 30 15 32 15 33 16 35 16 36 17 39 21 45 82 47
REMARK H PARENT 22 49 81 50 80 60 74 62 76 64 79 66 73 67 41 76 44 78 77 81
REMARK H PARENT 42 82 78 84
REMARK Flexibility Score: inf
ROOT
ATOM      1  C   UNL A   1      36.840  33.525  28.615  1.00  0.00    -0.052 C 
ATOM      2  H   UNL A   1      37.481  33.102  27.870  1.00  0.00     0.027 H 
ATOM      3  H   UNL A   1      36.959  34.582  28.727  1.00  0.00     0.027 H 
ENDROOT
BRANCH   1   4
ATOM      4  C   UNL A   1      37.207  32.905  29.969  1.00  0.00    -0.052 C 
ATOM      5  H   UNL A   1      36.351  32.380  30.337  1.00  0.00     0.027 H 
ATOM      6  H   UNL A   1      38.048  32.269  29.789  1.00  0.00     0.027 H 
BRANCH   4   7
ATOM      7  C   UNL A   1      37.649  33.911  31.044  1.00  0.00    -0.036 C 
ATOM      8  H   UNL A   1      38.714  34.010  30.999  1.00  0.00     0.028 H 
ATOM      9  H   UNL A   1      37.151  34.835  30.839  1.00  0.00     0.028 H 
BRANCH   7  10
ATOM     10  C   UNL A   1      37.259  33.485  32.462  1.00  0.00     0.018 C 
ATOM     11  H   UNL A   1      37.961  32.762  32.821  1.00  0.00     0.049 H 
ATOM     12  H   UNL A   1      37.267  34.342  33.102  1.00  0.00     0.049 H 
BRANCH  10  13
ATOM     13  N   UNL A   1      35.932  32.905  32.452  1.00  0.00    -0.352 N 
ATOM     14  C   UNL A   1      34.665  33.424  32.443  1.00  0.00     0.255 C 
ATOM     15  O   UNL A   1      33.738  32.607  32.465  1.00  0.00    -0.269 OA
ATOM     16  H   UNL A   1      35.943  31.921  32.451  1.00  0.00     0.163 HD
BRANCH  14  17
ATOM     17  C   UNL A   1      34.320  34.871  32.339  1.00  0.00     0.083 A 
ATOM     18  C   UNL A   1      33.595  36.863  31.121  1.00  0.00     0.032 A 
ATOM     19  C   UNL A   1      33.582  37.587  32.312  1.00  0.00    -0.035 A 
ATOM     20  C   UNL A   1      34.044  35.535  31.137  1.00  0.00    -0.023 A 
ATOM     21  C   UNL A   1      33.934  36.975  33.513  1.00  0.00    -0.017 A 
ATOM     22  H   UNL A   1      33.309  38.583  32.304  1.00  0.00     0.065 H 
ATOM     23  H   UNL A   1      34.171  35.034  30.243  1.00  0.00     0.065 H 
ATOM     24  C   UNL A   1      34.288  35.630  33.525  1.00  0.00     0.128 A 
ATOM     25  H   UNL A   1      33.931  37.519  34.390  1.00  0.00     0.066 H 
BRANCH  18  26
ATOM     26  N   UNL A   1      33.298  37.492  29.920  1.00  0.00    -0.399 N 
ATOM     27  H   UNL A   1      33.832  38.264  29.624  1.00  0.00     0.156 HD
ATOM     28  H   UNL A   1      32.554  37.166  29.364  1.00  0.00     0.156 HD
ENDBRANCH  18  26
BRANCH  24  29
ATOM     29  O   UNL A   1      34.609  35.122  34.759  1.00  0.00    -0.507 OA
ATOM     30  H   UNL A   1      34.243  34.305  35.039  1.00  0.00     0.293 HD
ENDBRANCH  24  29
ENDBRANCH  14  17
ENDBRANCH  10  13
ENDBRANCH   7  10
ENDBRANCH   4   7
ENDBRANCH   1   4
BRANCH   1  31
ATOM     31  C   UNL A   1      35.391  33.302  28.174  1.00  0.00    -0.036 C 
ATOM     32  H   UNL A   1      35.401  32.878  27.192  1.00  0.00     0.028 H 
ATOM     33  H   UNL A   1      34.909  34.258  28.209  1.00  0.00     0.028 H 
BRANCH  31  34
ATOM     34  C   UNL A   1      34.592  32.377  29.087  1.00  0.00     0.018 C 
ATOM     35  H   UNL A   1      33.798  32.935  29.537  1.00  0.00     0.049 H 
ATOM     36  H   UNL A   1      35.257  31.986  29.829  1.00  0.00     0.049 H 
BRANCH  34  37
ATOM     37  N   UNL A   1      34.024  31.257  28.354  1.00  0.00    -0.352 N 
ATOM     38  C   UNL A   1      34.648  30.151  27.834  1.00  0.00     0.251 C 
ATOM     39  H   UNL A   1      33.051  31.298  28.208  1.00  0.00     0.163 HD
ATOM     40  O   UNL A   1      34.056  29.417  27.050  1.00  0.00    -0.269 OA
BRANCH  38  41
ATOM     41  C   UNL A   1      36.045  29.848  28.212  1.00  0.00     0.039 A 
ATOM     42  C   UNL A   1      36.305  29.340  29.487  1.00  0.00    -0.049 A 
ATOM     43  C   UNL A   1      37.095  30.089  27.322  1.00  0.00    -0.049 A 
ATOM     44  C   UNL A   1      37.616  29.024  29.852  1.00  0.00    -0.053 A 
ATOM     45  H   UNL A   1      35.533  29.199  30.156  1.00  0.00     0.063 H 
ATOM     46  C   UNL A   1      38.391  29.710  27.661  1.00  0.00    -0.053 A 
ATOM     47  H   UNL A   1      36.911  30.545  26.415  1.00  0.00     0.063 H 
ATOM     48  C   UNL A   1      38.665  29.180  28.931  1.00  0.00    -0.014 A 
ATOM     49  H   UNL A   1      37.813  28.673  30.802  1.00  0.00     0.063 H 
ATOM     50  H   UNL A   1      39.154  29.820  26.975  1.00  0.00     0.063 H 
BRANCH  48  51
ATOM     51  C   UNL A   1      40.057  28.801  29.281  1.00  0.00     0.031 A 
ATOM     52  C   UNL A   1      40.903  29.726  30.112  1.00  0.00     0.074 A 
ATOM     53  C   UNL A   1      40.577  27.656  28.798  1.00  0.00     0.049 A 
ATOM     54  N   UNL A   1      42.159  29.608  30.461  1.00  0.00    -0.248 NA
ATOM     55  C   UNL A   1      40.260  30.959  30.593  1.00  0.00    -0.034 C 
ATOM     56  C   UNL A   1      39.868  26.699  27.947  1.00  0.00    -0.036 A 
ATOM     57  N   UNL A   1      41.827  27.109  28.945  1.00  0.00    -0.354 N 
ATOM     58  C   UNL A   1      42.460  30.756  31.184  1.00  0.00     0.074 A 
ATOM     59  C   UNL A   1      41.269  31.579  31.185  1.00  0.00    -0.034 C 
ATOM     60  H   UNL A   1      39.277  31.261  30.496  1.00  0.00     0.065 H 
ATOM     61  C   UNL A   1      40.687  25.674  27.663  1.00  0.00    -0.036 A 
ATOM     62  H   UNL A   1      38.896  26.798  27.617  1.00  0.00     0.065 H 
ATOM     63  C   UNL A   1      41.988  25.918  28.280  1.00  0.00     0.049 A 
ATOM     64  H   UNL A   1      42.540  27.530  29.476  1.00  0.00     0.167 HD
ATOM     65  C   UNL A   1      43.616  31.081  31.809  1.00  0.00     0.037 A 
ATOM     66  H   UNL A   1      41.216  32.526  31.593  1.00  0.00     0.065 H 
ATOM     67  H   UNL A   1      40.437  24.846  27.100  1.00  0.00     0.065 H 
ATOM     68  C   UNL A   1      43.066  25.117  28.175  1.00  0.00     0.037 A 
ATOM     69  C   UNL A   1      44.786  30.243  31.833  1.00  0.00     0.049 A 
ATOM     70  C   UNL A   1      44.338  25.507  28.878  1.00  0.00     0.074 A 
ATOM     71  C   UNL A   1      45.984  30.453  32.494  1.00  0.00    -0.036 A 
ATOM     72  N   UNL A   1      44.905  29.034  31.165  1.00  0.00    -0.354 N 
ATOM     73  N   UNL A   1      44.588  26.560  29.617  1.00  0.00    -0.248 NA
ATOM     74  C   UNL A   1      45.479  24.590  28.736  1.00  0.00    -0.034 C 
ATOM     75  C   UNL A   1      46.843  29.394  32.187  1.00  0.00    -0.036 A 
ATOM     76  H   UNL A   1      46.204  31.253  33.107  1.00  0.00     0.065 H 
ATOM     77  C   UNL A   1      46.164  28.498  31.378  1.00  0.00     0.049 A 
ATOM     78  H   UNL A   1      44.198  28.619  30.619  1.00  0.00     0.167 HD
ATOM     79  C   UNL A   1      45.898  26.417  30.054  1.00  0.00     0.074 A 
ATOM     80  C   UNL A   1      46.387  25.169  29.509  1.00  0.00    -0.034 C 
ATOM     81  H   UNL A   1      45.553  23.724  28.181  1.00  0.00     0.065 H 
ATOM     82  H   UNL A   1      47.819  29.296  32.511  1.00  0.00     0.065 H 
ATOM     83  C   UNL A   1      46.630  27.247  30.838  1.00  0.00     0.037 A 
ATOM     84  H   UNL A   1      47.324  24.780  29.697  1.00  0.00     0.065 H 
BRANCH  65  85
ATOM     85  C   UNL A   1      43.676  32.399  32.525  1.00  0.00     0.064 A 
ATOM     86  C   UNL A   1      43.328  32.518  33.879  1.00  0.00     0.173 A 
ATOM     87  C   UNL A   1      44.137  33.548  31.863  1.00  0.00     0.173 A 
ATOM     88  F   UNL A   1      42.871  31.454  34.555  1.00  0.00    -0.203 F 
ATOM     89  C   UNL A   1      43.415  33.743  34.537  1.00  0.00     0.198 A 
ATOM     90  C   UNL A   1      44.251  34.764  32.532  1.00  0.00     0.198 A 
ATOM     91  F   UNL A   1      44.488  33.489  30.570  1.00  0.00    -0.203 F 
ATOM     92  F   UNL A   1      43.036  33.841  35.819  1.00  0.00    -0.200 F 
ATOM     93  C   UNL A   1      43.884  34.862  33.866  1.00  0.00     0.200 A 
ATOM     94  F   UNL A   1      44.718  35.841  31.885  1.00  0.00    -0.200 F 
ATOM     95  F   UNL A   1      43.980  36.037  34.503  1.00  0.00    -0.200 F 
ENDBRANCH  65  85
BRANCH  68  96
ATOM     96  C   UNL A   1      42.986  23.857  27.392  1.00  0.00     0.064 A 
ATOM     97  C   UNL A   1      42.536  22.669  27.986  1.00  0.00     0.173 A 
ATOM     98  C   UNL A   1      43.372  23.806  26.045  1.00  0.00     0.173 A 
ATOM     99  F   UNL A   1      42.174  22.663  29.277  1.00  0.00    -0.203 F 
ATOM    100  C   UNL A   1      42.499  21.475  27.270  1.00  0.00     0.198 A 
ATOM    101  C   UNL A   1      43.307  22.618  25.321  1.00  0.00     0.198 A 
ATOM    102  F   UNL A   1      43.805  24.916  25.428  1.00  0.00    -0.203 F 
ATOM    103  F   UNL A   1      42.113  20.345  27.877  1.00  0.00    -0.200 F 
ATOM    104  C   UNL A   1      42.880  21.450  25.937  1.00  0.00     0.200 A 
ATOM    105  F   UNL A   1      43.663  22.602  24.030  1.00  0.00    -0.200 F 
ATOM    106  F   UNL A   1      42.845  20.302  25.249  1.00  0.00    -0.200 F 
ENDBRANCH  68  96
BRANCH  83 107
ATOM    107  C   UNL A   1      48.023  26.812  31.186  1.00  0.00     0.064 A 
ATOM    108  C   UNL A   1      49.135  27.235  30.443  1.00  0.00     0.173 A 
ATOM    109  C   UNL A   1      48.251  25.993  32.303  1.00  0.00     0.173 A 
ATOM    110  F   UNL A   1      48.968  28.005  29.357  1.00  0.00    -0.203 F 
ATOM    111  C   UNL A   1      50.422  26.833  30.790  1.00  0.00     0.198 A 
ATOM    112  C   UNL A   1      49.542  25.619  32.666  1.00  0.00     0.198 A 
ATOM    113  F   UNL A   1      47.223  25.567  33.051  1.00  0.00    -0.203 F 
ATOM    114  F   UNL A   1      51.465  27.209  30.037  1.00  0.00    -0.200 F 
ATOM    115  C   UNL A   1      50.625  26.032  31.905  1.00  0.00     0.200 A 
ATOM    116  F   UNL A   1      49.738  24.857  33.750  1.00  0.00    -0.200 F 
ATOM    117  F   UNL A   1      51.866  25.653  32.242  1.00  0.00    -0.200 F 
ENDBRANCH  83 107
ENDBRANCH  48  51
ENDBRANCH  38  41
ENDBRANCH  34  37
ENDBRANCH  31  34
ENDBRANCH   1  31
TORSDOF 15
ENDMDL
MODEL 4
REMARK VINA RESULT:     -11.7      6.357     11.515
REMARK SMILES Nc1ccc(O)c(C(=O)NCCCCCCNC(=O)c2ccc(-c3c4nc(c(-c5c(F)c(F)c(F)c(F)c5F)c5ccc([nH]5)c(-c5c(F)c(F)c(F)c(F)c5F)c5nc(c(-c6c(F)c(F)c(F)c(F)c6F)c6ccc3[nH]6)C=C5)C=C4)cc2)c1
REMARK SMILES IDX 14 1 13 4 12 7 11 10 10 13 8 14 9 15 7 17 2 18 3 19 83 20
REMARK SMILES IDX 4 21 5 24 1 26 6 29 15 31 16 34 17 37 18 38 19 40 20 41
REMARK SMILES IDX 21 42 82 43 22 44 81 46 23 48 24 51 25 52 75 53 26 54 80 55
REMARK SMILES IDX 74 56 76 57 27 58 79 59 73 61 72 63 28 65 60 68 40 69 59 70
REMARK SMILES IDX 41 71 44 72 58 73 77 74 42 75 43 77 57 79 78 80 45 83 29 85
REMARK SMILES IDX 30 86 38 87 31 88 32 89 36 90 39 91 33 92 34 93 37 94 35 95
REMARK SMILES IDX 61 96 62 97 70 98 63 99 64 100 68 101 71 102 65 103 66 104
REMARK SMILES IDX 69 105 67 106 46 107 47 108 55 109 48 110 49 111 53 112
REMARK SMILES IDX 56 113 50 114 51 115 54 116 52 117
REMARK H PARENT 14 2 14 3 13 5 13 6 12 8 12 9 11 11 11 12 10 16 3 22 83 23
REMARK H PARENT 4 25 1 27 1 28 6 30 15 32 15 33 16 35 16 36 17 39 21 45 82 47
REMARK H PARENT 22 49 81 50 80 60 74 62 76 64 79 66 73 67 41 76 44 78 77 81
REMARK H PARENT 42 82 78 84
REMARK Flexibility Score: inf
ROOT
ATOM      1  C   UNL A   1      36.587  20.338  25.022  1.00  0.00    -0.052 C 
ATOM      2  H   UNL A   1      35.864  19.707  24.549  1.00  0.00     0.027 H 
ATOM      3  H   UNL A   1      36.474  20.388  26.085  1.00  0.00     0.027 H 
ENDROOT
BRANCH   1   4
ATOM      4  C   UNL A   1      36.387  21.767  24.501  1.00  0.00    -0.052 C 
ATOM      5  H   UNL A   1      37.238  22.025  23.905  1.00  0.00     0.027 H 
ATOM      6  H   UNL A   1      35.471  21.759  23.948  1.00  0.00     0.027 H 
BRANCH   4   7
ATOM      7  C   UNL A   1      36.225  22.838  25.591  1.00  0.00    -0.036 C 
ATOM      8  H   UNL A   1      35.884  22.363  26.487  1.00  0.00     0.028 H 
ATOM      9  H   UNL A   1      37.178  23.305  25.723  1.00  0.00     0.028 H 
BRANCH   7  10
ATOM     10  C   UNL A   1      35.227  23.935  25.211  1.00  0.00     0.018 C 
ATOM     11  H   UNL A   1      35.681  24.893  25.352  1.00  0.00     0.049 H 
ATOM     12  H   UNL A   1      34.947  23.817  24.184  1.00  0.00     0.049 H 
BRANCH  10  13
ATOM     13  N   UNL A   1      34.046  23.834  26.044  1.00  0.00    -0.352 N 
ATOM     14  C   UNL A   1      32.942  23.025  26.039  1.00  0.00     0.255 C 
ATOM     15  O   UNL A   1      32.096  23.247  26.912  1.00  0.00    -0.269 OA
ATOM     16  H   UNL A   1      34.037  24.491  26.776  1.00  0.00     0.163 HD
BRANCH  14  17
ATOM     17  C   UNL A   1      32.716  21.870  25.123  1.00  0.00     0.083 A 
ATOM     18  C   UNL A   1      32.168  20.869  22.961  1.00  0.00     0.032 A 
ATOM     19  C   UNL A   1      32.440  19.604  23.477  1.00  0.00    -0.035 A 
ATOM     20  C   UNL A   1      32.230  21.980  23.814  1.00  0.00    -0.023 A 
ATOM     21  C   UNL A   1      32.846  19.455  24.801  1.00  0.00    -0.017 A 
ATOM     22  H   UNL A   1      32.342  18.771  22.874  1.00  0.00     0.065 H 
ATOM     23  H   UNL A   1      31.911  22.900  23.470  1.00  0.00     0.065 H 
ATOM     24  C   UNL A   1      32.992  20.578  25.610  1.00  0.00     0.128 A 
ATOM     25  H   UNL A   1      33.038  18.514  25.181  1.00  0.00     0.066 H 
BRANCH  18  26
ATOM     26  N   UNL A   1      31.711  21.007  21.657  1.00  0.00    -0.399 N 
ATOM     27  H   UNL A   1      30.996  21.653  21.453  1.00  0.00     0.156 HD
ATOM     28  H   UNL A   1      32.101  20.460  20.938  1.00  0.00     0.156 HD
ENDBRANCH  18  26
BRANCH  24  29
ATOM     29  O   UNL A   1      33.403  20.323  26.894  1.00  0.00    -0.507 OA
ATOM     30  H   UNL A   1      34.317  20.320  27.101  1.00  0.00     0.293 HD
ENDBRANCH  24  29
ENDBRANCH  14  17
ENDBRANCH  10  13
ENDBRANCH   7  10
ENDBRANCH   4   7
ENDBRANCH   1   4
BRANCH   1  31
ATOM     31  C   UNL A   1      37.975  19.745  24.767  1.00  0.00    -0.036 C 
ATOM     32  H   UNL A   1      38.304  20.066  23.802  1.00  0.00     0.028 H 
ATOM     33  H   UNL A   1      37.872  18.682  24.839  1.00  0.00     0.028 H 
BRANCH  31  34
ATOM     34  C   UNL A   1      39.029  20.153  25.791  1.00  0.00     0.018 C 
ATOM     35  H   UNL A   1      38.555  20.296  26.739  1.00  0.00     0.049 H 
ATOM     36  H   UNL A   1      39.491  21.056  25.452  1.00  0.00     0.049 H 
BRANCH  34  37
ATOM     37  N   UNL A   1      40.064  19.140  25.931  1.00  0.00    -0.352 N 
ATOM     38  C   UNL A   1      41.417  19.295  26.094  1.00  0.00     0.251 C 
ATOM     39  H   UNL A   1      39.748  18.208  25.904  1.00  0.00     0.163 HD
ATOM     40  O   UNL A   1      42.170  18.336  25.968  1.00  0.00    -0.269 OA
BRANCH  38  41
ATOM     41  C   UNL A   1      41.972  20.629  26.412  1.00  0.00     0.039 A 
ATOM     42  C   UNL A   1      42.239  21.516  25.367  1.00  0.00    -0.049 A 
ATOM     43  C   UNL A   1      42.252  20.990  27.733  1.00  0.00    -0.049 A 
ATOM     44  C   UNL A   1      42.739  22.789  25.652  1.00  0.00    -0.053 A 
ATOM     45  H   UNL A   1      42.068  21.233  24.390  1.00  0.00     0.063 H 
ATOM     46  C   UNL A   1      42.684  22.282  28.021  1.00  0.00    -0.053 A 
ATOM     47  H   UNL A   1      42.137  20.302  28.493  1.00  0.00     0.063 H 
ATOM     48  C   UNL A   1      42.939  23.191  26.983  1.00  0.00    -0.014 A 
ATOM     49  H   UNL A   1      42.961  23.437  24.880  1.00  0.00     0.063 H 
ATOM     50  H   UNL A   1      42.820  22.571  29.002  1.00  0.00     0.063 H 
BRANCH  48  51
ATOM     51  C   UNL A   1      43.420  24.557  27.309  1.00  0.00     0.031 A 
ATOM     52  C   UNL A   1      42.466  25.579  27.863  1.00  0.00     0.074 A 
ATOM     53  C   UNL A   1      44.697  24.893  27.046  1.00  0.00     0.049 A 
ATOM     54  N   UNL A   1      42.676  26.841  28.141  1.00  0.00    -0.248 NA
ATOM     55  C   UNL A   1      41.088  25.132  28.114  1.00  0.00    -0.034 C 
ATOM     56  C   UNL A   1      45.705  24.001  26.470  1.00  0.00    -0.036 A 
ATOM     57  N   UNL A   1      45.365  26.080  27.219  1.00  0.00    -0.354 N 
ATOM     58  C   UNL A   1      41.456  27.340  28.580  1.00  0.00     0.074 A 
ATOM     59  C   UNL A   1      40.499  26.258  28.488  1.00  0.00    -0.034 C 
ATOM     60  H   UNL A   1      40.684  24.186  28.022  1.00  0.00     0.065 H 
ATOM     61  C   UNL A   1      46.866  24.666  26.355  1.00  0.00    -0.036 A 
ATOM     62  H   UNL A   1      45.547  23.020  26.194  1.00  0.00     0.065 H 
ATOM     63  C   UNL A   1      46.676  26.039  26.814  1.00  0.00     0.049 A 
ATOM     64  H   UNL A   1      44.943  26.885  27.598  1.00  0.00     0.167 HD
ATOM     65  C   UNL A   1      41.167  28.581  29.040  1.00  0.00     0.037 A 
ATOM     66  H   UNL A   1      39.491  26.353  28.687  1.00  0.00     0.065 H 
ATOM     67  H   UNL A   1      47.750  24.269  26.000  1.00  0.00     0.065 H 
ATOM     68  C   UNL A   1      47.617  27.002  26.807  1.00  0.00     0.037 A 
ATOM     69  C   UNL A   1      42.131  29.643  29.160  1.00  0.00     0.049 A 
ATOM     70  C   UNL A   1      47.266  28.372  27.321  1.00  0.00     0.074 A 
ATOM     71  C   UNL A   1      41.952  30.914  29.677  1.00  0.00    -0.036 A 
ATOM     72  N   UNL A   1      43.455  29.557  28.759  1.00  0.00    -0.354 N 
ATOM     73  N   UNL A   1      46.127  28.811  27.800  1.00  0.00    -0.248 NA
ATOM     74  C   UNL A   1      48.335  29.381  27.300  1.00  0.00    -0.034 C 
ATOM     75  C   UNL A   1      43.155  31.613  29.544  1.00  0.00    -0.036 A 
ATOM     76  H   UNL A   1      41.080  31.283  30.089  1.00  0.00     0.065 H 
ATOM     77  C   UNL A   1      44.099  30.761  28.993  1.00  0.00     0.049 A 
ATOM     78  H   UNL A   1      43.875  28.759  28.364  1.00  0.00     0.167 HD
ATOM     79  C   UNL A   1      46.351  30.132  28.166  1.00  0.00     0.074 A 
ATOM     80  C   UNL A   1      47.737  30.419  27.866  1.00  0.00    -0.034 C 
ATOM     81  H   UNL A   1      49.298  29.301  26.938  1.00  0.00     0.065 H 
ATOM     82  H   UNL A   1      43.315  32.597  29.813  1.00  0.00     0.065 H 
ATOM     83  C   UNL A   1      45.484  31.025  28.702  1.00  0.00     0.037 A 
ATOM     84  H   UNL A   1      48.201  31.319  28.067  1.00  0.00     0.065 H 
BRANCH  65  85
ATOM     85  C   UNL A   1      39.751  28.860  29.453  1.00  0.00     0.064 A 
ATOM     86  C   UNL A   1      38.802  29.350  28.543  1.00  0.00     0.173 A 
ATOM     87  C   UNL A   1      39.325  28.584  30.761  1.00  0.00     0.173 A 
ATOM     88  F   UNL A   1      39.160  29.640  27.284  1.00  0.00    -0.203 F 
ATOM     89  C   UNL A   1      37.484  29.578  28.935  1.00  0.00     0.198 A 
ATOM     90  C   UNL A   1      38.000  28.784  31.141  1.00  0.00     0.198 A 
ATOM     91  F   UNL A   1      40.190  28.108  31.669  1.00  0.00    -0.203 F 
ATOM     92  F   UNL A   1      36.606  30.087  28.060  1.00  0.00    -0.200 F 
ATOM     93  C   UNL A   1      37.083  29.287  30.230  1.00  0.00     0.200 A 
ATOM     94  F   UNL A   1      37.611  28.490  32.389  1.00  0.00    -0.200 F 
ATOM     95  F   UNL A   1      35.812  29.494  30.602  1.00  0.00    -0.200 F 
ENDBRANCH  65  85
BRANCH  68  96
ATOM     96  C   UNL A   1      48.988  26.703  26.318  1.00  0.00     0.064 A 
ATOM     97  C   UNL A   1      49.969  26.204  27.188  1.00  0.00     0.173 A 
ATOM     98  C   UNL A   1      49.354  26.925  24.983  1.00  0.00     0.173 A 
ATOM     99  F   UNL A   1      49.673  25.993  28.479  1.00  0.00    -0.203 F 
ATOM    100  C   UNL A   1      51.268  25.962  26.746  1.00  0.00     0.198 A 
ATOM    101  C   UNL A   1      50.645  26.655  24.535  1.00  0.00     0.198 A 
ATOM    102  F   UNL A   1      48.452  27.397  24.109  1.00  0.00    -0.203 F 
ATOM    103  F   UNL A   1      52.197  25.534  27.611  1.00  0.00    -0.200 F 
ATOM    104  C   UNL A   1      51.604  26.183  25.420  1.00  0.00     0.200 A 
ATOM    105  F   UNL A   1      50.962  26.857  23.249  1.00  0.00    -0.200 F 
ATOM    106  F   UNL A   1      52.853  25.951  24.996  1.00  0.00    -0.200 F 
ENDBRANCH  68  96
BRANCH  83 107
ATOM    107  C   UNL A   1      46.020  32.386  29.037  1.00  0.00     0.064 A 
ATOM    108  C   UNL A   1      46.595  32.665  30.286  1.00  0.00     0.173 A 
ATOM    109  C   UNL A   1      45.994  33.413  28.081  1.00  0.00     0.173 A 
ATOM    110  F   UNL A   1      46.629  31.721  31.239  1.00  0.00    -0.203 F 
ATOM    111  C   UNL A   1      47.101  33.930  30.574  1.00  0.00     0.198 A 
ATOM    112  C   UNL A   1      46.529  34.667  28.361  1.00  0.00     0.198 A 
ATOM    113  F   UNL A   1      45.462  33.196  26.869  1.00  0.00    -0.203 F 
ATOM    114  F   UNL A   1      47.602  34.188  31.790  1.00  0.00    -0.200 F 
ATOM    115  C   UNL A   1      47.074  34.927  29.610  1.00  0.00     0.200 A 
ATOM    116  F   UNL A   1      46.515  35.625  27.425  1.00  0.00    -0.200 F 
ATOM    117  F   UNL A   1      47.570  36.142  29.886  1.00  0.00    -0.200 F 
ENDBRANCH  83 107
ENDBRANCH  48  51
ENDBRANCH  38  41
ENDBRANCH  34  37
ENDBRANCH  31  34
ENDBRANCH   1  31
TORSDOF 15
ENDMDL
MODEL 5
REMARK VINA RESULT:     -11.6      1.138      7.764
REMARK SMILES Nc1ccc(O)c(C(=O)NCCCCCCNC(=O)c2ccc(-c3c4nc(c(-c5c(F)c(F)c(F)c(F)c5F)c5ccc([nH]5)c(-c5c(F)c(F)c(F)c(F)c5F)c5nc(c(-c6c(F)c(F)c(F)c(F)c6F)c6ccc3[nH]6)C=C5)C=C4)cc2)c1
REMARK SMILES IDX 14 1 13 4 12 7 11 10 10 13 8 14 9 15 7 17 2 18 3 19 83 20
REMARK SMILES IDX 4 21 5 24 1 26 6 29 15 31 16 34 17 37 18 38 19 40 20 41
REMARK SMILES IDX 21 42 82 43 22 44 81 46 23 48 24 51 25 52 75 53 26 54 80 55
REMARK SMILES IDX 74 56 76 57 27 58 79 59 73 61 72 63 28 65 60 68 40 69 59 70
REMARK SMILES IDX 41 71 44 72 58 73 77 74 42 75 43 77 57 79 78 80 45 83 29 85
REMARK SMILES IDX 30 86 38 87 31 88 32 89 36 90 39 91 33 92 34 93 37 94 35 95
REMARK SMILES IDX 61 96 62 97 70 98 63 99 64 100 68 101 71 102 65 103 66 104
REMARK SMILES IDX 69 105 67 106 46 107 47 108 55 109 48 110 49 111 53 112
REMARK SMILES IDX 56 113 50 114 51 115 54 116 52 117
REMARK H PARENT 14 2 14 3 13 5 13 6 12 8 12 9 11 11 11 12 10 16 3 22 83 23
REMARK H PARENT 4 25 1 27 1 28 6 30 15 32 15 33 16 35 16 36 17 39 21 45 82 47
REMARK H PARENT 22 49 81 50 80 60 74 62 76 64 79 66 73 67 41 76 44 78 77 81
REMARK H PARENT 42 82 78 84
REMARK Flexibility Score: inf
ROOT
ATOM      1  C   UNL A   1      31.405  30.607  25.829  1.00  0.00    -0.052 C 
ATOM      2  H   UNL A   1      30.456  30.385  25.388  1.00  0.00     0.027 H 
ATOM      3  H   UNL A   1      32.198  30.679  25.113  1.00  0.00     0.027 H 
ENDROOT
BRANCH   1   4
ATOM      4  C   UNL A   1      31.778  29.451  26.767  1.00  0.00    -0.052 C 
ATOM      5  H   UNL A   1      32.620  29.757  27.352  1.00  0.00     0.027 H 
ATOM      6  H   UNL A   1      30.906  29.248  27.353  1.00  0.00     0.027 H 
BRANCH   4   7
ATOM      7  C   UNL A   1      32.140  28.135  26.061  1.00  0.00    -0.036 C 
ATOM      8  H   UNL A   1      32.201  28.318  25.009  1.00  0.00     0.028 H 
ATOM      9  H   UNL A   1      33.073  27.803  26.465  1.00  0.00     0.028 H 
BRANCH   7  10
ATOM     10  C   UNL A   1      31.116  27.023  26.303  1.00  0.00     0.018 C 
ATOM     11  H   UNL A   1      31.425  26.431  27.139  1.00  0.00     0.049 H 
ATOM     12  H   UNL A   1      30.160  27.461  26.506  1.00  0.00     0.049 H 
BRANCH  10  13
ATOM     13  N   UNL A   1      31.017  26.182  25.127  1.00  0.00    -0.352 N 
ATOM     14  C   UNL A   1      30.356  26.288  23.933  1.00  0.00     0.255 C 
ATOM     15  O   UNL A   1      30.483  25.339  23.151  1.00  0.00    -0.269 OA
ATOM     16  H   UNL A   1      31.542  25.354  25.203  1.00  0.00     0.163 HD
BRANCH  14  17
ATOM     17  C   UNL A   1      29.566  27.468  23.479  1.00  0.00     0.083 A 
ATOM     18  C   UNL A   1      29.326  29.673  22.449  1.00  0.00     0.032 A 
ATOM     19  C   UNL A   1      27.941  29.575  22.562  1.00  0.00    -0.035 A 
ATOM     20  C   UNL A   1      30.126  28.653  22.984  1.00  0.00    -0.023 A 
ATOM     21  C   UNL A   1      27.357  28.443  23.126  1.00  0.00    -0.017 A 
ATOM     22  H   UNL A   1      27.343  30.346  22.223  1.00  0.00     0.065 H 
ATOM     23  H   UNL A   1      31.151  28.778  23.013  1.00  0.00     0.065 H 
ATOM     24  C   UNL A   1      28.163  27.399  23.569  1.00  0.00     0.128 A 
ATOM     25  H   UNL A   1      26.331  28.380  23.215  1.00  0.00     0.066 H 
BRANCH  18  26
ATOM     26  N   UNL A   1      29.904  30.826  21.937  1.00  0.00    -0.399 N 
ATOM     27  H   UNL A   1      29.524  31.707  22.158  1.00  0.00     0.156 HD
ATOM     28  H   UNL A   1      30.694  30.764  21.353  1.00  0.00     0.156 HD
ENDBRANCH  18  26
BRANCH  24  29
ATOM     29  O   UNL A   1      27.489  26.328  24.101  1.00  0.00    -0.507 OA
ATOM     30  H   UNL A   1      27.085  25.700  23.534  1.00  0.00     0.293 HD
ENDBRANCH  24  29
ENDBRANCH  14  17
ENDBRANCH  10  13
ENDBRANCH   7  10
ENDBRANCH   4   7
ENDBRANCH   1   4
BRANCH   1  31
ATOM     31  C   UNL A   1      31.308  31.979  26.501  1.00  0.00    -0.036 C 
ATOM     32  H   UNL A   1      30.574  31.920  27.277  1.00  0.00     0.028 H 
ATOM     33  H   UNL A   1      31.046  32.678  25.734  1.00  0.00     0.028 H 
BRANCH  31  34
ATOM     34  C   UNL A   1      32.615  32.471  27.114  1.00  0.00     0.018 C 
ATOM     35  H   UNL A   1      33.398  32.365  26.393  1.00  0.00     0.049 H 
ATOM     36  H   UNL A   1      32.814  31.885  27.988  1.00  0.00     0.049 H 
BRANCH  34  37
ATOM     37  N   UNL A   1      32.528  33.866  27.515  1.00  0.00    -0.352 N 
ATOM     38  C   UNL A   1      33.195  34.528  28.515  1.00  0.00     0.251 C 
ATOM     39  H   UNL A   1      31.900  34.417  26.994  1.00  0.00     0.163 HD
ATOM     40  O   UNL A   1      32.838  35.648  28.863  1.00  0.00    -0.269 OA
BRANCH  38  41
ATOM     41  C   UNL A   1      34.345  33.882  29.185  1.00  0.00     0.039 A 
ATOM     42  C   UNL A   1      34.102  32.962  30.208  1.00  0.00    -0.049 A 
ATOM     43  C   UNL A   1      35.656  34.203  28.822  1.00  0.00    -0.049 A 
ATOM     44  C   UNL A   1      35.175  32.324  30.833  1.00  0.00    -0.053 A 
ATOM     45  H   UNL A   1      33.135  32.756  30.499  1.00  0.00     0.063 H 
ATOM     46  C   UNL A   1      36.722  33.516  29.398  1.00  0.00    -0.053 A 
ATOM     47  H   UNL A   1      35.835  34.945  28.129  1.00  0.00     0.063 H 
ATOM     48  C   UNL A   1      36.492  32.575  30.413  1.00  0.00    -0.014 A 
ATOM     49  H   UNL A   1      34.999  31.663  31.606  1.00  0.00     0.063 H 
ATOM     50  H   UNL A   1      37.685  33.700  29.078  1.00  0.00     0.063 H 
BRANCH  48  51
ATOM     51  C   UNL A   1      37.643  31.868  31.030  1.00  0.00     0.031 A 
ATOM     52  C   UNL A   1      38.098  32.236  32.415  1.00  0.00     0.074 A 
ATOM     53  C   UNL A   1      38.314  30.942  30.319  1.00  0.00     0.049 A 
ATOM     54  N   UNL A   1      39.122  31.787  33.096  1.00  0.00    -0.248 NA
ATOM     55  C   UNL A   1      37.313  33.261  33.120  1.00  0.00    -0.034 C 
ATOM     56  C   UNL A   1      37.993  30.531  28.951  1.00  0.00    -0.036 A 
ATOM     57  N   UNL A   1      39.413  30.187  30.644  1.00  0.00    -0.354 N 
ATOM     58  C   UNL A   1      39.115  32.487  34.296  1.00  0.00     0.074 A 
ATOM     59  C   UNL A   1      38.013  33.423  34.233  1.00  0.00    -0.034 C 
ATOM     60  H   UNL A   1      36.443  33.732  32.825  1.00  0.00     0.065 H 
ATOM     61  C   UNL A   1      38.863  29.585  28.561  1.00  0.00    -0.036 A 
ATOM     62  H   UNL A   1      37.224  30.909  28.378  1.00  0.00     0.065 H 
ATOM     63  C   UNL A   1      39.824  29.350  29.636  1.00  0.00     0.049 A 
ATOM     64  H   UNL A   1      39.864  30.241  31.517  1.00  0.00     0.167 HD
ATOM     65  C   UNL A   1      39.939  32.345  35.361  1.00  0.00     0.037 A 
ATOM     66  H   UNL A   1      37.802  34.124  34.960  1.00  0.00     0.065 H 
ATOM     67  H   UNL A   1      38.854  29.102  27.649  1.00  0.00     0.065 H 
ATOM     68  C   UNL A   1      40.863  28.494  29.582  1.00  0.00     0.037 A 
ATOM     69  C   UNL A   1      41.013  31.389  35.431  1.00  0.00     0.049 A 
ATOM     70  C   UNL A   1      41.763  28.360  30.780  1.00  0.00     0.074 A 
ATOM     71  C   UNL A   1      41.862  31.122  36.491  1.00  0.00    -0.036 A 
ATOM     72  N   UNL A   1      41.387  30.544  34.397  1.00  0.00    -0.354 N 
ATOM     73  N   UNL A   1      41.703  28.977  31.935  1.00  0.00    -0.248 NA
ATOM     74  C   UNL A   1      42.874  27.404  30.668  1.00  0.00    -0.034 C 
ATOM     75  C   UNL A   1      42.778  30.148  36.082  1.00  0.00    -0.036 A 
ATOM     76  H   UNL A   1      41.825  31.565  37.422  1.00  0.00     0.065 H 
ATOM     77  C   UNL A   1      42.468  29.772  34.785  1.00  0.00     0.049 A 
ATOM     78  H   UNL A   1      40.947  30.501  33.516  1.00  0.00     0.167 HD
ATOM     79  C   UNL A   1      42.743  28.462  32.697  1.00  0.00     0.074 A 
ATOM     80  C   UNL A   1      43.411  27.473  31.878  1.00  0.00    -0.034 C 
ATOM     81  H   UNL A   1      43.161  26.831  29.860  1.00  0.00     0.065 H 
ATOM     82  H   UNL A   1      43.554  29.773  36.651  1.00  0.00     0.065 H 
ATOM     83  C   UNL A   1      43.112  28.781  33.962  1.00  0.00     0.037 A 
ATOM     84  H   UNL A   1      44.205  26.895  32.196  1.00  0.00     0.065 H 
BRANCH  65  85
ATOM     85  C   UNL A   1      39.712  33.241  36.544  1.00  0.00     0.064 A 
ATOM     86  C   UNL A   1      40.367  34.475  36.670  1.00  0.00     0.173 A 
ATOM     87  C   UNL A   1      38.787  32.884  37.538  1.00  0.00     0.173 A 
ATOM     88  F   UNL A   1      41.267  34.859  35.753  1.00  0.00    -0.203 F 
ATOM     89  C   UNL A   1      40.124  35.308  37.760  1.00  0.00     0.198 A 
ATOM     90  C   UNL A   1      38.525  33.732  38.611  1.00  0.00     0.198 A 
ATOM     91  F   UNL A   1      38.129  31.718  37.463  1.00  0.00    -0.203 F 
ATOM     92  F   UNL A   1      40.793  36.462  37.882  1.00  0.00    -0.200 F 
ATOM     93  C   UNL A   1      39.197  34.940  38.724  1.00  0.00     0.200 A 
ATOM     94  F   UNL A   1      37.619  33.381  39.534  1.00  0.00    -0.200 F 
ATOM     95  F   UNL A   1      38.955  35.747  39.767  1.00  0.00    -0.200 F 
ENDBRANCH  65  85
BRANCH  68  96
ATOM     96  C   UNL A   1      41.097  27.681  28.361  1.00  0.00     0.064 A 
ATOM     97  C   UNL A   1      40.470  26.438  28.194  1.00  0.00     0.173 A 
ATOM     98  C   UNL A   1      41.962  28.116  27.346  1.00  0.00     0.173 A 
ATOM     99  F   UNL A   1      39.649  25.970  29.145  1.00  0.00    -0.203 F 
ATOM    100  C   UNL A   1      40.719  25.650  27.072  1.00  0.00     0.198 A 
ATOM    101  C   UNL A   1      42.188  27.341  26.211  1.00  0.00     0.198 A 
ATOM    102  F   UNL A   1      42.583  29.299  27.455  1.00  0.00    -0.203 F 
ATOM    103  F   UNL A   1      40.145  24.445  26.963  1.00  0.00    -0.200 F 
ATOM    104  C   UNL A   1      41.573  26.104  26.079  1.00  0.00     0.200 A 
ATOM    105  F   UNL A   1      43.003  27.789  25.247  1.00  0.00    -0.200 F 
ATOM    106  F   UNL A   1      41.813  25.346  25.001  1.00  0.00    -0.200 F 
ENDBRANCH  68  96
BRANCH  83 107
ATOM    107  C   UNL A   1      44.265  28.024  34.553  1.00  0.00     0.064 A 
ATOM    108  C   UNL A   1      45.580  28.507  34.477  1.00  0.00     0.173 A 
ATOM    109  C   UNL A   1      44.045  26.820  35.239  1.00  0.00     0.173 A 
ATOM    110  F   UNL A   1      45.845  29.645  33.818  1.00  0.00    -0.203 F 
ATOM    111  C   UNL A   1      46.636  27.797  35.045  1.00  0.00     0.198 A 
ATOM    112  C   UNL A   1      45.098  26.130  35.833  1.00  0.00     0.198 A 
ATOM    113  F   UNL A   1      42.805  26.319  35.346  1.00  0.00    -0.203 F 
ATOM    114  F   UNL A   1      47.890  28.252  34.919  1.00  0.00    -0.200 F 
ATOM    115  C   UNL A   1      46.393  26.614  35.728  1.00  0.00     0.200 A 
ATOM    116  F   UNL A   1      44.860  24.995  36.504  1.00  0.00    -0.200 F 
ATOM    117  F   UNL A   1      47.409  25.938  36.281  1.00  0.00    -0.200 F 
ENDBRANCH  83 107
ENDBRANCH  48  51
ENDBRANCH  38  41
ENDBRANCH  34  37
ENDBRANCH  31  34
ENDBRANCH   1  31
TORSDOF 15
ENDMDL
MODEL 6
REMARK VINA RESULT:     -11.6      0.951      7.741
REMARK SMILES Nc1ccc(O)c(C(=O)NCCCCCCNC(=O)c2ccc(-c3c4nc(c(-c5c(F)c(F)c(F)c(F)c5F)c5ccc([nH]5)c(-c5c(F)c(F)c(F)c(F)c5F)c5nc(c(-c6c(F)c(F)c(F)c(F)c6F)c6ccc3[nH]6)C=C5)C=C4)cc2)c1
REMARK SMILES IDX 14 1 13 4 12 7 11 10 10 13 8 14 9 15 7 17 2 18 3 19 83 20
REMARK SMILES IDX 4 21 5 24 1 26 6 29 15 31 16 34 17 37 18 38 19 40 20 41
REMARK SMILES IDX 21 42 82 43 22 44 81 46 23 48 24 51 25 52 75 53 26 54 80 55
REMARK SMILES IDX 74 56 76 57 27 58 79 59 73 61 72 63 28 65 60 68 40 69 59 70
REMARK SMILES IDX 41 71 44 72 58 73 77 74 42 75 43 77 57 79 78 80 45 83 29 85
REMARK SMILES IDX 30 86 38 87 31 88 32 89 36 90 39 91 33 92 34 93 37 94 35 95
REMARK SMILES IDX 61 96 62 97 70 98 63 99 64 100 68 101 71 102 65 103 66 104
REMARK SMILES IDX 69 105 67 106 46 107 47 108 55 109 48 110 49 111 53 112
REMARK SMILES IDX 56 113 50 114 51 115 54 116 52 117
REMARK H PARENT 14 2 14 3 13 5 13 6 12 8 12 9 11 11 11 12 10 16 3 22 83 23
REMARK H PARENT 4 25 1 27 1 28 6 30 15 32 15 33 16 35 16 36 17 39 21 45 82 47
REMARK H PARENT 22 49 81 50 80 60 74 62 76 64 79 66 73 67 41 76 44 78 77 81
REMARK H PARENT 42 82 78 84
REMARK Flexibility Score: inf
ROOT
ATOM      1  C   UNL A   1      31.419  30.960  25.994  1.00  0.00    -0.052 C 
ATOM      2  H   UNL A   1      30.458  30.716  25.593  1.00  0.00     0.027 H 
ATOM      3  H   UNL A   1      32.167  31.106  25.243  1.00  0.00     0.027 H 
ENDROOT
BRANCH   1   4
ATOM      4  C   UNL A   1      31.893  29.778  26.850  1.00  0.00    -0.052 C 
ATOM      5  H   UNL A   1      31.566  29.943  27.855  1.00  0.00     0.027 H 
ATOM      6  H   UNL A   1      31.472  28.899  26.407  1.00  0.00     0.027 H 
BRANCH   4   7
ATOM      7  C   UNL A   1      33.415  29.563  26.872  1.00  0.00    -0.036 C 
ATOM      8  H   UNL A   1      33.885  30.417  26.430  1.00  0.00     0.028 H 
ATOM      9  H   UNL A   1      33.703  29.430  27.893  1.00  0.00     0.028 H 
BRANCH   7  10
ATOM     10  C   UNL A   1      33.856  28.313  26.106  1.00  0.00     0.018 C 
ATOM     11  H   UNL A   1      34.766  27.941  26.528  1.00  0.00     0.049 H 
ATOM     12  H   UNL A   1      33.093  27.565  26.181  1.00  0.00     0.049 H 
BRANCH  10  13
ATOM     13  N   UNL A   1      34.069  28.641  24.711  1.00  0.00    -0.352 N 
ATOM     14  C   UNL A   1      33.301  28.550  23.582  1.00  0.00     0.255 C 
ATOM     15  O   UNL A   1      33.834  28.909  22.527  1.00  0.00    -0.269 OA
ATOM     16  H   UNL A   1      34.964  29.013  24.538  1.00  0.00     0.163 HD
BRANCH  14  17
ATOM     17  C   UNL A   1      31.872  28.127  23.536  1.00  0.00     0.083 A 
ATOM     18  C   UNL A   1      29.967  26.778  24.264  1.00  0.00     0.032 A 
ATOM     19  C   UNL A   1      29.127  27.513  23.429  1.00  0.00    -0.035 A 
ATOM     20  C   UNL A   1      31.344  27.040  24.246  1.00  0.00    -0.023 A 
ATOM     21  C   UNL A   1      29.638  28.547  22.648  1.00  0.00    -0.017 A 
ATOM     22  H   UNL A   1      28.120  27.291  23.390  1.00  0.00     0.065 H 
ATOM     23  H   UNL A   1      31.984  26.420  24.767  1.00  0.00     0.065 H 
ATOM     24  C   UNL A   1      30.994  28.855  22.711  1.00  0.00     0.128 A 
ATOM     25  H   UNL A   1      29.013  29.081  22.025  1.00  0.00     0.066 H 
BRANCH  18  26
ATOM     26  N   UNL A   1      29.463  25.713  24.998  1.00  0.00    -0.399 N 
ATOM     27  H   UNL A   1      28.865  25.059  24.568  1.00  0.00     0.156 HD
ATOM     28  H   UNL A   1      29.702  25.612  25.947  1.00  0.00     0.156 HD
ENDBRANCH  18  26
BRANCH  24  29
ATOM     29  O   UNL A   1      31.394  29.894  21.909  1.00  0.00    -0.507 OA
ATOM     30  H   UNL A   1      32.201  30.337  22.083  1.00  0.00     0.293 HD
ENDBRANCH  24  29
ENDBRANCH  14  17
ENDBRANCH  10  13
ENDBRANCH   7  10
ENDBRANCH   4   7
ENDBRANCH   1   4
BRANCH   1  31
ATOM     31  C   UNL A   1      31.297  32.290  26.741  1.00  0.00    -0.036 C 
ATOM     32  H   UNL A   1      30.756  32.118  27.647  1.00  0.00     0.028 H 
ATOM     33  H   UNL A   1      30.797  32.968  26.081  1.00  0.00     0.028 H 
BRANCH  31  34
ATOM     34  C   UNL A   1      32.634  32.934  27.097  1.00  0.00     0.018 C 
ATOM     35  H   UNL A   1      33.242  32.980  26.218  1.00  0.00     0.049 H 
ATOM     36  H   UNL A   1      33.098  32.340  27.856  1.00  0.00     0.049 H 
BRANCH  34  37
ATOM     37  N   UNL A   1      32.460  34.280  27.620  1.00  0.00    -0.352 N 
ATOM     38  C   UNL A   1      33.058  34.879  28.700  1.00  0.00     0.251 C 
ATOM     39  H   UNL A   1      31.820  34.844  27.128  1.00  0.00     0.163 HD
ATOM     40  O   UNL A   1      32.629  35.942  29.135  1.00  0.00    -0.269 OA
BRANCH  38  41
ATOM     41  C   UNL A   1      34.218  34.232  29.350  1.00  0.00     0.039 A 
ATOM     42  C   UNL A   1      33.993  33.340  30.401  1.00  0.00    -0.049 A 
ATOM     43  C   UNL A   1      35.522  34.527  28.942  1.00  0.00    -0.049 A 
ATOM     44  C   UNL A   1      35.077  32.701  31.009  1.00  0.00    -0.053 A 
ATOM     45  H   UNL A   1      33.033  33.153  30.726  1.00  0.00     0.063 H 
ATOM     46  C   UNL A   1      36.595  33.838  29.502  1.00  0.00    -0.053 A 
ATOM     47  H   UNL A   1      35.690  35.251  28.226  1.00  0.00     0.063 H 
ATOM     48  C   UNL A   1      36.383  32.925  30.545  1.00  0.00    -0.014 A 
ATOM     49  H   UNL A   1      34.915  32.061  31.802  1.00  0.00     0.063 H 
ATOM     50  H   UNL A   1      37.550  34.002  29.148  1.00  0.00     0.063 H 
BRANCH  48  51
ATOM     51  C   UNL A   1      37.543  32.216  31.143  1.00  0.00     0.031 A 
ATOM     52  C   UNL A   1      38.039  32.603  32.509  1.00  0.00     0.074 A 
ATOM     53  C   UNL A   1      38.185  31.270  30.431  1.00  0.00     0.049 A 
ATOM     54  N   UNL A   1      39.077  32.155  33.170  1.00  0.00    -0.248 NA
ATOM     55  C   UNL A   1      37.284  33.650  33.215  1.00  0.00    -0.034 C 
ATOM     56  C   UNL A   1      37.824  30.838  29.080  1.00  0.00    -0.036 A 
ATOM     57  N   UNL A   1      39.284  30.508  30.740  1.00  0.00    -0.354 N 
ATOM     58  C   UNL A   1      39.109  32.877  34.356  1.00  0.00     0.074 A 
ATOM     59  C   UNL A   1      38.015  33.823  34.306  1.00  0.00    -0.034 C 
ATOM     60  H   UNL A   1      36.412  34.125  32.935  1.00  0.00     0.065 H 
ATOM     61  C   UNL A   1      38.673  29.876  28.684  1.00  0.00    -0.036 A 
ATOM     62  H   UNL A   1      37.043  31.215  28.521  1.00  0.00     0.065 H 
ATOM     63  C   UNL A   1      39.659  29.649  29.737  1.00  0.00     0.049 A 
ATOM     64  H   UNL A   1      39.759  30.573  31.600  1.00  0.00     0.167 HD
ATOM     65  C   UNL A   1      39.960  32.745  35.402  1.00  0.00     0.037 A 
ATOM     66  H   UNL A   1      37.831  34.540  35.026  1.00  0.00     0.065 H 
ATOM     67  H   UNL A   1      38.633  29.377  27.782  1.00  0.00     0.065 H 
ATOM     68  C   UNL A   1      40.687  28.781  29.671  1.00  0.00     0.037 A 
ATOM     69  C   UNL A   1      41.025  31.778  35.461  1.00  0.00     0.049 A 
ATOM     70  C   UNL A   1      41.618  28.659  30.846  1.00  0.00     0.074 A 
ATOM     71  C   UNL A   1      41.899  31.520  36.502  1.00  0.00    -0.036 A 
ATOM     72  N   UNL A   1      41.362  30.911  34.432  1.00  0.00    -0.354 N 
ATOM     73  N   UNL A   1      41.595  29.296  31.992  1.00  0.00    -0.248 NA
ATOM     74  C   UNL A   1      42.715  27.688  30.723  1.00  0.00    -0.034 C 
ATOM     75  C   UNL A   1      42.794  30.530  36.087  1.00  0.00    -0.036 A 
ATOM     76  H   UNL A   1      41.891  31.980  37.426  1.00  0.00     0.065 H 
ATOM     77  C   UNL A   1      42.445  30.133  34.806  1.00  0.00     0.049 A 
ATOM     78  H   UNL A   1      40.898  30.856  33.565  1.00  0.00     0.167 HD
ATOM     79  C   UNL A   1      42.650  28.784  32.735  1.00  0.00     0.074 A 
ATOM     80  C   UNL A   1      43.285  27.773  31.917  1.00  0.00    -0.034 C 
ATOM     81  H   UNL A   1      42.974  27.098  29.918  1.00  0.00     0.065 H 
ATOM     82  H   UNL A   1      43.580  30.156  36.641  1.00  0.00     0.065 H 
ATOM     83  C   UNL A   1      43.056  29.121  33.983  1.00  0.00     0.037 A 
ATOM     84  H   UNL A   1      44.081  27.192  32.223  1.00  0.00     0.065 H 
BRANCH  65  85
ATOM     85  C   UNL A   1      39.774  33.664  36.574  1.00  0.00     0.064 A 
ATOM     86  C   UNL A   1      40.399  34.918  36.633  1.00  0.00     0.173 A 
ATOM     87  C   UNL A   1      38.918  33.307  37.627  1.00  0.00     0.173 A 
ATOM     88  F   UNL A   1      41.235  35.303  35.657  1.00  0.00    -0.203 F 
ATOM     89  C   UNL A   1      40.194  35.771  37.715  1.00  0.00     0.198 A 
ATOM     90  C   UNL A   1      38.691  34.175  38.693  1.00  0.00     0.198 A 
ATOM     91  F   UNL A   1      38.290  32.122  37.618  1.00  0.00    -0.203 F 
ATOM     92  F   UNL A   1      40.836  36.947  37.770  1.00  0.00    -0.200 F 
ATOM     93  C   UNL A   1      39.334  35.403  38.739  1.00  0.00     0.200 A 
ATOM     94  F   UNL A   1      37.850  33.823  39.675  1.00  0.00    -0.200 F 
ATOM     95  F   UNL A   1      39.128  36.230  39.774  1.00  0.00    -0.200 F 
ENDBRANCH  65  85
BRANCH  68  96
ATOM     96  C   UNL A   1      40.880  27.944  28.459  1.00  0.00     0.064 A 
ATOM     97  C   UNL A   1      41.650  28.405  27.382  1.00  0.00     0.173 A 
ATOM     98  C   UNL A   1      40.288  26.678  28.342  1.00  0.00     0.173 A 
ATOM     99  F   UNL A   1      42.220  29.617  27.438  1.00  0.00    -0.203 F 
ATOM    100  C   UNL A   1      41.799  27.643  26.224  1.00  0.00     0.198 A 
ATOM    101  C   UNL A   1      40.462  25.904  27.197  1.00  0.00     0.198 A 
ATOM    102  F   UNL A   1      39.545  26.188  29.346  1.00  0.00    -0.203 F 
ATOM    103  F   UNL A   1      42.498  28.131  25.191  1.00  0.00    -0.200 F 
ATOM    104  C   UNL A   1      41.209  26.392  26.134  1.00  0.00     0.200 A 
ATOM    105  F   UNL A   1      39.902  24.690  27.119  1.00  0.00    -0.200 F 
ATOM    106  F   UNL A   1      41.353  25.660  25.022  1.00  0.00    -0.200 F 
ENDBRANCH  68  96
BRANCH  83 107
ATOM    107  C   UNL A   1      44.216  28.362  34.557  1.00  0.00     0.064 A 
ATOM    108  C   UNL A   1      44.037  27.159  35.255  1.00  0.00     0.173 A 
ATOM    109  C   UNL A   1      45.528  28.826  34.372  1.00  0.00     0.173 A 
ATOM    110  F   UNL A   1      42.802  26.681  35.473  1.00  0.00    -0.203 F 
ATOM    111  C   UNL A   1      45.127  26.460  35.768  1.00  0.00     0.198 A 
ATOM    112  C   UNL A   1      46.617  28.109  34.858  1.00  0.00     0.198 A 
ATOM    113  F   UNL A   1      45.753  29.968  33.705  1.00  0.00    -0.203 F 
ATOM    114  F   UNL A   1      44.930  25.337  36.473  1.00  0.00    -0.200 F 
ATOM    115  C   UNL A   1      46.416  26.932  35.563  1.00  0.00     0.200 A 
ATOM    116  F   UNL A   1      47.862  28.559  34.648  1.00  0.00    -0.200 F 
ATOM    117  F   UNL A   1      47.465  26.254  36.050  1.00  0.00    -0.200 F 
ENDBRANCH  83 107
ENDBRANCH  48  51
ENDBRANCH  38  41
ENDBRANCH  34  37
ENDBRANCH  31  34
ENDBRANCH   1  31
TORSDOF 15
ENDMDL
MODEL 7
REMARK VINA RESULT:     -11.5      1.951      7.951
REMARK SMILES Nc1ccc(O)c(C(=O)NCCCCCCNC(=O)c2ccc(-c3c4nc(c(-c5c(F)c(F)c(F)c(F)c5F)c5ccc([nH]5)c(-c5c(F)c(F)c(F)c(F)c5F)c5nc(c(-c6c(F)c(F)c(F)c(F)c6F)c6ccc3[nH]6)C=C5)C=C4)cc2)c1
REMARK SMILES IDX 14 1 13 4 12 7 11 10 10 13 8 14 9 15 7 17 2 18 3 19 83 20
REMARK SMILES IDX 4 21 5 24 1 26 6 29 15 31 16 34 17 37 18 38 19 40 20 41
REMARK SMILES IDX 21 42 82 43 22 44 81 46 23 48 24 51 25 52 75 53 26 54 80 55
REMARK SMILES IDX 74 56 76 57 27 58 79 59 73 61 72 63 28 65 60 68 40 69 59 70
REMARK SMILES IDX 41 71 44 72 58 73 77 74 42 75 43 77 57 79 78 80 45 83 29 85
REMARK SMILES IDX 30 86 38 87 31 88 32 89 36 90 39 91 33 92 34 93 37 94 35 95
REMARK SMILES IDX 61 96 62 97 70 98 63 99 64 100 68 101 71 102 65 103 66 104
REMARK SMILES IDX 69 105 67 106 46 107 47 108 55 109 48 110 49 111 53 112
REMARK SMILES IDX 56 113 50 114 51 115 54 116 52 117
REMARK H PARENT 14 2 14 3 13 5 13 6 12 8 12 9 11 11 11 12 10 16 3 22 83 23
REMARK H PARENT 4 25 1 27 1 28 6 30 15 32 15 33 16 35 16 36 17 39 21 45 82 47
REMARK H PARENT 22 49 81 50 80 60 74 62 76 64 79 66 73 67 41 76 44 78 77 81
REMARK H PARENT 42 82 78 84
REMARK Flexibility Score: inf
ROOT
ATOM      1  C   UNL A   1      32.295  27.035  26.260  1.00  0.00    -0.052 C 
ATOM      2  H   UNL A   1      32.209  26.718  27.278  1.00  0.00     0.027 H 
ATOM      3  H   UNL A   1      31.682  26.471  25.587  1.00  0.00     0.027 H 
ENDROOT
BRANCH   1   4
ATOM      4  C   UNL A   1      33.745  26.809  25.811  1.00  0.00    -0.052 C 
ATOM      5  H   UNL A   1      33.888  27.320  24.882  1.00  0.00     0.027 H 
ATOM      6  H   UNL A   1      34.364  27.184  26.600  1.00  0.00     0.027 H 
BRANCH   4   7
ATOM      7  C   UNL A   1      34.141  25.338  25.614  1.00  0.00    -0.036 C 
ATOM      8  H   UNL A   1      35.142  25.302  25.238  1.00  0.00     0.028 H 
ATOM      9  H   UNL A   1      34.052  24.853  26.564  1.00  0.00     0.028 H 
BRANCH   7  10
ATOM     10  C   UNL A   1      33.227  24.596  24.635  1.00  0.00     0.018 C 
ATOM     11  H   UNL A   1      33.398  23.543  24.718  1.00  0.00     0.049 H 
ATOM     12  H   UNL A   1      32.206  24.814  24.871  1.00  0.00     0.049 H 
BRANCH  10  13
ATOM     13  N   UNL A   1      33.507  25.025  23.280  1.00  0.00    -0.352 N 
ATOM     14  C   UNL A   1      32.863  25.835  22.384  1.00  0.00     0.255 C 
ATOM     15  O   UNL A   1      33.396  25.958  21.276  1.00  0.00    -0.269 OA
ATOM     16  H   UNL A   1      34.347  24.653  22.927  1.00  0.00     0.163 HD
BRANCH  14  17
ATOM     17  C   UNL A   1      31.628  26.624  22.659  1.00  0.00     0.083 A 
ATOM     18  C   UNL A   1      29.330  26.882  23.453  1.00  0.00     0.032 A 
ATOM     19  C   UNL A   1      29.410  28.257  23.238  1.00  0.00    -0.035 A 
ATOM     20  C   UNL A   1      30.413  26.072  23.083  1.00  0.00    -0.023 A 
ATOM     21  C   UNL A   1      30.579  28.826  22.738  1.00  0.00    -0.017 A 
ATOM     22  H   UNL A   1      28.598  28.858  23.453  1.00  0.00     0.065 H 
ATOM     23  H   UNL A   1      30.313  25.045  23.126  1.00  0.00     0.065 H 
ATOM     24  C   UNL A   1      31.677  28.018  22.462  1.00  0.00     0.128 A 
ATOM     25  H   UNL A   1      30.629  29.843  22.572  1.00  0.00     0.066 H 
BRANCH  18  26
ATOM     26  N   UNL A   1      28.145  26.314  23.899  1.00  0.00    -0.399 N 
ATOM     27  H   UNL A   1      27.281  26.682  23.603  1.00  0.00     0.156 HD
ATOM     28  H   UNL A   1      28.168  25.544  24.511  1.00  0.00     0.156 HD
ENDBRANCH  18  26
BRANCH  24  29
ATOM     29  O   UNL A   1      32.781  28.677  21.981  1.00  0.00    -0.507 OA
ATOM     30  H   UNL A   1      33.310  28.281  21.316  1.00  0.00     0.293 HD
ENDBRANCH  24  29
ENDBRANCH  14  17
ENDBRANCH  10  13
ENDBRANCH   7  10
ENDBRANCH   4   7
ENDBRANCH   1   4
BRANCH   1  31
ATOM     31  C   UNL A   1      31.809  28.483  26.170  1.00  0.00    -0.036 C 
ATOM     32  H   UNL A   1      31.507  28.796  27.148  1.00  0.00     0.028 H 
ATOM     33  H   UNL A   1      31.005  28.494  25.464  1.00  0.00     0.028 H 
BRANCH  31  34
ATOM     34  C   UNL A   1      32.856  29.466  25.657  1.00  0.00     0.018 C 
ATOM     35  H   UNL A   1      32.897  29.403  24.590  1.00  0.00     0.049 H 
ATOM     36  H   UNL A   1      33.798  29.208  26.095  1.00  0.00     0.049 H 
BRANCH  34  37
ATOM     37  N   UNL A   1      32.541  30.834  26.035  1.00  0.00    -0.352 N 
ATOM     38  C   UNL A   1      33.094  31.616  27.018  1.00  0.00     0.251 C 
ATOM     39  H   UNL A   1      31.826  31.263  25.511  1.00  0.00     0.163 HD
ATOM     40  O   UNL A   1      32.557  32.667  27.351  1.00  0.00    -0.269 OA
BRANCH  38  41
ATOM     41  C   UNL A   1      34.340  31.183  27.687  1.00  0.00     0.039 A 
ATOM     42  C   UNL A   1      35.332  32.132  27.946  1.00  0.00    -0.049 A 
ATOM     43  C   UNL A   1      34.539  29.843  28.032  1.00  0.00    -0.049 A 
ATOM     44  C   UNL A   1      36.504  31.745  28.601  1.00  0.00    -0.053 A 
ATOM     45  H   UNL A   1      35.200  33.112  27.656  1.00  0.00     0.063 H 
ATOM     46  C   UNL A   1      35.676  29.473  28.745  1.00  0.00    -0.053 A 
ATOM     47  H   UNL A   1      33.844  29.130  27.761  1.00  0.00     0.063 H 
ATOM     48  C   UNL A   1      36.672  30.418  29.030  1.00  0.00    -0.014 A 
ATOM     49  H   UNL A   1      37.249  32.439  28.771  1.00  0.00     0.063 H 
ATOM     50  H   UNL A   1      35.786  28.498  29.064  1.00  0.00     0.063 H 
BRANCH  48  51
ATOM     51  C   UNL A   1      37.888  29.999  29.773  1.00  0.00     0.031 A 
ATOM     52  C   UNL A   1      38.132  30.511  31.166  1.00  0.00     0.074 A 
ATOM     53  C   UNL A   1      38.798  29.212  29.170  1.00  0.00     0.049 A 
ATOM     54  N   UNL A   1      39.165  30.319  31.948  1.00  0.00    -0.248 NA
ATOM     55  C   UNL A   1      37.091  31.371  31.748  1.00  0.00    -0.034 C 
ATOM     56  C   UNL A   1      38.692  28.688  27.807  1.00  0.00    -0.036 A 
ATOM     57  N   UNL A   1      39.999  28.723  29.621  1.00  0.00    -0.354 N 
ATOM     58  C   UNL A   1      38.905  31.048  33.101  1.00  0.00     0.074 A 
ATOM     59  C   UNL A   1      37.641  31.722  32.901  1.00  0.00    -0.034 C 
ATOM     60  H   UNL A   1      36.170  31.632  31.360  1.00  0.00     0.065 H 
ATOM     61  C   UNL A   1      39.772  27.936  27.540  1.00  0.00    -0.036 A 
ATOM     62  H   UNL A   1      37.914  28.869  27.156  1.00  0.00     0.065 H 
ATOM     63  C   UNL A   1      40.663  27.955  28.697  1.00  0.00     0.049 A 
ATOM     64  H   UNL A   1      40.350  28.907  30.522  1.00  0.00     0.167 HD
ATOM     65  C   UNL A   1      39.645  31.128  34.234  1.00  0.00     0.037 A 
ATOM     66  H   UNL A   1      37.224  32.390  33.568  1.00  0.00     0.065 H 
ATOM     67  H   UNL A   1      39.944  27.426  26.659  1.00  0.00     0.065 H 
ATOM     68  C   UNL A   1      41.859  27.340  28.772  1.00  0.00     0.037 A 
ATOM     69  C   UNL A   1      40.885  30.428  34.441  1.00  0.00     0.049 A 
ATOM     70  C   UNL A   1      42.660  27.450  30.042  1.00  0.00     0.074 A 
ATOM     71  C   UNL A   1      41.675  30.391  35.576  1.00  0.00    -0.036 A 
ATOM     72  N   UNL A   1      41.517  29.643  33.489  1.00  0.00    -0.354 N 
ATOM     73  N   UNL A   1      42.370  28.084  31.152  1.00  0.00    -0.248 NA
ATOM     74  C   UNL A   1      43.952  26.750  30.071  1.00  0.00    -0.034 C 
ATOM     75  C   UNL A   1      42.808  29.621  35.296  1.00  0.00    -0.036 A 
ATOM     76  H   UNL A   1      41.464  30.852  36.475  1.00  0.00     0.065 H 
ATOM     77  C   UNL A   1      42.699  29.136  34.003  1.00  0.00     0.049 A 
ATOM     78  H   UNL A   1      41.176  29.471  32.581  1.00  0.00     0.167 HD
ATOM     79  C   UNL A   1      43.425  27.835  32.020  1.00  0.00     0.074 A 
ATOM     80  C   UNL A   1      44.355  26.981  31.313  1.00  0.00    -0.034 C 
ATOM     81  H   UNL A   1      44.423  26.221  29.321  1.00  0.00     0.065 H 
ATOM     82  H   UNL A   1      43.592  29.444  35.943  1.00  0.00     0.065 H 
ATOM     83  C   UNL A   1      43.606  28.275  33.289  1.00  0.00     0.037 A 
ATOM     84  H   UNL A   1      45.222  26.599  31.723  1.00  0.00     0.065 H 
BRANCH  65  85
ATOM     85  C   UNL A   1      39.131  32.000  35.342  1.00  0.00     0.064 A 
ATOM     86  C   UNL A   1      38.361  31.478  36.393  1.00  0.00     0.173 A 
ATOM     87  C   UNL A   1      39.457  33.364  35.383  1.00  0.00     0.173 A 
ATOM     88  F   UNL A   1      38.013  30.183  36.396  1.00  0.00    -0.203 F 
ATOM     89  C   UNL A   1      37.915  32.295  37.429  1.00  0.00     0.198 A 
ATOM     90  C   UNL A   1      39.034  34.172  36.436  1.00  0.00     0.198 A 
ATOM     91  F   UNL A   1      40.195  33.913  34.407  1.00  0.00    -0.203 F 
ATOM     92  F   UNL A   1      37.144  31.783  38.399  1.00  0.00    -0.200 F 
ATOM     93  C   UNL A   1      38.259  33.638  37.454  1.00  0.00     0.200 A 
ATOM     94  F   UNL A   1      39.380  35.467  36.466  1.00  0.00    -0.200 F 
ATOM     95  F   UNL A   1      37.840  34.421  38.459  1.00  0.00    -0.200 F 
ENDBRANCH  65  85
BRANCH  68  96
ATOM     96  C   UNL A   1      42.366  26.548  27.621  1.00  0.00     0.064 A 
ATOM     97  C   UNL A   1      41.936  25.230  27.411  1.00  0.00     0.173 A 
ATOM     98  C   UNL A   1      43.299  27.081  26.720  1.00  0.00     0.173 A 
ATOM     99  F   UNL A   1      41.059  24.670  28.257  1.00  0.00    -0.203 F 
ATOM    100  C   UNL A   1      42.439  24.467  26.360  1.00  0.00     0.198 A 
ATOM    101  C   UNL A   1      43.779  26.327  25.652  1.00  0.00     0.198 A 
ATOM    102  F   UNL A   1      43.739  28.339  26.874  1.00  0.00    -0.203 F 
ATOM    103  F   UNL A   1      42.049  23.194  26.213  1.00  0.00    -0.200 F 
ATOM    104  C   UNL A   1      43.356  25.017  25.478  1.00  0.00     0.200 A 
ATOM    105  F   UNL A   1      44.655  26.867  24.794  1.00  0.00    -0.200 F 
ATOM    106  F   UNL A   1      43.840  24.284  24.467  1.00  0.00    -0.200 F 
ENDBRANCH  68  96
BRANCH  83 107
ATOM    107  C   UNL A   1      44.837  27.807  34.010  1.00  0.00     0.064 A 
ATOM    108  C   UNL A   1      46.025  28.550  33.998  1.00  0.00     0.173 A 
ATOM    109  C   UNL A   1      44.812  26.618  34.755  1.00  0.00     0.173 A 
ATOM    110  F   UNL A   1      46.105  29.686  33.287  1.00  0.00    -0.203 F 
ATOM    111  C   UNL A   1      47.153  28.107  34.685  1.00  0.00     0.198 A 
ATOM    112  C   UNL A   1      45.930  26.194  35.466  1.00  0.00     0.198 A 
ATOM    113  F   UNL A   1      43.696  25.874  34.805  1.00  0.00    -0.203 F 
ATOM    114  F   UNL A   1      48.293  28.809  34.620  1.00  0.00    -0.200 F 
ATOM    115  C   UNL A   1      47.102  26.934  35.424  1.00  0.00     0.200 A 
ATOM    116  F   UNL A   1      45.876  25.069  36.191  1.00  0.00    -0.200 F 
ATOM    117  F   UNL A   1      48.186  26.514  36.092  1.00  0.00    -0.200 F 
ENDBRANCH  83 107
ENDBRANCH  48  51
ENDBRANCH  38  41
ENDBRANCH  34  37
ENDBRANCH  31  34
ENDBRANCH   1  31
TORSDOF 15
ENDMDL
MODEL 8
REMARK VINA RESULT:     -11.4      6.496     11.624
REMARK SMILES Nc1ccc(O)c(C(=O)NCCCCCCNC(=O)c2ccc(-c3c4nc(c(-c5c(F)c(F)c(F)c(F)c5F)c5ccc([nH]5)c(-c5c(F)c(F)c(F)c(F)c5F)c5nc(c(-c6c(F)c(F)c(F)c(F)c6F)c6ccc3[nH]6)C=C5)C=C4)cc2)c1
REMARK SMILES IDX 14 1 13 4 12 7 11 10 10 13 8 14 9 15 7 17 2 18 3 19 83 20
REMARK SMILES IDX 4 21 5 24 1 26 6 29 15 31 16 34 17 37 18 38 19 40 20 41
REMARK SMILES IDX 21 42 82 43 22 44 81 46 23 48 24 51 25 52 75 53 26 54 80 55
REMARK SMILES IDX 74 56 76 57 27 58 79 59 73 61 72 63 28 65 60 68 40 69 59 70
REMARK SMILES IDX 41 71 44 72 58 73 77 74 42 75 43 77 57 79 78 80 45 83 29 85
REMARK SMILES IDX 30 86 38 87 31 88 32 89 36 90 39 91 33 92 34 93 37 94 35 95
REMARK SMILES IDX 61 96 62 97 70 98 63 99 64 100 68 101 71 102 65 103 66 104
REMARK SMILES IDX 69 105 67 106 46 107 47 108 55 109 48 110 49 111 53 112
REMARK SMILES IDX 56 113 50 114 51 115 54 116 52 117
REMARK H PARENT 14 2 14 3 13 5 13 6 12 8 12 9 11 11 11 12 10 16 3 22 83 23
REMARK H PARENT 4 25 1 27 1 28 6 30 15 32 15 33 16 35 16 36 17 39 21 45 82 47
REMARK H PARENT 22 49 81 50 80 60 74 62 76 64 79 66 73 67 41 76 44 78 77 81
REMARK H PARENT 42 82 78 84
REMARK Flexibility Score: inf
ROOT
ATOM      1  C   UNL A   1      37.409  21.162  24.424  1.00  0.00    -0.052 C 
ATOM      2  H   UNL A   1      37.928  22.003  24.835  1.00  0.00     0.027 H 
ATOM      3  H   UNL A   1      37.461  21.113  23.356  1.00  0.00     0.027 H 
ENDROOT
BRANCH   1   4
ATOM      4  C   UNL A   1      35.922  21.299  24.776  1.00  0.00    -0.052 C 
ATOM      5  H   UNL A   1      35.380  20.566  24.216  1.00  0.00     0.027 H 
ATOM      6  H   UNL A   1      35.851  21.161  25.835  1.00  0.00     0.027 H 
BRANCH   4   7
ATOM      7  C   UNL A   1      35.310  22.677  24.479  1.00  0.00    -0.036 C 
ATOM      8  H   UNL A   1      35.044  23.138  25.407  1.00  0.00     0.028 H 
ATOM      9  H   UNL A   1      36.044  23.243  23.944  1.00  0.00     0.028 H 
BRANCH   7  10
ATOM     10  C   UNL A   1      34.061  22.601  23.597  1.00  0.00     0.018 C 
ATOM     11  H   UNL A   1      33.952  23.517  23.056  1.00  0.00     0.049 H 
ATOM     12  H   UNL A   1      34.163  21.787  22.909  1.00  0.00     0.049 H 
BRANCH  10  13
ATOM     13  N   UNL A   1      32.890  22.386  24.422  1.00  0.00    -0.352 N 
ATOM     14  C   UNL A   1      32.169  21.281  24.785  1.00  0.00     0.255 C 
ATOM     15  O   UNL A   1      31.183  21.481  25.502  1.00  0.00    -0.269 OA
ATOM     16  H   UNL A   1      32.535  23.219  24.808  1.00  0.00     0.163 HD
BRANCH  14  17
ATOM     17  C   UNL A   1      32.515  19.870  24.448  1.00  0.00     0.083 A 
ATOM     18  C   UNL A   1      33.241  17.603  25.008  1.00  0.00     0.032 A 
ATOM     19  C   UNL A   1      33.019  17.206  23.691  1.00  0.00    -0.035 A 
ATOM     20  C   UNL A   1      33.064  18.951  25.352  1.00  0.00    -0.023 A 
ATOM     21  C   UNL A   1      32.552  18.119  22.748  1.00  0.00    -0.017 A 
ATOM     22  H   UNL A   1      33.201  16.229  23.412  1.00  0.00     0.065 H 
ATOM     23  H   UNL A   1      33.343  19.274  26.292  1.00  0.00     0.065 H 
ATOM     24  C   UNL A   1      32.293  19.433  23.127  1.00  0.00     0.128 A 
ATOM     25  H   UNL A   1      32.398  17.822  21.772  1.00  0.00     0.066 H 
BRANCH  18  26
ATOM     26  N   UNL A   1      33.759  16.704  25.930  1.00  0.00    -0.399 N 
ATOM     27  H   UNL A   1      33.743  15.738  25.736  1.00  0.00     0.156 HD
ATOM     28  H   UNL A   1      34.142  17.030  26.775  1.00  0.00     0.156 HD
ENDBRANCH  18  26
BRANCH  24  29
ATOM     29  O   UNL A   1      31.829  20.249  22.127  1.00  0.00    -0.507 OA
ATOM     30  H   UNL A   1      32.033  21.164  22.136  1.00  0.00     0.293 HD
ENDBRANCH  24  29
ENDBRANCH  14  17
ENDBRANCH  10  13
ENDBRANCH   7  10
ENDBRANCH   4   7
ENDBRANCH   1   4
BRANCH   1  31
ATOM     31  C   UNL A   1      38.082  19.889  24.944  1.00  0.00    -0.036 C 
ATOM     32  H   UNL A   1      38.586  19.418  24.126  1.00  0.00     0.028 H 
ATOM     33  H   UNL A   1      37.307  19.281  25.361  1.00  0.00     0.028 H 
BRANCH  31  34
ATOM     34  C   UNL A   1      39.098  20.127  26.057  1.00  0.00     0.018 C 
ATOM     35  H   UNL A   1      38.600  20.054  27.002  1.00  0.00     0.049 H 
ATOM     36  H   UNL A   1      39.522  21.100  25.920  1.00  0.00     0.049 H 
BRANCH  34  37
ATOM     37  N   UNL A   1      40.177  19.153  26.017  1.00  0.00    -0.352 N 
ATOM     38  C   UNL A   1      41.533  19.355  26.048  1.00  0.00     0.251 C 
ATOM     39  H   UNL A   1      39.894  18.211  25.959  1.00  0.00     0.163 HD
ATOM     40  O   UNL A   1      42.303  18.439  25.778  1.00  0.00    -0.269 OA
BRANCH  38  41
ATOM     41  C   UNL A   1      42.071  20.688  26.397  1.00  0.00     0.039 A 
ATOM     42  C   UNL A   1      42.329  21.602  25.372  1.00  0.00    -0.049 A 
ATOM     43  C   UNL A   1      42.344  21.023  27.726  1.00  0.00    -0.049 A 
ATOM     44  C   UNL A   1      42.812  22.874  25.687  1.00  0.00    -0.053 A 
ATOM     45  H   UNL A   1      42.163  21.339  24.389  1.00  0.00     0.063 H 
ATOM     46  C   UNL A   1      42.760  22.313  28.043  1.00  0.00    -0.053 A 
ATOM     47  H   UNL A   1      42.237  20.317  28.470  1.00  0.00     0.063 H 
ATOM     48  C   UNL A   1      43.005  23.249  27.027  1.00  0.00    -0.014 A 
ATOM     49  H   UNL A   1      43.027  23.542  24.930  1.00  0.00     0.063 H 
ATOM     50  H   UNL A   1      42.891  22.582  29.031  1.00  0.00     0.063 H 
BRANCH  48  51
ATOM     51  C   UNL A   1      43.468  24.613  27.384  1.00  0.00     0.031 A 
ATOM     52  C   UNL A   1      42.496  25.618  27.939  1.00  0.00     0.074 A 
ATOM     53  C   UNL A   1      44.747  24.965  27.149  1.00  0.00     0.049 A 
ATOM     54  N   UNL A   1      42.691  26.876  28.243  1.00  0.00    -0.248 NA
ATOM     55  C   UNL A   1      41.118  25.154  28.159  1.00  0.00    -0.034 C 
ATOM     56  C   UNL A   1      45.772  24.091  26.574  1.00  0.00    -0.036 A 
ATOM     57  N   UNL A   1      45.401  26.154  27.354  1.00  0.00    -0.354 N 
ATOM     58  C   UNL A   1      41.459  27.356  28.670  1.00  0.00     0.074 A 
ATOM     59  C   UNL A   1      40.513  26.268  28.543  1.00  0.00    -0.034 C 
ATOM     60  H   UNL A   1      40.724  24.206  28.045  1.00  0.00     0.065 H 
ATOM     61  C   UNL A   1      46.929  24.768  26.491  1.00  0.00    -0.036 A 
ATOM     62  H   UNL A   1      45.627  23.114  26.279  1.00  0.00     0.065 H 
ATOM     63  C   UNL A   1      46.719  26.131  26.970  1.00  0.00     0.049 A 
ATOM     64  H   UNL A   1      44.965  26.949  27.739  1.00  0.00     0.167 HD
ATOM     65  C   UNL A   1      41.151  28.587  29.145  1.00  0.00     0.037 A 
ATOM     66  H   UNL A   1      39.501  26.351  28.727  1.00  0.00     0.065 H 
ATOM     67  H   UNL A   1      47.822  24.385  26.144  1.00  0.00     0.065 H 
ATOM     68  C   UNL A   1      47.652  27.103  26.996  1.00  0.00     0.037 A 
ATOM     69  C   UNL A   1      42.103  29.655  29.301  1.00  0.00     0.049 A 
ATOM     70  C   UNL A   1      47.279  28.460  27.527  1.00  0.00     0.074 A 
ATOM     71  C   UNL A   1      41.904  30.916  29.836  1.00  0.00    -0.036 A 
ATOM     72  N   UNL A   1      43.434  29.588  28.920  1.00  0.00    -0.354 N 
ATOM     73  N   UNL A   1      46.129  28.881  27.994  1.00  0.00    -0.248 NA
ATOM     74  C   UNL A   1      48.340  29.478  27.540  1.00  0.00    -0.034 C 
ATOM     75  C   UNL A   1      43.103  31.627  29.736  1.00  0.00    -0.036 A 
ATOM     76  H   UNL A   1      41.023  31.270  30.239  1.00  0.00     0.065 H 
ATOM     77  C   UNL A   1      44.063  30.792  29.186  1.00  0.00     0.049 A 
ATOM     78  H   UNL A   1      43.868  28.800  28.519  1.00  0.00     0.167 HD
ATOM     79  C   UNL A   1      46.334  30.197  28.386  1.00  0.00     0.074 A 
ATOM     80  C   UNL A   1      47.723  30.502  28.114  1.00  0.00    -0.034 C 
ATOM     81  H   UNL A   1      49.309  29.413  27.194  1.00  0.00     0.065 H 
ATOM     82  H   UNL A   1      43.249  32.608  30.023  1.00  0.00     0.065 H 
ATOM     83  C   UNL A   1      45.451  31.074  28.922  1.00  0.00     0.037 A 
ATOM     84  H   UNL A   1      48.175  31.402  28.339  1.00  0.00     0.065 H 
BRANCH  65  85
ATOM     85  C   UNL A   1      39.726  28.846  29.539  1.00  0.00     0.064 A 
ATOM     86  C   UNL A   1      39.263  28.590  30.838  1.00  0.00     0.173 A 
ATOM     87  C   UNL A   1      38.826  29.407  28.620  1.00  0.00     0.173 A 
ATOM     88  F   UNL A   1      40.079  28.044  31.751  1.00  0.00    -0.203 F 
ATOM     89  C   UNL A   1      37.944  28.862  31.196  1.00  0.00     0.198 A 
ATOM     90  C   UNL A   1      37.516  29.706  28.990  1.00  0.00     0.198 A 
ATOM     91  F   UNL A   1      39.218  29.677  27.367  1.00  0.00    -0.203 F 
ATOM     92  F   UNL A   1      37.512  28.569  32.430  1.00  0.00    -0.200 F 
ATOM     93  C   UNL A   1      37.076  29.428  30.275  1.00  0.00     0.200 A 
ATOM     94  F   UNL A   1      36.682  30.265  28.102  1.00  0.00    -0.200 F 
ATOM     95  F   UNL A   1      35.810  29.701  30.623  1.00  0.00    -0.200 F 
ENDBRANCH  65  85
BRANCH  68  96
ATOM     96  C   UNL A   1      49.033  26.824  26.525  1.00  0.00     0.064 A 
ATOM     97  C   UNL A   1      49.380  26.988  25.176  1.00  0.00     0.173 A 
ATOM     98  C   UNL A   1      50.029  26.372  27.403  1.00  0.00     0.173 A 
ATOM     99  F   UNL A   1      48.457  27.400  24.294  1.00  0.00    -0.203 F 
ATOM    100  C   UNL A   1      50.661  26.687  24.719  1.00  0.00     0.198 A 
ATOM    101  C   UNL A   1      51.318  26.100  26.951  1.00  0.00     0.198 A 
ATOM    102  F   UNL A   1      49.750  26.203  28.704  1.00  0.00    -0.203 F 
ATOM    103  F   UNL A   1      50.949  26.805  23.417  1.00  0.00    -0.200 F 
ATOM    104  C   UNL A   1      51.630  26.248  25.607  1.00  0.00     0.200 A 
ATOM    105  F   UNL A   1      52.256  25.689  27.815  1.00  0.00    -0.200 F 
ATOM    106  F   UNL A   1      52.862  25.958  25.168  1.00  0.00    -0.200 F 
ENDBRANCH  68  96
BRANCH  83 107
ATOM    107  C   UNL A   1      45.969  32.434  29.290  1.00  0.00     0.064 A 
ATOM    108  C   UNL A   1      46.542  32.689  30.544  1.00  0.00     0.173 A 
ATOM    109  C   UNL A   1      45.928  33.483  28.359  1.00  0.00     0.173 A 
ATOM    110  F   UNL A   1      46.591  31.723  31.474  1.00  0.00    -0.203 F 
ATOM    111  C   UNL A   1      47.031  33.954  30.863  1.00  0.00     0.198 A 
ATOM    112  C   UNL A   1      46.446  34.737  28.669  1.00  0.00     0.198 A 
ATOM    113  F   UNL A   1      45.397  33.288  27.143  1.00  0.00    -0.203 F 
ATOM    114  F   UNL A   1      47.531  34.189  32.084  1.00  0.00    -0.200 F 
ATOM    115  C   UNL A   1      46.990  34.974  29.923  1.00  0.00     0.200 A 
ATOM    116  F   UNL A   1      46.418  35.717  27.756  1.00  0.00    -0.200 F 
ATOM    117  F   UNL A   1      47.469  36.188  30.228  1.00  0.00    -0.200 F 
ENDBRANCH  83 107
ENDBRANCH  48  51
ENDBRANCH  38  41
ENDBRANCH  34  37
ENDBRANCH  31  34
ENDBRANCH   1  31
TORSDOF 15
ENDMDL
MODEL 9
REMARK VINA RESULT:     -11.4      5.448     10.212
REMARK SMILES Nc1ccc(O)c(C(=O)NCCCCCCNC(=O)c2ccc(-c3c4nc(c(-c5c(F)c(F)c(F)c(F)c5F)c5ccc([nH]5)c(-c5c(F)c(F)c(F)c(F)c5F)c5nc(c(-c6c(F)c(F)c(F)c(F)c6F)c6ccc3[nH]6)C=C5)C=C4)cc2)c1
REMARK SMILES IDX 14 1 13 4 12 7 11 10 10 13 8 14 9 15 7 17 2 18 3 19 83 20
REMARK SMILES IDX 4 21 5 24 1 26 6 29 15 31 16 34 17 37 18 38 19 40 20 41
REMARK SMILES IDX 21 42 82 43 22 44 81 46 23 48 24 51 25 52 75 53 26 54 80 55
REMARK SMILES IDX 74 56 76 57 27 58 79 59 73 61 72 63 28 65 60 68 40 69 59 70
REMARK SMILES IDX 41 71 44 72 58 73 77 74 42 75 43 77 57 79 78 80 45 83 29 85
REMARK SMILES IDX 30 86 38 87 31 88 32 89 36 90 39 91 33 92 34 93 37 94 35 95
REMARK SMILES IDX 61 96 62 97 70 98 63 99 64 100 68 101 71 102 65 103 66 104
REMARK SMILES IDX 69 105 67 106 46 107 47 108 55 109 48 110 49 111 53 112
REMARK SMILES IDX 56 113 50 114 51 115 54 116 52 117
REMARK H PARENT 14 2 14 3 13 5 13 6 12 8 12 9 11 11 11 12 10 16 3 22 83 23
REMARK H PARENT 4 25 1 27 1 28 6 30 15 32 15 33 16 35 16 36 17 39 21 45 82 47
REMARK H PARENT 22 49 81 50 80 60 74 62 76 64 79 66 73 67 41 76 44 78 77 81
REMARK H PARENT 42 82 78 84
REMARK Flexibility Score: inf
ROOT
ATOM      1  C   UNL A   1      42.348  22.294  28.540  1.00  0.00    -0.052 C 
ATOM      2  H   UNL A   1      42.305  21.871  29.522  1.00  0.00     0.027 H 
ATOM      3  H   UNL A   1      43.156  21.914  27.950  1.00  0.00     0.027 H 
ENDROOT
BRANCH   1   4
ATOM      4  C   UNL A   1      42.590  23.802  28.680  1.00  0.00    -0.052 C 
ATOM      5  H   UNL A   1      41.638  24.287  28.737  1.00  0.00     0.027 H 
ATOM      6  H   UNL A   1      43.183  23.930  29.561  1.00  0.00     0.027 H 
BRANCH   4   7
ATOM      7  C   UNL A   1      43.383  24.440  27.529  1.00  0.00    -0.036 C 
ATOM      8  H   UNL A   1      42.707  24.657  26.728  1.00  0.00     0.028 H 
ATOM      9  H   UNL A   1      43.846  25.325  27.913  1.00  0.00     0.028 H 
BRANCH   7  10
ATOM     10  C   UNL A   1      44.497  23.537  26.994  1.00  0.00     0.018 C 
ATOM     11  H   UNL A   1      45.448  23.965  27.234  1.00  0.00     0.049 H 
ATOM     12  H   UNL A   1      44.414  22.570  27.444  1.00  0.00     0.049 H 
BRANCH  10  13
ATOM     13  N   UNL A   1      44.376  23.408  25.556  1.00  0.00    -0.352 N 
ATOM     14  C   UNL A   1      44.405  22.350  24.688  1.00  0.00     0.255 C 
ATOM     15  O   UNL A   1      44.292  22.622  23.488  1.00  0.00    -0.269 OA
ATOM     16  H   UNL A   1      44.242  24.271  25.104  1.00  0.00     0.163 HD
BRANCH  14  17
ATOM     17  C   UNL A   1      44.487  20.912  25.075  1.00  0.00     0.083 A 
ATOM     18  C   UNL A   1      43.534  18.799  25.854  1.00  0.00     0.032 A 
ATOM     19  C   UNL A   1      44.762  18.172  25.657  1.00  0.00    -0.035 A 
ATOM     20  C   UNL A   1      43.433  20.181  25.638  1.00  0.00    -0.023 A 
ATOM     21  C   UNL A   1      45.853  18.892  25.177  1.00  0.00    -0.017 A 
ATOM     22  H   UNL A   1      44.865  17.166  25.868  1.00  0.00     0.065 H 
ATOM     23  H   UNL A   1      42.562  20.671  25.898  1.00  0.00     0.065 H 
ATOM     24  C   UNL A   1      45.712  20.244  24.880  1.00  0.00     0.128 A 
ATOM     25  H   UNL A   1      46.764  18.425  25.042  1.00  0.00     0.066 H 
BRANCH  18  26
ATOM     26  N   UNL A   1      42.466  18.089  26.385  1.00  0.00    -0.399 N 
ATOM     27  H   UNL A   1      42.088  17.326  25.890  1.00  0.00     0.156 HD
ATOM     28  H   UNL A   1      42.086  18.348  27.255  1.00  0.00     0.156 HD
ENDBRANCH  18  26
BRANCH  24  29
ATOM     29  O   UNL A   1      46.843  20.859  24.406  1.00  0.00    -0.507 OA
ATOM     30  H   UNL A   1      47.606  20.918  24.947  1.00  0.00     0.293 HD
ENDBRANCH  24  29
ENDBRANCH  14  17
ENDBRANCH  10  13
ENDBRANCH   7  10
ENDBRANCH   4   7
ENDBRANCH   1   4
BRANCH   1  31
ATOM     31  C   UNL A   1      41.062  21.911  27.802  1.00  0.00    -0.036 C 
ATOM     32  H   UNL A   1      40.235  22.349  28.321  1.00  0.00     0.028 H 
ATOM     33  H   UNL A   1      41.024  20.841  27.787  1.00  0.00     0.028 H 
BRANCH  31  34
ATOM     34  C   UNL A   1      41.012  22.371  26.349  1.00  0.00     0.018 C 
ATOM     35  H   UNL A   1      41.459  21.620  25.732  1.00  0.00     0.049 H 
ATOM     36  H   UNL A   1      41.543  23.297  26.274  1.00  0.00     0.049 H 
BRANCH  34  37
ATOM     37  N   UNL A   1      39.646  22.596  25.903  1.00  0.00    -0.352 N 
ATOM     38  C   UNL A   1      38.758  23.571  26.277  1.00  0.00     0.251 C 
ATOM     39  H   UNL A   1      39.310  21.955  25.235  1.00  0.00     0.163 HD
ATOM     40  O   UNL A   1      37.573  23.481  25.972  1.00  0.00    -0.269 OA
BRANCH  38  41
ATOM     41  C   UNL A   1      39.228  24.733  27.063  1.00  0.00     0.039 A 
ATOM     42  C   UNL A   1      39.999  25.710  26.428  1.00  0.00    -0.049 A 
ATOM     43  C   UNL A   1      38.931  24.843  28.424  1.00  0.00    -0.049 A 
ATOM     44  C   UNL A   1      40.429  26.827  27.149  1.00  0.00    -0.053 A 
ATOM     45  H   UNL A   1      40.249  25.607  25.433  1.00  0.00     0.063 H 
ATOM     46  C   UNL A   1      39.302  25.989  29.123  1.00  0.00    -0.053 A 
ATOM     47  H   UNL A   1      38.438  24.078  28.910  1.00  0.00     0.063 H 
ATOM     48  C   UNL A   1      40.060  26.988  28.494  1.00  0.00    -0.014 A 
ATOM     49  H   UNL A   1      41.021  27.537  26.689  1.00  0.00     0.063 H 
ATOM     50  H   UNL A   1      39.019  26.103  30.108  1.00  0.00     0.063 H 
BRANCH  48  51
ATOM     51  C   UNL A   1      40.464  28.193  29.263  1.00  0.00     0.031 A 
ATOM     52  C   UNL A   1      41.845  28.283  29.851  1.00  0.00     0.074 A 
ATOM     53  C   UNL A   1      39.567  29.173  29.482  1.00  0.00     0.049 A 
ATOM     54  N   UNL A   1      42.361  29.215  30.611  1.00  0.00    -0.248 NA
ATOM     55  C   UNL A   1      42.759  27.166  29.568  1.00  0.00    -0.034 C 
ATOM     56  C   UNL A   1      38.185  29.179  28.999  1.00  0.00    -0.036 A 
ATOM     57  N   UNL A   1      39.681  30.350  30.179  1.00  0.00    -0.354 N 
ATOM     58  C   UNL A   1      43.648  28.789  30.911  1.00  0.00     0.074 A 
ATOM     59  C   UNL A   1      43.820  27.493  30.291  1.00  0.00    -0.034 C 
ATOM     60  H   UNL A   1      42.613  26.341  28.964  1.00  0.00     0.065 H 
ATOM     61  C   UNL A   1      37.586  30.313  29.397  1.00  0.00    -0.036 A 
ATOM     62  H   UNL A   1      37.743  28.431  28.444  1.00  0.00     0.065 H 
ATOM     63  C   UNL A   1      38.527  31.095  30.193  1.00  0.00     0.049 A 
ATOM     64  H   UNL A   1      40.511  30.633  30.626  1.00  0.00     0.167 HD
ATOM     65  C   UNL A   1      44.606  29.431  31.622  1.00  0.00     0.037 A 
ATOM     66  H   UNL A   1      44.660  26.902  30.398  1.00  0.00     0.065 H 
ATOM     67  H   UNL A   1      36.616  30.587  29.175  1.00  0.00     0.065 H 
ATOM     68  C   UNL A   1      38.258  32.274  30.787  1.00  0.00     0.037 A 
ATOM     69  C   UNL A   1      44.441  30.735  32.209  1.00  0.00     0.049 A 
ATOM     70  C   UNL A   1      39.341  32.962  31.572  1.00  0.00     0.074 A 
ATOM     71  C   UNL A   1      45.372  31.498  32.889  1.00  0.00    -0.036 A 
ATOM     72  N   UNL A   1      43.264  31.467  32.185  1.00  0.00    -0.354 N 
ATOM     73  N   UNL A   1      40.577  32.582  31.789  1.00  0.00    -0.248 NA
ATOM     74  C   UNL A   1      38.993  34.250  32.190  1.00  0.00    -0.034 C 
ATOM     75  C   UNL A   1      44.746  32.673  33.318  1.00  0.00    -0.036 A 
ATOM     76  H   UNL A   1      46.359  31.245  33.052  1.00  0.00     0.065 H 
ATOM     77  C   UNL A   1      43.439  32.664  32.859  1.00  0.00     0.049 A 
ATOM     78  H   UNL A   1      42.427  31.179  31.753  1.00  0.00     0.167 HD
ATOM     79  C   UNL A   1      41.162  33.594  32.538  1.00  0.00     0.074 A 
ATOM     80  C   UNL A   1      40.150  34.612  32.728  1.00  0.00    -0.034 C 
ATOM     81  H   UNL A   1      38.087  34.742  32.203  1.00  0.00     0.065 H 
ATOM     82  H   UNL A   1      45.184  33.420  33.880  1.00  0.00     0.065 H 
ATOM     83  C   UNL A   1      42.424  33.673  33.026  1.00  0.00     0.037 A 
ATOM     84  H   UNL A   1      40.309  35.506  33.218  1.00  0.00     0.065 H 
BRANCH  65  85
ATOM     85  C   UNL A   1      45.925  28.737  31.801  1.00  0.00     0.064 A 
ATOM     86  C   UNL A   1      46.171  27.894  32.895  1.00  0.00     0.173 A 
ATOM     87  C   UNL A   1      46.937  28.875  30.839  1.00  0.00     0.173 A 
ATOM     88  F   UNL A   1      45.240  27.736  33.848  1.00  0.00    -0.203 F 
ATOM     89  C   UNL A   1      47.390  27.235  33.033  1.00  0.00     0.198 A 
ATOM     90  C   UNL A   1      48.145  28.192  30.965  1.00  0.00     0.198 A 
ATOM     91  F   UNL A   1      46.753  29.664  29.771  1.00  0.00    -0.203 F 
ATOM     92  F   UNL A   1      47.618  26.469  34.109  1.00  0.00    -0.200 F 
ATOM     93  C   UNL A   1      48.372  27.378  32.065  1.00  0.00     0.200 A 
ATOM     94  F   UNL A   1      49.087  28.320  30.021  1.00  0.00    -0.200 F 
ATOM     95  F   UNL A   1      49.541  26.733  32.191  1.00  0.00    -0.200 F 
ENDBRANCH  65  85
BRANCH  68  96
ATOM     96  C   UNL A   1      36.913  32.890  30.647  1.00  0.00     0.064 A 
ATOM     97  C   UNL A   1      36.572  33.618  29.498  1.00  0.00     0.173 A 
ATOM     98  C   UNL A   1      35.948  32.782  31.659  1.00  0.00     0.173 A 
ATOM     99  F   UNL A   1      37.468  33.766  28.511  1.00  0.00    -0.203 F 
ATOM    100  C   UNL A   1      35.329  34.236  29.378  1.00  0.00     0.198 A 
ATOM    101  C   UNL A   1      34.695  33.374  31.526  1.00  0.00     0.198 A 
ATOM    102  F   UNL A   1      36.222  32.092  32.777  1.00  0.00    -0.203 F 
ATOM    103  F   UNL A   1      35.050  34.967  28.292  1.00  0.00    -0.200 F 
ATOM    104  C   UNL A   1      34.390  34.109  30.390  1.00  0.00     0.200 A 
ATOM    105  F   UNL A   1      33.785  33.238  32.500  1.00  0.00    -0.200 F 
ATOM    106  F   UNL A   1      33.195  34.703  30.275  1.00  0.00    -0.200 F 
ENDBRANCH  68  96
BRANCH  83 107
ATOM    107  C   UNL A   1      42.795  34.919  33.775  1.00  0.00     0.064 A 
ATOM    108  C   UNL A   1      42.734  34.983  35.175  1.00  0.00     0.173 A 
ATOM    109  C   UNL A   1      43.255  36.050  33.084  1.00  0.00     0.173 A 
ATOM    110  F   UNL A   1      42.285  33.933  35.880  1.00  0.00    -0.203 F 
ATOM    111  C   UNL A   1      43.096  36.143  35.854  1.00  0.00     0.198 A 
ATOM    112  C   UNL A   1      43.647  37.198  33.768  1.00  0.00     0.198 A 
ATOM    113  F   UNL A   1      43.339  36.038  31.745  1.00  0.00    -0.203 F 
ATOM    114  F   UNL A   1      42.985  36.199  37.189  1.00  0.00    -0.200 F 
ATOM    115  C   UNL A   1      43.560  37.247  35.151  1.00  0.00     0.200 A 
ATOM    116  F   UNL A   1      44.107  38.257  33.089  1.00  0.00    -0.200 F 
ATOM    117  F   UNL A   1      43.916  38.359  35.807  1.00  0.00    -0.200 F 
ENDBRANCH  83 107
ENDBRANCH  48  51
ENDBRANCH  38  41
ENDBRANCH  34  37
ENDBRANCH  31  34
ENDBRANCH   1  31
TORSDOF 15
ENDMDL
MODEL 10
REMARK VINA RESULT:     -11.4      3.913     10.472
REMARK SMILES Nc1ccc(O)c(C(=O)NCCCCCCNC(=O)c2ccc(-c3c4nc(c(-c5c(F)c(F)c(F)c(F)c5F)c5ccc([nH]5)c(-c5c(F)c(F)c(F)c(F)c5F)c5nc(c(-c6c(F)c(F)c(F)c(F)c6F)c6ccc3[nH]6)C=C5)C=C4)cc2)c1
REMARK SMILES IDX 14 1 13 4 12 7 11 10 10 13 8 14 9 15 7 17 2 18 3 19 83 20
REMARK SMILES IDX 4 21 5 24 1 26 6 29 15 31 16 34 17 37 18 38 19 40 20 41
REMARK SMILES IDX 21 42 82 43 22 44 81 46 23 48 24 51 25 52 75 53 26 54 80 55
REMARK SMILES IDX 74 56 76 57 27 58 79 59 73 61 72 63 28 65 60 68 40 69 59 70
REMARK SMILES IDX 41 71 44 72 58 73 77 74 42 75 43 77 57 79 78 80 45 83 29 85
REMARK SMILES IDX 30 86 38 87 31 88 32 89 36 90 39 91 33 92 34 93 37 94 35 95
REMARK SMILES IDX 61 96 62 97 70 98 63 99 64 100 68 101 71 102 65 103 66 104
REMARK SMILES IDX 69 105 67 106 46 107 47 108 55 109 48 110 49 111 53 112
REMARK SMILES IDX 56 113 50 114 51 115 54 116 52 117
REMARK H PARENT 14 2 14 3 13 5 13 6 12 8 12 9 11 11 11 12 10 16 3 22 83 23
REMARK H PARENT 4 25 1 27 1 28 6 30 15 32 15 33 16 35 16 36 17 39 21 45 82 47
REMARK H PARENT 22 49 81 50 80 60 74 62 76 64 79 66 73 67 41 76 44 78 77 81
REMARK H PARENT 42 82 78 84
REMARK Flexibility Score: inf
ROOT
ATOM      1  C   UNL A   1      36.738  32.756  29.955  1.00  0.00    -0.052 C 
ATOM      2  H   UNL A   1      36.846  33.057  30.976  1.00  0.00     0.027 H 
ATOM      3  H   UNL A   1      36.754  31.695  29.822  1.00  0.00     0.027 H 
ENDROOT
BRANCH   1   4
ATOM      4  C   UNL A   1      37.934  33.306  29.166  1.00  0.00    -0.052 C 
ATOM      5  H   UNL A   1      38.713  32.573  29.192  1.00  0.00     0.027 H 
ATOM      6  H   UNL A   1      37.574  33.507  28.179  1.00  0.00     0.027 H 
BRANCH   4   7
ATOM      7  C   UNL A   1      38.506  34.631  29.696  1.00  0.00    -0.036 C 
ATOM      8  H   UNL A   1      39.339  34.910  29.085  1.00  0.00     0.028 H 
ATOM      9  H   UNL A   1      37.720  35.355  29.657  1.00  0.00     0.028 H 
BRANCH   7  10
ATOM     10  C   UNL A   1      38.975  34.543  31.150  1.00  0.00     0.018 C 
ATOM     11  H   UNL A   1      39.228  33.530  31.382  1.00  0.00     0.049 H 
ATOM     12  H   UNL A   1      39.835  35.167  31.282  1.00  0.00     0.049 H 
BRANCH  10  13
ATOM     13  N   UNL A   1      37.919  34.991  32.035  1.00  0.00    -0.352 N 
ATOM     14  C   UNL A   1      37.333  34.474  33.158  1.00  0.00     0.255 C 
ATOM     15  O   UNL A   1      36.414  35.137  33.652  1.00  0.00    -0.269 OA
ATOM     16  H   UNL A   1      37.540  35.860  31.770  1.00  0.00     0.163 HD
BRANCH  14  17
ATOM     17  C   UNL A   1      37.755  33.230  33.863  1.00  0.00     0.083 A 
ATOM     18  C   UNL A   1      37.955  30.803  34.086  1.00  0.00     0.032 A 
ATOM     19  C   UNL A   1      38.717  30.971  35.240  1.00  0.00    -0.035 A 
ATOM     20  C   UNL A   1      37.414  31.933  33.456  1.00  0.00    -0.023 A 
ATOM     21  C   UNL A   1      39.003  32.248  35.717  1.00  0.00    -0.017 A 
ATOM     22  H   UNL A   1      39.072  30.144  35.746  1.00  0.00     0.065 H 
ATOM     23  H   UNL A   1      36.751  31.808  32.675  1.00  0.00     0.065 H 
ATOM     24  C   UNL A   1      38.535  33.363  35.029  1.00  0.00     0.128 A 
ATOM     25  H   UNL A   1      39.559  32.366  36.578  1.00  0.00     0.066 H 
BRANCH  18  26
ATOM     26  N   UNL A   1      37.626  29.528  33.647  1.00  0.00    -0.399 N 
ATOM     27  H   UNL A   1      38.130  28.749  33.977  1.00  0.00     0.156 HD
ATOM     28  H   UNL A   1      36.891  29.402  33.006  1.00  0.00     0.156 HD
ENDBRANCH  18  26
BRANCH  24  29
ATOM     29  O   UNL A   1      38.879  34.574  35.576  1.00  0.00    -0.507 OA
ATOM     30  H   UNL A   1      38.467  34.864  36.367  1.00  0.00     0.293 HD
ENDBRANCH  24  29
ENDBRANCH  14  17
ENDBRANCH  10  13
ENDBRANCH   7  10
ENDBRANCH   4   7
ENDBRANCH   1   4
BRANCH   1  31
ATOM     31  C   UNL A   1      35.368  33.229  29.464  1.00  0.00    -0.036 C 
ATOM     32  H   UNL A   1      35.297  34.283  29.630  1.00  0.00     0.028 H 
ATOM     33  H   UNL A   1      34.636  32.672  30.012  1.00  0.00     0.028 H 
BRANCH  31  34
ATOM     34  C   UNL A   1      35.104  32.960  27.985  1.00  0.00     0.018 C 
ATOM     35  H   UNL A   1      36.034  32.748  27.500  1.00  0.00     0.049 H 
ATOM     36  H   UNL A   1      34.641  33.829  27.566  1.00  0.00     0.049 H 
BRANCH  34  37
ATOM     37  N   UNL A   1      34.207  31.832  27.795  1.00  0.00    -0.352 N 
ATOM     38  C   UNL A   1      34.491  30.491  27.756  1.00  0.00     0.251 C 
ATOM     39  H   UNL A   1      33.257  32.064  27.676  1.00  0.00     0.163 HD
ATOM     40  O   UNL A   1      33.649  29.690  27.363  1.00  0.00    -0.269 OA
BRANCH  38  41
ATOM     41  C   UNL A   1      35.822  30.008  28.182  1.00  0.00     0.039 A 
ATOM     42  C   UNL A   1      36.894  30.109  27.291  1.00  0.00    -0.049 A 
ATOM     43  C   UNL A   1      36.006  29.434  29.443  1.00  0.00    -0.049 A 
ATOM     44  C   UNL A   1      38.164  29.682  27.686  1.00  0.00    -0.053 A 
ATOM     45  H   UNL A   1      36.748  30.497  26.347  1.00  0.00     0.063 H 
ATOM     46  C   UNL A   1      37.284  29.072  29.860  1.00  0.00    -0.053 A 
ATOM     47  H   UNL A   1      35.197  29.280  30.064  1.00  0.00     0.063 H 
ATOM     48  C   UNL A   1      38.373  29.186  28.983  1.00  0.00    -0.014 A 
ATOM     49  H   UNL A   1      38.951  29.731  27.021  1.00  0.00     0.063 H 
ATOM     50  H   UNL A   1      37.430  28.718  30.817  1.00  0.00     0.063 H 
BRANCH  48  51
ATOM     51  C   UNL A   1      39.726  28.775  29.439  1.00  0.00     0.031 A 
ATOM     52  C   UNL A   1      40.495  29.646  30.394  1.00  0.00     0.074 A 
ATOM     53  C   UNL A   1      40.283  27.654  28.944  1.00  0.00     0.049 A 
ATOM     54  N   UNL A   1      41.713  29.497  30.851  1.00  0.00    -0.248 NA
ATOM     55  C   UNL A   1      39.816  30.856  30.881  1.00  0.00    -0.034 C 
ATOM     56  C   UNL A   1      39.652  26.751  27.979  1.00  0.00    -0.036 A 
ATOM     57  N   UNL A   1      41.511  27.087  29.175  1.00  0.00    -0.354 N 
ATOM     58  C   UNL A   1      41.950  30.600  31.661  1.00  0.00     0.074 A 
ATOM     59  C   UNL A   1      40.768  31.434  31.597  1.00  0.00    -0.034 C 
ATOM     60  H   UNL A   1      38.848  31.173  30.711  1.00  0.00     0.065 H 
ATOM     61  C   UNL A   1      40.489  25.735  27.716  1.00  0.00    -0.036 A 
ATOM     62  H   UNL A   1      38.715  26.877  27.567  1.00  0.00     0.065 H 
ATOM     63  C   UNL A   1      41.728  25.933  28.463  1.00  0.00     0.049 A 
ATOM     64  H   UNL A   1      42.174  27.472  29.792  1.00  0.00     0.167 HD
ATOM     65  C   UNL A   1      43.045  30.880  32.407  1.00  0.00     0.037 A 
ATOM     66  H   UNL A   1      40.681  32.357  32.050  1.00  0.00     0.065 H 
ATOM     67  H   UNL A   1      40.289  24.942  27.087  1.00  0.00     0.065 H 
ATOM     68  C   UNL A   1      42.808  25.129  28.413  1.00  0.00     0.037 A 
ATOM     69  C   UNL A   1      44.204  30.031  32.492  1.00  0.00     0.049 A 
ATOM     70  C   UNL A   1      44.011  25.467  29.251  1.00  0.00     0.074 A 
ATOM     71  C   UNL A   1      45.336  30.193  33.271  1.00  0.00    -0.036 A 
ATOM     72  N   UNL A   1      44.379  28.860  31.772  1.00  0.00    -0.354 N 
ATOM     73  N   UNL A   1      44.196  26.476  30.067  1.00  0.00    -0.248 NA
ATOM     74  C   UNL A   1      45.156  24.549  29.165  1.00  0.00    -0.034 C 
ATOM     75  C   UNL A   1      46.216  29.145  32.987  1.00  0.00    -0.036 A 
ATOM     76  H   UNL A   1      45.502  30.957  33.946  1.00  0.00     0.065 H 
ATOM     77  C   UNL A   1      45.611  28.301  32.070  1.00  0.00     0.049 A 
ATOM     78  H   UNL A   1      43.724  28.481  31.141  1.00  0.00     0.167 HD
ATOM     79  C   UNL A   1      45.459  26.298  30.615  1.00  0.00     0.074 A 
ATOM     80  C   UNL A   1      45.992  25.077  30.048  1.00  0.00    -0.034 C 
ATOM     81  H   UNL A   1      45.277  23.714  28.572  1.00  0.00     0.065 H 
ATOM     82  H   UNL A   1      47.157  29.019  33.393  1.00  0.00     0.065 H 
ATOM     83  C   UNL A   1      46.119  27.076  31.507  1.00  0.00     0.037 A 
ATOM     84  H   UNL A   1      46.905  24.669  30.300  1.00  0.00     0.065 H 
BRANCH  65  85
ATOM     85  C   UNL A   1      43.044  32.157  33.197  1.00  0.00     0.064 A 
ATOM     86  C   UNL A   1      42.567  32.206  34.515  1.00  0.00     0.173 A 
ATOM     87  C   UNL A   1      43.575  33.333  32.647  1.00  0.00     0.173 A 
ATOM     88  F   UNL A   1      42.040  31.112  35.084  1.00  0.00    -0.203 F 
ATOM     89  C   UNL A   1      42.598  33.392  35.246  1.00  0.00     0.198 A 
ATOM     90  C   UNL A   1      43.632  34.511  33.390  1.00  0.00     0.198 A 
ATOM     91  F   UNL A   1      44.050  33.341  31.393  1.00  0.00    -0.203 F 
ATOM     92  F   UNL A   1      42.097  33.425  36.488  1.00  0.00    -0.200 F 
ATOM     93  C   UNL A   1      43.138  34.540  34.686  1.00  0.00     0.200 A 
ATOM     94  F   UNL A   1      44.166  35.615  32.852  1.00  0.00    -0.200 F 
ATOM     95  F   UNL A   1      43.179  35.678  35.393  1.00  0.00    -0.200 F 
ENDBRANCH  65  85
BRANCH  68  96
ATOM     96  C   UNL A   1      42.795  23.914  27.558  1.00  0.00     0.064 A 
ATOM     97  C   UNL A   1      42.437  22.666  28.087  1.00  0.00     0.173 A 
ATOM     98  C   UNL A   1      43.156  23.969  26.203  1.00  0.00     0.173 A 
ATOM     99  F   UNL A   1      42.104  22.560  29.382  1.00  0.00    -0.203 F 
ATOM    100  C   UNL A   1      42.465  21.516  27.301  1.00  0.00     0.198 A 
ATOM    101  C   UNL A   1      43.155  22.823  25.411  1.00  0.00     0.198 A 
ATOM    102  F   UNL A   1      43.502  25.139  25.647  1.00  0.00    -0.203 F 
ATOM    103  F   UNL A   1      42.168  20.329  27.847  1.00  0.00    -0.200 F 
ATOM    104  C   UNL A   1      42.819  21.595  25.964  1.00  0.00     0.200 A 
ATOM    105  F   UNL A   1      43.484  22.907  24.115  1.00  0.00    -0.200 F 
ATOM    106  F   UNL A   1      42.846  20.489  25.209  1.00  0.00    -0.200 F 
ENDBRANCH  68  96
BRANCH  83 107
ATOM    107  C   UNL A   1      47.472  26.610  31.958  1.00  0.00     0.064 A 
ATOM    108  C   UNL A   1      48.650  27.068  31.349  1.00  0.00     0.173 A 
ATOM    109  C   UNL A   1      47.592  25.724  33.039  1.00  0.00     0.173 A 
ATOM    110  F   UNL A   1      48.588  27.904  30.302  1.00  0.00    -0.203 F 
ATOM    111  C   UNL A   1      49.898  26.635  31.791  1.00  0.00     0.198 A 
ATOM    112  C   UNL A   1      48.842  25.318  33.498  1.00  0.00     0.198 A 
ATOM    113  F   UNL A   1      46.496  25.262  33.660  1.00  0.00    -0.203 F 
ATOM    114  F   UNL A   1      51.008  27.048  31.164  1.00  0.00    -0.200 F 
ATOM    115  C   UNL A   1      49.993  25.767  32.869  1.00  0.00     0.200 A 
ATOM    116  F   UNL A   1      48.933  24.490  34.548  1.00  0.00    -0.200 F 
ATOM    117  F   UNL A   1      51.195  25.359  33.298  1.00  0.00    -0.200 F 
ENDBRANCH  83 107
ENDBRANCH  48  51
ENDBRANCH  38  41
ENDBRANCH  34  37
ENDBRANCH  31  34
ENDBRANCH   1  31
TORSDOF 15
ENDMDL
