MODEL 1
REMARK VINA RESULT:     -12.5      0.000      0.000
REMARK SMILES CC1CC[NH+]([C@H](c2ccc(F)cc2)c2ccc([C@@H](C)C(=O)NCCCCCCNC(=O)c3ccc(-c4c5nc(c(-c6c(F)c(F)c(F)c(F)c6F)c6ccc([nH]6)c(-c6c(F)c(F)c(F)c(F)c6F)c6nc(c(-c7c(F)c(F)c(F)c(F)c7F)c7ccc4[nH]7)C=C6)C=C5)cc3)cc2-c2ccc(C(F)(F)F)cc2)CC1
REMARK SMILES IDX 24 1 23 4 22 7 20 8 21 9 18 11 17 13 14 14 15 15 96 16 16 17
REMARK SMILES IDX 95 19 6 22 5 24 2 25 3 26 108 27 4 29 107 32 1 40 7 44 8 45
REMARK SMILES IDX 13 46 9 47 12 49 10 51 11 54 97 55 98 56 106 57 99 58 105 60
REMARK SMILES IDX 100 62 101 65 102 66 103 67 104 68 19 69 25 73 26 76 27 79
REMARK SMILES IDX 28 82 29 85 30 86 31 88 32 89 33 90 94 91 34 92 93 94 35 96
REMARK SMILES IDX 36 99 37 100 87 101 38 102 92 103 86 104 88 105 39 106
REMARK SMILES IDX 91 107 85 109 84 111 40 113 72 116 52 117 71 118 53 119
REMARK SMILES IDX 56 120 70 121 89 122 54 123 55 125 69 127 90 128 57 131
REMARK SMILES IDX 41 133 42 134 50 135 43 136 44 137 48 138 51 139 45 140
REMARK SMILES IDX 46 141 49 142 47 143 73 144 74 145 82 146 75 147 76 148
REMARK SMILES IDX 80 149 83 150 77 151 78 152 81 153 79 154 58 155 59 156
REMARK SMILES IDX 67 157 60 158 61 159 65 160 68 161 62 162 63 163 66 164
REMARK SMILES IDX 64 165
REMARK H PARENT 24 2 24 3 23 5 23 6 22 10 18 12 15 18 16 20 95 21 6 23 2 28
REMARK H PARENT 3 30 3 31 108 33 108 34 4 35 4 36 107 37 107 38 5 39 1 41 1 42
REMARK H PARENT 1 43 8 48 13 50 9 52 12 53 98 59 106 61 99 63 105 64 19 70
REMARK H PARENT 19 71 19 72 25 74 25 75 26 77 26 78 27 80 27 81 28 83 28 84
REMARK H PARENT 29 87 33 93 94 95 34 97 93 98 92 108 86 110 88 112 91 114
REMARK H PARENT 85 115 53 124 56 126 89 129 54 130 90 132
REMARK Flexibility Score: inf
ROOT
ATOM      1  C   UNL A   1      43.147  23.399  26.927  1.00  0.00    -0.036 C 
ATOM      2  H   UNL A   1      42.736  22.869  27.760  1.00  0.00     0.028 H 
ATOM      3  H   UNL A   1      43.368  24.421  27.156  1.00  0.00     0.028 H 
ENDROOT
BRANCH   1   4
ATOM      4  C   UNL A   1      42.106  23.412  25.800  1.00  0.00     0.017 C 
ATOM      5  H   UNL A   1      41.547  24.323  25.854  1.00  0.00     0.049 H 
ATOM      6  H   UNL A   1      42.623  23.335  24.866  1.00  0.00     0.049 H 
BRANCH   4   7
ATOM      7  N   UNL A   1      41.191  22.292  25.903  1.00  0.00    -0.356 N 
ATOM      8  C   UNL A   1      39.851  22.207  26.127  1.00  0.00     0.227 C 
ATOM      9  O   UNL A   1      39.394  21.061  26.227  1.00  0.00    -0.274 OA
ATOM     10  H   UNL A   1      41.626  21.417  25.787  1.00  0.00     0.163 HD
BRANCH   8  11
ATOM     11  C   UNL A   1      38.904  23.417  26.248  1.00  0.00     0.060 C 
ATOM     12  H   UNL A   1      39.215  24.107  25.491  1.00  0.00     0.045 H 
BRANCH  11  13
ATOM     13  C   UNL A   1      37.467  23.091  25.881  1.00  0.00    -0.035 A 
ATOM     14  C   UNL A   1      34.912  22.344  24.815  1.00  0.00     0.022 A 
ATOM     15  C   UNL A   1      35.722  21.461  25.545  1.00  0.00    -0.052 A 
ATOM     16  C   UNL A   1      35.352  23.696  24.754  1.00  0.00    -0.009 A 
ATOM     17  C   UNL A   1      36.910  21.854  26.147  1.00  0.00    -0.058 A 
ATOM     18  H   UNL A   1      35.422  20.477  25.638  1.00  0.00     0.063 H 
ATOM     19  C   UNL A   1      36.657  24.019  25.215  1.00  0.00    -0.050 A 
ATOM     20  H   UNL A   1      37.384  21.214  26.804  1.00  0.00     0.063 H 
ATOM     21  H   UNL A   1      37.020  24.971  25.053  1.00  0.00     0.063 H 
BRANCH  14  22
ATOM     22  C   UNL A   1      33.575  21.859  24.183  1.00  0.00     0.139 C 
ATOM     23  H   UNL A   1      33.641  22.331  23.224  1.00  0.00     0.107 H 
BRANCH  22  24
ATOM     24  N   UNL A   1      32.290  22.378  24.762  1.00  0.00    -0.325 N 
ATOM     25  C   UNL A   1      30.733  24.593  25.877  1.00  0.00    -0.034 C 
ATOM     26  C   UNL A   1      30.401  24.076  24.480  1.00  0.00    -0.001 C 
ATOM     27  C   UNL A   1      31.107  23.399  26.740  1.00  0.00    -0.001 C 
ATOM     28  H   UNL A   1      31.547  25.286  25.822  1.00  0.00     0.030 H 
ATOM     29  C   UNL A   1      31.540  23.257  23.859  1.00  0.00     0.078 C 
ATOM     30  H   UNL A   1      30.199  24.914  23.845  1.00  0.00     0.033 H 
ATOM     31  H   UNL A   1      29.554  23.430  24.570  1.00  0.00     0.033 H 
ATOM     32  C   UNL A   1      32.351  22.723  26.183  1.00  0.00     0.078 C 
ATOM     33  H   UNL A   1      30.298  22.700  26.747  1.00  0.00     0.033 H 
ATOM     34  H   UNL A   1      31.307  23.735  27.736  1.00  0.00     0.033 H 
ATOM     35  H   UNL A   1      32.235  23.946  23.426  1.00  0.00     0.092 H 
ATOM     36  H   UNL A   1      31.065  22.601  23.160  1.00  0.00     0.092 H 
ATOM     37  H   UNL A   1      33.181  23.384  26.327  1.00  0.00     0.092 H 
ATOM     38  H   UNL A   1      32.447  21.796  26.709  1.00  0.00     0.092 H 
ATOM     39  H   UNL A   1      31.658  21.579  24.814  1.00  0.00     0.348 HD
BRANCH  25  40
ATOM     40  C   UNL A   1      29.554  25.334  26.484  1.00  0.00    -0.062 C 
ATOM     41  H   UNL A   1      29.090  25.943  25.736  1.00  0.00     0.023 H 
ATOM     42  H   UNL A   1      29.897  25.955  27.286  1.00  0.00     0.023 H 
ATOM     43  H   UNL A   1      28.843  24.629  26.860  1.00  0.00     0.023 H 
ENDBRANCH  25  40
ENDBRANCH  22  24
BRANCH  22  44
ATOM     44  C   UNL A   1      33.499  20.328  24.008  1.00  0.00     0.014 A 
ATOM     45  C   UNL A   1      34.417  19.458  24.631  1.00  0.00    -0.050 A 
ATOM     46  C   UNL A   1      32.486  19.767  23.208  1.00  0.00    -0.050 A 
ATOM     47  C   UNL A   1      34.311  18.075  24.475  1.00  0.00    -0.026 A 
ATOM     48  H   UNL A   1      35.179  19.848  25.208  1.00  0.00     0.063 H 
ATOM     49  C   UNL A   1      32.407  18.385  23.020  1.00  0.00    -0.026 A 
ATOM     50  H   UNL A   1      31.793  20.383  22.754  1.00  0.00     0.063 H 
ATOM     51  C   UNL A   1      33.312  17.553  23.663  1.00  0.00     0.123 A 
ATOM     52  H   UNL A   1      34.970  17.445  24.959  1.00  0.00     0.065 H 
ATOM     53  H   UNL A   1      31.679  17.985  22.407  1.00  0.00     0.065 H 
ATOM     54  F   UNL A   1      33.223  16.227  23.499  1.00  0.00    -0.207 F 
ENDBRANCH  22  44
ENDBRANCH  14  22
BRANCH  16  55
ATOM     55  C   UNL A   1      34.501  24.812  24.295  1.00  0.00    -0.018 A 
ATOM     56  C   UNL A   1      34.184  24.986  22.940  1.00  0.00    -0.054 A 
ATOM     57  C   UNL A   1      34.026  25.765  25.212  1.00  0.00    -0.054 A 
ATOM     58  C   UNL A   1      33.388  26.057  22.521  1.00  0.00    -0.049 A 
ATOM     59  H   UNL A   1      34.543  24.315  22.243  1.00  0.00     0.063 H 
ATOM     60  C   UNL A   1      33.219  26.828  24.799  1.00  0.00    -0.049 A 
ATOM     61  H   UNL A   1      34.279  25.678  26.209  1.00  0.00     0.063 H 
ATOM     62  C   UNL A   1      32.884  26.980  23.449  1.00  0.00     0.056 A 
ATOM     63  H   UNL A   1      33.171  26.169  21.519  1.00  0.00     0.063 H 
ATOM     64  H   UNL A   1      32.868  27.505  25.495  1.00  0.00     0.063 H 
BRANCH  62  65
ATOM     65  C   UNL A   1      32.017  28.125  22.988  1.00  0.00     0.416 C 
ATOM     66  F   UNL A   1      31.438  28.790  24.025  1.00  0.00    -0.166 F 
ATOM     67  F   UNL A   1      32.712  29.061  22.283  1.00  0.00    -0.166 F 
ATOM     68  F   UNL A   1      30.993  27.736  22.176  1.00  0.00    -0.166 F 
ENDBRANCH  62  65
ENDBRANCH  16  55
ENDBRANCH  11  13
BRANCH  11  69
ATOM     69  C   UNL A   1      39.083  24.219  27.536  1.00  0.00    -0.049 C 
ATOM     70  H   UNL A   1      39.200  23.547  28.361  1.00  0.00     0.024 H 
ATOM     71  H   UNL A   1      38.222  24.834  27.696  1.00  0.00     0.024 H 
ATOM     72  H   UNL A   1      39.952  24.837  27.453  1.00  0.00     0.024 H 
ENDBRANCH  11  69
ENDBRANCH   8  11
ENDBRANCH   4   7
ENDBRANCH   1   4
BRANCH   1  73
ATOM     73  C   UNL A   1      44.471  22.736  26.542  1.00  0.00    -0.052 C 
ATOM     74  H   UNL A   1      44.551  22.744  25.475  1.00  0.00     0.027 H 
ATOM     75  H   UNL A   1      44.447  21.749  26.954  1.00  0.00     0.027 H 
BRANCH  73  76
ATOM     76  C   UNL A   1      45.719  23.417  27.120  1.00  0.00    -0.052 C 
ATOM     77  H   UNL A   1      46.283  22.680  27.650  1.00  0.00     0.027 H 
ATOM     78  H   UNL A   1      45.363  24.212  27.741  1.00  0.00     0.027 H 
BRANCH  76  79
ATOM     79  C   UNL A   1      46.643  24.066  26.084  1.00  0.00    -0.036 C 
ATOM     80  H   UNL A   1      46.102  24.163  25.167  1.00  0.00     0.028 H 
ATOM     81  H   UNL A   1      47.500  23.430  25.994  1.00  0.00     0.028 H 
BRANCH  79  82
ATOM     82  C   UNL A   1      47.158  25.444  26.486  1.00  0.00     0.018 C 
ATOM     83  H   UNL A   1      48.173  25.356  26.812  1.00  0.00     0.049 H 
ATOM     84  H   UNL A   1      46.538  25.819  27.274  1.00  0.00     0.049 H 
BRANCH  82  85
ATOM     85  N   UNL A   1      47.098  26.381  25.369  1.00  0.00    -0.352 N 
ATOM     86  C   UNL A   1      46.162  27.352  25.101  1.00  0.00     0.251 C 
ATOM     87  H   UNL A   1      47.831  26.308  24.717  1.00  0.00     0.163 HD
ATOM     88  O   UNL A   1      46.096  27.876  23.998  1.00  0.00    -0.269 OA
BRANCH  86  89
ATOM     89  C   UNL A   1      45.239  27.765  26.175  1.00  0.00     0.039 A 
ATOM     90  C   UNL A   1      44.352  26.848  26.741  1.00  0.00    -0.049 A 
ATOM     91  C   UNL A   1      45.274  29.082  26.626  1.00  0.00    -0.049 A 
ATOM     92  C   UNL A   1      43.560  27.239  27.826  1.00  0.00    -0.053 A 
ATOM     93  H   UNL A   1      44.283  25.890  26.365  1.00  0.00     0.063 H 
ATOM     94  C   UNL A   1      44.551  29.443  27.754  1.00  0.00    -0.053 A 
ATOM     95  H   UNL A   1      45.836  29.787  26.124  1.00  0.00     0.063 H 
ATOM     96  C   UNL A   1      43.689  28.528  28.371  1.00  0.00    -0.014 A 
ATOM     97  H   UNL A   1      42.877  26.578  28.228  1.00  0.00     0.063 H 
ATOM     98  H   UNL A   1      44.650  30.395  28.142  1.00  0.00     0.063 H 
BRANCH  96  99
ATOM     99  C   UNL A   1      42.954  28.967  29.586  1.00  0.00     0.031 A 
ATOM    100  C   UNL A   1      41.523  29.416  29.471  1.00  0.00     0.074 A 
ATOM    101  C   UNL A   1      43.607  29.090  30.758  1.00  0.00     0.049 A 
ATOM    102  N   UNL A   1      40.764  30.004  30.361  1.00  0.00    -0.248 NA
ATOM    103  C   UNL A   1      40.869  29.215  28.167  1.00  0.00    -0.034 C 
ATOM    104  C   UNL A   1      45.007  28.738  30.986  1.00  0.00    -0.036 A 
ATOM    105  N   UNL A   1      43.184  29.572  31.973  1.00  0.00    -0.354 N 
ATOM    106  C   UNL A   1      39.563  30.265  29.718  1.00  0.00     0.074 A 
ATOM    107  C   UNL A   1      39.709  29.827  28.348  1.00  0.00    -0.034 C 
ATOM    108  H   UNL A   1      41.224  28.726  27.330  1.00  0.00     0.065 H 
ATOM    109  C   UNL A   1      45.323  28.994  32.264  1.00  0.00    -0.036 A 
ATOM    110  H   UNL A   1      45.652  28.352  30.276  1.00  0.00     0.065 H 
ATOM    111  C   UNL A   1      44.165  29.579  32.934  1.00  0.00     0.049 A 
ATOM    112  H   UNL A   1      42.264  29.882  32.139  1.00  0.00     0.167 HD
ATOM    113  C   UNL A   1      38.430  30.796  30.233  1.00  0.00     0.037 A 
ATOM    114  H   UNL A   1      39.003  29.973  27.609  1.00  0.00     0.065 H 
ATOM    115  H   UNL A   1      46.238  28.807  32.704  1.00  0.00     0.065 H 
ATOM    116  C   UNL A   1      44.144  30.024  34.206  1.00  0.00     0.037 A 
ATOM    117  C   UNL A   1      38.279  31.192  31.607  1.00  0.00     0.049 A 
ATOM    118  C   UNL A   1      42.878  30.623  34.756  1.00  0.00     0.074 A 
ATOM    119  C   UNL A   1      37.147  31.666  32.244  1.00  0.00    -0.036 A 
ATOM    120  N   UNL A   1      39.291  31.160  32.555  1.00  0.00    -0.354 N 
ATOM    121  N   UNL A   1      41.727  30.807  34.158  1.00  0.00    -0.248 NA
ATOM    122  C   UNL A   1      42.904  31.078  36.155  1.00  0.00    -0.034 C 
ATOM    123  C   UNL A   1      37.489  31.980  33.561  1.00  0.00    -0.036 A 
ATOM    124  H   UNL A   1      36.212  31.771  31.820  1.00  0.00     0.065 H 
ATOM    125  C   UNL A   1      38.816  31.637  33.765  1.00  0.00     0.049 A 
ATOM    126  H   UNL A   1      40.209  30.844  32.393  1.00  0.00     0.167 HD
ATOM    127  C   UNL A   1      40.886  31.371  35.107  1.00  0.00     0.074 A 
ATOM    128  C   UNL A   1      41.657  31.499  36.326  1.00  0.00    -0.034 C 
ATOM    129  H   UNL A   1      43.687  31.072  36.827  1.00  0.00     0.065 H 
ATOM    130  H   UNL A   1      36.859  32.396  34.265  1.00  0.00     0.065 H 
ATOM    131  C   UNL A   1      39.590  31.745  34.977  1.00  0.00     0.037 A 
ATOM    132  H   UNL A   1      41.284  31.869  37.214  1.00  0.00     0.065 H 
BRANCH 113 133
ATOM    133  C   UNL A   1      37.253  30.973  29.316  1.00  0.00     0.064 A 
ATOM    134  C   UNL A   1      36.926  32.242  28.814  1.00  0.00     0.173 A 
ATOM    135  C   UNL A   1      36.407  29.902  28.990  1.00  0.00     0.173 A 
ATOM    136  F   UNL A   1      37.696  33.302  29.101  1.00  0.00    -0.203 F 
ATOM    137  C   UNL A   1      35.791  32.433  28.030  1.00  0.00     0.198 A 
ATOM    138  C   UNL A   1      35.293  30.090  28.176  1.00  0.00     0.198 A 
ATOM    139  F   UNL A   1      36.677  28.667  29.438  1.00  0.00    -0.203 F 
ATOM    140  F   UNL A   1      35.480  33.661  27.592  1.00  0.00    -0.200 F 
ATOM    141  C   UNL A   1      34.979  31.356  27.706  1.00  0.00     0.200 A 
ATOM    142  F   UNL A   1      34.525  29.044  27.843  1.00  0.00    -0.200 F 
ATOM    143  F   UNL A   1      33.896  31.539  26.939  1.00  0.00    -0.200 F 
ENDBRANCH 113 133
BRANCH 116 144
ATOM    144  C   UNL A   1      45.362  29.885  35.047  1.00  0.00     0.064 A 
ATOM    145  C   UNL A   1      45.565  28.764  35.866  1.00  0.00     0.173 A 
ATOM    146  C   UNL A   1      46.322  30.906  35.089  1.00  0.00     0.173 A 
ATOM    147  F   UNL A   1      44.673  27.763  35.868  1.00  0.00    -0.203 F 
ATOM    148  C   UNL A   1      46.665  28.684  36.718  1.00  0.00     0.198 A 
ATOM    149  C   UNL A   1      47.436  30.812  35.922  1.00  0.00     0.198 A 
ATOM    150  F   UNL A   1      46.181  31.988  34.311  1.00  0.00    -0.203 F 
ATOM    151  F   UNL A   1      46.810  27.625  37.525  1.00  0.00    -0.200 F 
ATOM    152  C   UNL A   1      47.601  29.707  36.743  1.00  0.00     0.200 A 
ATOM    153  F   UNL A   1      48.348  31.793  35.928  1.00  0.00    -0.200 F 
ATOM    154  F   UNL A   1      48.660  29.630  37.561  1.00  0.00    -0.200 F 
ENDBRANCH 116 144
BRANCH 131 155
ATOM    155  C   UNL A   1      38.887  32.306  36.178  1.00  0.00     0.064 A 
ATOM    156  C   UNL A   1      39.106  33.639  36.564  1.00  0.00     0.173 A 
ATOM    157  C   UNL A   1      38.121  31.493  37.024  1.00  0.00     0.173 A 
ATOM    158  F   UNL A   1      39.841  34.454  35.792  1.00  0.00    -0.203 F 
ATOM    159  C   UNL A   1      38.615  34.124  37.772  1.00  0.00     0.198 A 
ATOM    160  C   UNL A   1      37.608  31.991  38.219  1.00  0.00     0.198 A 
ATOM    161  F   UNL A   1      37.876  30.217  36.693  1.00  0.00    -0.203 F 
ATOM    162  F   UNL A   1      38.886  35.382  38.148  1.00  0.00    -0.200 F 
ATOM    163  C   UNL A   1      37.869  33.300  38.599  1.00  0.00     0.200 A 
ATOM    164  F   UNL A   1      36.870  31.198  39.009  1.00  0.00    -0.200 F 
ATOM    165  F   UNL A   1      37.405  33.763  39.768  1.00  0.00    -0.200 F 
ENDBRANCH 131 155
ENDBRANCH  96  99
ENDBRANCH  86  89
ENDBRANCH  82  85
ENDBRANCH  79  82
ENDBRANCH  76  79
ENDBRANCH  73  76
ENDBRANCH   1  73
TORSDOF 21
ENDMDL
MODEL 2
REMARK VINA RESULT:     -12.2      5.801     10.278
REMARK SMILES CC1CC[NH+]([C@H](c2ccc(F)cc2)c2ccc([C@@H](C)C(=O)NCCCCCCNC(=O)c3ccc(-c4c5nc(c(-c6c(F)c(F)c(F)c(F)c6F)c6ccc([nH]6)c(-c6c(F)c(F)c(F)c(F)c6F)c6nc(c(-c7c(F)c(F)c(F)c(F)c7F)c7ccc4[nH]7)C=C6)C=C5)cc3)cc2-c2ccc(C(F)(F)F)cc2)CC1
REMARK SMILES IDX 24 1 23 4 22 7 20 8 21 9 18 11 17 13 14 14 15 15 96 16 16 17
REMARK SMILES IDX 95 19 6 22 5 24 2 25 3 26 108 27 4 29 107 32 1 40 7 44 8 45
REMARK SMILES IDX 13 46 9 47 12 49 10 51 11 54 97 55 98 56 106 57 99 58 105 60
REMARK SMILES IDX 100 62 101 65 102 66 103 67 104 68 19 69 25 73 26 76 27 79
REMARK SMILES IDX 28 82 29 85 30 86 31 88 32 89 33 90 94 91 34 92 93 94 35 96
REMARK SMILES IDX 36 99 37 100 87 101 38 102 92 103 86 104 88 105 39 106
REMARK SMILES IDX 91 107 85 109 84 111 40 113 72 116 52 117 71 118 53 119
REMARK SMILES IDX 56 120 70 121 89 122 54 123 55 125 69 127 90 128 57 131
REMARK SMILES IDX 41 133 42 134 50 135 43 136 44 137 48 138 51 139 45 140
REMARK SMILES IDX 46 141 49 142 47 143 73 144 74 145 82 146 75 147 76 148
REMARK SMILES IDX 80 149 83 150 77 151 78 152 81 153 79 154 58 155 59 156
REMARK SMILES IDX 67 157 60 158 61 159 65 160 68 161 62 162 63 163 66 164
REMARK SMILES IDX 64 165
REMARK H PARENT 24 2 24 3 23 5 23 6 22 10 18 12 15 18 16 20 95 21 6 23 2 28
REMARK H PARENT 3 30 3 31 108 33 108 34 4 35 4 36 107 37 107 38 5 39 1 41 1 42
REMARK H PARENT 1 43 8 48 13 50 9 52 12 53 98 59 106 61 99 63 105 64 19 70
REMARK H PARENT 19 71 19 72 25 74 25 75 26 77 26 78 27 80 27 81 28 83 28 84
REMARK H PARENT 29 87 33 93 94 95 34 97 93 98 92 108 86 110 88 112 91 114
REMARK H PARENT 85 115 53 124 56 126 89 129 54 130 90 132
REMARK Flexibility Score: inf
ROOT
ATOM      1  C   UNL A   1      42.803  36.875  26.502  1.00  0.00    -0.036 C 
ATOM      2  H   UNL A   1      42.768  37.230  25.494  1.00  0.00     0.028 H 
ATOM      3  H   UNL A   1      43.787  36.917  26.921  1.00  0.00     0.028 H 
ENDROOT
BRANCH   1   4
ATOM      4  C   UNL A   1      42.381  35.400  26.509  1.00  0.00     0.017 C 
ATOM      5  H   UNL A   1      42.648  34.967  27.451  1.00  0.00     0.049 H 
ATOM      6  H   UNL A   1      41.323  35.354  26.353  1.00  0.00     0.049 H 
BRANCH   4   7
ATOM      7  N   UNL A   1      43.027  34.652  25.449  1.00  0.00    -0.356 N 
ATOM      8  C   UNL A   1      44.249  34.062  25.342  1.00  0.00     0.227 C 
ATOM      9  O   UNL A   1      44.508  33.558  24.242  1.00  0.00    -0.274 OA
ATOM     10  H   UNL A   1      42.469  34.550  24.644  1.00  0.00     0.163 HD
BRANCH   8  11
ATOM     11  C   UNL A   1      45.287  33.982  26.479  1.00  0.00     0.060 C 
ATOM     12  H   UNL A   1      44.937  34.649  27.239  1.00  0.00     0.045 H 
BRANCH  11  13
ATOM     13  C   UNL A   1      45.319  32.628  27.164  1.00  0.00    -0.035 A 
ATOM     14  C   UNL A   1      45.508  29.918  28.083  1.00  0.00     0.022 A 
ATOM     15  C   UNL A   1      46.577  30.824  28.154  1.00  0.00    -0.052 A 
ATOM     16  C   UNL A   1      44.257  30.454  27.667  1.00  0.00    -0.009 A 
ATOM     17  C   UNL A   1      46.452  32.162  27.805  1.00  0.00    -0.058 A 
ATOM     18  H   UNL A   1      47.495  30.481  28.480  1.00  0.00     0.063 H 
ATOM     19  C   UNL A   1      44.211  31.771  27.138  1.00  0.00    -0.050 A 
ATOM     20  H   UNL A   1      47.217  32.819  28.026  1.00  0.00     0.063 H 
ATOM     21  H   UNL A   1      43.330  32.110  26.721  1.00  0.00     0.063 H 
BRANCH  14  22
ATOM     22  C   UNL A   1      45.693  28.434  28.513  1.00  0.00     0.139 C 
ATOM     23  H   UNL A   1      45.081  28.417  29.391  1.00  0.00     0.107 H 
BRANCH  22  24
ATOM     24  N   UNL A   1      47.048  28.003  29.000  1.00  0.00    -0.325 N 
ATOM     25  C   UNL A   1      49.059  25.904  29.349  1.00  0.00    -0.034 C 
ATOM     26  C   UNL A   1      49.299  27.004  28.318  1.00  0.00    -0.001 C 
ATOM     27  C   UNL A   1      48.381  26.535  30.555  1.00  0.00    -0.001 C 
ATOM     28  H   UNL A   1      48.439  25.142  28.926  1.00  0.00     0.030 H 
ATOM     29  C   UNL A   1      48.015  27.748  27.928  1.00  0.00     0.078 C 
ATOM     30  H   UNL A   1      49.717  26.561  27.438  1.00  0.00     0.033 H 
ATOM     31  H   UNL A   1      49.962  27.718  28.759  1.00  0.00     0.033 H 
ATOM     32  C   UNL A   1      47.029  27.104  30.154  1.00  0.00     0.078 C 
ATOM     33  H   UNL A   1      48.998  27.322  30.936  1.00  0.00     0.033 H 
ATOM     34  H   UNL A   1      48.239  25.788  31.308  1.00  0.00     0.033 H 
ATOM     35  H   UNL A   1      47.520  27.168  27.177  1.00  0.00     0.092 H 
ATOM     36  H   UNL A   1      48.338  28.716  27.606  1.00  0.00     0.092 H 
ATOM     37  H   UNL A   1      46.379  26.285  29.924  1.00  0.00     0.092 H 
ATOM     38  H   UNL A   1      46.696  27.692  30.984  1.00  0.00     0.092 H 
ATOM     39  H   UNL A   1      47.466  28.824  29.439  1.00  0.00     0.348 HD
BRANCH  25  40
ATOM     40  C   UNL A   1      50.364  25.244  29.762  1.00  0.00    -0.062 C 
ATOM     41  H   UNL A   1      50.641  25.580  30.740  1.00  0.00     0.023 H 
ATOM     42  H   UNL A   1      51.132  25.505  29.064  1.00  0.00     0.023 H 
ATOM     43  H   UNL A   1      50.239  24.182  29.774  1.00  0.00     0.023 H 
ENDBRANCH  25  40
ENDBRANCH  22  24
BRANCH  22  44
ATOM     44  C   UNL A   1      45.154  27.423  27.480  1.00  0.00     0.014 A 
ATOM     45  C   UNL A   1      44.290  26.370  27.846  1.00  0.00    -0.050 A 
ATOM     46  C   UNL A   1      45.525  27.542  26.128  1.00  0.00    -0.050 A 
ATOM     47  C   UNL A   1      43.797  25.483  26.887  1.00  0.00    -0.026 A 
ATOM     48  H   UNL A   1      44.019  26.253  28.835  1.00  0.00     0.063 H 
ATOM     49  C   UNL A   1      45.064  26.629  25.177  1.00  0.00    -0.026 A 
ATOM     50  H   UNL A   1      46.144  28.314  25.835  1.00  0.00     0.063 H 
ATOM     51  C   UNL A   1      44.197  25.616  25.564  1.00  0.00     0.123 A 
ATOM     52  H   UNL A   1      43.142  24.734  27.160  1.00  0.00     0.065 H 
ATOM     53  H   UNL A   1      45.365  26.707  24.194  1.00  0.00     0.065 H 
ATOM     54  F   UNL A   1      43.739  24.753  24.648  1.00  0.00    -0.207 F 
ENDBRANCH  22  44
ENDBRANCH  14  22
BRANCH  16  55
ATOM     55  C   UNL A   1      42.973  29.738  27.812  1.00  0.00    -0.018 A 
ATOM     56  C   UNL A   1      42.231  29.325  26.696  1.00  0.00    -0.054 A 
ATOM     57  C   UNL A   1      42.436  29.498  29.088  1.00  0.00    -0.054 A 
ATOM     58  C   UNL A   1      41.010  28.661  26.852  1.00  0.00    -0.049 A 
ATOM     59  H   UNL A   1      42.590  29.514  25.747  1.00  0.00     0.063 H 
ATOM     60  C   UNL A   1      41.224  28.822  29.249  1.00  0.00    -0.049 A 
ATOM     61  H   UNL A   1      42.948  29.827  29.923  1.00  0.00     0.063 H 
ATOM     62  C   UNL A   1      40.502  28.389  28.131  1.00  0.00     0.056 A 
ATOM     63  H   UNL A   1      40.477  28.369  26.018  1.00  0.00     0.063 H 
ATOM     64  H   UNL A   1      40.859  28.642  30.197  1.00  0.00     0.063 H 
BRANCH  62  65
ATOM     65  C   UNL A   1      39.189  27.661  28.288  1.00  0.00     0.416 C 
ATOM     66  F   UNL A   1      39.091  26.582  27.464  1.00  0.00    -0.166 F 
ATOM     67  F   UNL A   1      38.998  27.188  29.550  1.00  0.00    -0.166 F 
ATOM     68  F   UNL A   1      38.103  28.439  28.016  1.00  0.00    -0.166 F 
ENDBRANCH  62  65
ENDBRANCH  16  55
ENDBRANCH  11  13
BRANCH  11  69
ATOM     69  C   UNL A   1      46.652  34.564  26.116  1.00  0.00    -0.049 C 
ATOM     70  H   UNL A   1      46.602  35.633  26.143  1.00  0.00     0.024 H 
ATOM     71  H   UNL A   1      46.926  34.245  25.132  1.00  0.00     0.024 H 
ATOM     72  H   UNL A   1      47.383  34.224  26.818  1.00  0.00     0.024 H 
ENDBRANCH  11  69
ENDBRANCH   8  11
ENDBRANCH   4   7
ENDBRANCH   1   4
BRANCH   1  73
ATOM     73  C   UNL A   1      41.917  37.779  27.361  1.00  0.00    -0.052 C 
ATOM     74  H   UNL A   1      42.428  37.971  28.281  1.00  0.00     0.027 H 
ATOM     75  H   UNL A   1      40.992  37.259  27.494  1.00  0.00     0.027 H 
BRANCH  73  76
ATOM     76  C   UNL A   1      41.566  39.128  26.719  1.00  0.00    -0.052 C 
ATOM     77  H   UNL A   1      40.549  39.354  26.958  1.00  0.00     0.027 H 
ATOM     78  H   UNL A   1      41.743  39.013  25.669  1.00  0.00     0.027 H 
BRANCH  76  79
ATOM     79  C   UNL A   1      42.434  40.308  27.170  1.00  0.00    -0.036 C 
ATOM     80  H   UNL A   1      41.931  41.214  26.907  1.00  0.00     0.028 H 
ATOM     81  H   UNL A   1      43.379  40.201  26.677  1.00  0.00     0.028 H 
BRANCH  79  82
ATOM     82  C   UNL A   1      42.719  40.334  28.668  1.00  0.00     0.018 C 
ATOM     83  H   UNL A   1      42.491  39.374  29.083  1.00  0.00     0.049 H 
ATOM     84  H   UNL A   1      42.110  41.094  29.113  1.00  0.00     0.049 H 
BRANCH  82  85
ATOM     85  N   UNL A   1      44.117  40.648  28.938  1.00  0.00    -0.352 N 
ATOM     86  C   UNL A   1      45.062  39.898  29.600  1.00  0.00     0.251 C 
ATOM     87  H   UNL A   1      44.428  41.517  28.601  1.00  0.00     0.163 HD
ATOM     88  O   UNL A   1      46.110  40.400  29.982  1.00  0.00    -0.269 OA
BRANCH  86  89
ATOM     89  C   UNL A   1      44.796  38.466  29.832  1.00  0.00     0.039 A 
ATOM     90  C   UNL A   1      45.160  37.512  28.880  1.00  0.00    -0.049 A 
ATOM     91  C   UNL A   1      44.188  38.076  31.022  1.00  0.00    -0.049 A 
ATOM     92  C   UNL A   1      44.989  36.154  29.169  1.00  0.00    -0.053 A 
ATOM     93  H   UNL A   1      45.553  37.806  27.973  1.00  0.00     0.063 H 
ATOM     94  C   UNL A   1      44.097  36.729  31.342  1.00  0.00    -0.053 A 
ATOM     95  H   UNL A   1      43.806  38.787  31.666  1.00  0.00     0.063 H 
ATOM     96  C   UNL A   1      44.500  35.750  30.423  1.00  0.00    -0.014 A 
ATOM     97  H   UNL A   1      45.223  35.444  28.457  1.00  0.00     0.063 H 
ATOM     98  H   UNL A   1      43.731  36.445  32.265  1.00  0.00     0.063 H 
BRANCH  96  99
ATOM     99  C   UNL A   1      44.396  34.325  30.827  1.00  0.00     0.031 A 
ATOM    100  C   UNL A   1      43.041  33.701  31.022  1.00  0.00     0.074 A 
ATOM    101  C   UNL A   1      45.508  33.635  31.149  1.00  0.00     0.049 A 
ATOM    102  N   UNL A   1      42.729  32.541  31.544  1.00  0.00    -0.248 NA
ATOM    103  C   UNL A   1      41.878  34.506  30.614  1.00  0.00    -0.034 C 
ATOM    104  C   UNL A   1      46.875  34.144  31.053  1.00  0.00    -0.036 A 
ATOM    105  N   UNL A   1      45.661  32.363  31.647  1.00  0.00    -0.354 N 
ATOM    106  C   UNL A   1      41.342  32.493  31.550  1.00  0.00     0.074 A 
ATOM    107  C   UNL A   1      40.869  33.759  31.037  1.00  0.00    -0.034 C 
ATOM    108  H   UNL A   1      41.855  35.415  30.126  1.00  0.00     0.065 H 
ATOM    109  C   UNL A   1      47.729  33.191  31.458  1.00  0.00    -0.036 A 
ATOM    110  H   UNL A   1      47.142  35.086  30.726  1.00  0.00     0.065 H 
ATOM    111  C   UNL A   1      46.969  32.022  31.893  1.00  0.00     0.049 A 
ATOM    112  H   UNL A   1      44.905  31.755  31.812  1.00  0.00     0.167 HD
ATOM    113  C   UNL A   1      40.537  31.471  31.925  1.00  0.00     0.037 A 
ATOM    114  H   UNL A   1      39.877  34.043  31.005  1.00  0.00     0.065 H 
ATOM    115  H   UNL A   1      48.758  33.271  31.460  1.00  0.00     0.065 H 
ATOM    116  C   UNL A   1      47.498  30.904  32.426  1.00  0.00     0.037 A 
ATOM    117  C   UNL A   1      41.016  30.200  32.396  1.00  0.00     0.049 A 
ATOM    118  C   UNL A   1      46.585  29.785  32.848  1.00  0.00     0.074 A 
ATOM    119  C   UNL A   1      40.282  29.075  32.724  1.00  0.00    -0.036 A 
ATOM    120  N   UNL A   1      42.351  29.887  32.607  1.00  0.00    -0.354 N 
ATOM    121  N   UNL A   1      45.277  29.724  32.790  1.00  0.00    -0.248 NA
ATOM    122  C   UNL A   1      47.215  28.580  33.408  1.00  0.00    -0.034 C 
ATOM    123  C   UNL A   1      41.166  28.101  33.192  1.00  0.00    -0.036 A 
ATOM    124  H   UNL A   1      39.259  28.973  32.638  1.00  0.00     0.065 H 
ATOM    125  C   UNL A   1      42.458  28.594  33.092  1.00  0.00     0.049 A 
ATOM    126  H   UNL A   1      43.108  30.492  32.436  1.00  0.00     0.167 HD
ATOM    127  C   UNL A   1      44.929  28.472  33.279  1.00  0.00     0.074 A 
ATOM    128  C   UNL A   1      46.163  27.801  33.628  1.00  0.00    -0.034 C 
ATOM    129  H   UNL A   1      48.214  28.390  33.586  1.00  0.00     0.065 H 
ATOM    130  H   UNL A   1      40.903  27.170  33.552  1.00  0.00     0.065 H 
ATOM    131  C   UNL A   1      43.695  27.931  33.422  1.00  0.00     0.037 A 
ATOM    132  H   UNL A   1      46.218  26.840  34.000  1.00  0.00     0.065 H 
BRANCH 113 133
ATOM    133  C   UNL A   1      39.051  31.674  31.831  1.00  0.00     0.064 A 
ATOM    134  C   UNL A   1      38.310  32.040  32.965  1.00  0.00     0.173 A 
ATOM    135  C   UNL A   1      38.350  31.438  30.638  1.00  0.00     0.173 A 
ATOM    136  F   UNL A   1      38.928  32.270  34.133  1.00  0.00    -0.203 F 
ATOM    137  C   UNL A   1      36.922  32.150  32.911  1.00  0.00     0.198 A 
ATOM    138  C   UNL A   1      36.967  31.584  30.579  1.00  0.00     0.198 A 
ATOM    139  F   UNL A   1      39.011  31.093  29.523  1.00  0.00    -0.203 F 
ATOM    140  F   UNL A   1      36.234  32.465  34.016  1.00  0.00    -0.200 F 
ATOM    141  C   UNL A   1      36.253  31.929  31.716  1.00  0.00     0.200 A 
ATOM    142  F   UNL A   1      36.326  31.396  29.417  1.00  0.00    -0.200 F 
ATOM    143  F   UNL A   1      34.920  32.050  31.662  1.00  0.00    -0.200 F 
ENDBRANCH 113 133
BRANCH 116 144
ATOM    144  C   UNL A   1      48.974  30.788  32.558  1.00  0.00     0.064 A 
ATOM    145  C   UNL A   1      49.643  31.199  33.721  1.00  0.00     0.173 A 
ATOM    146  C   UNL A   1      49.752  30.316  31.491  1.00  0.00     0.173 A 
ATOM    147  F   UNL A   1      48.945  31.665  34.767  1.00  0.00    -0.203 F 
ATOM    148  C   UNL A   1      51.034  31.170  33.800  1.00  0.00     0.198 A 
ATOM    149  C   UNL A   1      51.142  30.263  31.582  1.00  0.00     0.198 A 
ATOM    150  F   UNL A   1      49.158  29.895  30.366  1.00  0.00    -0.203 F 
ATOM    151  F   UNL A   1      51.649  31.613  34.905  1.00  0.00    -0.200 F 
ATOM    152  C   UNL A   1      51.782  30.700  32.732  1.00  0.00     0.200 A 
ATOM    153  F   UNL A   1      51.860  29.788  30.556  1.00  0.00    -0.200 F 
ATOM    154  F   UNL A   1      53.120  30.671  32.809  1.00  0.00    -0.200 F 
ENDBRANCH 116 144
BRANCH 131 155
ATOM    155  C   UNL A   1      43.589  26.531  33.950  1.00  0.00     0.064 A 
ATOM    156  C   UNL A   1      43.317  26.309  35.310  1.00  0.00     0.173 A 
ATOM    157  C   UNL A   1      43.899  25.421  33.152  1.00  0.00     0.173 A 
ATOM    158  F   UNL A   1      43.025  27.341  36.117  1.00  0.00    -0.203 F 
ATOM    159  C   UNL A   1      43.399  25.033  35.858  1.00  0.00     0.198 A 
ATOM    160  C   UNL A   1      43.951  24.142  33.698  1.00  0.00     0.198 A 
ATOM    161  F   UNL A   1      44.155  25.581  31.845  1.00  0.00    -0.203 F 
ATOM    162  F   UNL A   1      43.193  24.854  37.171  1.00  0.00    -0.200 F 
ATOM    163  C   UNL A   1      43.717  23.951  35.053  1.00  0.00     0.200 A 
ATOM    164  F   UNL A   1      44.241  23.093  32.915  1.00  0.00    -0.200 F 
ATOM    165  F   UNL A   1      43.806  22.723  35.582  1.00  0.00    -0.200 F 
ENDBRANCH 131 155
ENDBRANCH  96  99
ENDBRANCH  86  89
ENDBRANCH  82  85
ENDBRANCH  79  82
ENDBRANCH  76  79
ENDBRANCH  73  76
ENDBRANCH   1  73
TORSDOF 21
ENDMDL
MODEL 3
REMARK VINA RESULT:     -12.2      6.133      9.604
REMARK SMILES CC1CC[NH+]([C@H](c2ccc(F)cc2)c2ccc([C@@H](C)C(=O)NCCCCCCNC(=O)c3ccc(-c4c5nc(c(-c6c(F)c(F)c(F)c(F)c6F)c6ccc([nH]6)c(-c6c(F)c(F)c(F)c(F)c6F)c6nc(c(-c7c(F)c(F)c(F)c(F)c7F)c7ccc4[nH]7)C=C6)C=C5)cc3)cc2-c2ccc(C(F)(F)F)cc2)CC1
REMARK SMILES IDX 24 1 23 4 22 7 20 8 21 9 18 11 17 13 14 14 15 15 96 16 16 17
REMARK SMILES IDX 95 19 6 22 5 24 2 25 3 26 108 27 4 29 107 32 1 40 7 44 8 45
REMARK SMILES IDX 13 46 9 47 12 49 10 51 11 54 97 55 98 56 106 57 99 58 105 60
REMARK SMILES IDX 100 62 101 65 102 66 103 67 104 68 19 69 25 73 26 76 27 79
REMARK SMILES IDX 28 82 29 85 30 86 31 88 32 89 33 90 94 91 34 92 93 94 35 96
REMARK SMILES IDX 36 99 37 100 87 101 38 102 92 103 86 104 88 105 39 106
REMARK SMILES IDX 91 107 85 109 84 111 40 113 72 116 52 117 71 118 53 119
REMARK SMILES IDX 56 120 70 121 89 122 54 123 55 125 69 127 90 128 57 131
REMARK SMILES IDX 41 133 42 134 50 135 43 136 44 137 48 138 51 139 45 140
REMARK SMILES IDX 46 141 49 142 47 143 73 144 74 145 82 146 75 147 76 148
REMARK SMILES IDX 80 149 83 150 77 151 78 152 81 153 79 154 58 155 59 156
REMARK SMILES IDX 67 157 60 158 61 159 65 160 68 161 62 162 63 163 66 164
REMARK SMILES IDX 64 165
REMARK H PARENT 24 2 24 3 23 5 23 6 22 10 18 12 15 18 16 20 95 21 6 23 2 28
REMARK H PARENT 3 30 3 31 108 33 108 34 4 35 4 36 107 37 107 38 5 39 1 41 1 42
REMARK H PARENT 1 43 8 48 13 50 9 52 12 53 98 59 106 61 99 63 105 64 19 70
REMARK H PARENT 19 71 19 72 25 74 25 75 26 77 26 78 27 80 27 81 28 83 28 84
REMARK H PARENT 29 87 33 93 94 95 34 97 93 98 92 108 86 110 88 112 91 114
REMARK H PARENT 85 115 53 124 56 126 89 129 54 130 90 132
REMARK Flexibility Score: inf
ROOT
ATOM      1  C   UNL A   1      46.779  36.108  26.214  1.00  0.00    -0.036 C 
ATOM      2  H   UNL A   1      47.214  36.632  25.389  1.00  0.00     0.028 H 
ATOM      3  H   UNL A   1      47.489  35.886  26.983  1.00  0.00     0.028 H 
ENDROOT
BRANCH   1   4
ATOM      4  C   UNL A   1      46.242  34.764  25.703  1.00  0.00     0.017 C 
ATOM      5  H   UNL A   1      45.218  34.664  25.999  1.00  0.00     0.049 H 
ATOM      6  H   UNL A   1      46.335  34.750  24.637  1.00  0.00     0.049 H 
BRANCH   4   7
ATOM      7  N   UNL A   1      46.996  33.648  26.237  1.00  0.00    -0.356 N 
ATOM      8  C   UNL A   1      46.676  32.350  26.491  1.00  0.00     0.227 C 
ATOM      9  O   UNL A   1      47.562  31.672  27.028  1.00  0.00    -0.274 OA
ATOM     10  H   UNL A   1      47.928  33.874  26.461  1.00  0.00     0.163 HD
BRANCH   8  11
ATOM     11  C   UNL A   1      45.322  31.697  26.150  1.00  0.00     0.060 C 
ATOM     12  H   UNL A   1      45.352  31.498  25.099  1.00  0.00     0.045 H 
BRANCH  11  13
ATOM     13  C   UNL A   1      45.143  30.327  26.780  1.00  0.00    -0.035 A 
ATOM     14  C   UNL A   1      44.646  27.623  27.594  1.00  0.00     0.022 A 
ATOM     15  C   UNL A   1      45.858  28.037  27.022  1.00  0.00    -0.052 A 
ATOM     16  C   UNL A   1      43.711  28.652  27.899  1.00  0.00    -0.009 A 
ATOM     17  C   UNL A   1      46.134  29.365  26.723  1.00  0.00    -0.058 A 
ATOM     18  H   UNL A   1      46.575  27.323  26.813  1.00  0.00     0.063 H 
ATOM     19  C   UNL A   1      43.946  29.965  27.409  1.00  0.00    -0.050 A 
ATOM     20  H   UNL A   1      47.093  29.638  26.456  1.00  0.00     0.063 H 
ATOM     21  H   UNL A   1      43.207  30.677  27.522  1.00  0.00     0.063 H 
BRANCH  14  22
ATOM     22  C   UNL A   1      44.398  26.125  27.934  1.00  0.00     0.139 C 
ATOM     23  H   UNL A   1      43.347  26.153  28.141  1.00  0.00     0.107 H 
BRANCH  22  24
ATOM     24  N   UNL A   1      45.006  25.576  29.194  1.00  0.00    -0.325 N 
ATOM     25  C   UNL A   1      45.267  25.637  32.109  1.00  0.00    -0.034 C 
ATOM     26  C   UNL A   1      44.518  24.482  31.451  1.00  0.00    -0.001 C 
ATOM     27  C   UNL A   1      46.446  25.996  31.219  1.00  0.00    -0.001 C 
ATOM     28  H   UNL A   1      44.612  26.475  32.221  1.00  0.00     0.030 H 
ATOM     29  C   UNL A   1      44.075  24.796  30.016  1.00  0.00     0.078 C 
ATOM     30  H   UNL A   1      43.648  24.262  32.035  1.00  0.00     0.033 H 
ATOM     31  H   UNL A   1      45.188  23.649  31.404  1.00  0.00     0.033 H 
ATOM     32  C   UNL A   1      45.948  26.473  29.863  1.00  0.00     0.078 C 
ATOM     33  H   UNL A   1      47.065  25.133  31.085  1.00  0.00     0.033 H 
ATOM     34  H   UNL A   1      47.008  26.780  31.682  1.00  0.00     0.033 H 
ATOM     35  H   UNL A   1      43.157  25.343  30.073  1.00  0.00     0.092 H 
ATOM     36  H   UNL A   1      44.000  23.846  29.530  1.00  0.00     0.092 H 
ATOM     37  H   UNL A   1      45.463  27.418  30.001  1.00  0.00     0.092 H 
ATOM     38  H   UNL A   1      46.810  26.524  29.230  1.00  0.00     0.092 H 
ATOM     39  H   UNL A   1      45.654  24.845  28.900  1.00  0.00     0.348 HD
BRANCH  25  40
ATOM     40  C   UNL A   1      45.752  25.257  33.499  1.00  0.00    -0.062 C 
ATOM     41  H   UNL A   1      45.258  24.363  33.817  1.00  0.00     0.023 H 
ATOM     42  H   UNL A   1      45.530  26.050  34.182  1.00  0.00     0.023 H 
ATOM     43  H   UNL A   1      46.808  25.091  33.476  1.00  0.00     0.023 H 
ENDBRANCH  25  40
ENDBRANCH  22  24
BRANCH  22  44
ATOM     44  C   UNL A   1      44.673  25.173  26.752  1.00  0.00     0.014 A 
ATOM     45  C   UNL A   1      43.750  25.001  25.700  1.00  0.00    -0.050 A 
ATOM     46  C   UNL A   1      45.879  24.447  26.707  1.00  0.00    -0.050 A 
ATOM     47  C   UNL A   1      44.035  24.151  24.630  1.00  0.00    -0.026 A 
ATOM     48  H   UNL A   1      42.853  25.510  25.721  1.00  0.00     0.063 H 
ATOM     49  C   UNL A   1      46.143  23.566  25.657  1.00  0.00    -0.026 A 
ATOM     50  H   UNL A   1      46.576  24.568  27.459  1.00  0.00     0.063 H 
ATOM     51  C   UNL A   1      45.225  23.435  24.624  1.00  0.00     0.123 A 
ATOM     52  H   UNL A   1      43.367  24.056  23.850  1.00  0.00     0.065 H 
ATOM     53  H   UNL A   1      47.016  23.016  25.648  1.00  0.00     0.065 H 
ATOM     54  F   UNL A   1      45.489  22.605  23.607  1.00  0.00    -0.207 F 
ENDBRANCH  22  44
ENDBRANCH  14  22
BRANCH  16  55
ATOM     55  C   UNL A   1      42.528  28.452  28.759  1.00  0.00    -0.018 A 
ATOM     56  C   UNL A   1      42.591  28.630  30.149  1.00  0.00    -0.054 A 
ATOM     57  C   UNL A   1      41.311  28.023  28.203  1.00  0.00    -0.054 A 
ATOM     58  C   UNL A   1      41.464  28.422  30.951  1.00  0.00    -0.049 A 
ATOM     59  H   UNL A   1      43.480  28.919  30.586  1.00  0.00     0.063 H 
ATOM     60  C   UNL A   1      40.179  27.827  28.999  1.00  0.00    -0.049 A 
ATOM     61  H   UNL A   1      41.253  27.848  27.187  1.00  0.00     0.063 H 
ATOM     62  C   UNL A   1      40.242  28.034  30.382  1.00  0.00     0.056 A 
ATOM     63  H   UNL A   1      41.532  28.555  31.972  1.00  0.00     0.063 H 
ATOM     64  H   UNL A   1      39.293  27.529  28.564  1.00  0.00     0.063 H 
BRANCH  62  65
ATOM     65  C   UNL A   1      39.030  27.823  31.254  1.00  0.00     0.416 C 
ATOM     66  F   UNL A   1      38.206  26.850  30.775  1.00  0.00    -0.166 F 
ATOM     67  F   UNL A   1      39.353  27.450  32.523  1.00  0.00    -0.166 F 
ATOM     68  F   UNL A   1      38.255  28.938  31.382  1.00  0.00    -0.166 F 
ENDBRANCH  62  65
ENDBRANCH  16  55
ENDBRANCH  11  13
BRANCH  11  69
ATOM     69  C   UNL A   1      44.127  32.639  26.285  1.00  0.00    -0.049 C 
ATOM     70  H   UNL A   1      43.221  32.087  26.150  1.00  0.00     0.024 H 
ATOM     71  H   UNL A   1      44.191  33.406  25.541  1.00  0.00     0.024 H 
ATOM     72  H   UNL A   1      44.132  33.084  27.257  1.00  0.00     0.024 H 
ENDBRANCH  11  69
ENDBRANCH   8  11
ENDBRANCH   4   7
ENDBRANCH   1   4
BRANCH   1  73
ATOM     73  C   UNL A   1      45.711  37.005  26.843  1.00  0.00    -0.052 C 
ATOM     74  H   UNL A   1      45.530  36.660  27.839  1.00  0.00     0.027 H 
ATOM     75  H   UNL A   1      44.850  36.940  26.212  1.00  0.00     0.027 H 
BRANCH  73  76
ATOM     76  C   UNL A   1      46.085  38.492  26.914  1.00  0.00    -0.052 C 
ATOM     77  H   UNL A   1      47.072  38.605  26.517  1.00  0.00     0.027 H 
ATOM     78  H   UNL A   1      46.004  38.770  27.944  1.00  0.00     0.027 H 
BRANCH  76  79
ATOM     79  C   UNL A   1      45.153  39.433  26.143  1.00  0.00    -0.036 C 
ATOM     80  H   UNL A   1      44.502  38.839  25.538  1.00  0.00     0.028 H 
ATOM     81  H   UNL A   1      45.780  40.080  25.564  1.00  0.00     0.028 H 
BRANCH  79  82
ATOM     82  C   UNL A   1      44.298  40.328  27.033  1.00  0.00     0.018 C 
ATOM     83  H   UNL A   1      44.680  41.328  26.993  1.00  0.00     0.049 H 
ATOM     84  H   UNL A   1      44.339  39.948  28.033  1.00  0.00     0.049 H 
BRANCH  82  85
ATOM     85  N   UNL A   1      42.905  40.335  26.600  1.00  0.00    -0.352 N 
ATOM     86  C   UNL A   1      41.988  39.311  26.615  1.00  0.00     0.251 C 
ATOM     87  H   UNL A   1      42.576  41.192  26.248  1.00  0.00     0.163 HD
ATOM     88  O   UNL A   1      40.947  39.388  25.978  1.00  0.00    -0.269 OA
BRANCH  86  89
ATOM     89  C   UNL A   1      42.273  38.113  27.428  1.00  0.00     0.039 A 
ATOM     90  C   UNL A   1      42.727  38.238  28.742  1.00  0.00    -0.049 A 
ATOM     91  C   UNL A   1      42.071  36.854  26.870  1.00  0.00    -0.049 A 
ATOM     92  C   UNL A   1      42.893  37.090  29.523  1.00  0.00    -0.053 A 
ATOM     93  H   UNL A   1      42.936  39.169  29.134  1.00  0.00     0.063 H 
ATOM     94  C   UNL A   1      42.154  35.723  27.670  1.00  0.00    -0.053 A 
ATOM     95  H   UNL A   1      41.859  36.761  25.864  1.00  0.00     0.063 H 
ATOM     96  C   UNL A   1      42.562  35.826  29.007  1.00  0.00    -0.014 A 
ATOM     97  H   UNL A   1      43.261  37.171  30.484  1.00  0.00     0.063 H 
ATOM     98  H   UNL A   1      41.914  34.800  27.277  1.00  0.00     0.063 H 
BRANCH  96  99
ATOM     99  C   UNL A   1      42.616  34.583  29.819  1.00  0.00     0.031 A 
ATOM    100  C   UNL A   1      41.390  34.120  30.558  1.00  0.00     0.074 A 
ATOM    101  C   UNL A   1      43.792  33.950  30.002  1.00  0.00     0.049 A 
ATOM    102  N   UNL A   1      41.271  33.178  31.459  1.00  0.00    -0.248 NA
ATOM    103  C   UNL A   1      40.138  34.841  30.278  1.00  0.00    -0.034 C 
ATOM    104  C   UNL A   1      45.060  34.330  29.383  1.00  0.00    -0.036 A 
ATOM    105  N   UNL A   1      44.115  32.867  30.783  1.00  0.00    -0.354 N 
ATOM    106  C   UNL A   1      39.946  33.214  31.868  1.00  0.00     0.074 A 
ATOM    107  C   UNL A   1      39.312  34.306  31.164  1.00  0.00    -0.034 C 
ATOM    108  H   UNL A   1      39.952  35.574  29.575  1.00  0.00     0.065 H 
ATOM    109  C   UNL A   1      46.019  33.485  29.790  1.00  0.00    -0.036 A 
ATOM    110  H   UNL A   1      45.198  35.123  28.735  1.00  0.00     0.065 H 
ATOM    111  C   UNL A   1      45.447  32.535  30.740  1.00  0.00     0.049 A 
ATOM    112  H   UNL A   1      43.454  32.376  31.322  1.00  0.00     0.167 HD
ATOM    113  C   UNL A   1      39.308  32.390  32.732  1.00  0.00     0.037 A 
ATOM    114  H   UNL A   1      38.344  34.626  31.331  1.00  0.00     0.065 H 
ATOM    115  H   UNL A   1      47.004  33.502  29.480  1.00  0.00     0.065 H 
ATOM    116  C   UNL A   1      46.136  31.586  31.403  1.00  0.00     0.037 A 
ATOM    117  C   UNL A   1      39.936  31.280  33.398  1.00  0.00     0.049 A 
ATOM    118  C   UNL A   1      45.412  30.688  32.369  1.00  0.00     0.074 A 
ATOM    119  C   UNL A   1      39.357  30.340  34.230  1.00  0.00    -0.036 A 
ATOM    120  N   UNL A   1      41.283  30.963  33.307  1.00  0.00    -0.354 N 
ATOM    121  N   UNL A   1      44.144  30.690  32.701  1.00  0.00    -0.248 NA
ATOM    122  C   UNL A   1      46.208  29.659  33.055  1.00  0.00    -0.034 C 
ATOM    123  C   UNL A   1      40.363  29.491  34.692  1.00  0.00    -0.036 A 
ATOM    124  H   UNL A   1      38.354  30.277  34.468  1.00  0.00     0.065 H 
ATOM    125  C   UNL A   1      41.559  29.859  34.095  1.00  0.00     0.049 A 
ATOM    126  H   UNL A   1      41.944  31.449  32.763  1.00  0.00     0.167 HD
ATOM    127  C   UNL A   1      43.983  29.652  33.609  1.00  0.00     0.074 A 
ATOM    128  C   UNL A   1      45.283  29.038  33.777  1.00  0.00    -0.034 C 
ATOM    129  H   UNL A   1      47.220  29.470  32.992  1.00  0.00     0.065 H 
ATOM    130  H   UNL A   1      40.238  28.718  35.365  1.00  0.00     0.065 H 
ATOM    131  C   UNL A   1      42.856  29.247  34.242  1.00  0.00     0.037 A 
ATOM    132  H   UNL A   1      45.468  28.221  34.380  1.00  0.00     0.065 H 
BRANCH 113 133
ATOM    133  C   UNL A   1      37.852  32.643  33.005  1.00  0.00     0.064 A 
ATOM    134  C   UNL A   1      36.876  32.252  32.075  1.00  0.00     0.173 A 
ATOM    135  C   UNL A   1      37.427  33.333  34.151  1.00  0.00     0.173 A 
ATOM    136  F   UNL A   1      37.228  31.597  30.959  1.00  0.00    -0.203 F 
ATOM    137  C   UNL A   1      35.532  32.554  32.277  1.00  0.00     0.198 A 
ATOM    138  C   UNL A   1      36.078  33.600  34.367  1.00  0.00     0.198 A 
ATOM    139  F   UNL A   1      38.318  33.721  35.075  1.00  0.00    -0.203 F 
ATOM    140  F   UNL A   1      34.623  32.203  31.357  1.00  0.00    -0.200 F 
ATOM    141  C   UNL A   1      35.133  33.221  33.426  1.00  0.00     0.200 A 
ATOM    142  F   UNL A   1      35.693  34.222  35.490  1.00  0.00    -0.200 F 
ATOM    143  F   UNL A   1      33.837  33.497  33.626  1.00  0.00    -0.200 F 
ENDBRANCH 113 133
BRANCH 116 144
ATOM    144  C   UNL A   1      47.591  31.427  31.143  1.00  0.00     0.064 A 
ATOM    145  C   UNL A   1      48.542  32.262  31.749  1.00  0.00     0.173 A 
ATOM    146  C   UNL A   1      48.054  30.467  30.231  1.00  0.00     0.173 A 
ATOM    147  F   UNL A   1      48.150  33.201  32.623  1.00  0.00    -0.203 F 
ATOM    148  C   UNL A   1      49.895  32.164  31.430  1.00  0.00     0.198 A 
ATOM    149  C   UNL A   1      49.411  30.353  29.933  1.00  0.00     0.198 A 
ATOM    150  F   UNL A   1      47.186  29.634  29.640  1.00  0.00    -0.203 F 
ATOM    151  F   UNL A   1      50.775  33.006  31.987  1.00  0.00    -0.200 F 
ATOM    152  C   UNL A   1      50.328  31.208  30.524  1.00  0.00     0.200 A 
ATOM    153  F   UNL A   1      49.828  29.414  29.074  1.00  0.00    -0.200 F 
ATOM    154  F   UNL A   1      51.629  31.113  30.218  1.00  0.00    -0.200 F 
ENDBRANCH 116 144
BRANCH 131 155
ATOM    155  C   UNL A   1      42.943  28.063  35.161  1.00  0.00     0.064 A 
ATOM    156  C   UNL A   1      43.520  28.200  36.434  1.00  0.00     0.173 A 
ATOM    157  C   UNL A   1      42.594  26.776  34.732  1.00  0.00     0.173 A 
ATOM    158  F   UNL A   1      43.880  29.412  36.885  1.00  0.00    -0.203 F 
ATOM    159  C   UNL A   1      43.780  27.087  37.226  1.00  0.00     0.198 A 
ATOM    160  C   UNL A   1      42.830  25.667  35.540  1.00  0.00     0.198 A 
ATOM    161  F   UNL A   1      42.030  26.595  33.529  1.00  0.00    -0.203 F 
ATOM    162  F   UNL A   1      44.386  27.237  38.413  1.00  0.00    -0.200 F 
ATOM    163  C   UNL A   1      43.437  25.821  36.778  1.00  0.00     0.200 A 
ATOM    164  F   UNL A   1      42.481  24.444  35.114  1.00  0.00    -0.200 F 
ATOM    165  F   UNL A   1      43.697  24.747  37.537  1.00  0.00    -0.200 F 
ENDBRANCH 131 155
ENDBRANCH  96  99
ENDBRANCH  86  89
ENDBRANCH  82  85
ENDBRANCH  79  82
ENDBRANCH  76  79
ENDBRANCH  73  76
ENDBRANCH   1  73
TORSDOF 21
ENDMDL
MODEL 4
REMARK VINA RESULT:     -12.1      5.350     12.598
REMARK SMILES CC1CC[NH+]([C@H](c2ccc(F)cc2)c2ccc([C@@H](C)C(=O)NCCCCCCNC(=O)c3ccc(-c4c5nc(c(-c6c(F)c(F)c(F)c(F)c6F)c6ccc([nH]6)c(-c6c(F)c(F)c(F)c(F)c6F)c6nc(c(-c7c(F)c(F)c(F)c(F)c7F)c7ccc4[nH]7)C=C6)C=C5)cc3)cc2-c2ccc(C(F)(F)F)cc2)CC1
REMARK SMILES IDX 24 1 23 4 22 7 20 8 21 9 18 11 17 13 14 14 15 15 96 16 16 17
REMARK SMILES IDX 95 19 6 22 5 24 2 25 3 26 108 27 4 29 107 32 1 40 7 44 8 45
REMARK SMILES IDX 13 46 9 47 12 49 10 51 11 54 97 55 98 56 106 57 99 58 105 60
REMARK SMILES IDX 100 62 101 65 102 66 103 67 104 68 19 69 25 73 26 76 27 79
REMARK SMILES IDX 28 82 29 85 30 86 31 88 32 89 33 90 94 91 34 92 93 94 35 96
REMARK SMILES IDX 36 99 37 100 87 101 38 102 92 103 86 104 88 105 39 106
REMARK SMILES IDX 91 107 85 109 84 111 40 113 72 116 52 117 71 118 53 119
REMARK SMILES IDX 56 120 70 121 89 122 54 123 55 125 69 127 90 128 57 131
REMARK SMILES IDX 41 133 42 134 50 135 43 136 44 137 48 138 51 139 45 140
REMARK SMILES IDX 46 141 49 142 47 143 73 144 74 145 82 146 75 147 76 148
REMARK SMILES IDX 80 149 83 150 77 151 78 152 81 153 79 154 58 155 59 156
REMARK SMILES IDX 67 157 60 158 61 159 65 160 68 161 62 162 63 163 66 164
REMARK SMILES IDX 64 165
REMARK H PARENT 24 2 24 3 23 5 23 6 22 10 18 12 15 18 16 20 95 21 6 23 2 28
REMARK H PARENT 3 30 3 31 108 33 108 34 4 35 4 36 107 37 107 38 5 39 1 41 1 42
REMARK H PARENT 1 43 8 48 13 50 9 52 12 53 98 59 106 61 99 63 105 64 19 70
REMARK H PARENT 19 71 19 72 25 74 25 75 26 77 26 78 27 80 27 81 28 83 28 84
REMARK H PARENT 29 87 33 93 94 95 34 97 93 98 92 108 86 110 88 112 91 114
REMARK H PARENT 85 115 53 124 56 126 89 129 54 130 90 132
REMARK Flexibility Score: inf
ROOT
ATOM      1  C   UNL A   1      45.738  23.953  25.115  1.00  0.00    -0.036 C 
ATOM      2  H   UNL A   1      44.922  24.513  24.710  1.00  0.00     0.028 H 
ATOM      3  H   UNL A   1      45.494  23.479  26.042  1.00  0.00     0.028 H 
ENDROOT
BRANCH   1   4
ATOM      4  C   UNL A   1      46.894  24.921  25.402  1.00  0.00     0.017 C 
ATOM      5  H   UNL A   1      46.845  25.224  26.428  1.00  0.00     0.049 H 
ATOM      6  H   UNL A   1      47.814  24.414  25.196  1.00  0.00     0.049 H 
BRANCH   4   7
ATOM      7  N   UNL A   1      46.828  26.099  24.560  1.00  0.00    -0.356 N 
ATOM      8  C   UNL A   1      46.328  27.350  24.753  1.00  0.00     0.227 C 
ATOM      9  O   UNL A   1      46.375  28.105  23.774  1.00  0.00    -0.274 OA
ATOM     10  H   UNL A   1      47.226  25.967  23.669  1.00  0.00     0.163 HD
BRANCH   8  11
ATOM     11  C   UNL A   1      45.736  27.863  26.081  1.00  0.00     0.060 C 
ATOM     12  H   UNL A   1      46.046  27.160  26.828  1.00  0.00     0.045 H 
BRANCH  11  13
ATOM     13  C   UNL A   1      46.344  29.177  26.538  1.00  0.00    -0.035 A 
ATOM     14  C   UNL A   1      47.442  31.508  27.795  1.00  0.00     0.022 A 
ATOM     15  C   UNL A   1      48.225  30.411  27.406  1.00  0.00    -0.052 A 
ATOM     16  C   UNL A   1      46.077  31.479  27.395  1.00  0.00    -0.009 A 
ATOM     17  C   UNL A   1      47.708  29.329  26.706  1.00  0.00    -0.058 A 
ATOM     18  H   UNL A   1      49.228  30.408  27.651  1.00  0.00     0.063 H 
ATOM     19  C   UNL A   1      45.542  30.281  26.852  1.00  0.00    -0.050 A 
ATOM     20  H   UNL A   1      48.351  28.629  26.304  1.00  0.00     0.063 H 
ATOM     21  H   UNL A   1      44.525  30.222  26.682  1.00  0.00     0.063 H 
BRANCH  14  22
ATOM     22  C   UNL A   1      48.077  32.710  28.554  1.00  0.00     0.139 C 
ATOM     23  H   UNL A   1      47.191  33.225  28.862  1.00  0.00     0.107 H 
BRANCH  22  24
ATOM     24  N   UNL A   1      48.837  33.729  27.755  1.00  0.00    -0.325 N 
ATOM     25  C   UNL A   1      48.904  35.721  25.610  1.00  0.00    -0.034 C 
ATOM     26  C   UNL A   1      48.951  36.187  27.062  1.00  0.00    -0.001 C 
ATOM     27  C   UNL A   1      49.717  34.441  25.503  1.00  0.00    -0.001 C 
ATOM     28  H   UNL A   1      47.888  35.547  25.320  1.00  0.00     0.030 H 
ATOM     29  C   UNL A   1      48.466  35.117  28.050  1.00  0.00     0.078 C 
ATOM     30  H   UNL A   1      48.329  37.052  27.164  1.00  0.00     0.033 H 
ATOM     31  H   UNL A   1      49.973  36.400  27.298  1.00  0.00     0.033 H 
ATOM     32  C   UNL A   1      49.092  33.354  26.364  1.00  0.00     0.078 C 
ATOM     33  H   UNL A   1      50.716  34.628  25.837  1.00  0.00     0.033 H 
ATOM     34  H   UNL A   1      49.728  34.118  24.483  1.00  0.00     0.033 H 
ATOM     35  H   UNL A   1      47.398  35.167  28.082  1.00  0.00     0.092 H 
ATOM     36  H   UNL A   1      48.953  35.347  28.974  1.00  0.00     0.092 H 
ATOM     37  H   UNL A   1      48.159  33.075  25.920  1.00  0.00     0.092 H 
ATOM     38  H   UNL A   1      49.804  32.556  26.397  1.00  0.00     0.092 H 
ATOM     39  H   UNL A   1      49.794  33.712  28.108  1.00  0.00     0.348 HD
BRANCH  25  40
ATOM     40  C   UNL A   1      49.461  36.781  24.674  1.00  0.00    -0.062 C 
ATOM     41  H   UNL A   1      50.528  36.807  24.759  1.00  0.00     0.023 H 
ATOM     42  H   UNL A   1      49.059  37.737  24.938  1.00  0.00     0.023 H 
ATOM     43  H   UNL A   1      49.190  36.547  23.666  1.00  0.00     0.023 H 
ENDBRANCH  25  40
ENDBRANCH  22  24
BRANCH  22  44
ATOM     44  C   UNL A   1      48.895  32.290  29.794  1.00  0.00     0.014 A 
ATOM     45  C   UNL A   1      49.789  31.200  29.764  1.00  0.00    -0.050 A 
ATOM     46  C   UNL A   1      48.756  33.007  30.997  1.00  0.00    -0.050 A 
ATOM     47  C   UNL A   1      50.535  30.855  30.893  1.00  0.00    -0.026 A 
ATOM     48  H   UNL A   1      49.894  30.649  28.898  1.00  0.00     0.063 H 
ATOM     49  C   UNL A   1      49.471  32.635  32.137  1.00  0.00    -0.026 A 
ATOM     50  H   UNL A   1      48.118  33.817  31.037  1.00  0.00     0.063 H 
ATOM     51  C   UNL A   1      50.360  31.571  32.071  1.00  0.00     0.123 A 
ATOM     52  H   UNL A   1      51.209  30.076  30.853  1.00  0.00     0.065 H 
ATOM     53  H   UNL A   1      49.340  33.147  33.022  1.00  0.00     0.065 H 
ATOM     54  F   UNL A   1      51.062  31.228  33.160  1.00  0.00    -0.207 F 
ENDBRANCH  22  44
ENDBRANCH  14  22
BRANCH  16  55
ATOM     55  C   UNL A   1      45.184  32.655  27.450  1.00  0.00    -0.018 A 
ATOM     56  C   UNL A   1      44.093  32.709  28.329  1.00  0.00    -0.054 A 
ATOM     57  C   UNL A   1      45.383  33.737  26.576  1.00  0.00    -0.054 A 
ATOM     58  C   UNL A   1      43.249  33.824  28.357  1.00  0.00    -0.049 A 
ATOM     59  H   UNL A   1      43.909  31.915  28.962  1.00  0.00     0.063 H 
ATOM     60  C   UNL A   1      44.551  34.859  26.611  1.00  0.00    -0.049 A 
ATOM     61  H   UNL A   1      46.157  33.701  25.894  1.00  0.00     0.063 H 
ATOM     62  C   UNL A   1      43.479  34.918  27.510  1.00  0.00     0.056 A 
ATOM     63  H   UNL A   1      42.449  33.842  29.009  1.00  0.00     0.063 H 
ATOM     64  H   UNL A   1      44.728  35.649  25.971  1.00  0.00     0.063 H 
BRANCH  62  65
ATOM     65  C   UNL A   1      42.570  36.121  27.558  1.00  0.00     0.416 C 
ATOM     66  F   UNL A   1      43.173  37.207  28.115  1.00  0.00    -0.166 F 
ATOM     67  F   UNL A   1      42.154  36.515  26.322  1.00  0.00    -0.166 F 
ATOM     68  F   UNL A   1      41.434  35.913  28.282  1.00  0.00    -0.166 F 
ENDBRANCH  62  65
ENDBRANCH  16  55
ENDBRANCH  11  13
BRANCH  11  69
ATOM     69  C   UNL A   1      44.213  27.788  26.152  1.00  0.00    -0.049 C 
ATOM     70  H   UNL A   1      43.801  28.768  26.026  1.00  0.00     0.024 H 
ATOM     71  H   UNL A   1      43.918  27.398  27.104  1.00  0.00     0.024 H 
ATOM     72  H   UNL A   1      43.851  27.147  25.376  1.00  0.00     0.024 H 
ENDBRANCH  11  69
ENDBRANCH   8  11
ENDBRANCH   4   7
ENDBRANCH   1   4
BRANCH   1  73
ATOM     73  C   UNL A   1      46.092  22.839  24.128  1.00  0.00    -0.052 C 
ATOM     74  H   UNL A   1      47.054  23.053  23.712  1.00  0.00     0.027 H 
ATOM     75  H   UNL A   1      45.312  22.823  23.396  1.00  0.00     0.027 H 
BRANCH  73  76
ATOM     76  C   UNL A   1      46.139  21.433  24.740  1.00  0.00    -0.052 C 
ATOM     77  H   UNL A   1      46.163  21.535  25.804  1.00  0.00     0.027 H 
ATOM     78  H   UNL A   1      47.012  20.962  24.337  1.00  0.00     0.027 H 
BRANCH  76  79
ATOM     79  C   UNL A   1      44.959  20.525  24.377  1.00  0.00    -0.036 C 
ATOM     80  H   UNL A   1      45.295  19.813  23.654  1.00  0.00     0.028 H 
ATOM     81  H   UNL A   1      44.185  21.163  24.002  1.00  0.00     0.028 H 
BRANCH  79  82
ATOM     82  C   UNL A   1      44.370  19.766  25.561  1.00  0.00     0.018 C 
ATOM     83  H   UNL A   1      44.441  20.378  26.437  1.00  0.00     0.049 H 
ATOM     84  H   UNL A   1      44.922  18.858  25.688  1.00  0.00     0.049 H 
BRANCH  82  85
ATOM     85  N   UNL A   1      42.970  19.426  25.332  1.00  0.00    -0.352 N 
ATOM     86  C   UNL A   1      41.840  19.993  25.873  1.00  0.00     0.251 C 
ATOM     87  H   UNL A   1      42.812  18.688  24.702  1.00  0.00     0.163 HD
ATOM     88  O   UNL A   1      40.756  19.434  25.796  1.00  0.00    -0.269 OA
BRANCH  86  89
ATOM     89  C   UNL A   1      41.954  21.304  26.542  1.00  0.00     0.039 A 
ATOM     90  C   UNL A   1      41.897  21.398  27.933  1.00  0.00    -0.049 A 
ATOM     91  C   UNL A   1      42.133  22.445  25.765  1.00  0.00    -0.049 A 
ATOM     92  C   UNL A   1      42.109  22.638  28.546  1.00  0.00    -0.053 A 
ATOM     93  H   UNL A   1      41.702  20.562  28.504  1.00  0.00     0.063 H 
ATOM     94  C   UNL A   1      42.426  23.656  26.376  1.00  0.00    -0.053 A 
ATOM     95  H   UNL A   1      42.048  22.392  24.738  1.00  0.00     0.063 H 
ATOM     96  C   UNL A   1      42.422  23.768  27.773  1.00  0.00    -0.014 A 
ATOM     97  H   UNL A   1      42.033  22.723  29.572  1.00  0.00     0.063 H 
ATOM     98  H   UNL A   1      42.650  24.481  25.796  1.00  0.00     0.063 H 
BRANCH  96  99
ATOM     99  C   UNL A   1      42.761  25.086  28.370  1.00  0.00     0.031 A 
ATOM    100  C   UNL A   1      44.151  25.336  28.888  1.00  0.00     0.074 A 
ATOM    101  C   UNL A   1      41.793  26.002  28.569  1.00  0.00     0.049 A 
ATOM    102  N   UNL A   1      44.602  26.335  29.603  1.00  0.00    -0.248 NA
ATOM    103  C   UNL A   1      45.160  24.303  28.599  1.00  0.00    -0.034 C 
ATOM    104  C   UNL A   1      40.397  25.858  28.160  1.00  0.00    -0.036 A 
ATOM    105  N   UNL A   1      41.832  27.227  29.191  1.00  0.00    -0.354 N 
ATOM    106  C   UNL A   1      45.931  26.037  29.870  1.00  0.00     0.074 A 
ATOM    107  C   UNL A   1      46.201  24.739  29.292  1.00  0.00    -0.034 C 
ATOM    108  H   UNL A   1      45.077  23.459  28.011  1.00  0.00     0.065 H 
ATOM    109  C   UNL A   1      39.717  26.957  28.521  1.00  0.00    -0.036 A 
ATOM    110  H   UNL A   1      39.997  25.041  27.671  1.00  0.00     0.065 H 
ATOM    111  C   UNL A   1      40.614  27.861  29.235  1.00  0.00     0.049 A 
ATOM    112  H   UNL A   1      42.655  27.613  29.569  1.00  0.00     0.167 HD
ATOM    113  C   UNL A   1      46.851  26.793  30.513  1.00  0.00     0.037 A 
ATOM    114  H   UNL A   1      47.087  24.221  29.406  1.00  0.00     0.065 H 
ATOM    115  H   UNL A   1      38.719  27.135  28.325  1.00  0.00     0.065 H 
ATOM    116  C   UNL A   1      40.254  29.029  29.803  1.00  0.00     0.037 A 
ATOM    117  C   UNL A   1      46.586  28.100  31.049  1.00  0.00     0.049 A 
ATOM    118  C   UNL A   1      41.289  29.848  30.525  1.00  0.00     0.074 A 
ATOM    119  C   UNL A   1      47.471  28.978  31.649  1.00  0.00    -0.036 A 
ATOM    120  N   UNL A   1      45.343  28.717  31.051  1.00  0.00    -0.354 N 
ATOM    121  N   UNL A   1      42.559  29.586  30.716  1.00  0.00    -0.248 NA
ATOM    122  C   UNL A   1      40.845  31.121  31.112  1.00  0.00    -0.034 C 
ATOM    123  C   UNL A   1      46.753  30.099  32.069  1.00  0.00    -0.036 A 
ATOM    124  H   UNL A   1      48.486  28.829  31.765  1.00  0.00     0.065 H 
ATOM    125  C   UNL A   1      45.434  29.952  31.671  1.00  0.00     0.049 A 
ATOM    126  H   UNL A   1      44.521  28.335  30.669  1.00  0.00     0.167 HD
ATOM    127  C   UNL A   1      43.072  30.668  31.418  1.00  0.00     0.074 A 
ATOM    128  C   UNL A   1      41.977  31.594  31.619  1.00  0.00    -0.034 C 
ATOM    129  H   UNL A   1      39.902  31.538  31.126  1.00  0.00     0.065 H 
ATOM    130  H   UNL A   1      47.141  30.903  32.588  1.00  0.00     0.065 H 
ATOM    131  C   UNL A   1      44.339  30.872  31.852  1.00  0.00     0.037 A 
ATOM    132  H   UNL A   1      42.066  32.505  32.095  1.00  0.00     0.065 H 
BRANCH 113 133
ATOM    133  C   UNL A   1      48.238  26.236  30.668  1.00  0.00     0.064 A 
ATOM    134  C   UNL A   1      48.609  25.564  31.843  1.00  0.00     0.173 A 
ATOM    135  C   UNL A   1      49.221  26.427  29.685  1.00  0.00     0.173 A 
ATOM    136  F   UNL A   1      47.711  25.361  32.819  1.00  0.00    -0.203 F 
ATOM    137  C   UNL A   1      49.914  25.116  32.032  1.00  0.00     0.198 A 
ATOM    138  C   UNL A   1      50.516  25.946  29.862  1.00  0.00     0.198 A 
ATOM    139  F   UNL A   1      48.918  27.056  28.539  1.00  0.00    -0.203 F 
ATOM    140  F   UNL A   1      50.252  24.510  33.178  1.00  0.00    -0.200 F 
ATOM    141  C   UNL A   1      50.864  25.301  31.039  1.00  0.00     0.200 A 
ATOM    142  F   UNL A   1      51.424  26.102  28.890  1.00  0.00    -0.200 F 
ATOM    143  F   UNL A   1      52.115  24.856  31.217  1.00  0.00    -0.200 F 
ENDBRANCH 113 133
BRANCH 116 144
ATOM    144  C   UNL A   1      38.849  29.496  29.676  1.00  0.00     0.064 A 
ATOM    145  C   UNL A   1      38.333  29.953  28.453  1.00  0.00     0.173 A 
ATOM    146  C   UNL A   1      38.009  29.551  30.797  1.00  0.00     0.173 A 
ATOM    147  F   UNL A   1      39.098  29.929  27.351  1.00  0.00    -0.203 F 
ATOM    148  C   UNL A   1      37.044  30.473  28.363  1.00  0.00     0.198 A 
ATOM    149  C   UNL A   1      36.710  30.047  30.700  1.00  0.00     0.198 A 
ATOM    150  F   UNL A   1      38.449  29.110  31.984  1.00  0.00    -0.203 F 
ATOM    151  F   UNL A   1      36.594  30.946  27.193  1.00  0.00    -0.200 F 
ATOM    152  C   UNL A   1      36.232  30.517  29.487  1.00  0.00     0.200 A 
ATOM    153  F   UNL A   1      35.922  30.068  31.783  1.00  0.00    -0.200 F 
ATOM    154  F   UNL A   1      34.991  31.016  29.400  1.00  0.00    -0.200 F 
ENDBRANCH 116 144
BRANCH 131 155
ATOM    155  C   UNL A   1      44.648  32.155  32.567  1.00  0.00     0.064 A 
ATOM    156  C   UNL A   1      44.253  32.330  33.904  1.00  0.00     0.173 A 
ATOM    157  C   UNL A   1      45.196  33.255  31.894  1.00  0.00     0.173 A 
ATOM    158  F   UNL A   1      43.714  31.308  34.587  1.00  0.00    -0.203 F 
ATOM    159  C   UNL A   1      44.361  33.568  34.526  1.00  0.00     0.198 A 
ATOM    160  C   UNL A   1      45.329  34.487  32.530  1.00  0.00     0.198 A 
ATOM    161  F   UNL A   1      45.598  33.135  30.620  1.00  0.00    -0.203 F 
ATOM    162  F   UNL A   1      43.923  33.726  35.784  1.00  0.00    -0.200 F 
ATOM    163  C   UNL A   1      44.896  34.647  33.839  1.00  0.00     0.200 A 
ATOM    164  F   UNL A   1      45.863  35.524  31.871  1.00  0.00    -0.200 F 
ATOM    165  F   UNL A   1      44.990  35.843  34.435  1.00  0.00    -0.200 F 
ENDBRANCH 131 155
ENDBRANCH  96  99
ENDBRANCH  86  89
ENDBRANCH  82  85
ENDBRANCH  79  82
ENDBRANCH  76  79
ENDBRANCH  73  76
ENDBRANCH   1  73
TORSDOF 21
ENDMDL
MODEL 5
REMARK VINA RESULT:     -12.0      5.678      9.852
REMARK SMILES CC1CC[NH+]([C@H](c2ccc(F)cc2)c2ccc([C@@H](C)C(=O)NCCCCCCNC(=O)c3ccc(-c4c5nc(c(-c6c(F)c(F)c(F)c(F)c6F)c6ccc([nH]6)c(-c6c(F)c(F)c(F)c(F)c6F)c6nc(c(-c7c(F)c(F)c(F)c(F)c7F)c7ccc4[nH]7)C=C6)C=C5)cc3)cc2-c2ccc(C(F)(F)F)cc2)CC1
REMARK SMILES IDX 24 1 23 4 22 7 20 8 21 9 18 11 17 13 14 14 15 15 96 16 16 17
REMARK SMILES IDX 95 19 6 22 5 24 2 25 3 26 108 27 4 29 107 32 1 40 7 44 8 45
REMARK SMILES IDX 13 46 9 47 12 49 10 51 11 54 97 55 98 56 106 57 99 58 105 60
REMARK SMILES IDX 100 62 101 65 102 66 103 67 104 68 19 69 25 73 26 76 27 79
REMARK SMILES IDX 28 82 29 85 30 86 31 88 32 89 33 90 94 91 34 92 93 94 35 96
REMARK SMILES IDX 36 99 37 100 87 101 38 102 92 103 86 104 88 105 39 106
REMARK SMILES IDX 91 107 85 109 84 111 40 113 72 116 52 117 71 118 53 119
REMARK SMILES IDX 56 120 70 121 89 122 54 123 55 125 69 127 90 128 57 131
REMARK SMILES IDX 41 133 42 134 50 135 43 136 44 137 48 138 51 139 45 140
REMARK SMILES IDX 46 141 49 142 47 143 73 144 74 145 82 146 75 147 76 148
REMARK SMILES IDX 80 149 83 150 77 151 78 152 81 153 79 154 58 155 59 156
REMARK SMILES IDX 67 157 60 158 61 159 65 160 68 161 62 162 63 163 66 164
REMARK SMILES IDX 64 165
REMARK H PARENT 24 2 24 3 23 5 23 6 22 10 18 12 15 18 16 20 95 21 6 23 2 28
REMARK H PARENT 3 30 3 31 108 33 108 34 4 35 4 36 107 37 107 38 5 39 1 41 1 42
REMARK H PARENT 1 43 8 48 13 50 9 52 12 53 98 59 106 61 99 63 105 64 19 70
REMARK H PARENT 19 71 19 72 25 74 25 75 26 77 26 78 27 80 27 81 28 83 28 84
REMARK H PARENT 29 87 33 93 94 95 34 97 93 98 92 108 86 110 88 112 91 114
REMARK H PARENT 85 115 53 124 56 126 89 129 54 130 90 132
REMARK Flexibility Score: inf
ROOT
ATOM      1  C   UNL A   1      42.903  36.951  26.490  1.00  0.00    -0.036 C 
ATOM      2  H   UNL A   1      42.975  37.289  25.478  1.00  0.00     0.028 H 
ATOM      3  H   UNL A   1      43.847  36.953  26.994  1.00  0.00     0.028 H 
ENDROOT
BRANCH   1   4
ATOM      4  C   UNL A   1      42.410  35.498  26.480  1.00  0.00     0.017 C 
ATOM      5  H   UNL A   1      42.702  35.026  27.395  1.00  0.00     0.049 H 
ATOM      6  H   UNL A   1      41.344  35.508  26.378  1.00  0.00     0.049 H 
BRANCH   4   7
ATOM      7  N   UNL A   1      42.963  34.751  25.369  1.00  0.00    -0.356 N 
ATOM      8  C   UNL A   1      44.136  34.083  25.193  1.00  0.00     0.227 C 
ATOM      9  O   UNL A   1      44.320  33.607  24.065  1.00  0.00    -0.274 OA
ATOM     10  H   UNL A   1      42.372  34.720  24.582  1.00  0.00     0.163 HD
BRANCH   8  11
ATOM     11  C   UNL A   1      45.205  33.886  26.286  1.00  0.00     0.060 C 
ATOM     12  H   UNL A   1      44.847  34.418  27.143  1.00  0.00     0.045 H 
BRANCH  11  13
ATOM     13  C   UNL A   1      45.314  32.449  26.763  1.00  0.00    -0.035 A 
ATOM     14  C   UNL A   1      45.545  29.633  27.254  1.00  0.00     0.022 A 
ATOM     15  C   UNL A   1      46.655  30.488  27.183  1.00  0.00    -0.052 A 
ATOM     16  C   UNL A   1      44.267  30.258  27.223  1.00  0.00    -0.009 A 
ATOM     17  C   UNL A   1      46.534  31.865  27.047  1.00  0.00    -0.058 A 
ATOM     18  H   UNL A   1      47.600  30.077  27.232  1.00  0.00     0.063 H 
ATOM     19  C   UNL A   1      44.180  31.637  26.895  1.00  0.00    -0.050 A 
ATOM     20  H   UNL A   1      47.368  32.463  27.161  1.00  0.00     0.063 H 
ATOM     21  H   UNL A   1      43.248  32.056  26.748  1.00  0.00     0.063 H 
BRANCH  14  22
ATOM     22  C   UNL A   1      45.734  28.098  27.434  1.00  0.00     0.139 C 
ATOM     23  H   UNL A   1      46.518  27.924  26.726  1.00  0.00     0.107 H 
BRANCH  22  24
ATOM     24  N   UNL A   1      44.624  27.192  26.984  1.00  0.00    -0.325 N 
ATOM     25  C   UNL A   1      43.704  24.536  26.164  1.00  0.00    -0.034 C 
ATOM     26  C   UNL A   1      43.293  25.080  27.530  1.00  0.00    -0.001 C 
ATOM     27  C   UNL A   1      43.698  25.695  25.180  1.00  0.00    -0.001 C 
ATOM     28  H   UNL A   1      44.679  24.101  26.227  1.00  0.00     0.030 H 
ATOM     29  C   UNL A   1      44.182  26.237  28.005  1.00  0.00     0.078 C 
ATOM     30  H   UNL A   1      43.355  24.286  28.246  1.00  0.00     0.033 H 
ATOM     31  H   UNL A   1      42.296  25.458  27.439  1.00  0.00     0.033 H 
ATOM     32  C   UNL A   1      44.725  26.737  25.598  1.00  0.00     0.078 C 
ATOM     33  H   UNL A   1      42.727  26.141  25.164  1.00  0.00     0.033 H 
ATOM     34  H   UNL A   1      43.947  25.328  24.206  1.00  0.00     0.033 H 
ATOM     35  H   UNL A   1      45.056  25.811  28.451  1.00  0.00     0.092 H 
ATOM     36  H   UNL A   1      43.569  26.805  28.674  1.00  0.00     0.092 H 
ATOM     37  H   UNL A   1      45.700  26.317  25.458  1.00  0.00     0.092 H 
ATOM     38  H   UNL A   1      44.540  27.597  24.988  1.00  0.00     0.092 H 
ATOM     39  H   UNL A   1      43.793  27.779  26.904  1.00  0.00     0.348 HD
BRANCH  25  40
ATOM     40  C   UNL A   1      42.755  23.444  25.699  1.00  0.00    -0.062 C 
ATOM     41  H   UNL A   1      41.969  23.325  26.415  1.00  0.00     0.023 H 
ATOM     42  H   UNL A   1      43.291  22.523  25.602  1.00  0.00     0.023 H 
ATOM     43  H   UNL A   1      42.336  23.713  24.753  1.00  0.00     0.023 H 
ENDBRANCH  25  40
ENDBRANCH  22  24
BRANCH  22  44
ATOM     44  C   UNL A   1      46.207  27.699  28.847  1.00  0.00     0.014 A 
ATOM     45  C   UNL A   1      47.233  26.754  29.052  1.00  0.00    -0.050 A 
ATOM     46  C   UNL A   1      45.607  28.288  29.975  1.00  0.00    -0.050 A 
ATOM     47  C   UNL A   1      47.658  26.428  30.341  1.00  0.00    -0.026 A 
ATOM     48  H   UNL A   1      47.676  26.297  28.240  1.00  0.00     0.063 H 
ATOM     49  C   UNL A   1      46.005  27.930  31.265  1.00  0.00    -0.026 A 
ATOM     50  H   UNL A   1      44.863  28.993  29.849  1.00  0.00     0.063 H 
ATOM     51  C   UNL A   1      47.033  27.012  31.435  1.00  0.00     0.123 A 
ATOM     52  H   UNL A   1      48.430  25.759  30.480  1.00  0.00     0.065 H 
ATOM     53  H   UNL A   1      45.538  28.344  32.087  1.00  0.00     0.065 H 
ATOM     54  F   UNL A   1      47.428  26.685  32.672  1.00  0.00    -0.207 F 
ENDBRANCH  22  44
ENDBRANCH  14  22
BRANCH  16  55
ATOM     55  C   UNL A   1      43.011  29.567  27.580  1.00  0.00    -0.018 A 
ATOM     56  C   UNL A   1      42.139  29.074  26.599  1.00  0.00    -0.054 A 
ATOM     57  C   UNL A   1      42.634  29.432  28.927  1.00  0.00    -0.054 A 
ATOM     58  C   UNL A   1      40.946  28.435  26.954  1.00  0.00    -0.049 A 
ATOM     59  H   UNL A   1      42.379  29.185  25.601  1.00  0.00     0.063 H 
ATOM     60  C   UNL A   1      41.451  28.781  29.287  1.00  0.00    -0.049 A 
ATOM     61  H   UNL A   1      43.243  29.821  29.664  1.00  0.00     0.063 H 
ATOM     62  C   UNL A   1      40.598  28.268  28.303  1.00  0.00     0.056 A 
ATOM     63  H   UNL A   1      40.316  28.083  26.217  1.00  0.00     0.063 H 
ATOM     64  H   UNL A   1      41.205  28.679  30.283  1.00  0.00     0.063 H 
BRANCH  62  65
ATOM     65  C   UNL A   1      39.316  27.566  28.675  1.00  0.00     0.416 C 
ATOM     66  F   UNL A   1      38.975  26.596  27.782  1.00  0.00    -0.166 F 
ATOM     67  F   UNL A   1      39.386  26.952  29.888  1.00  0.00    -0.166 F 
ATOM     68  F   UNL A   1      38.242  28.403  28.745  1.00  0.00    -0.166 F 
ENDBRANCH  62  65
ENDBRANCH  16  55
ENDBRANCH  11  13
BRANCH  11  69
ATOM     69  C   UNL A   1      46.534  34.577  25.986  1.00  0.00    -0.049 C 
ATOM     70  H   UNL A   1      47.306  33.841  25.893  1.00  0.00     0.024 H 
ATOM     71  H   UNL A   1      46.775  35.248  26.784  1.00  0.00     0.024 H 
ATOM     72  H   UNL A   1      46.453  35.125  25.071  1.00  0.00     0.024 H 
ENDBRANCH  11  69
ENDBRANCH   8  11
ENDBRANCH   4   7
ENDBRANCH   1   4
BRANCH   1  73
ATOM     73  C   UNL A   1      41.991  37.912  27.254  1.00  0.00    -0.052 C 
ATOM     74  H   UNL A   1      42.480  38.182  28.167  1.00  0.00     0.027 H 
ATOM     75  H   UNL A   1      41.067  37.396  27.408  1.00  0.00     0.027 H 
BRANCH  73  76
ATOM     76  C   UNL A   1      41.645  39.202  26.499  1.00  0.00    -0.052 C 
ATOM     77  H   UNL A   1      40.672  39.517  26.809  1.00  0.00     0.027 H 
ATOM     78  H   UNL A   1      41.705  38.962  25.457  1.00  0.00     0.027 H 
BRANCH  76  79
ATOM     79  C   UNL A   1      42.615  40.367  26.724  1.00  0.00    -0.036 C 
ATOM     80  H   UNL A   1      42.152  41.262  26.365  1.00  0.00     0.028 H 
ATOM     81  H   UNL A   1      43.514  40.125  26.195  1.00  0.00     0.028 H 
BRANCH  79  82
ATOM     82  C   UNL A   1      43.005  40.580  28.182  1.00  0.00     0.018 C 
ATOM     83  H   UNL A   1      42.729  39.713  28.747  1.00  0.00     0.049 H 
ATOM     84  H   UNL A   1      42.493  41.447  28.545  1.00  0.00     0.049 H 
BRANCH  82  85
ATOM     85  N   UNL A   1      44.439  40.800  28.323  1.00  0.00    -0.352 N 
ATOM     86  C   UNL A   1      45.373  40.038  28.984  1.00  0.00     0.251 C 
ATOM     87  H   UNL A   1      44.788  41.608  27.884  1.00  0.00     0.163 HD
ATOM     88  O   UNL A   1      46.482  40.483  29.242  1.00  0.00    -0.269 OA
BRANCH  86  89
ATOM     89  C   UNL A   1      45.019  38.658  29.369  1.00  0.00     0.039 A 
ATOM     90  C   UNL A   1      45.448  37.574  28.601  1.00  0.00    -0.049 A 
ATOM     91  C   UNL A   1      44.260  38.451  30.518  1.00  0.00    -0.049 A 
ATOM     92  C   UNL A   1      45.185  36.273  29.043  1.00  0.00    -0.053 A 
ATOM     93  H   UNL A   1      45.956  37.731  27.718  1.00  0.00     0.063 H 
ATOM     94  C   UNL A   1      44.074  37.163  30.998  1.00  0.00    -0.053 A 
ATOM     95  H   UNL A   1      43.838  39.253  31.012  1.00  0.00     0.063 H 
ATOM     96  C   UNL A   1      44.536  36.057  30.271  1.00  0.00    -0.014 A 
ATOM     97  H   UNL A   1      45.468  35.467  28.464  1.00  0.00     0.063 H 
ATOM     98  H   UNL A   1      43.591  37.017  31.899  1.00  0.00     0.063 H 
BRANCH  96  99
ATOM     99  C   UNL A   1      44.323  34.703  30.844  1.00  0.00     0.031 A 
ATOM    100  C   UNL A   1      42.950  34.089  30.817  1.00  0.00     0.074 A 
ATOM    101  C   UNL A   1      45.324  34.088  31.504  1.00  0.00     0.049 A 
ATOM    102  N   UNL A   1      42.512  33.011  31.417  1.00  0.00    -0.248 NA
ATOM    103  C   UNL A   1      41.921  34.805  30.045  1.00  0.00    -0.034 C 
ATOM    104  C   UNL A   1      46.684  34.603  31.646  1.00  0.00    -0.036 A 
ATOM    105  N   UNL A   1      45.342  32.905  32.203  1.00  0.00    -0.354 N 
ATOM    106  C   UNL A   1      41.158  32.938  31.118  1.00  0.00     0.074 A 
ATOM    107  C   UNL A   1      40.832  34.108  30.334  1.00  0.00    -0.034 C 
ATOM    108  H   UNL A   1      42.021  35.634  29.439  1.00  0.00     0.065 H 
ATOM    109  C   UNL A   1      47.411  33.735  32.366  1.00  0.00    -0.036 A 
ATOM    110  H   UNL A   1      47.032  35.493  31.254  1.00  0.00     0.065 H 
ATOM    111  C   UNL A   1      46.556  32.627  32.783  1.00  0.00     0.049 A 
ATOM    112  H   UNL A   1      44.559  32.312  32.280  1.00  0.00     0.167 HD
ATOM    113  C   UNL A   1      40.275  31.967  31.446  1.00  0.00     0.037 A 
ATOM    114  H   UNL A   1      39.877  34.366  30.039  1.00  0.00     0.065 H 
ATOM    115  H   UNL A   1      48.414  33.833  32.588  1.00  0.00     0.065 H 
ATOM    116  C   UNL A   1      46.934  31.607  33.578  1.00  0.00     0.037 A 
ATOM    117  C   UNL A   1      40.616  30.786  32.192  1.00  0.00     0.049 A 
ATOM    118  C   UNL A   1      45.934  30.544  33.941  1.00  0.00     0.074 A 
ATOM    119  C   UNL A   1      39.811  29.707  32.506  1.00  0.00    -0.036 A 
ATOM    120  N   UNL A   1      41.865  30.532  32.741  1.00  0.00    -0.354 N 
ATOM    121  N   UNL A   1      44.672  30.451  33.600  1.00  0.00    -0.248 NA
ATOM    122  C   UNL A   1      46.404  29.445  34.798  1.00  0.00    -0.034 C 
ATOM    123  C   UNL A   1      40.553  28.828  33.297  1.00  0.00    -0.036 A 
ATOM    124  H   UNL A   1      38.832  29.575  32.207  1.00  0.00     0.065 H 
ATOM    125  C   UNL A   1      41.841  29.325  33.420  1.00  0.00     0.049 A 
ATOM    126  H   UNL A   1      42.650  31.120  32.660  1.00  0.00     0.167 HD
ATOM    127  C   UNL A   1      44.204  29.277  34.174  1.00  0.00     0.074 A 
ATOM    128  C   UNL A   1      45.318  28.686  34.885  1.00  0.00    -0.034 C 
ATOM    129  H   UNL A   1      47.334  29.301  35.221  1.00  0.00     0.065 H 
ATOM    130  H   UNL A   1      40.201  27.954  33.719  1.00  0.00     0.065 H 
ATOM    131  C   UNL A   1      42.962  28.740  34.112  1.00  0.00     0.037 A 
ATOM    132  H   UNL A   1      45.273  27.790  35.395  1.00  0.00     0.065 H 
BRANCH 113 133
ATOM    133  C   UNL A   1      38.851  32.126  30.992  1.00  0.00     0.064 A 
ATOM    134  C   UNL A   1      38.459  31.692  29.716  1.00  0.00     0.173 A 
ATOM    135  C   UNL A   1      37.892  32.770  31.788  1.00  0.00     0.173 A 
ATOM    136  F   UNL A   1      39.337  31.078  28.909  1.00  0.00    -0.203 F 
ATOM    137  C   UNL A   1      37.163  31.907  29.252  1.00  0.00     0.198 A 
ATOM    138  C   UNL A   1      36.588  32.951  31.335  1.00  0.00     0.198 A 
ATOM    139  F   UNL A   1      38.213  33.197  33.019  1.00  0.00    -0.203 F 
ATOM    140  F   UNL A   1      36.823  31.516  28.016  1.00  0.00    -0.200 F 
ATOM    141  C   UNL A   1      36.228  32.530  30.065  1.00  0.00     0.200 A 
ATOM    142  F   UNL A   1      35.679  33.529  32.132  1.00  0.00    -0.200 F 
ATOM    143  F   UNL A   1      34.977  32.723  29.622  1.00  0.00    -0.200 F 
ENDBRANCH 113 133
BRANCH 116 144
ATOM    144  C   UNL A   1      48.341  31.539  34.054  1.00  0.00     0.064 A 
ATOM    145  C   UNL A   1      48.762  32.225  35.204  1.00  0.00     0.173 A 
ATOM    146  C   UNL A   1      49.308  30.830  33.327  1.00  0.00     0.173 A 
ATOM    147  F   UNL A   1      47.878  32.924  35.930  1.00  0.00    -0.203 F 
ATOM    148  C   UNL A   1      50.101  32.228  35.591  1.00  0.00     0.198 A 
ATOM    149  C   UNL A   1      50.642  30.812  33.731  1.00  0.00     0.198 A 
ATOM    150  F   UNL A   1      48.952  30.144  32.233  1.00  0.00    -0.203 F 
ATOM    151  F   UNL A   1      50.484  32.930  36.666  1.00  0.00    -0.200 F 
ATOM    152  C   UNL A   1      51.039  31.519  34.856  1.00  0.00     0.200 A 
ATOM    153  F   UNL A   1      51.542  30.109  33.030  1.00  0.00    -0.200 F 
ATOM    154  F   UNL A   1      52.326  31.521  35.229  1.00  0.00    -0.200 F 
ENDBRANCH 116 144
BRANCH 131 155
ATOM    155  C   UNL A   1      42.719  27.428  34.800  1.00  0.00     0.064 A 
ATOM    156  C   UNL A   1      43.121  26.228  34.191  1.00  0.00     0.173 A 
ATOM    157  C   UNL A   1      41.965  27.348  35.978  1.00  0.00     0.173 A 
ATOM    158  F   UNL A   1      43.836  26.253  33.056  1.00  0.00    -0.203 F 
ATOM    159  C   UNL A   1      42.743  24.997  34.717  1.00  0.00     0.198 A 
ATOM    160  C   UNL A   1      41.614  26.113  36.517  1.00  0.00     0.198 A 
ATOM    161  F   UNL A   1      41.567  28.467  36.602  1.00  0.00    -0.203 F 
ATOM    162  F   UNL A   1      43.089  23.865  34.086  1.00  0.00    -0.200 F 
ATOM    163  C   UNL A   1      41.988  24.940  35.878  1.00  0.00     0.200 A 
ATOM    164  F   UNL A   1      40.899  26.059  37.650  1.00  0.00    -0.200 F 
ATOM    165  F   UNL A   1      41.615  23.754  36.379  1.00  0.00    -0.200 F 
ENDBRANCH 131 155
ENDBRANCH  96  99
ENDBRANCH  86  89
ENDBRANCH  82  85
ENDBRANCH  79  82
ENDBRANCH  76  79
ENDBRANCH  73  76
ENDBRANCH   1  73
TORSDOF 21
ENDMDL
MODEL 6
REMARK VINA RESULT:     -11.8      7.841     14.878
REMARK SMILES CC1CC[NH+]([C@H](c2ccc(F)cc2)c2ccc([C@@H](C)C(=O)NCCCCCCNC(=O)c3ccc(-c4c5nc(c(-c6c(F)c(F)c(F)c(F)c6F)c6ccc([nH]6)c(-c6c(F)c(F)c(F)c(F)c6F)c6nc(c(-c7c(F)c(F)c(F)c(F)c7F)c7ccc4[nH]7)C=C6)C=C5)cc3)cc2-c2ccc(C(F)(F)F)cc2)CC1
REMARK SMILES IDX 24 1 23 4 22 7 20 8 21 9 18 11 17 13 14 14 15 15 96 16 16 17
REMARK SMILES IDX 95 19 6 22 5 24 2 25 3 26 108 27 4 29 107 32 1 40 7 44 8 45
REMARK SMILES IDX 13 46 9 47 12 49 10 51 11 54 97 55 98 56 106 57 99 58 105 60
REMARK SMILES IDX 100 62 101 65 102 66 103 67 104 68 19 69 25 73 26 76 27 79
REMARK SMILES IDX 28 82 29 85 30 86 31 88 32 89 33 90 94 91 34 92 93 94 35 96
REMARK SMILES IDX 36 99 37 100 87 101 38 102 92 103 86 104 88 105 39 106
REMARK SMILES IDX 91 107 85 109 84 111 40 113 72 116 52 117 71 118 53 119
REMARK SMILES IDX 56 120 70 121 89 122 54 123 55 125 69 127 90 128 57 131
REMARK SMILES IDX 41 133 42 134 50 135 43 136 44 137 48 138 51 139 45 140
REMARK SMILES IDX 46 141 49 142 47 143 73 144 74 145 82 146 75 147 76 148
REMARK SMILES IDX 80 149 83 150 77 151 78 152 81 153 79 154 58 155 59 156
REMARK SMILES IDX 67 157 60 158 61 159 65 160 68 161 62 162 63 163 66 164
REMARK SMILES IDX 64 165
REMARK H PARENT 24 2 24 3 23 5 23 6 22 10 18 12 15 18 16 20 95 21 6 23 2 28
REMARK H PARENT 3 30 3 31 108 33 108 34 4 35 4 36 107 37 107 38 5 39 1 41 1 42
REMARK H PARENT 1 43 8 48 13 50 9 52 12 53 98 59 106 61 99 63 105 64 19 70
REMARK H PARENT 19 71 19 72 25 74 25 75 26 77 26 78 27 80 27 81 28 83 28 84
REMARK H PARENT 29 87 33 93 94 95 34 97 93 98 92 108 86 110 88 112 91 114
REMARK H PARENT 85 115 53 124 56 126 89 129 54 130 90 132
REMARK Flexibility Score: inf
ROOT
ATOM      1  C   UNL A   1      46.485  42.246  33.143  1.00  0.00    -0.036 C 
ATOM      2  H   UNL A   1      47.192  41.976  33.899  1.00  0.00     0.028 H 
ATOM      3  H   UNL A   1      46.732  43.166  32.656  1.00  0.00     0.028 H 
ENDROOT
BRANCH   1   4
ATOM      4  C   UNL A   1      45.118  42.449  33.810  1.00  0.00     0.017 C 
ATOM      5  H   UNL A   1      44.434  41.719  33.430  1.00  0.00     0.049 H 
ATOM      6  H   UNL A   1      45.244  42.343  34.868  1.00  0.00     0.049 H 
BRANCH   4   7
ATOM      7  N   UNL A   1      44.586  43.772  33.549  1.00  0.00    -0.356 N 
ATOM      8  C   UNL A   1      43.651  44.240  32.678  1.00  0.00     0.227 C 
ATOM      9  O   UNL A   1      43.488  45.467  32.671  1.00  0.00    -0.274 OA
ATOM     10  H   UNL A   1      44.981  44.473  34.117  1.00  0.00     0.163 HD
BRANCH   8  11
ATOM     11  C   UNL A   1      42.805  43.355  31.740  1.00  0.00     0.060 C 
ATOM     12  H   UNL A   1      42.116  44.018  31.259  1.00  0.00     0.045 H 
BRANCH  11  13
ATOM     13  C   UNL A   1      43.606  42.762  30.595  1.00  0.00    -0.035 A 
ATOM     14  C   UNL A   1      44.873  41.877  28.180  1.00  0.00     0.022 A 
ATOM     15  C   UNL A   1      45.311  42.996  28.905  1.00  0.00    -0.052 A 
ATOM     16  C   UNL A   1      43.849  41.096  28.786  1.00  0.00    -0.009 A 
ATOM     17  C   UNL A   1      44.761  43.361  30.127  1.00  0.00    -0.058 A 
ATOM     18  H   UNL A   1      46.073  43.572  28.514  1.00  0.00     0.063 H 
ATOM     19  C   UNL A   1      43.184  41.602  29.934  1.00  0.00    -0.050 A 
ATOM     20  H   UNL A   1      45.221  44.089  30.695  1.00  0.00     0.063 H 
ATOM     21  H   UNL A   1      42.359  41.096  30.295  1.00  0.00     0.063 H 
BRANCH  14  22
ATOM     22  C   UNL A   1      45.542  41.495  26.827  1.00  0.00     0.139 C 
ATOM     23  H   UNL A   1      46.256  42.289  26.742  1.00  0.00     0.107 H 
BRANCH  22  24
ATOM     24  N   UNL A   1      44.719  41.605  25.576  1.00  0.00    -0.325 N 
ATOM     25  C   UNL A   1      43.067  43.212  23.770  1.00  0.00    -0.034 C 
ATOM     26  C   UNL A   1      44.470  42.800  23.331  1.00  0.00    -0.001 C 
ATOM     27  C   UNL A   1      42.462  42.053  24.546  1.00  0.00    -0.001 C 
ATOM     28  H   UNL A   1      43.123  44.087  24.383  1.00  0.00     0.030 H 
ATOM     29  C   UNL A   1      45.362  42.371  24.503  1.00  0.00     0.078 C 
ATOM     30  H   UNL A   1      44.931  43.631  22.838  1.00  0.00     0.033 H 
ATOM     31  H   UNL A   1      44.368  41.957  22.680  1.00  0.00     0.033 H 
ATOM     32  C   UNL A   1      43.284  41.781  25.798  1.00  0.00     0.078 C 
ATOM     33  H   UNL A   1      42.455  41.179  23.930  1.00  0.00     0.033 H 
ATOM     34  H   UNL A   1      41.463  42.307  24.831  1.00  0.00     0.033 H 
ATOM     35  H   UNL A   1      45.772  43.258  24.939  1.00  0.00     0.092 H 
ATOM     36  H   UNL A   1      46.084  41.706  24.078  1.00  0.00     0.092 H 
ATOM     37  H   UNL A   1      43.151  42.605  26.468  1.00  0.00     0.092 H 
ATOM     38  H   UNL A   1      42.928  40.851  26.190  1.00  0.00     0.092 H 
ATOM     39  H   UNL A   1      44.708  40.673  25.161  1.00  0.00     0.348 HD
BRANCH  25  40
ATOM     40  C   UNL A   1      42.196  43.557  22.573  1.00  0.00    -0.062 C 
ATOM     41  H   UNL A   1      42.216  42.749  21.872  1.00  0.00     0.023 H 
ATOM     42  H   UNL A   1      42.568  44.445  22.106  1.00  0.00     0.023 H 
ATOM     43  H   UNL A   1      41.190  43.721  22.899  1.00  0.00     0.023 H 
ENDBRANCH  25  40
ENDBRANCH  22  24
BRANCH  22  44
ATOM     44  C   UNL A   1      46.273  40.137  26.866  1.00  0.00     0.014 A 
ATOM     45  C   UNL A   1      47.206  39.818  27.874  1.00  0.00    -0.050 A 
ATOM     46  C   UNL A   1      46.010  39.175  25.872  1.00  0.00    -0.050 A 
ATOM     47  C   UNL A   1      47.835  38.573  27.899  1.00  0.00    -0.026 A 
ATOM     48  H   UNL A   1      47.427  40.515  28.603  1.00  0.00     0.063 H 
ATOM     49  C   UNL A   1      46.672  37.946  25.875  1.00  0.00    -0.026 A 
ATOM     50  H   UNL A   1      45.320  39.381  25.132  1.00  0.00     0.063 H 
ATOM     51  C   UNL A   1      47.569  37.652  26.893  1.00  0.00     0.123 A 
ATOM     52  H   UNL A   1      48.493  38.337  28.658  1.00  0.00     0.065 H 
ATOM     53  H   UNL A   1      46.496  37.259  25.125  1.00  0.00     0.065 H 
ATOM     54  F   UNL A   1      48.187  36.464  26.907  1.00  0.00    -0.207 F 
ENDBRANCH  22  44
ENDBRANCH  14  22
BRANCH  16  55
ATOM     55  C   UNL A   1      43.474  39.744  28.326  1.00  0.00    -0.018 A 
ATOM     56  C   UNL A   1      42.563  39.550  27.278  1.00  0.00    -0.054 A 
ATOM     57  C   UNL A   1      43.989  38.607  28.972  1.00  0.00    -0.054 A 
ATOM     58  C   UNL A   1      42.208  38.262  26.865  1.00  0.00    -0.049 A 
ATOM     59  H   UNL A   1      42.149  40.368  26.804  1.00  0.00     0.063 H 
ATOM     60  C   UNL A   1      43.648  37.319  28.554  1.00  0.00    -0.049 A 
ATOM     61  H   UNL A   1      44.631  38.727  29.772  1.00  0.00     0.063 H 
ATOM     62  C   UNL A   1      42.759  37.133  27.488  1.00  0.00     0.056 A 
ATOM     63  H   UNL A   1      41.532  38.141  26.094  1.00  0.00     0.063 H 
ATOM     64  H   UNL A   1      44.053  36.500  29.033  1.00  0.00     0.063 H 
BRANCH  62  65
ATOM     65  C   UNL A   1      42.378  35.748  27.027  1.00  0.00     0.416 C 
ATOM     66  F   UNL A   1      41.029  35.562  26.998  1.00  0.00    -0.166 F 
ATOM     67  F   UNL A   1      42.822  35.471  25.770  1.00  0.00    -0.166 F 
ATOM     68  F   UNL A   1      42.874  34.757  27.822  1.00  0.00    -0.166 F 
ENDBRANCH  62  65
ENDBRANCH  16  55
ENDBRANCH  11  13
BRANCH  11  69
ATOM     69  C   UNL A   1      41.886  42.378  32.470  1.00  0.00    -0.049 C 
ATOM     70  H   UNL A   1      41.502  41.662  31.773  1.00  0.00     0.024 H 
ATOM     71  H   UNL A   1      41.074  42.915  32.913  1.00  0.00     0.024 H 
ATOM     72  H   UNL A   1      42.438  41.871  33.234  1.00  0.00     0.024 H 
ENDBRANCH  11  69
ENDBRANCH   8  11
ENDBRANCH   4   7
ENDBRANCH   1   4
BRANCH   1  73
ATOM     73  C   UNL A   1      46.496  41.159  32.066  1.00  0.00    -0.052 C 
ATOM     74  H   UNL A   1      47.331  41.336  31.422  1.00  0.00     0.027 H 
ATOM     75  H   UNL A   1      45.554  41.222  31.562  1.00  0.00     0.027 H 
BRANCH  73  76
ATOM     76  C   UNL A   1      46.603  39.726  32.605  1.00  0.00    -0.052 C 
ATOM     77  H   UNL A   1      46.774  39.780  33.658  1.00  0.00     0.027 H 
ATOM     78  H   UNL A   1      47.404  39.265  32.065  1.00  0.00     0.027 H 
BRANCH  76  79
ATOM     79  C   UNL A   1      45.369  38.849  32.368  1.00  0.00    -0.036 C 
ATOM     80  H   UNL A   1      44.790  39.290  31.585  1.00  0.00     0.028 H 
ATOM     81  H   UNL A   1      44.841  38.804  33.298  1.00  0.00     0.028 H 
BRANCH  79  82
ATOM     82  C   UNL A   1      45.693  37.412  31.975  1.00  0.00     0.018 C 
ATOM     83  H   UNL A   1      44.951  37.063  31.286  1.00  0.00     0.049 H 
ATOM     84  H   UNL A   1      45.698  36.812  32.862  1.00  0.00     0.049 H 
BRANCH  82  85
ATOM     85  N   UNL A   1      47.006  37.315  31.347  1.00  0.00    -0.352 N 
ATOM     86  C   UNL A   1      47.582  36.245  30.703  1.00  0.00     0.251 C 
ATOM     87  H   UNL A   1      47.557  38.128  31.391  1.00  0.00     0.163 HD
ATOM     88  O   UNL A   1      48.781  36.224  30.464  1.00  0.00    -0.269 OA
BRANCH  86  89
ATOM     89  C   UNL A   1      46.723  35.120  30.287  1.00  0.00     0.039 A 
ATOM     90  C   UNL A   1      46.183  35.074  29.001  1.00  0.00    -0.049 A 
ATOM     91  C   UNL A   1      46.469  34.094  31.195  1.00  0.00    -0.049 A 
ATOM     92  C   UNL A   1      45.457  33.948  28.601  1.00  0.00    -0.053 A 
ATOM     93  H   UNL A   1      46.321  35.864  28.351  1.00  0.00     0.063 H 
ATOM     94  C   UNL A   1      45.821  32.943  30.770  1.00  0.00    -0.053 A 
ATOM     95  H   UNL A   1      46.761  34.189  32.180  1.00  0.00     0.063 H 
ATOM     96  C   UNL A   1      45.311  32.852  29.468  1.00  0.00    -0.014 A 
ATOM     97  H   UNL A   1      45.025  33.922  27.664  1.00  0.00     0.063 H 
ATOM     98  H   UNL A   1      45.716  32.146  31.418  1.00  0.00     0.063 H 
BRANCH  96  99
ATOM     99  C   UNL A   1      44.643  31.588  29.065  1.00  0.00     0.031 A 
ATOM    100  C   UNL A   1      43.255  31.285  29.560  1.00  0.00     0.074 A 
ATOM    101  C   UNL A   1      45.328  30.657  28.371  1.00  0.00     0.049 A 
ATOM    102  N   UNL A   1      42.570  30.173  29.480  1.00  0.00    -0.248 NA
ATOM    103  C   UNL A   1      42.560  32.366  30.279  1.00  0.00    -0.034 C 
ATOM    104  C   UNL A   1      46.696  30.809  27.878  1.00  0.00    -0.036 A 
ATOM    105  N   UNL A   1      44.974  29.388  27.982  1.00  0.00    -0.354 N 
ATOM    106  C   UNL A   1      41.383  30.412  30.158  1.00  0.00     0.074 A 
ATOM    107  C   UNL A   1      41.462  31.753  30.695  1.00  0.00    -0.034 C 
ATOM    108  H   UNL A   1      42.852  33.345  30.422  1.00  0.00     0.065 H 
ATOM    109  C   UNL A   1      47.060  29.688  27.237  1.00  0.00    -0.036 A 
ATOM    110  H   UNL A   1      47.289  31.645  28.004  1.00  0.00     0.065 H 
ATOM    111  C   UNL A   1      45.972  28.717  27.317  1.00  0.00     0.049 A 
ATOM    112  H   UNL A   1      44.089  28.996  28.163  1.00  0.00     0.167 HD
ATOM    113  C   UNL A   1      40.312  29.597  30.296  1.00  0.00     0.037 A 
ATOM    114  H   UNL A   1      40.756  32.175  31.319  1.00  0.00     0.065 H 
ATOM    115  H   UNL A   1      47.963  29.536  26.761  1.00  0.00     0.065 H 
ATOM    116  C   UNL A   1      46.015  27.457  26.843  1.00  0.00     0.037 A 
ATOM    117  C   UNL A   1      40.225  28.280  29.725  1.00  0.00     0.049 A 
ATOM    118  C   UNL A   1      44.819  26.561  27.017  1.00  0.00     0.074 A 
ATOM    119  C   UNL A   1      39.152  27.407  29.740  1.00  0.00    -0.036 A 
ATOM    120  N   UNL A   1      41.250  27.647  29.036  1.00  0.00    -0.354 N 
ATOM    121  N   UNL A   1      43.676  26.820  27.605  1.00  0.00    -0.248 NA
ATOM    122  C   UNL A   1      44.914  25.201  26.466  1.00  0.00    -0.034 C 
ATOM    123  C   UNL A   1      39.547  26.223  29.116  1.00  0.00    -0.036 A 
ATOM    124  H   UNL A   1      38.222  27.598  30.144  1.00  0.00     0.065 H 
ATOM    125  C   UNL A   1      40.843  26.381  28.651  1.00  0.00     0.049 A 
ATOM    126  H   UNL A   1      42.133  28.039  28.849  1.00  0.00     0.167 HD
ATOM    127  C   UNL A   1      42.908  25.671  27.472  1.00  0.00     0.074 A 
ATOM    128  C   UNL A   1      43.712  24.711  26.746  1.00  0.00    -0.034 C 
ATOM    129  H   UNL A   1      45.707  24.746  25.987  1.00  0.00     0.065 H 
ATOM    130  H   UNL A   1      38.971  25.372  29.018  1.00  0.00     0.065 H 
ATOM    131  C   UNL A   1      41.649  25.439  27.914  1.00  0.00     0.037 A 
ATOM    132  H   UNL A   1      43.392  23.767  26.479  1.00  0.00     0.065 H 
BRANCH 113 133
ATOM    133  C   UNL A   1      39.137  30.102  31.084  1.00  0.00     0.064 A 
ATOM    134  C   UNL A   1      38.102  30.805  30.447  1.00  0.00     0.173 A 
ATOM    135  C   UNL A   1      39.066  29.953  32.477  1.00  0.00     0.173 A 
ATOM    136  F   UNL A   1      38.123  30.984  29.118  1.00  0.00    -0.203 F 
ATOM    137  C   UNL A   1      37.049  31.349  31.178  1.00  0.00     0.198 A 
ATOM    138  C   UNL A   1      37.993  30.467  33.200  1.00  0.00     0.198 A 
ATOM    139  F   UNL A   1      40.025  29.282  33.134  1.00  0.00    -0.203 F 
ATOM    140  F   UNL A   1      36.092  32.048  30.551  1.00  0.00    -0.200 F 
ATOM    141  C   UNL A   1      36.992  31.174  32.552  1.00  0.00     0.200 A 
ATOM    142  F   UNL A   1      37.926  30.273  34.524  1.00  0.00    -0.200 F 
ATOM    143  F   UNL A   1      35.969  31.685  33.252  1.00  0.00    -0.200 F 
ENDBRANCH 113 133
BRANCH 116 144
ATOM    144  C   UNL A   1      47.233  26.990  26.130  1.00  0.00     0.064 A 
ATOM    145  C   UNL A   1      48.267  26.321  26.803  1.00  0.00     0.173 A 
ATOM    146  C   UNL A   1      47.411  27.259  24.765  1.00  0.00     0.173 A 
ATOM    147  F   UNL A   1      48.150  26.046  28.111  1.00  0.00    -0.203 F 
ATOM    148  C   UNL A   1      49.444  25.967  26.145  1.00  0.00     0.198 A 
ATOM    149  C   UNL A   1      48.578  26.880  24.103  1.00  0.00     0.198 A 
ATOM    150  F   UNL A   1      46.444  27.879  24.075  1.00  0.00    -0.203 F 
ATOM    151  F   UNL A   1      50.435  25.372  26.823  1.00  0.00    -0.200 F 
ATOM    152  C   UNL A   1      49.597  26.244  24.796  1.00  0.00     0.200 A 
ATOM    153  F   UNL A   1      48.713  27.131  22.795  1.00  0.00    -0.200 F 
ATOM    154  F   UNL A   1      50.728  25.902  24.163  1.00  0.00    -0.200 F 
ENDBRANCH 116 144
BRANCH 131 155
ATOM    155  C   UNL A   1      41.022  24.109  27.610  1.00  0.00     0.064 A 
ATOM    156  C   UNL A   1      41.556  22.935  28.167  1.00  0.00     0.173 A 
ATOM    157  C   UNL A   1      39.999  23.981  26.662  1.00  0.00     0.173 A 
ATOM    158  F   UNL A   1      42.544  23.006  29.071  1.00  0.00    -0.203 F 
ATOM    159  C   UNL A   1      41.113  21.683  27.756  1.00  0.00     0.198 A 
ATOM    160  C   UNL A   1      39.538  22.726  26.274  1.00  0.00     0.198 A 
ATOM    161  F   UNL A   1      39.450  25.074  26.110  1.00  0.00    -0.203 F 
ATOM    162  F   UNL A   1      41.678  20.575  28.258  1.00  0.00    -0.200 F 
ATOM    163  C   UNL A   1      40.106  21.578  26.809  1.00  0.00     0.200 A 
ATOM    164  F   UNL A   1      38.552  22.626  25.371  1.00  0.00    -0.200 F 
ATOM    165  F   UNL A   1      39.687  20.371  26.405  1.00  0.00    -0.200 F 
ENDBRANCH 131 155
ENDBRANCH  96  99
ENDBRANCH  86  89
ENDBRANCH  82  85
ENDBRANCH  79  82
ENDBRANCH  76  79
ENDBRANCH  73  76
ENDBRANCH   1  73
TORSDOF 21
ENDMDL
MODEL 7
REMARK VINA RESULT:     -11.8      5.634     13.565
REMARK SMILES CC1CC[NH+]([C@H](c2ccc(F)cc2)c2ccc([C@@H](C)C(=O)NCCCCCCNC(=O)c3ccc(-c4c5nc(c(-c6c(F)c(F)c(F)c(F)c6F)c6ccc([nH]6)c(-c6c(F)c(F)c(F)c(F)c6F)c6nc(c(-c7c(F)c(F)c(F)c(F)c7F)c7ccc4[nH]7)C=C6)C=C5)cc3)cc2-c2ccc(C(F)(F)F)cc2)CC1
REMARK SMILES IDX 24 1 23 4 22 7 20 8 21 9 18 11 17 13 14 14 15 15 96 16 16 17
REMARK SMILES IDX 95 19 6 22 5 24 2 25 3 26 108 27 4 29 107 32 1 40 7 44 8 45
REMARK SMILES IDX 13 46 9 47 12 49 10 51 11 54 97 55 98 56 106 57 99 58 105 60
REMARK SMILES IDX 100 62 101 65 102 66 103 67 104 68 19 69 25 73 26 76 27 79
REMARK SMILES IDX 28 82 29 85 30 86 31 88 32 89 33 90 94 91 34 92 93 94 35 96
REMARK SMILES IDX 36 99 37 100 87 101 38 102 92 103 86 104 88 105 39 106
REMARK SMILES IDX 91 107 85 109 84 111 40 113 72 116 52 117 71 118 53 119
REMARK SMILES IDX 56 120 70 121 89 122 54 123 55 125 69 127 90 128 57 131
REMARK SMILES IDX 41 133 42 134 50 135 43 136 44 137 48 138 51 139 45 140
REMARK SMILES IDX 46 141 49 142 47 143 73 144 74 145 82 146 75 147 76 148
REMARK SMILES IDX 80 149 83 150 77 151 78 152 81 153 79 154 58 155 59 156
REMARK SMILES IDX 67 157 60 158 61 159 65 160 68 161 62 162 63 163 66 164
REMARK SMILES IDX 64 165
REMARK H PARENT 24 2 24 3 23 5 23 6 22 10 18 12 15 18 16 20 95 21 6 23 2 28
REMARK H PARENT 3 30 3 31 108 33 108 34 4 35 4 36 107 37 107 38 5 39 1 41 1 42
REMARK H PARENT 1 43 8 48 13 50 9 52 12 53 98 59 106 61 99 63 105 64 19 70
REMARK H PARENT 19 71 19 72 25 74 25 75 26 77 26 78 27 80 27 81 28 83 28 84
REMARK H PARENT 29 87 33 93 94 95 34 97 93 98 92 108 86 110 88 112 91 114
REMARK H PARENT 85 115 53 124 56 126 89 129 54 130 90 132
REMARK Flexibility Score: inf
ROOT
ATOM      1  C   UNL A   1      36.109  31.658  32.256  1.00  0.00    -0.036 C 
ATOM      2  H   UNL A   1      35.663  32.249  33.029  1.00  0.00     0.028 H 
ATOM      3  H   UNL A   1      35.444  30.915  31.869  1.00  0.00     0.028 H 
ENDROOT
BRANCH   1   4
ATOM      4  C   UNL A   1      37.311  30.912  32.850  1.00  0.00     0.017 C 
ATOM      5  H   UNL A   1      37.010  30.438  33.761  1.00  0.00     0.049 H 
ATOM      6  H   UNL A   1      37.643  30.189  32.134  1.00  0.00     0.049 H 
BRANCH   4   7
ATOM      7  N   UNL A   1      38.414  31.809  33.130  1.00  0.00    -0.356 N 
ATOM      8  C   UNL A   1      39.230  31.969  34.208  1.00  0.00     0.227 C 
ATOM      9  O   UNL A   1      40.040  32.901  34.137  1.00  0.00    -0.274 OA
ATOM     10  H   UNL A   1      38.614  32.429  32.391  1.00  0.00     0.163 HD
BRANCH   8  11
ATOM     11  C   UNL A   1      39.206  31.076  35.465  1.00  0.00     0.060 C 
ATOM     12  H   UNL A   1      38.660  30.198  35.187  1.00  0.00     0.045 H 
BRANCH  11  13
ATOM     13  C   UNL A   1      40.577  30.549  35.849  1.00  0.00    -0.035 A 
ATOM     14  C   UNL A   1      43.318  29.836  36.297  1.00  0.00     0.022 A 
ATOM     15  C   UNL A   1      42.658  30.828  37.037  1.00  0.00    -0.052 A 
ATOM     16  C   UNL A   1      42.513  29.080  35.400  1.00  0.00    -0.009 A 
ATOM     17  C   UNL A   1      41.304  31.100  36.889  1.00  0.00    -0.058 A 
ATOM     18  H   UNL A   1      43.201  31.380  37.720  1.00  0.00     0.063 H 
ATOM     19  C   UNL A   1      41.185  29.508  35.136  1.00  0.00    -0.050 A 
ATOM     20  H   UNL A   1      40.832  31.721  37.564  1.00  0.00     0.063 H 
ATOM     21  H   UNL A   1      40.647  29.034  34.393  1.00  0.00     0.063 H 
BRANCH  14  22
ATOM     22  C   UNL A   1      44.833  29.553  36.521  1.00  0.00     0.139 C 
ATOM     23  H   UNL A   1      44.933  28.636  35.977  1.00  0.00     0.107 H 
BRANCH  22  24
ATOM     24  N   UNL A   1      45.289  29.208  37.910  1.00  0.00    -0.325 N 
ATOM     25  C   UNL A   1      47.464  28.725  39.810  1.00  0.00    -0.034 C 
ATOM     26  C   UNL A   1      46.640  30.004  39.929  1.00  0.00    -0.001 C 
ATOM     27  C   UNL A   1      46.524  27.600  39.406  1.00  0.00    -0.001 C 
ATOM     28  H   UNL A   1      48.230  28.856  39.074  1.00  0.00     0.030 H 
ATOM     29  C   UNL A   1      45.865  30.338  38.647  1.00  0.00     0.078 C 
ATOM     30  H   UNL A   1      47.300  30.817  40.149  1.00  0.00     0.033 H 
ATOM     31  H   UNL A   1      45.921  29.852  40.706  1.00  0.00     0.033 H 
ATOM     32  C   UNL A   1      45.915  27.894  38.043  1.00  0.00     0.078 C 
ATOM     33  H   UNL A   1      45.743  27.514  40.132  1.00  0.00     0.033 H 
ATOM     34  H   UNL A   1      47.076  26.684  39.355  1.00  0.00     0.033 H 
ATOM     35  H   UNL A   1      46.536  30.846  37.987  1.00  0.00     0.092 H 
ATOM     36  H   UNL A   1      45.027  30.920  38.969  1.00  0.00     0.092 H 
ATOM     37  H   UNL A   1      46.692  27.822  37.311  1.00  0.00     0.092 H 
ATOM     38  H   UNL A   1      45.133  27.176  37.907  1.00  0.00     0.092 H 
ATOM     39  H   UNL A   1      44.441  29.043  38.454  1.00  0.00     0.348 HD
BRANCH  25  40
ATOM     40  C   UNL A   1      48.154  28.391  41.122  1.00  0.00    -0.062 C 
ATOM     41  H   UNL A   1      48.511  29.292  41.577  1.00  0.00     0.023 H 
ATOM     42  H   UNL A   1      48.978  27.735  40.934  1.00  0.00     0.023 H 
ATOM     43  H   UNL A   1      47.460  27.912  41.779  1.00  0.00     0.023 H 
ENDBRANCH  25  40
ENDBRANCH  22  24
BRANCH  22  44
ATOM     44  C   UNL A   1      45.756  30.627  35.909  1.00  0.00     0.014 A 
ATOM     45  C   UNL A   1      45.401  31.991  35.886  1.00  0.00    -0.050 A 
ATOM     46  C   UNL A   1      46.993  30.250  35.356  1.00  0.00    -0.050 A 
ATOM     47  C   UNL A   1      46.265  32.946  35.348  1.00  0.00    -0.026 A 
ATOM     48  H   UNL A   1      44.491  32.289  36.271  1.00  0.00     0.063 H 
ATOM     49  C   UNL A   1      47.838  31.201  34.780  1.00  0.00    -0.026 A 
ATOM     50  H   UNL A   1      47.281  29.258  35.375  1.00  0.00     0.063 H 
ATOM     51  C   UNL A   1      47.471  32.540  34.791  1.00  0.00     0.123 A 
ATOM     52  H   UNL A   1      46.011  33.946  35.363  1.00  0.00     0.065 H 
ATOM     53  H   UNL A   1      48.730  30.911  34.349  1.00  0.00     0.065 H 
ATOM     54  F   UNL A   1      48.292  33.454  34.258  1.00  0.00    -0.207 F 
ENDBRANCH  22  44
ENDBRANCH  14  22
BRANCH  16  55
ATOM     55  C   UNL A   1      42.957  27.821  34.767  1.00  0.00    -0.018 A 
ATOM     56  C   UNL A   1      43.666  27.817  33.558  1.00  0.00    -0.054 A 
ATOM     57  C   UNL A   1      42.629  26.583  35.345  1.00  0.00    -0.054 A 
ATOM     58  C   UNL A   1      44.067  26.615  32.964  1.00  0.00    -0.049 A 
ATOM     59  H   UNL A   1      43.896  28.712  33.099  1.00  0.00     0.063 H 
ATOM     60  C   UNL A   1      43.039  25.381  34.763  1.00  0.00    -0.049 A 
ATOM     61  H   UNL A   1      42.074  26.562  36.215  1.00  0.00     0.063 H 
ATOM     62  C   UNL A   1      43.771  25.385  33.570  1.00  0.00     0.056 A 
ATOM     63  H   UNL A   1      44.584  26.634  32.072  1.00  0.00     0.063 H 
ATOM     64  H   UNL A   1      42.802  24.485  35.216  1.00  0.00     0.063 H 
BRANCH  62  65
ATOM     65  C   UNL A   1      44.218  24.095  32.928  1.00  0.00     0.416 C 
ATOM     66  F   UNL A   1      45.482  23.743  33.291  1.00  0.00    -0.166 F 
ATOM     67  F   UNL A   1      43.424  23.040  33.260  1.00  0.00    -0.166 F 
ATOM     68  F   UNL A   1      44.221  24.141  31.565  1.00  0.00    -0.166 F 
ENDBRANCH  62  65
ENDBRANCH  16  55
ENDBRANCH  11  13
BRANCH  11  69
ATOM     69  C   UNL A   1      38.378  31.644  36.615  1.00  0.00    -0.049 C 
ATOM     70  H   UNL A   1      39.031  31.971  37.397  1.00  0.00     0.024 H 
ATOM     71  H   UNL A   1      37.723  30.887  36.991  1.00  0.00     0.024 H 
ATOM     72  H   UNL A   1      37.801  32.473  36.263  1.00  0.00     0.024 H 
ENDBRANCH  11  69
ENDBRANCH   8  11
ENDBRANCH   4   7
ENDBRANCH   1   4
BRANCH   1  73
ATOM     73  C   UNL A   1      36.466  32.583  31.091  1.00  0.00    -0.052 C 
ATOM     74  H   UNL A   1      36.452  32.006  30.190  1.00  0.00     0.027 H 
ATOM     75  H   UNL A   1      37.429  32.993  31.312  1.00  0.00     0.027 H 
BRANCH  73  76
ATOM     76  C   UNL A   1      35.519  33.777  30.908  1.00  0.00    -0.052 C 
ATOM     77  H   UNL A   1      36.114  34.646  30.725  1.00  0.00     0.027 H 
ATOM     78  H   UNL A   1      34.940  33.837  31.806  1.00  0.00     0.027 H 
BRANCH  76  79
ATOM     79  C   UNL A   1      34.513  33.639  29.761  1.00  0.00    -0.036 C 
ATOM     80  H   UNL A   1      34.259  34.620  29.418  1.00  0.00     0.028 H 
ATOM     81  H   UNL A   1      33.671  33.107  30.153  1.00  0.00     0.028 H 
BRANCH  79  82
ATOM     82  C   UNL A   1      35.030  32.834  28.573  1.00  0.00     0.018 C 
ATOM     83  H   UNL A   1      35.991  32.431  28.817  1.00  0.00     0.049 H 
ATOM     84  H   UNL A   1      35.097  33.487  27.727  1.00  0.00     0.049 H 
BRANCH  82  85
ATOM     85  N   UNL A   1      34.126  31.739  28.239  1.00  0.00    -0.352 N 
ATOM     86  C   UNL A   1      34.427  30.451  27.864  1.00  0.00     0.251 C 
ATOM     87  H   UNL A   1      33.167  31.951  28.289  1.00  0.00     0.163 HD
ATOM     88  O   UNL A   1      33.580  29.727  27.359  1.00  0.00    -0.269 OA
BRANCH  86  89
ATOM     89  C   UNL A   1      35.794  29.945  28.093  1.00  0.00     0.039 A 
ATOM     90  C   UNL A   1      36.775  30.078  27.109  1.00  0.00    -0.049 A 
ATOM     91  C   UNL A   1      36.097  29.344  29.312  1.00  0.00    -0.049 A 
ATOM     92  C   UNL A   1      38.087  29.683  27.389  1.00  0.00    -0.053 A 
ATOM     93  H   UNL A   1      36.535  30.467  26.184  1.00  0.00     0.063 H 
ATOM     94  C   UNL A   1      37.414  29.031  29.618  1.00  0.00    -0.053 A 
ATOM     95  H   UNL A   1      35.345  29.132  29.986  1.00  0.00     0.063 H 
ATOM     96  C   UNL A   1      38.426  29.199  28.664  1.00  0.00    -0.014 A 
ATOM     97  H   UNL A   1      38.810  29.745  26.655  1.00  0.00     0.063 H 
ATOM     98  H   UNL A   1      37.649  28.672  30.557  1.00  0.00     0.063 H 
BRANCH  96  99
ATOM     99  C   UNL A   1      39.820  28.863  29.055  1.00  0.00     0.031 A 
ATOM    100  C   UNL A   1      40.662  29.885  29.768  1.00  0.00     0.074 A 
ATOM    101  C   UNL A   1      40.368  27.700  28.653  1.00  0.00     0.049 A 
ATOM    102  N   UNL A   1      41.944  29.865  30.032  1.00  0.00    -0.248 NA
ATOM    103  C   UNL A   1      39.981  31.115  30.205  1.00  0.00    -0.034 C 
ATOM    104  C   UNL A   1      39.672  26.649  27.912  1.00  0.00    -0.036 A 
ATOM    105  N   UNL A   1      41.647  27.217  28.791  1.00  0.00    -0.354 N 
ATOM    106  C   UNL A   1      42.223  31.082  30.638  1.00  0.00     0.074 A 
ATOM    107  C   UNL A   1      40.994  31.843  30.650  1.00  0.00    -0.034 C 
ATOM    108  H   UNL A   1      38.976  31.349  30.172  1.00  0.00     0.065 H 
ATOM    109  C   UNL A   1      40.522  25.639  27.677  1.00  0.00    -0.036 A 
ATOM    110  H   UNL A   1      38.683  26.680  27.616  1.00  0.00     0.065 H 
ATOM    111  C   UNL A   1      41.839  25.990  28.203  1.00  0.00     0.049 A 
ATOM    112  H   UNL A   1      42.358  27.705  29.266  1.00  0.00     0.167 HD
ATOM    113  C   UNL A   1      43.394  31.513  31.162  1.00  0.00     0.037 A 
ATOM    114  H   UNL A   1      40.916  32.824  30.964  1.00  0.00     0.065 H 
ATOM    115  H   UNL A   1      40.285  24.754  27.202  1.00  0.00     0.065 H 
ATOM    116  C   UNL A   1      42.951  25.240  28.083  1.00  0.00     0.037 A 
ATOM    117  C   UNL A   1      44.602  30.734  31.182  1.00  0.00     0.049 A 
ATOM    118  C   UNL A   1      44.246  25.742  28.662  1.00  0.00     0.074 A 
ATOM    119  C   UNL A   1      45.818  31.050  31.761  1.00  0.00    -0.036 A 
ATOM    120  N   UNL A   1      44.747  29.484  30.598  1.00  0.00    -0.354 N 
ATOM    121  N   UNL A   1      44.484  26.868  29.290  1.00  0.00    -0.248 NA
ATOM    122  C   UNL A   1      45.426  24.877  28.517  1.00  0.00    -0.034 C 
ATOM    123  C   UNL A   1      46.716  30.021  31.473  1.00  0.00    -0.036 A 
ATOM    124  H   UNL A   1      46.024  31.900  32.309  1.00  0.00     0.065 H 
ATOM    125  C   UNL A   1      46.043  29.031  30.775  1.00  0.00     0.049 A 
ATOM    126  H   UNL A   1      44.035  28.992  30.128  1.00  0.00     0.167 HD
ATOM    127  C   UNL A   1      45.828  26.836  29.638  1.00  0.00     0.074 A 
ATOM    128  C   UNL A   1      46.356  25.578  29.154  1.00  0.00    -0.034 C 
ATOM    129  H   UNL A   1      45.509  23.964  28.044  1.00  0.00     0.065 H 
ATOM    130  H   UNL A   1      47.714  30.001  31.737  1.00  0.00     0.065 H 
ATOM    131  C   UNL A   1      46.553  27.768  30.301  1.00  0.00     0.037 A 
ATOM    132  H   UNL A   1      47.330  25.266  29.288  1.00  0.00     0.065 H 
BRANCH 113 133
ATOM    133  C   UNL A   1      43.431  32.886  31.772  1.00  0.00     0.064 A 
ATOM    134  C   UNL A   1      43.748  34.005  30.986  1.00  0.00     0.173 A 
ATOM    135  C   UNL A   1      43.221  33.088  33.144  1.00  0.00     0.173 A 
ATOM    136  F   UNL A   1      43.966  33.868  29.669  1.00  0.00    -0.203 F 
ATOM    137  C   UNL A   1      43.867  35.271  31.555  1.00  0.00     0.198 A 
ATOM    138  C   UNL A   1      43.305  34.360  33.703  1.00  0.00     0.198 A 
ATOM    139  F   UNL A   1      42.907  32.054  33.939  1.00  0.00    -0.203 F 
ATOM    140  F   UNL A   1      44.207  36.317  30.790  1.00  0.00    -0.200 F 
ATOM    141  C   UNL A   1      43.638  35.448  32.911  1.00  0.00     0.200 A 
ATOM    142  F   UNL A   1      43.057  34.533  35.008  1.00  0.00    -0.200 F 
ATOM    143  F   UNL A   1      43.737  36.669  33.454  1.00  0.00    -0.200 F 
ENDBRANCH 113 133
BRANCH 116 144
ATOM    144  C   UNL A   1      42.868  23.918  27.409  1.00  0.00     0.064 A 
ATOM    145  C   UNL A   1      43.204  23.760  26.055  1.00  0.00     0.173 A 
ATOM    146  C   UNL A   1      42.390  22.793  28.096  1.00  0.00     0.173 A 
ATOM    147  F   UNL A   1      43.659  24.807  25.351  1.00  0.00    -0.203 F 
ATOM    148  C   UNL A   1      43.037  22.537  25.409  1.00  0.00     0.198 A 
ATOM    149  C   UNL A   1      42.249  21.563  27.455  1.00  0.00     0.198 A 
ATOM    150  F   UNL A   1      42.073  22.888  29.395  1.00  0.00    -0.203 F 
ATOM    151  F   UNL A   1      43.321  22.427  24.104  1.00  0.00    -0.200 F 
ATOM    152  C   UNL A   1      42.563  21.439  26.110  1.00  0.00     0.200 A 
ATOM    153  F   UNL A   1      41.810  20.500  28.141  1.00  0.00    -0.200 F 
ATOM    154  F   UNL A   1      42.403  20.263  25.489  1.00  0.00    -0.200 F 
ENDBRANCH 116 144
BRANCH 131 155
ATOM    155  C   UNL A   1      47.998  27.476  30.585  1.00  0.00     0.064 A 
ATOM    156  C   UNL A   1      48.991  27.889  29.682  1.00  0.00     0.173 A 
ATOM    157  C   UNL A   1      48.383  26.667  31.663  1.00  0.00     0.173 A 
ATOM    158  F   UNL A   1      48.670  28.656  28.629  1.00  0.00    -0.203 F 
ATOM    159  C   UNL A   1      50.309  27.470  29.827  1.00  0.00     0.198 A 
ATOM    160  C   UNL A   1      49.709  26.274  31.821  1.00  0.00     0.198 A 
ATOM    161  F   UNL A   1      47.472  26.256  32.558  1.00  0.00    -0.203 F 
ATOM    162  F   UNL A   1      51.229  27.828  28.920  1.00  0.00    -0.200 F 
ATOM    163  C   UNL A   1      50.667  26.661  30.895  1.00  0.00     0.200 A 
ATOM    164  F   UNL A   1      50.058  25.507  32.864  1.00  0.00    -0.200 F 
ATOM    165  F   UNL A   1      51.936  26.249  31.029  1.00  0.00    -0.200 F 
ENDBRANCH 131 155
ENDBRANCH  96  99
ENDBRANCH  86  89
ENDBRANCH  82  85
ENDBRANCH  79  82
ENDBRANCH  76  79
ENDBRANCH  73  76
ENDBRANCH   1  73
TORSDOF 21
ENDMDL
MODEL 8
REMARK VINA RESULT:     -11.7      5.836     12.035
REMARK SMILES CC1CC[NH+]([C@H](c2ccc(F)cc2)c2ccc([C@@H](C)C(=O)NCCCCCCNC(=O)c3ccc(-c4c5nc(c(-c6c(F)c(F)c(F)c(F)c6F)c6ccc([nH]6)c(-c6c(F)c(F)c(F)c(F)c6F)c6nc(c(-c7c(F)c(F)c(F)c(F)c7F)c7ccc4[nH]7)C=C6)C=C5)cc3)cc2-c2ccc(C(F)(F)F)cc2)CC1
REMARK SMILES IDX 24 1 23 4 22 7 20 8 21 9 18 11 17 13 14 14 15 15 96 16 16 17
REMARK SMILES IDX 95 19 6 22 5 24 2 25 3 26 108 27 4 29 107 32 1 40 7 44 8 45
REMARK SMILES IDX 13 46 9 47 12 49 10 51 11 54 97 55 98 56 106 57 99 58 105 60
REMARK SMILES IDX 100 62 101 65 102 66 103 67 104 68 19 69 25 73 26 76 27 79
REMARK SMILES IDX 28 82 29 85 30 86 31 88 32 89 33 90 94 91 34 92 93 94 35 96
REMARK SMILES IDX 36 99 37 100 87 101 38 102 92 103 86 104 88 105 39 106
REMARK SMILES IDX 91 107 85 109 84 111 40 113 72 116 52 117 71 118 53 119
REMARK SMILES IDX 56 120 70 121 89 122 54 123 55 125 69 127 90 128 57 131
REMARK SMILES IDX 41 133 42 134 50 135 43 136 44 137 48 138 51 139 45 140
REMARK SMILES IDX 46 141 49 142 47 143 73 144 74 145 82 146 75 147 76 148
REMARK SMILES IDX 80 149 83 150 77 151 78 152 81 153 79 154 58 155 59 156
REMARK SMILES IDX 67 157 60 158 61 159 65 160 68 161 62 162 63 163 66 164
REMARK SMILES IDX 64 165
REMARK H PARENT 24 2 24 3 23 5 23 6 22 10 18 12 15 18 16 20 95 21 6 23 2 28
REMARK H PARENT 3 30 3 31 108 33 108 34 4 35 4 36 107 37 107 38 5 39 1 41 1 42
REMARK H PARENT 1 43 8 48 13 50 9 52 12 53 98 59 106 61 99 63 105 64 19 70
REMARK H PARENT 19 71 19 72 25 74 25 75 26 77 26 78 27 80 27 81 28 83 28 84
REMARK H PARENT 29 87 33 93 94 95 34 97 93 98 92 108 86 110 88 112 91 114
REMARK H PARENT 85 115 53 124 56 126 89 129 54 130 90 132
REMARK Flexibility Score: inf
ROOT
ATOM      1  C   UNL A   1      42.797  36.877  26.484  1.00  0.00    -0.036 C 
ATOM      2  H   UNL A   1      42.738  37.168  25.456  1.00  0.00     0.028 H 
ATOM      3  H   UNL A   1      43.769  37.034  26.902  1.00  0.00     0.028 H 
ENDROOT
BRANCH   1   4
ATOM      4  C   UNL A   1      42.511  35.373  26.578  1.00  0.00     0.017 C 
ATOM      5  H   UNL A   1      42.808  35.022  27.544  1.00  0.00     0.049 H 
ATOM      6  H   UNL A   1      41.462  35.221  26.421  1.00  0.00     0.049 H 
BRANCH   4   7
ATOM      7  N   UNL A   1      43.231  34.626  25.566  1.00  0.00    -0.356 N 
ATOM      8  C   UNL A   1      44.462  34.047  25.541  1.00  0.00     0.227 C 
ATOM      9  O   UNL A   1      44.797  33.540  24.463  1.00  0.00    -0.274 OA
ATOM     10  H   UNL A   1      42.727  34.514  24.727  1.00  0.00     0.163 HD
BRANCH   8  11
ATOM     11  C   UNL A   1      45.425  33.983  26.743  1.00  0.00     0.060 C 
ATOM     12  H   UNL A   1      44.997  34.616  27.493  1.00  0.00     0.045 H 
BRANCH  11  13
ATOM     13  C   UNL A   1      45.471  32.615  27.400  1.00  0.00    -0.035 A 
ATOM     14  C   UNL A   1      45.688  29.889  28.262  1.00  0.00     0.022 A 
ATOM     15  C   UNL A   1      46.746  30.805  28.356  1.00  0.00    -0.052 A 
ATOM     16  C   UNL A   1      44.432  30.419  27.854  1.00  0.00    -0.009 A 
ATOM     17  C   UNL A   1      46.608  32.148  28.034  1.00  0.00    -0.058 A 
ATOM     18  H   UNL A   1      47.667  30.465  28.677  1.00  0.00     0.063 H 
ATOM     19  C   UNL A   1      44.373  31.747  27.353  1.00  0.00    -0.050 A 
ATOM     20  H   UNL A   1      47.364  32.809  28.271  1.00  0.00     0.063 H 
ATOM     21  H   UNL A   1      43.489  32.085  26.940  1.00  0.00     0.063 H 
BRANCH  14  22
ATOM     22  C   UNL A   1      45.889  28.398  28.662  1.00  0.00     0.139 C 
ATOM     23  H   UNL A   1      45.241  28.345  29.513  1.00  0.00     0.107 H 
BRANCH  22  24
ATOM     24  N   UNL A   1      47.231  27.984  29.194  1.00  0.00    -0.325 N 
ATOM     25  C   UNL A   1      49.165  25.873  29.808  1.00  0.00    -0.034 C 
ATOM     26  C   UNL A   1      49.435  26.816  28.638  1.00  0.00    -0.001 C 
ATOM     27  C   UNL A   1      48.525  26.684  30.923  1.00  0.00    -0.001 C 
ATOM     28  H   UNL A   1      48.512  25.086  29.494  1.00  0.00     0.030 H 
ATOM     29  C   UNL A   1      48.176  27.551  28.159  1.00  0.00     0.078 C 
ATOM     30  H   UNL A   1      49.826  26.244  27.822  1.00  0.00     0.033 H 
ATOM     31  H   UNL A   1      50.129  27.556  28.976  1.00  0.00     0.033 H 
ATOM     32  C   UNL A   1      47.191  27.247  30.457  1.00  0.00     0.078 C 
ATOM     33  H   UNL A   1      49.175  27.491  31.192  1.00  0.00     0.033 H 
ATOM     34  H   UNL A   1      48.363  26.050  31.769  1.00  0.00     0.033 H 
ATOM     35  H   UNL A   1      47.652  26.896  27.496  1.00  0.00     0.092 H 
ATOM     36  H   UNL A   1      48.532  28.454  27.710  1.00  0.00     0.092 H 
ATOM     37  H   UNL A   1      46.508  26.430  30.342  1.00  0.00     0.092 H 
ATOM     38  H   UNL A   1      46.889  27.953  31.203  1.00  0.00     0.092 H 
ATOM     39  H   UNL A   1      47.684  28.839  29.517  1.00  0.00     0.348 HD
BRANCH  25  40
ATOM     40  C   UNL A   1      50.449  25.223  30.298  1.00  0.00    -0.062 C 
ATOM     41  H   UNL A   1      51.085  25.969  30.728  1.00  0.00     0.023 H 
ATOM     42  H   UNL A   1      50.950  24.759  29.474  1.00  0.00     0.023 H 
ATOM     43  H   UNL A   1      50.216  24.484  31.035  1.00  0.00     0.023 H 
ENDBRANCH  25  40
ENDBRANCH  22  24
BRANCH  22  44
ATOM     44  C   UNL A   1      45.415  27.403  27.581  1.00  0.00     0.014 A 
ATOM     45  C   UNL A   1      44.666  26.253  27.902  1.00  0.00    -0.050 A 
ATOM     46  C   UNL A   1      45.732  27.638  26.230  1.00  0.00    -0.050 A 
ATOM     47  C   UNL A   1      44.229  25.381  26.903  1.00  0.00    -0.026 A 
ATOM     48  H   UNL A   1      44.437  26.051  28.888  1.00  0.00     0.063 H 
ATOM     49  C   UNL A   1      45.330  26.743  25.236  1.00  0.00    -0.026 A 
ATOM     50  H   UNL A   1      46.267  28.482  25.970  1.00  0.00     0.063 H 
ATOM     51  C   UNL A   1      44.575  25.631  25.580  1.00  0.00     0.123 A 
ATOM     52  H   UNL A   1      43.655  24.559  27.144  1.00  0.00     0.065 H 
ATOM     53  H   UNL A   1      45.593  26.908  24.252  1.00  0.00     0.065 H 
ATOM     54  F   UNL A   1      44.172  24.784  24.624  1.00  0.00    -0.207 F 
ENDBRANCH  22  44
ENDBRANCH  14  22
BRANCH  16  55
ATOM     55  C   UNL A   1      43.156  29.686  27.981  1.00  0.00    -0.018 A 
ATOM     56  C   UNL A   1      42.645  29.311  29.232  1.00  0.00    -0.054 A 
ATOM     57  C   UNL A   1      42.443  29.299  26.833  1.00  0.00    -0.054 A 
ATOM     58  C   UNL A   1      41.442  28.604  29.333  1.00  0.00    -0.049 A 
ATOM     59  H   UNL A   1      43.163  29.559  30.089  1.00  0.00     0.063 H 
ATOM     60  C   UNL A   1      41.234  28.606  26.930  1.00  0.00    -0.049 A 
ATOM     61  H   UNL A   1      42.821  29.532  25.901  1.00  0.00     0.063 H 
ATOM     62  C   UNL A   1      40.716  28.258  28.183  1.00  0.00     0.056 A 
ATOM     63  H   UNL A   1      41.085  28.334  30.262  1.00  0.00     0.063 H 
ATOM     64  H   UNL A   1      40.721  28.349  26.073  1.00  0.00     0.063 H 
BRANCH  62  65
ATOM     65  C   UNL A   1      39.414  27.506  28.304  1.00  0.00     0.416 C 
ATOM     66  F   UNL A   1      39.237  26.607  27.297  1.00  0.00    -0.166 F 
ATOM     67  F   UNL A   1      39.323  26.795  29.462  1.00  0.00    -0.166 F 
ATOM     68  F   UNL A   1      38.317  28.316  28.279  1.00  0.00    -0.166 F 
ENDBRANCH  62  65
ENDBRANCH  16  55
ENDBRANCH  11  13
BRANCH  11  69
ATOM     69  C   UNL A   1      46.785  34.630  26.485  1.00  0.00    -0.049 C 
ATOM     70  H   UNL A   1      46.642  35.596  26.047  1.00  0.00     0.024 H 
ATOM     71  H   UNL A   1      47.351  34.016  25.817  1.00  0.00     0.024 H 
ATOM     72  H   UNL A   1      47.312  34.732  27.410  1.00  0.00     0.024 H 
ENDBRANCH  11  69
ENDBRANCH   8  11
ENDBRANCH   4   7
ENDBRANCH   1   4
BRANCH   1  73
ATOM     73  C   UNL A   1      41.825  37.746  27.285  1.00  0.00    -0.052 C 
ATOM     74  H   UNL A   1      42.236  37.893  28.262  1.00  0.00     0.027 H 
ATOM     75  H   UNL A   1      40.891  37.225  27.295  1.00  0.00     0.027 H 
BRANCH  73  76
ATOM     76  C   UNL A   1      41.546  39.125  26.672  1.00  0.00    -0.052 C 
ATOM     77  H   UNL A   1      40.594  39.458  27.027  1.00  0.00     0.027 H 
ATOM     78  H   UNL A   1      41.583  38.992  25.611  1.00  0.00     0.027 H 
BRANCH  76  79
ATOM     79  C   UNL A   1      42.581  40.205  27.003  1.00  0.00    -0.036 C 
ATOM     80  H   UNL A   1      42.244  41.130  26.586  1.00  0.00     0.028 H 
ATOM     81  H   UNL A   1      43.511  39.877  26.586  1.00  0.00     0.028 H 
BRANCH  79  82
ATOM     82  C   UNL A   1      42.814  40.407  28.496  1.00  0.00     0.018 C 
ATOM     83  H   UNL A   1      42.525  39.518  29.018  1.00  0.00     0.049 H 
ATOM     84  H   UNL A   1      42.228  41.243  28.819  1.00  0.00     0.049 H 
BRANCH  82  85
ATOM     85  N   UNL A   1      44.216  40.689  28.783  1.00  0.00    -0.352 N 
ATOM     86  C   UNL A   1      45.094  39.997  29.583  1.00  0.00     0.251 C 
ATOM     87  H   UNL A   1      44.585  41.487  28.341  1.00  0.00     0.163 HD
ATOM     88  O   UNL A   1      46.152  40.498  29.938  1.00  0.00    -0.269 OA
BRANCH  86  89
ATOM     89  C   UNL A   1      44.744  38.626  30.001  1.00  0.00     0.039 A 
ATOM     90  C   UNL A   1      44.950  37.547  29.140  1.00  0.00    -0.049 A 
ATOM     91  C   UNL A   1      44.218  38.421  31.273  1.00  0.00    -0.049 A 
ATOM     92  C   UNL A   1      44.705  36.247  29.597  1.00  0.00    -0.053 A 
ATOM     93  H   UNL A   1      45.281  37.706  28.176  1.00  0.00     0.063 H 
ATOM     94  C   UNL A   1      44.056  37.129  31.753  1.00  0.00    -0.053 A 
ATOM     95  H   UNL A   1      43.949  39.228  31.859  1.00  0.00     0.063 H 
ATOM     96  C   UNL A   1      44.301  36.026  30.924  1.00  0.00    -0.014 A 
ATOM     97  H   UNL A   1      44.821  35.448  28.956  1.00  0.00     0.063 H 
ATOM     98  H   UNL A   1      43.753  36.980  32.729  1.00  0.00     0.063 H 
BRANCH  96  99
ATOM     99  C   UNL A   1      44.127  34.667  31.499  1.00  0.00     0.031 A 
ATOM    100  C   UNL A   1      45.336  33.864  31.894  1.00  0.00     0.074 A 
ATOM    101  C   UNL A   1      42.902  34.106  31.538  1.00  0.00     0.049 A 
ATOM    102  N   UNL A   1      45.417  32.603  32.238  1.00  0.00    -0.248 NA
ATOM    103  C   UNL A   1      46.633  34.559  31.857  1.00  0.00    -0.034 C 
ATOM    104  C   UNL A   1      41.660  34.762  31.135  1.00  0.00    -0.036 A 
ATOM    105  N   UNL A   1      42.506  32.845  31.914  1.00  0.00    -0.354 N 
ATOM    106  C   UNL A   1      46.769  32.352  32.430  1.00  0.00     0.074 A 
ATOM    107  C   UNL A   1      47.478  33.571  32.109  1.00  0.00    -0.034 C 
ATOM    108  H   UNL A   1      46.832  35.556  31.681  1.00  0.00     0.065 H 
ATOM    109  C   UNL A   1      40.638  33.909  31.303  1.00  0.00    -0.036 A 
ATOM    110  H   UNL A   1      41.580  35.727  30.778  1.00  0.00     0.065 H 
ATOM    111  C   UNL A   1      41.157  32.628  31.774  1.00  0.00     0.049 A 
ATOM    112  H   UNL A   1      43.130  32.162  32.250  1.00  0.00     0.167 HD
ATOM    113  C   UNL A   1      47.361  31.216  32.864  1.00  0.00     0.037 A 
ATOM    114  H   UNL A   1      48.506  33.658  32.078  1.00  0.00     0.065 H 
ATOM    115  H   UNL A   1      39.643  34.123  31.128  1.00  0.00     0.065 H 
ATOM    116  C   UNL A   1      40.421  31.518  31.983  1.00  0.00     0.037 A 
ATOM    117  C   UNL A   1      46.646  30.021  33.221  1.00  0.00     0.049 A 
ATOM    118  C   UNL A   1      41.101  30.261  32.453  1.00  0.00     0.074 A 
ATOM    119  C   UNL A   1      47.148  28.844  33.746  1.00  0.00    -0.036 A 
ATOM    120  N   UNL A   1      45.275  29.851  33.088  1.00  0.00    -0.354 N 
ATOM    121  N   UNL A   1      42.372  30.053  32.693  1.00  0.00    -0.248 NA
ATOM    122  C   UNL A   1      40.249  29.084  32.681  1.00  0.00    -0.034 C 
ATOM    123  C   UNL A   1      46.092  27.940  33.873  1.00  0.00    -0.036 A 
ATOM    124  H   UNL A   1      48.132  28.665  33.999  1.00  0.00     0.065 H 
ATOM    125  C   UNL A   1      44.920  28.574  33.492  1.00  0.00     0.049 A 
ATOM    126  H   UNL A   1      44.649  30.534  32.758  1.00  0.00     0.167 HD
ATOM    127  C   UNL A   1      42.472  28.737  33.124  1.00  0.00     0.074 A 
ATOM    128  C   UNL A   1      41.131  28.191  33.115  1.00  0.00    -0.034 C 
ATOM    129  H   UNL A   1      39.232  28.978  32.539  1.00  0.00     0.065 H 
ATOM    130  H   UNL A   1      46.170  26.963  34.197  1.00  0.00     0.065 H 
ATOM    131  C   UNL A   1      43.578  28.048  33.494  1.00  0.00     0.037 A 
ATOM    132  H   UNL A   1      40.891  27.232  33.411  1.00  0.00     0.065 H 
BRANCH 113 133
ATOM    133  C   UNL A   1      48.858  31.204  32.992  1.00  0.00     0.064 A 
ATOM    134  C   UNL A   1      49.477  31.693  34.153  1.00  0.00     0.173 A 
ATOM    135  C   UNL A   1      49.684  30.777  31.941  1.00  0.00     0.173 A 
ATOM    136  F   UNL A   1      48.736  32.122  35.186  1.00  0.00    -0.203 F 
ATOM    137  C   UNL A   1      50.864  31.764  34.251  1.00  0.00     0.198 A 
ATOM    138  C   UNL A   1      51.070  30.816  32.056  1.00  0.00     0.198 A 
ATOM    139  F   UNL A   1      49.144  30.294  30.812  1.00  0.00    -0.203 F 
ATOM    140  F   UNL A   1      51.431  32.268  35.356  1.00  0.00    -0.200 F 
ATOM    141  C   UNL A   1      51.660  31.319  33.206  1.00  0.00     0.200 A 
ATOM    142  F   UNL A   1      51.836  30.361  31.056  1.00  0.00    -0.200 F 
ATOM    143  F   UNL A   1      52.995  31.374  33.308  1.00  0.00    -0.200 F 
ENDBRANCH 113 133
BRANCH 116 144
ATOM    144  C   UNL A   1      38.951  31.570  31.774  1.00  0.00     0.064 A 
ATOM    145  C   UNL A   1      38.379  31.337  30.514  1.00  0.00     0.173 A 
ATOM    146  C   UNL A   1      38.090  31.915  32.826  1.00  0.00     0.173 A 
ATOM    147  F   UNL A   1      39.159  31.011  29.473  1.00  0.00    -0.203 F 
ATOM    148  C   UNL A   1      37.007  31.476  30.308  1.00  0.00     0.198 A 
ATOM    149  C   UNL A   1      36.716  32.028  32.624  1.00  0.00     0.198 A 
ATOM    150  F   UNL A   1      38.587  32.130  34.052  1.00  0.00    -0.203 F 
ATOM    151  F   UNL A   1      36.494  31.294  29.084  1.00  0.00    -0.200 F 
ATOM    152  C   UNL A   1      36.177  31.819  31.364  1.00  0.00     0.200 A 
ATOM    153  F   UNL A   1      35.915  32.339  33.652  1.00  0.00    -0.200 F 
ATOM    154  F   UNL A   1      34.858  31.952  31.166  1.00  0.00    -0.200 F 
ENDBRANCH 116 144
BRANCH 131 155
ATOM    155  C   UNL A   1      43.411  26.630  33.957  1.00  0.00     0.064 A 
ATOM    156  C   UNL A   1      43.009  26.362  35.276  1.00  0.00     0.173 A 
ATOM    157  C   UNL A   1      43.786  25.547  33.150  1.00  0.00     0.173 A 
ATOM    158  F   UNL A   1      42.650  27.366  36.090  1.00  0.00    -0.203 F 
ATOM    159  C   UNL A   1      43.028  25.066  35.780  1.00  0.00     0.198 A 
ATOM    160  C   UNL A   1      43.775  24.248  33.650  1.00  0.00     0.198 A 
ATOM    161  F   UNL A   1      44.166  25.752  31.880  1.00  0.00    -0.203 F 
ATOM    162  F   UNL A   1      42.698  24.841  37.060  1.00  0.00    -0.200 F 
ATOM    163  C   UNL A   1      43.413  24.010  34.968  1.00  0.00     0.200 A 
ATOM    164  F   UNL A   1      44.130  23.226  32.859  1.00  0.00    -0.200 F 
ATOM    165  F   UNL A   1      43.441  22.762  35.457  1.00  0.00    -0.200 F 
ENDBRANCH 131 155
ENDBRANCH  96  99
ENDBRANCH  86  89
ENDBRANCH  82  85
ENDBRANCH  79  82
ENDBRANCH  76  79
ENDBRANCH  73  76
ENDBRANCH   1  73
TORSDOF 21
ENDMDL
MODEL 9
REMARK VINA RESULT:     -11.7      5.518      9.820
REMARK SMILES CC1CC[NH+]([C@H](c2ccc(F)cc2)c2ccc([C@@H](C)C(=O)NCCCCCCNC(=O)c3ccc(-c4c5nc(c(-c6c(F)c(F)c(F)c(F)c6F)c6ccc([nH]6)c(-c6c(F)c(F)c(F)c(F)c6F)c6nc(c(-c7c(F)c(F)c(F)c(F)c7F)c7ccc4[nH]7)C=C6)C=C5)cc3)cc2-c2ccc(C(F)(F)F)cc2)CC1
REMARK SMILES IDX 24 1 23 4 22 7 20 8 21 9 18 11 17 13 14 14 15 15 96 16 16 17
REMARK SMILES IDX 95 19 6 22 5 24 2 25 3 26 108 27 4 29 107 32 1 40 7 44 8 45
REMARK SMILES IDX 13 46 9 47 12 49 10 51 11 54 97 55 98 56 106 57 99 58 105 60
REMARK SMILES IDX 100 62 101 65 102 66 103 67 104 68 19 69 25 73 26 76 27 79
REMARK SMILES IDX 28 82 29 85 30 86 31 88 32 89 33 90 94 91 34 92 93 94 35 96
REMARK SMILES IDX 36 99 37 100 87 101 38 102 92 103 86 104 88 105 39 106
REMARK SMILES IDX 91 107 85 109 84 111 40 113 72 116 52 117 71 118 53 119
REMARK SMILES IDX 56 120 70 121 89 122 54 123 55 125 69 127 90 128 57 131
REMARK SMILES IDX 41 133 42 134 50 135 43 136 44 137 48 138 51 139 45 140
REMARK SMILES IDX 46 141 49 142 47 143 73 144 74 145 82 146 75 147 76 148
REMARK SMILES IDX 80 149 83 150 77 151 78 152 81 153 79 154 58 155 59 156
REMARK SMILES IDX 67 157 60 158 61 159 65 160 68 161 62 162 63 163 66 164
REMARK SMILES IDX 64 165
REMARK H PARENT 24 2 24 3 23 5 23 6 22 10 18 12 15 18 16 20 95 21 6 23 2 28
REMARK H PARENT 3 30 3 31 108 33 108 34 4 35 4 36 107 37 107 38 5 39 1 41 1 42
REMARK H PARENT 1 43 8 48 13 50 9 52 12 53 98 59 106 61 99 63 105 64 19 70
REMARK H PARENT 19 71 19 72 25 74 25 75 26 77 26 78 27 80 27 81 28 83 28 84
REMARK H PARENT 29 87 33 93 94 95 34 97 93 98 92 108 86 110 88 112 91 114
REMARK H PARENT 85 115 53 124 56 126 89 129 54 130 90 132
REMARK Flexibility Score: inf
ROOT
ATOM      1  C   UNL A   1      45.508  28.924  27.676  1.00  0.00    -0.036 C 
ATOM      2  H   UNL A   1      46.219  29.451  28.276  1.00  0.00     0.028 H 
ATOM      3  H   UNL A   1      45.884  28.687  26.702  1.00  0.00     0.028 H 
ENDROOT
BRANCH   1   4
ATOM      4  C   UNL A   1      44.285  29.828  27.471  1.00  0.00     0.017 C 
ATOM      5  H   UNL A   1      43.784  29.952  28.409  1.00  0.00     0.049 H 
ATOM      6  H   UNL A   1      44.624  30.769  27.091  1.00  0.00     0.049 H 
BRANCH   4   7
ATOM      7  N   UNL A   1      43.355  29.263  26.513  1.00  0.00    -0.356 N 
ATOM      8  C   UNL A   1      42.250  28.480  26.644  1.00  0.00     0.227 C 
ATOM      9  O   UNL A   1      41.722  28.112  25.587  1.00  0.00    -0.274 OA
ATOM     10  H   UNL A   1      43.566  29.491  25.579  1.00  0.00     0.163 HD
BRANCH   8  11
ATOM     11  C   UNL A   1      41.634  28.051  27.991  1.00  0.00     0.060 C 
ATOM     12  H   UNL A   1      42.346  28.334  28.739  1.00  0.00     0.045 H 
BRANCH  11  13
ATOM     13  C   UNL A   1      40.386  28.835  28.355  1.00  0.00    -0.035 A 
ATOM     14  C   UNL A   1      38.142  30.581  28.730  1.00  0.00     0.022 A 
ATOM     15  C   UNL A   1      38.110  29.471  27.872  1.00  0.00    -0.052 A 
ATOM     16  C   UNL A   1      39.307  30.719  29.536  1.00  0.00    -0.009 A 
ATOM     17  C   UNL A   1      39.162  28.569  27.771  1.00  0.00    -0.058 A 
ATOM     18  H   UNL A   1      37.270  29.318  27.292  1.00  0.00     0.063 H 
ATOM     19  C   UNL A   1      40.433  29.895  29.270  1.00  0.00    -0.050 A 
ATOM     20  H   UNL A   1      39.028  27.687  27.252  1.00  0.00     0.063 H 
ATOM     21  H   UNL A   1      41.316  30.083  29.769  1.00  0.00     0.063 H 
BRANCH  14  22
ATOM     22  C   UNL A   1      36.925  31.546  28.826  1.00  0.00     0.139 C 
ATOM     23  H   UNL A   1      37.292  32.367  28.245  1.00  0.00     0.107 H 
BRANCH  22  24
ATOM     24  N   UNL A   1      36.610  32.154  30.163  1.00  0.00    -0.325 N 
ATOM     25  C   UNL A   1      34.681  33.389  31.987  1.00  0.00    -0.034 C 
ATOM     26  C   UNL A   1      35.162  31.967  32.261  1.00  0.00    -0.001 C 
ATOM     27  C   UNL A   1      35.860  34.186  31.452  1.00  0.00    -0.001 C 
ATOM     28  H   UNL A   1      33.885  33.370  31.272  1.00  0.00     0.030 H 
ATOM     29  C   UNL A   1      35.791  31.301  31.030  1.00  0.00     0.078 C 
ATOM     30  H   UNL A   1      34.326  31.379  32.577  1.00  0.00     0.033 H 
ATOM     31  H   UNL A   1      35.918  32.023  33.016  1.00  0.00     0.033 H 
ATOM     32  C   UNL A   1      36.336  33.591  30.136  1.00  0.00     0.078 C 
ATOM     33  H   UNL A   1      36.659  34.157  32.164  1.00  0.00     0.033 H 
ATOM     34  H   UNL A   1      35.554  35.198  31.290  1.00  0.00     0.033 H 
ATOM     35  H   UNL A   1      34.995  30.904  30.435  1.00  0.00     0.092 H 
ATOM     36  H   UNL A   1      36.466  30.569  31.421  1.00  0.00     0.092 H 
ATOM     37  H   UNL A   1      35.581  33.770  29.399  1.00  0.00     0.092 H 
ATOM     38  H   UNL A   1      37.269  34.067  29.914  1.00  0.00     0.092 H 
ATOM     39  H   UNL A   1      37.487  32.164  30.684  1.00  0.00     0.348 HD
BRANCH  25  40
ATOM     40  C   UNL A   1      34.135  34.037  33.249  1.00  0.00    -0.062 C 
ATOM     41  H   UNL A   1      33.580  33.315  33.810  1.00  0.00     0.023 H 
ATOM     42  H   UNL A   1      33.492  34.851  32.982  1.00  0.00     0.023 H 
ATOM     43  H   UNL A   1      34.945  34.404  33.842  1.00  0.00     0.023 H 
ENDBRANCH  25  40
ENDBRANCH  22  24
BRANCH  22  44
ATOM     44  C   UNL A   1      35.641  30.981  28.184  1.00  0.00     0.014 A 
ATOM     45  C   UNL A   1      34.546  31.806  27.853  1.00  0.00    -0.050 A 
ATOM     46  C   UNL A   1      35.545  29.604  27.911  1.00  0.00    -0.050 A 
ATOM     47  C   UNL A   1      33.405  31.273  27.251  1.00  0.00    -0.026 A 
ATOM     48  H   UNL A   1      34.587  32.816  28.060  1.00  0.00     0.063 H 
ATOM     49  C   UNL A   1      34.387  29.067  27.346  1.00  0.00    -0.026 A 
ATOM     50  H   UNL A   1      36.340  28.983  28.130  1.00  0.00     0.063 H 
ATOM     51  C   UNL A   1      33.333  29.907  27.012  1.00  0.00     0.123 A 
ATOM     52  H   UNL A   1      32.622  31.889  26.985  1.00  0.00     0.065 H 
ATOM     53  H   UNL A   1      34.314  28.051  27.178  1.00  0.00     0.065 H 
ATOM     54  F   UNL A   1      32.231  29.393  26.451  1.00  0.00    -0.207 F 
ENDBRANCH  22  44
ENDBRANCH  14  22
BRANCH  16  55
ATOM     55  C   UNL A   1      39.396  31.635  30.691  1.00  0.00    -0.018 A 
ATOM     56  C   UNL A   1      38.924  31.268  31.959  1.00  0.00    -0.054 A 
ATOM     57  C   UNL A   1      39.917  32.930  30.529  1.00  0.00    -0.054 A 
ATOM     58  C   UNL A   1      39.003  32.154  33.039  1.00  0.00    -0.049 A 
ATOM     59  H   UNL A   1      38.512  30.332  32.098  1.00  0.00     0.063 H 
ATOM     60  C   UNL A   1      40.011  33.813  31.609  1.00  0.00    -0.049 A 
ATOM     61  H   UNL A   1      40.235  33.235  29.596  1.00  0.00     0.063 H 
ATOM     62  C   UNL A   1      39.562  33.430  32.878  1.00  0.00     0.056 A 
ATOM     63  H   UNL A   1      38.646  31.865  33.963  1.00  0.00     0.063 H 
ATOM     64  H   UNL A   1      40.413  34.753  31.468  1.00  0.00     0.063 H 
BRANCH  62  65
ATOM     65  C   UNL A   1      39.654  34.373  34.052  1.00  0.00     0.416 C 
ATOM     66  F   UNL A   1      38.473  35.001  34.308  1.00  0.00    -0.166 F 
ATOM     67  F   UNL A   1      40.002  33.742  35.207  1.00  0.00    -0.166 F 
ATOM     68  F   UNL A   1      40.573  35.364  33.879  1.00  0.00    -0.166 F 
ENDBRANCH  62  65
ENDBRANCH  16  55
ENDBRANCH  11  13
BRANCH  11  69
ATOM     69  C   UNL A   1      41.531  26.538  28.172  1.00  0.00    -0.049 C 
ATOM     70  H   UNL A   1      40.920  26.322  29.024  1.00  0.00     0.024 H 
ATOM     71  H   UNL A   1      42.508  26.129  28.321  1.00  0.00     0.024 H 
ATOM     72  H   UNL A   1      41.091  26.103  27.299  1.00  0.00     0.024 H 
ENDBRANCH  11  69
ENDBRANCH   8  11
ENDBRANCH   4   7
ENDBRANCH   1   4
BRANCH   1  73
ATOM     73  C   UNL A   1      45.190  27.595  28.364  1.00  0.00    -0.052 C 
ATOM     74  H   UNL A   1      46.039  26.952  28.256  1.00  0.00     0.027 H 
ATOM     75  H   UNL A   1      44.310  27.212  27.892  1.00  0.00     0.027 H 
BRANCH  73  76
ATOM     76  C   UNL A   1      44.865  27.709  29.859  1.00  0.00    -0.052 C 
ATOM     77  H   UNL A   1      44.091  28.437  29.975  1.00  0.00     0.027 H 
ATOM     78  H   UNL A   1      45.781  27.980  30.342  1.00  0.00     0.027 H 
BRANCH  76  79
ATOM     79  C   UNL A   1      44.400  26.410  30.524  1.00  0.00    -0.036 C 
ATOM     80  H   UNL A   1      44.609  25.599  29.859  1.00  0.00     0.028 H 
ATOM     81  H   UNL A   1      43.354  26.523  30.721  1.00  0.00     0.028 H 
BRANCH  79  82
ATOM     82  C   UNL A   1      45.072  26.119  31.861  1.00  0.00     0.018 C 
ATOM     83  H   UNL A   1      45.641  26.976  32.159  1.00  0.00     0.049 H 
ATOM     84  H   UNL A   1      45.707  25.266  31.742  1.00  0.00     0.049 H 
BRANCH  82  85
ATOM     85  N   UNL A   1      44.089  25.819  32.897  1.00  0.00    -0.352 N 
ATOM     86  C   UNL A   1      43.403  26.684  33.717  1.00  0.00     0.251 C 
ATOM     87  H   UNL A   1      43.890  24.865  33.026  1.00  0.00     0.163 HD
ATOM     88  O   UNL A   1      42.817  26.278  34.711  1.00  0.00    -0.269 OA
BRANCH  86  89
ATOM     89  C   UNL A   1      43.372  28.118  33.371  1.00  0.00     0.039 A 
ATOM     90  C   UNL A   1      42.190  28.718  32.935  1.00  0.00    -0.049 A 
ATOM     91  C   UNL A   1      44.538  28.868  33.498  1.00  0.00    -0.049 A 
ATOM     92  C   UNL A   1      42.163  30.099  32.711  1.00  0.00    -0.053 A 
ATOM     93  H   UNL A   1      41.343  28.149  32.782  1.00  0.00     0.063 H 
ATOM     94  C   UNL A   1      44.489  30.248  33.357  1.00  0.00    -0.053 A 
ATOM     95  H   UNL A   1      45.437  28.400  33.696  1.00  0.00     0.063 H 
ATOM     96  C   UNL A   1      43.302  30.882  32.967  1.00  0.00    -0.014 A 
ATOM     97  H   UNL A   1      41.304  30.544  32.356  1.00  0.00     0.063 H 
ATOM     98  H   UNL A   1      45.334  30.811  33.543  1.00  0.00     0.063 H 
BRANCH  96  99
ATOM     99  C   UNL A   1      43.305  32.363  32.849  1.00  0.00     0.031 A 
ATOM    100  C   UNL A   1      43.538  33.005  31.510  1.00  0.00     0.074 A 
ATOM    101  C   UNL A   1      43.235  33.125  33.959  1.00  0.00     0.049 A 
ATOM    102  N   UNL A   1      43.760  34.263  31.220  1.00  0.00    -0.248 NA
ATOM    103  C   UNL A   1      43.567  32.108  30.342  1.00  0.00    -0.034 C 
ATOM    104  C   UNL A   1      43.061  32.620  35.320  1.00  0.00    -0.036 A 
ATOM    105  N   UNL A   1      43.328  34.486  34.118  1.00  0.00    -0.354 N 
ATOM    106  C   UNL A   1      43.981  34.300  29.850  1.00  0.00     0.074 A 
ATOM    107  C   UNL A   1      43.925  32.936  29.372  1.00  0.00    -0.034 C 
ATOM    108  H   UNL A   1      43.362  31.098  30.293  1.00  0.00     0.065 H 
ATOM    109  C   UNL A   1      43.039  33.655  36.173  1.00  0.00    -0.036 A 
ATOM    110  H   UNL A   1      42.970  31.626  35.584  1.00  0.00     0.065 H 
ATOM    111  C   UNL A   1      43.251  34.894  35.428  1.00  0.00     0.049 A 
ATOM    112  H   UNL A   1      43.439  35.110  33.365  1.00  0.00     0.167 HD
ATOM    113  C   UNL A   1      44.183  35.379  29.059  1.00  0.00     0.037 A 
ATOM    114  H   UNL A   1      44.136  32.647  28.404  1.00  0.00     0.065 H 
ATOM    115  H   UNL A   1      42.895  33.588  37.193  1.00  0.00     0.065 H 
ATOM    116  C   UNL A   1      43.357  36.122  35.972  1.00  0.00     0.037 A 
ATOM    117  C   UNL A   1      44.197  36.735  29.535  1.00  0.00     0.049 A 
ATOM    118  C   UNL A   1      43.595  37.307  35.076  1.00  0.00     0.074 A 
ATOM    119  C   UNL A   1      44.315  37.901  28.801  1.00  0.00    -0.036 A 
ATOM    120  N   UNL A   1      44.090  37.106  30.868  1.00  0.00    -0.354 N 
ATOM    121  N   UNL A   1      43.738  37.338  33.774  1.00  0.00    -0.248 NA
ATOM    122  C   UNL A   1      43.687  38.626  35.720  1.00  0.00    -0.034 C 
ATOM    123  C   UNL A   1      44.342  38.975  29.694  1.00  0.00    -0.036 A 
ATOM    124  H   UNL A   1      44.373  37.966  27.773  1.00  0.00     0.065 H 
ATOM    125  C   UNL A   1      44.172  38.484  30.979  1.00  0.00     0.049 A 
ATOM    126  H   UNL A   1      43.973  36.484  31.622  1.00  0.00     0.167 HD
ATOM    127  C   UNL A   1      43.910  38.674  33.439  1.00  0.00     0.074 A 
ATOM    128  C   UNL A   1      43.851  39.427  34.674  1.00  0.00    -0.034 C 
ATOM    129  H   UNL A   1      43.638  38.866  36.722  1.00  0.00     0.065 H 
ATOM    130  H   UNL A   1      44.466  39.967  29.439  1.00  0.00     0.065 H 
ATOM    131  C   UNL A   1      44.097  39.223  32.214  1.00  0.00     0.037 A 
ATOM    132  H   UNL A   1      43.926  40.454  34.733  1.00  0.00     0.065 H 
BRANCH 113 133
ATOM    133  C   UNL A   1      44.395  35.146  27.589  1.00  0.00     0.064 A 
ATOM    134  C   UNL A   1      43.297  35.010  26.726  1.00  0.00     0.173 A 
ATOM    135  C   UNL A   1      45.679  34.989  27.046  1.00  0.00     0.173 A 
ATOM    136  F   UNL A   1      42.047  35.143  27.193  1.00  0.00    -0.203 F 
ATOM    137  C   UNL A   1      43.478  34.713  25.377  1.00  0.00     0.198 A 
ATOM    138  C   UNL A   1      45.857  34.728  25.691  1.00  0.00     0.198 A 
ATOM    139  F   UNL A   1      46.762  35.117  27.827  1.00  0.00    -0.203 F 
ATOM    140  F   UNL A   1      42.413  34.551  24.580  1.00  0.00    -0.200 F 
ATOM    141  C   UNL A   1      44.758  34.579  24.859  1.00  0.00     0.200 A 
ATOM    142  F   UNL A   1      47.095  34.625  25.188  1.00  0.00    -0.200 F 
ATOM    143  F   UNL A   1      44.930  34.308  23.558  1.00  0.00    -0.200 F 
ENDBRANCH 113 133
BRANCH 116 144
ATOM    144  C   UNL A   1      43.207  36.282  37.442  1.00  0.00     0.064 A 
ATOM    145  C   UNL A   1      44.302  36.155  38.311  1.00  0.00     0.173 A 
ATOM    146  C   UNL A   1      41.946  36.507  38.012  1.00  0.00     0.173 A 
ATOM    147  F   UNL A   1      45.529  35.932  37.817  1.00  0.00    -0.203 F 
ATOM    148  C   UNL A   1      44.136  36.218  39.693  1.00  0.00     0.198 A 
ATOM    149  C   UNL A   1      41.786  36.596  39.394  1.00  0.00     0.198 A 
ATOM    150  F   UNL A   1      40.873  36.653  37.223  1.00  0.00    -0.203 F 
ATOM    151  F   UNL A   1      45.191  36.046  40.501  1.00  0.00    -0.200 F 
ATOM    152  C   UNL A   1      42.878  36.441  40.233  1.00  0.00     0.200 A 
ATOM    153  F   UNL A   1      40.573  36.832  39.911  1.00  0.00    -0.200 F 
ATOM    154  F   UNL A   1      42.719  36.502  41.562  1.00  0.00    -0.200 F 
ENDBRANCH 116 144
BRANCH 131 155
ATOM    155  C   UNL A   1      44.224  40.716  32.116  1.00  0.00     0.064 A 
ATOM    156  C   UNL A   1      43.106  41.498  31.782  1.00  0.00     0.173 A 
ATOM    157  C   UNL A   1      45.470  41.351  32.204  1.00  0.00     0.173 A 
ATOM    158  F   UNL A   1      41.894  40.933  31.676  1.00  0.00    -0.203 F 
ATOM    159  C   UNL A   1      43.239  42.854  31.504  1.00  0.00     0.198 A 
ATOM    160  C   UNL A   1      45.594  42.715  31.953  1.00  0.00     0.198 A 
ATOM    161  F   UNL A   1      46.565  40.648  32.530  1.00  0.00    -0.203 F 
ATOM    162  F   UNL A   1      42.168  43.568  31.130  1.00  0.00    -0.200 F 
ATOM    163  C   UNL A   1      44.483  43.461  31.587  1.00  0.00     0.200 A 
ATOM    164  F   UNL A   1      46.793  43.305  32.051  1.00  0.00    -0.200 F 
ATOM    165  F   UNL A   1      44.613  44.766  31.307  1.00  0.00    -0.200 F 
ENDBRANCH 131 155
ENDBRANCH  96  99
ENDBRANCH  86  89
ENDBRANCH  82  85
ENDBRANCH  79  82
ENDBRANCH  76  79
ENDBRANCH  73  76
ENDBRANCH   1  73
TORSDOF 21
ENDMDL
MODEL 10
REMARK VINA RESULT:     -11.7      5.828     10.788
REMARK SMILES CC1CC[NH+]([C@H](c2ccc(F)cc2)c2ccc([C@@H](C)C(=O)NCCCCCCNC(=O)c3ccc(-c4c5nc(c(-c6c(F)c(F)c(F)c(F)c6F)c6ccc([nH]6)c(-c6c(F)c(F)c(F)c(F)c6F)c6nc(c(-c7c(F)c(F)c(F)c(F)c7F)c7ccc4[nH]7)C=C6)C=C5)cc3)cc2-c2ccc(C(F)(F)F)cc2)CC1
REMARK SMILES IDX 24 1 23 4 22 7 20 8 21 9 18 11 17 13 14 14 15 15 96 16 16 17
REMARK SMILES IDX 95 19 6 22 5 24 2 25 3 26 108 27 4 29 107 32 1 40 7 44 8 45
REMARK SMILES IDX 13 46 9 47 12 49 10 51 11 54 97 55 98 56 106 57 99 58 105 60
REMARK SMILES IDX 100 62 101 65 102 66 103 67 104 68 19 69 25 73 26 76 27 79
REMARK SMILES IDX 28 82 29 85 30 86 31 88 32 89 33 90 94 91 34 92 93 94 35 96
REMARK SMILES IDX 36 99 37 100 87 101 38 102 92 103 86 104 88 105 39 106
REMARK SMILES IDX 91 107 85 109 84 111 40 113 72 116 52 117 71 118 53 119
REMARK SMILES IDX 56 120 70 121 89 122 54 123 55 125 69 127 90 128 57 131
REMARK SMILES IDX 41 133 42 134 50 135 43 136 44 137 48 138 51 139 45 140
REMARK SMILES IDX 46 141 49 142 47 143 73 144 74 145 82 146 75 147 76 148
REMARK SMILES IDX 80 149 83 150 77 151 78 152 81 153 79 154 58 155 59 156
REMARK SMILES IDX 67 157 60 158 61 159 65 160 68 161 62 162 63 163 66 164
REMARK SMILES IDX 64 165
REMARK H PARENT 24 2 24 3 23 5 23 6 22 10 18 12 15 18 16 20 95 21 6 23 2 28
REMARK H PARENT 3 30 3 31 108 33 108 34 4 35 4 36 107 37 107 38 5 39 1 41 1 42
REMARK H PARENT 1 43 8 48 13 50 9 52 12 53 98 59 106 61 99 63 105 64 19 70
REMARK H PARENT 19 71 19 72 25 74 25 75 26 77 26 78 27 80 27 81 28 83 28 84
REMARK H PARENT 29 87 33 93 94 95 34 97 93 98 92 108 86 110 88 112 91 114
REMARK H PARENT 85 115 53 124 56 126 89 129 54 130 90 132
REMARK Flexibility Score: inf
ROOT
ATOM      1  C   UNL A   1      54.587  26.409  29.545  1.00  0.00    -0.036 C 
ATOM      2  H   UNL A   1      55.412  27.020  29.843  1.00  0.00     0.028 H 
ATOM      3  H   UNL A   1      54.843  25.372  29.480  1.00  0.00     0.028 H 
ENDROOT
BRANCH   1   4
ATOM      4  C   UNL A   1      54.144  26.845  28.142  1.00  0.00     0.017 C 
ATOM      5  H   UNL A   1      53.253  27.432  28.225  1.00  0.00     0.049 H 
ATOM      6  H   UNL A   1      54.938  27.414  27.703  1.00  0.00     0.049 H 
BRANCH   4   7
ATOM      7  N   UNL A   1      53.878  25.706  27.286  1.00  0.00    -0.356 N 
ATOM      8  C   UNL A   1      52.940  25.464  26.329  1.00  0.00     0.227 C 
ATOM      9  O   UNL A   1      52.958  24.331  25.834  1.00  0.00    -0.274 OA
ATOM     10  H   UNL A   1      54.501  24.957  27.424  1.00  0.00     0.163 HD
BRANCH   8  11
ATOM     11  C   UNL A   1      51.901  26.493  25.840  1.00  0.00     0.060 C 
ATOM     12  H   UNL A   1      51.692  26.233  24.823  1.00  0.00     0.045 H 
BRANCH  11  13
ATOM     13  C   UNL A   1      50.558  26.363  26.537  1.00  0.00    -0.035 A 
ATOM     14  C   UNL A   1      47.877  25.981  27.479  1.00  0.00     0.022 A 
ATOM     15  C   UNL A   1      48.857  24.979  27.540  1.00  0.00    -0.052 A 
ATOM     16  C   UNL A   1      48.319  27.268  27.061  1.00  0.00    -0.009 A 
ATOM     17  C   UNL A   1      50.180  25.199  27.179  1.00  0.00    -0.058 A 
ATOM     18  H   UNL A   1      48.583  24.039  27.867  1.00  0.00     0.063 H 
ATOM     19  C   UNL A   1      49.625  27.408  26.521  1.00  0.00    -0.050 A 
ATOM     20  H   UNL A   1      50.892  24.483  27.393  1.00  0.00     0.063 H 
ATOM     21  H   UNL A   1      49.897  28.311  26.103  1.00  0.00     0.063 H 
BRANCH  14  22
ATOM     22  C   UNL A   1      46.414  25.690  27.922  1.00  0.00     0.139 C 
ATOM     23  H   UNL A   1      46.012  26.683  27.899  1.00  0.00     0.107 H 
BRANCH  22  24
ATOM     24  N   UNL A   1      46.181  25.231  29.333  1.00  0.00    -0.325 N 
ATOM     25  C   UNL A   1      45.002  25.679  31.975  1.00  0.00    -0.034 C 
ATOM     26  C   UNL A   1      44.410  24.605  31.066  1.00  0.00    -0.001 C 
ATOM     27  C   UNL A   1      46.511  25.665  31.794  1.00  0.00    -0.001 C 
ATOM     28  H   UNL A   1      44.601  26.635  31.712  1.00  0.00     0.030 H 
ATOM     29  C   UNL A   1      44.810  24.779  29.595  1.00  0.00     0.078 C 
ATOM     30  H   UNL A   1      43.343  24.648  31.137  1.00  0.00     0.033 H 
ATOM     31  H   UNL A   1      44.794  23.661  31.393  1.00  0.00     0.033 H 
ATOM     32  C   UNL A   1      46.866  26.019  30.357  1.00  0.00     0.078 C 
ATOM     33  H   UNL A   1      46.886  24.689  32.020  1.00  0.00     0.033 H 
ATOM     34  H   UNL A   1      46.950  26.386  32.451  1.00  0.00     0.033 H 
ATOM     35  H   UNL A   1      44.145  25.496  29.162  1.00  0.00     0.092 H 
ATOM     36  H   UNL A   1      44.752  23.799  29.171  1.00  0.00     0.092 H 
ATOM     37  H   UNL A   1      46.622  27.049  30.200  1.00  0.00     0.092 H 
ATOM     38  H   UNL A   1      47.909  25.806  30.247  1.00  0.00     0.092 H 
ATOM     39  H   UNL A   1      46.690  24.353  29.433  1.00  0.00     0.348 HD
BRANCH  25  40
ATOM     40  C   UNL A   1      44.643  25.427  33.430  1.00  0.00    -0.062 C 
ATOM     41  H   UNL A   1      44.529  26.362  33.937  1.00  0.00     0.023 H 
ATOM     42  H   UNL A   1      45.423  24.861  33.897  1.00  0.00     0.023 H 
ATOM     43  H   UNL A   1      43.726  24.879  33.483  1.00  0.00     0.023 H 
ENDBRANCH  25  40
ENDBRANCH  22  24
BRANCH  22  44
ATOM     44  C   UNL A   1      45.641  24.791  26.935  1.00  0.00     0.014 A 
ATOM     45  C   UNL A   1      44.763  25.323  25.968  1.00  0.00    -0.050 A 
ATOM     46  C   UNL A   1      45.807  23.394  26.988  1.00  0.00    -0.050 A 
ATOM     47  C   UNL A   1      44.094  24.488  25.072  1.00  0.00    -0.026 A 
ATOM     48  H   UNL A   1      44.613  26.343  25.923  1.00  0.00     0.063 H 
ATOM     49  C   UNL A   1      45.105  22.558  26.118  1.00  0.00    -0.026 A 
ATOM     50  H   UNL A   1      46.455  22.983  27.678  1.00  0.00     0.063 H 
ATOM     51  C   UNL A   1      44.265  23.113  25.162  1.00  0.00     0.123 A 
ATOM     52  H   UNL A   1      43.478  24.889  24.348  1.00  0.00     0.065 H 
ATOM     53  H   UNL A   1      45.210  21.533  26.184  1.00  0.00     0.065 H 
ATOM     54  F   UNL A   1      43.608  22.311  24.314  1.00  0.00    -0.207 F 
ENDBRANCH  22  44
ENDBRANCH  14  22
BRANCH  16  55
ATOM     55  C   UNL A   1      47.515  28.497  27.216  1.00  0.00    -0.018 A 
ATOM     56  C   UNL A   1      47.742  29.396  28.268  1.00  0.00    -0.054 A 
ATOM     57  C   UNL A   1      46.459  28.770  26.330  1.00  0.00    -0.054 A 
ATOM     58  C   UNL A   1      46.961  30.549  28.408  1.00  0.00    -0.049 A 
ATOM     59  H   UNL A   1      48.494  29.205  28.948  1.00  0.00     0.063 H 
ATOM     60  C   UNL A   1      45.686  29.927  26.457  1.00  0.00    -0.049 A 
ATOM     61  H   UNL A   1      46.250  28.102  25.571  1.00  0.00     0.063 H 
ATOM     62  C   UNL A   1      45.936  30.834  27.494  1.00  0.00     0.056 A 
ATOM     63  H   UNL A   1      47.141  31.195  29.192  1.00  0.00     0.063 H 
ATOM     64  H   UNL A   1      44.928  30.113  25.783  1.00  0.00     0.063 H 
BRANCH  62  65
ATOM     65  C   UNL A   1      45.108  32.085  27.647  1.00  0.00     0.416 C 
ATOM     66  F   UNL A   1      45.831  33.218  27.428  1.00  0.00    -0.166 F 
ATOM     67  F   UNL A   1      44.062  32.134  26.777  1.00  0.00    -0.166 F 
ATOM     68  F   UNL A   1      44.563  32.226  28.889  1.00  0.00    -0.166 F 
ENDBRANCH  62  65
ENDBRANCH  16  55
ENDBRANCH  11  13
BRANCH  11  69
ATOM     69  C   UNL A   1      52.443  27.916  25.724  1.00  0.00    -0.049 C 
ATOM     70  H   UNL A   1      53.347  27.908  25.151  1.00  0.00     0.024 H 
ATOM     71  H   UNL A   1      52.644  28.302  26.701  1.00  0.00     0.024 H 
ATOM     72  H   UNL A   1      51.719  28.535  25.239  1.00  0.00     0.024 H 
ENDBRANCH  11  69
ENDBRANCH   8  11
ENDBRANCH   4   7
ENDBRANCH   1   4
BRANCH   1  73
ATOM     73  C   UNL A   1      53.492  26.530  30.607  1.00  0.00    -0.052 C 
ATOM     74  H   UNL A   1      53.812  27.244  31.336  1.00  0.00     0.027 H 
ATOM     75  H   UNL A   1      53.353  25.549  31.012  1.00  0.00     0.027 H 
BRANCH  73  76
ATOM     76  C   UNL A   1      52.125  26.974  30.070  1.00  0.00    -0.052 C 
ATOM     77  H   UNL A   1      52.161  26.938  29.002  1.00  0.00     0.027 H 
ATOM     78  H   UNL A   1      51.959  27.958  30.459  1.00  0.00     0.027 H 
BRANCH  76  79
ATOM     79  C   UNL A   1      50.937  26.126  30.535  1.00  0.00    -0.036 C 
ATOM     80  H   UNL A   1      51.312  25.326  31.138  1.00  0.00     0.028 H 
ATOM     81  H   UNL A   1      50.442  25.780  29.651  1.00  0.00     0.028 H 
BRANCH  79  82
ATOM     82  C   UNL A   1      49.902  26.896  31.348  1.00  0.00     0.018 C 
ATOM     83  H   UNL A   1      49.015  26.302  31.435  1.00  0.00     0.049 H 
ATOM     84  H   UNL A   1      49.694  27.817  30.843  1.00  0.00     0.049 H 
BRANCH  82  85
ATOM     85  N   UNL A   1      50.398  27.205  32.684  1.00  0.00    -0.352 N 
ATOM     86  C   UNL A   1      50.013  28.210  33.541  1.00  0.00     0.251 C 
ATOM     87  H   UNL A   1      51.107  26.613  33.020  1.00  0.00     0.163 HD
ATOM     88  O   UNL A   1      50.697  28.509  34.509  1.00  0.00    -0.269 OA
BRANCH  86  89
ATOM     89  C   UNL A   1      48.746  28.920  33.279  1.00  0.00     0.039 A 
ATOM     90  C   UNL A   1      48.697  29.971  32.363  1.00  0.00    -0.049 A 
ATOM     91  C   UNL A   1      47.595  28.516  33.950  1.00  0.00    -0.049 A 
ATOM     92  C   UNL A   1      47.464  30.560  32.059  1.00  0.00    -0.053 A 
ATOM     93  H   UNL A   1      49.561  30.311  31.913  1.00  0.00     0.063 H 
ATOM     94  C   UNL A   1      46.364  29.041  33.586  1.00  0.00    -0.053 A 
ATOM     95  H   UNL A   1      47.657  27.827  34.716  1.00  0.00     0.063 H 
ATOM     96  C   UNL A   1      46.281  30.066  32.634  1.00  0.00    -0.014 A 
ATOM     97  H   UNL A   1      47.424  31.360  31.410  1.00  0.00     0.063 H 
ATOM     98  H   UNL A   1      45.502  28.674  34.020  1.00  0.00     0.063 H 
BRANCH  96  99
ATOM     99  C   UNL A   1      44.934  30.578  32.271  1.00  0.00     0.031 A 
ATOM    100  C   UNL A   1      44.295  31.655  33.104  1.00  0.00     0.074 A 
ATOM    101  C   UNL A   1      44.233  29.985  31.284  1.00  0.00     0.049 A 
ATOM    102  N   UNL A   1      43.067  32.109  33.074  1.00  0.00    -0.248 NA
ATOM    103  C   UNL A   1      45.137  32.277  34.139  1.00  0.00    -0.034 C 
ATOM    104  C   UNL A   1      44.721  28.897  30.438  1.00  0.00    -0.036 A 
ATOM    105  N   UNL A   1      42.950  30.199  30.843  1.00  0.00    -0.354 N 
ATOM    106  C   UNL A   1      42.986  33.043  34.097  1.00  0.00     0.074 A 
ATOM    107  C   UNL A   1      44.266  33.052  34.769  1.00  0.00    -0.034 C 
ATOM    108  H   UNL A   1      46.143  32.143  34.326  1.00  0.00     0.065 H 
ATOM    109  C   UNL A   1      43.761  28.551  29.568  1.00  0.00    -0.036 A 
ATOM    110  H   UNL A   1      45.657  28.463  30.500  1.00  0.00     0.065 H 
ATOM    111  C   UNL A   1      42.569  29.355  29.827  1.00  0.00     0.049 A 
ATOM    112  H   UNL A   1      42.359  30.891  31.218  1.00  0.00     0.167 HD
ATOM    113  C   UNL A   1      41.945  33.842  34.427  1.00  0.00     0.037 A 
ATOM    114  H   UNL A   1      44.474  33.590  35.625  1.00  0.00     0.065 H 
ATOM    115  H   UNL A   1      43.849  27.833  28.832  1.00  0.00     0.065 H 
ATOM    116  C   UNL A   1      41.389  29.228  29.189  1.00  0.00     0.037 A 
ATOM    117  C   UNL A   1      40.688  33.857  33.728  1.00  0.00     0.049 A 
ATOM    118  C   UNL A   1      40.240  30.117  29.579  1.00  0.00     0.074 A 
ATOM    119  C   UNL A   1      39.601  34.685  33.935  1.00  0.00    -0.036 A 
ATOM    120  N   UNL A   1      40.352  33.002  32.688  1.00  0.00    -0.354 N 
ATOM    121  N   UNL A   1      40.194  31.043  30.506  1.00  0.00    -0.248 NA
ATOM    122  C   UNL A   1      38.980  29.948  28.840  1.00  0.00    -0.034 C 
ATOM    123  C   UNL A   1      38.584  34.292  33.063  1.00  0.00    -0.036 A 
ATOM    124  H   UNL A   1      39.550  35.459  34.616  1.00  0.00     0.065 H 
ATOM    125  C   UNL A   1      39.060  33.264  32.265  1.00  0.00     0.049 A 
ATOM    126  H   UNL A   1      40.943  32.314  32.306  1.00  0.00     0.167 HD
ATOM    127  C   UNL A   1      38.917  31.583  30.446  1.00  0.00     0.074 A 
ATOM    128  C   UNL A   1      38.216  30.885  29.389  1.00  0.00    -0.034 C 
ATOM    129  H   UNL A   1      38.750  29.276  28.091  1.00  0.00     0.065 H 
ATOM    130  H   UNL A   1      37.636  34.700  33.020  1.00  0.00     0.065 H 
ATOM    131  C   UNL A   1      38.378  32.571  31.200  1.00  0.00     0.037 A 
ATOM    132  H   UNL A   1      37.248  31.090  29.098  1.00  0.00     0.065 H 
BRANCH 113 133
ATOM    133  C   UNL A   1      42.116  34.781  35.587  1.00  0.00     0.064 A 
ATOM    134  C   UNL A   1      41.592  34.456  36.848  1.00  0.00     0.173 A 
ATOM    135  C   UNL A   1      42.736  36.031  35.438  1.00  0.00     0.173 A 
ATOM    136  F   UNL A   1      40.983  33.278  37.045  1.00  0.00    -0.203 F 
ATOM    137  C   UNL A   1      41.672  35.353  37.911  1.00  0.00     0.198 A 
ATOM    138  C   UNL A   1      42.846  36.910  36.512  1.00  0.00     0.198 A 
ATOM    139  F   UNL A   1      43.261  36.387  34.256  1.00  0.00    -0.203 F 
ATOM    140  F   UNL A   1      41.132  35.035  39.095  1.00  0.00    -0.200 F 
ATOM    141  C   UNL A   1      42.305  36.576  37.743  1.00  0.00     0.200 A 
ATOM    142  F   UNL A   1      43.481  38.079  36.354  1.00  0.00    -0.200 F 
ATOM    143  F   UNL A   1      42.394  37.431  38.771  1.00  0.00    -0.200 F 
ENDBRANCH 113 133
BRANCH 116 144
ATOM    144  C   UNL A   1      41.259  28.233  28.093  1.00  0.00     0.064 A 
ATOM    145  C   UNL A   1      40.625  26.997  28.294  1.00  0.00     0.173 A 
ATOM    146  C   UNL A   1      41.822  28.479  26.832  1.00  0.00     0.173 A 
ATOM    147  F   UNL A   1      40.077  26.709  29.483  1.00  0.00    -0.203 F 
ATOM    148  C   UNL A   1      40.587  26.035  27.286  1.00  0.00     0.198 A 
ATOM    149  C   UNL A   1      41.759  27.526  25.817  1.00  0.00     0.198 A 
ATOM    150  F   UNL A   1      42.421  29.652  26.586  1.00  0.00    -0.203 F 
ATOM    151  F   UNL A   1      40.018  24.845  27.520  1.00  0.00    -0.200 F 
ATOM    152  C   UNL A   1      41.152  26.301  26.048  1.00  0.00     0.200 A 
ATOM    153  F   UNL A   1      42.287  27.795  24.616  1.00  0.00    -0.200 F 
ATOM    154  F   UNL A   1      41.114  25.377  25.079  1.00  0.00    -0.200 F 
ENDBRANCH 116 144
BRANCH 131 155
ATOM    155  C   UNL A   1      36.970  33.000  30.910  1.00  0.00     0.064 A 
ATOM    156  C   UNL A   1      36.695  33.815  29.800  1.00  0.00     0.173 A 
ATOM    157  C   UNL A   1      35.924  32.731  31.803  1.00  0.00     0.173 A 
ATOM    158  F   UNL A   1      37.667  34.110  28.922  1.00  0.00    -0.203 F 
ATOM    159  C   UNL A   1      35.436  34.376  29.617  1.00  0.00     0.198 A 
ATOM    160  C   UNL A   1      34.657  33.271  31.600  1.00  0.00     0.198 A 
ATOM    161  F   UNL A   1      36.134  31.949  32.872  1.00  0.00    -0.203 F 
ATOM    162  F   UNL A   1      35.213  35.199  28.582  1.00  0.00    -0.200 F 
ATOM    163  C   UNL A   1      34.418  34.106  30.518  1.00  0.00     0.200 A 
ATOM    164  F   UNL A   1      33.668  32.995  32.463  1.00  0.00    -0.200 F 
ATOM    165  F   UNL A   1      33.207  34.654  30.348  1.00  0.00    -0.200 F 
ENDBRANCH 131 155
ENDBRANCH  96  99
ENDBRANCH  86  89
ENDBRANCH  82  85
ENDBRANCH  79  82
ENDBRANCH  76  79
ENDBRANCH  73  76
ENDBRANCH   1  73
TORSDOF 21
ENDMDL
