MODEL 1
REMARK VINA RESULT:     -10.8      0.000      0.000
REMARK SMILES [NH3+][C@@H](Cc1c[nH]c2ccccc12)C(=O)N[C@@H](CS)C(=O)N[C@@H](CO)C(=O)NCCCCCCNC(=O)c1ccc(-c2c3nc(c(-c4c(F)c(F)c(F)c(F)c4F)c4ccc([nH]4)c(-c4c(F)c(F)c(F)c(F)c4F)c4nc(c(-c5c(F)c(F)c(F)c(F)c5F)c5ccc2[nH]5)C=C4)C=C3)cc1
REMARK SMILES IDX 28 1 27 4 25 5 26 6 22 8 21 10 19 11 20 12 16 14 15 16 13 17
REMARK SMILES IDX 14 18 2 20 1 22 3 26 4 29 5 30 12 31 6 32 7 34 11 35 8 37
REMARK SMILES IDX 10 38 9 40 17 44 18 47 23 49 24 52 29 54 30 57 31 60 32 63
REMARK SMILES IDX 33 66 34 69 35 70 36 72 37 73 38 74 99 75 39 76 98 78 40 80
REMARK SMILES IDX 41 83 42 84 92 85 43 86 97 87 91 88 93 89 44 90 96 91 90 93
REMARK SMILES IDX 89 95 45 97 77 100 57 101 76 102 58 103 61 104 75 105 94 106
REMARK SMILES IDX 59 107 60 109 74 111 95 112 62 115 46 117 47 118 55 119
REMARK SMILES IDX 48 120 49 121 53 122 56 123 50 124 51 125 54 126 52 127
REMARK SMILES IDX 78 128 79 129 87 130 80 131 81 132 85 133 88 134 82 135
REMARK SMILES IDX 83 136 86 137 84 138 63 139 64 140 72 141 65 142 66 143
REMARK SMILES IDX 70 144 73 145 67 146 68 147 71 148 69 149
REMARK H PARENT 28 2 28 3 27 7 22 9 21 13 16 15 15 19 2 21 1 23 1 24 1 25 3 27
REMARK H PARENT 3 28 5 33 6 36 11 39 8 41 10 42 9 43 17 45 17 46 18 48 23 50
REMARK H PARENT 23 51 24 53 29 55 29 56 30 58 30 59 31 61 31 62 32 64 32 65
REMARK H PARENT 33 67 33 68 34 71 38 77 99 79 39 81 98 82 97 92 91 94 93 96
REMARK H PARENT 96 98 90 99 58 108 61 110 94 113 59 114 95 116
REMARK Flexibility Score: inf
ROOT
ATOM      1  C   UNL A   1      32.777  23.238  22.994  1.00  0.00     0.017 C 
ATOM      2  H   UNL A   1      32.157  23.919  22.448  1.00  0.00     0.049 H 
ATOM      3  H   UNL A   1      33.026  22.384  22.400  1.00  0.00     0.049 H 
ENDROOT
BRANCH   1   4
ATOM      4  N   UNL A   1      32.053  22.779  24.161  1.00  0.00    -0.354 N 
ATOM      5  C   UNL A   1      31.135  23.403  24.947  1.00  0.00     0.244 C 
ATOM      6  O   UNL A   1      30.449  22.692  25.686  1.00  0.00    -0.273 OA
ATOM      7  H   UNL A   1      32.261  21.856  24.433  1.00  0.00     0.163 HD
BRANCH   5   8
ATOM      8  C   UNL A   1      30.892  24.913  24.874  1.00  0.00     0.131 C 
ATOM      9  H   UNL A   1      31.833  25.374  24.657  1.00  0.00     0.066 H 
BRANCH   8  10
ATOM     10  N   UNL A   1      29.998  25.255  23.774  1.00  0.00    -0.340 N 
ATOM     11  C   UNL A   1      29.533  26.490  23.501  1.00  0.00     0.244 C 
ATOM     12  O   UNL A   1      28.302  26.592  23.519  1.00  0.00    -0.273 OA
ATOM     13  H   UNL A   1      29.712  24.524  23.182  1.00  0.00     0.164 HD
BRANCH  11  14
ATOM     14  C   UNL A   1      30.463  27.701  23.316  1.00  0.00     0.117 C 
ATOM     15  H   UNL A   1      31.051  27.780  24.208  1.00  0.00     0.064 H 
BRANCH  14  16
ATOM     16  N   UNL A   1      31.384  27.441  22.229  1.00  0.00    -0.338 N 
ATOM     17  C   UNL A   1      32.722  27.165  22.377  1.00  0.00     0.279 C 
ATOM     18  O   UNL A   1      33.213  26.379  21.560  1.00  0.00    -0.268 OA
ATOM     19  H   UNL A   1      31.023  27.464  21.313  1.00  0.00     0.164 HD
BRANCH  17  20
ATOM     20  C   UNL A   1      33.619  27.886  23.435  1.00  0.00     0.168 C 
ATOM     21  H   UNL A   1      34.587  27.452  23.300  1.00  0.00     0.107 H 
BRANCH  20  22
ATOM     22  N   UNL A   1      33.690  29.331  23.128  1.00  0.00    -0.347 N 
ATOM     23  H   UNL A   1      33.411  29.486  22.160  1.00  0.00     0.345 HD
ATOM     24  H   UNL A   1      34.645  29.661  23.263  1.00  0.00     0.345 HD
ATOM     25  H   UNL A   1      33.063  29.842  23.749  1.00  0.00     0.345 HD
ENDBRANCH  20  22
BRANCH  20  26
ATOM     26  C   UNL A   1      33.522  27.494  24.935  1.00  0.00     0.036 C 
ATOM     27  H   UNL A   1      34.454  27.034  25.191  1.00  0.00     0.038 H 
ATOM     28  H   UNL A   1      32.638  26.891  24.967  1.00  0.00     0.038 H 
BRANCH  26  29
ATOM     29  C   UNL A   1      33.254  28.539  25.992  1.00  0.00    -0.016 A 
ATOM     30  C   UNL A   1      31.987  28.973  26.342  1.00  0.00     0.005 A 
ATOM     31  C   UNL A   1      34.167  29.316  26.794  1.00  0.00     0.003 A 
ATOM     32  N   UNL A   1      32.102  30.081  27.135  1.00  0.00    -0.361 N 
ATOM     33  H   UNL A   1      31.100  28.532  26.052  1.00  0.00     0.082 H 
ATOM     34  C   UNL A   1      33.428  30.366  27.351  1.00  0.00     0.046 A 
ATOM     35  C   UNL A   1      35.562  29.318  27.004  1.00  0.00    -0.053 A 
ATOM     36  H   UNL A   1      31.348  30.598  27.497  1.00  0.00     0.166 HD
ATOM     37  C   UNL A   1      34.020  31.470  27.977  1.00  0.00    -0.038 A 
ATOM     38  C   UNL A   1      36.172  30.415  27.626  1.00  0.00    -0.062 A 
ATOM     39  H   UNL A   1      36.132  28.514  26.698  1.00  0.00     0.063 H 
ATOM     40  C   UNL A   1      35.413  31.488  28.078  1.00  0.00    -0.060 A 
ATOM     41  H   UNL A   1      33.447  32.243  28.352  1.00  0.00     0.064 H 
ATOM     42  H   UNL A   1      37.197  30.425  27.751  1.00  0.00     0.062 H 
ATOM     43  H   UNL A   1      35.883  32.308  28.491  1.00  0.00     0.062 H 
ENDBRANCH  26  29
ENDBRANCH  20  26
ENDBRANCH  17  20
ENDBRANCH  14  16
BRANCH  14  44
ATOM     44  C   UNL A   1      29.889  29.115  23.485  1.00  0.00     0.020 C 
ATOM     45  H   UNL A   1      30.593  29.672  24.068  1.00  0.00     0.040 H 
ATOM     46  H   UNL A   1      28.928  28.952  23.927  1.00  0.00     0.040 H 
BRANCH  44  47
ATOM     47  S   UNL A   1      29.528  30.100  22.001  1.00  0.00    -0.177 SA
ATOM     48  H   UNL A   1      30.567  30.003  21.129  1.00  0.00     0.102 HD
ENDBRANCH  44  47
ENDBRANCH  14  44
ENDBRANCH  11  14
ENDBRANCH   8  10
BRANCH   8  49
ATOM     49  C   UNL A   1      30.461  25.514  26.224  1.00  0.00     0.072 C 
ATOM     50  H   UNL A   1      30.487  26.581  26.142  1.00  0.00     0.059 H 
ATOM     51  H   UNL A   1      31.140  25.142  26.962  1.00  0.00     0.059 H 
BRANCH  49  52
ATOM     52  O   UNL A   1      29.152  25.127  26.633  1.00  0.00    -0.394 OA
ATOM     53  H   UNL A   1      29.086  25.179  27.600  1.00  0.00     0.210 HD
ENDBRANCH  49  52
ENDBRANCH   8  49
ENDBRANCH   5   8
ENDBRANCH   1   4
BRANCH   1  54
ATOM     54  C   UNL A   1      34.072  23.946  23.371  1.00  0.00    -0.036 C 
ATOM     55  H   UNL A   1      34.178  23.910  24.436  1.00  0.00     0.028 H 
ATOM     56  H   UNL A   1      34.001  24.947  22.999  1.00  0.00     0.028 H 
BRANCH  54  57
ATOM     57  C   UNL A   1      35.322  23.326  22.742  1.00  0.00    -0.052 C 
ATOM     58  H   UNL A   1      35.890  24.110  22.284  1.00  0.00     0.027 H 
ATOM     59  H   UNL A   1      34.978  22.594  22.042  1.00  0.00     0.027 H 
BRANCH  57  60
ATOM     60  C   UNL A   1      36.233  22.590  23.730  1.00  0.00    -0.052 C 
ATOM     61  H   UNL A   1      37.144  23.144  23.818  1.00  0.00     0.027 H 
ATOM     62  H   UNL A   1      36.372  21.606  23.333  1.00  0.00     0.027 H 
BRANCH  60  63
ATOM     63  C   UNL A   1      35.648  22.407  25.133  1.00  0.00    -0.036 C 
ATOM     64  H   UNL A   1      35.174  21.449  25.176  1.00  0.00     0.028 H 
ATOM     65  H   UNL A   1      34.965  23.216  25.288  1.00  0.00     0.028 H 
BRANCH  63  66
ATOM     66  C   UNL A   1      36.675  22.483  26.250  1.00  0.00     0.018 C 
ATOM     67  H   UNL A   1      36.174  22.373  27.190  1.00  0.00     0.049 H 
ATOM     68  H   UNL A   1      37.166  23.432  26.188  1.00  0.00     0.049 H 
BRANCH  66  69
ATOM     69  N   UNL A   1      37.681  21.444  26.129  1.00  0.00    -0.352 N 
ATOM     70  C   UNL A   1      39.047  21.560  26.149  1.00  0.00     0.251 C 
ATOM     71  H   UNL A   1      37.335  20.530  26.017  1.00  0.00     0.163 HD
ATOM     72  O   UNL A   1      39.754  20.621  25.812  1.00  0.00    -0.269 OA
BRANCH  70  73
ATOM     73  C   UNL A   1      39.656  22.838  26.568  1.00  0.00     0.039 A 
ATOM     74  C   UNL A   1      40.590  22.828  27.605  1.00  0.00    -0.049 A 
ATOM     75  C   UNL A   1      39.304  24.038  25.942  1.00  0.00    -0.049 A 
ATOM     76  C   UNL A   1      41.200  24.022  27.989  1.00  0.00    -0.053 A 
ATOM     77  H   UNL A   1      40.826  21.945  28.084  1.00  0.00     0.063 H 
ATOM     78  C   UNL A   1      39.978  25.210  26.266  1.00  0.00    -0.053 A 
ATOM     79  H   UNL A   1      38.547  24.053  25.242  1.00  0.00     0.063 H 
ATOM     80  C   UNL A   1      40.919  25.216  27.305  1.00  0.00    -0.014 A 
ATOM     81  H   UNL A   1      41.863  24.027  28.780  1.00  0.00     0.063 H 
ATOM     82  H   UNL A   1      39.785  26.077  25.740  1.00  0.00     0.063 H 
BRANCH  80  83
ATOM     83  C   UNL A   1      41.596  26.481  27.682  1.00  0.00     0.031 A 
ATOM     84  C   UNL A   1      42.999  26.756  27.221  1.00  0.00     0.074 A 
ATOM     85  C   UNL A   1      40.956  27.364  28.471  1.00  0.00     0.049 A 
ATOM     86  N   UNL A   1      43.752  27.804  27.441  1.00  0.00    -0.248 NA
ATOM     87  C   UNL A   1      43.658  25.704  26.430  1.00  0.00    -0.034 C 
ATOM     88  C   UNL A   1      39.617  27.177  29.034  1.00  0.00    -0.036 A 
ATOM     89  N   UNL A   1      41.343  28.594  28.938  1.00  0.00    -0.354 N 
ATOM     90  C   UNL A   1      44.969  27.531  26.830  1.00  0.00     0.074 A 
ATOM     91  C   UNL A   1      44.879  26.195  26.285  1.00  0.00    -0.034 C 
ATOM     92  H   UNL A   1      43.269  24.814  26.081  1.00  0.00     0.065 H 
ATOM     93  C   UNL A   1      39.280  28.267  29.740  1.00  0.00    -0.036 A 
ATOM     94  H   UNL A   1      39.027  26.339  28.908  1.00  0.00     0.065 H 
ATOM     95  C   UNL A   1      40.391  29.215  29.709  1.00  0.00     0.049 A 
ATOM     96  H   UNL A   1      42.220  28.995  28.739  1.00  0.00     0.167 HD
ATOM     97  C   UNL A   1      46.052  28.335  26.709  1.00  0.00     0.037 A 
ATOM     98  H   UNL A   1      45.663  25.691  25.842  1.00  0.00     0.065 H 
ATOM     99  H   UNL A   1      38.383  28.413  30.225  1.00  0.00     0.065 H 
ATOM    100  C   UNL A   1      40.411  30.414  30.320  1.00  0.00     0.037 A 
ATOM    101  C   UNL A   1      46.125  29.672  27.235  1.00  0.00     0.049 A 
ATOM    102  C   UNL A   1      41.623  31.293  30.163  1.00  0.00     0.074 A 
ATOM    103  C   UNL A   1      47.147  30.595  27.110  1.00  0.00    -0.036 A 
ATOM    104  N   UNL A   1      45.133  30.275  27.997  1.00  0.00    -0.354 N 
ATOM    105  N   UNL A   1      42.734  31.061  29.506  1.00  0.00    -0.248 NA
ATOM    106  C   UNL A   1      41.578  32.605  30.822  1.00  0.00    -0.034 C 
ATOM    107  C   UNL A   1      46.802  31.733  27.845  1.00  0.00    -0.036 A 
ATOM    108  H   UNL A   1      48.016  30.466  26.567  1.00  0.00     0.065 H 
ATOM    109  C   UNL A   1      45.533  31.548  28.373  1.00  0.00     0.049 A 
ATOM    110  H   UNL A   1      44.273  29.861  28.235  1.00  0.00     0.167 HD
ATOM    111  C   UNL A   1      43.506  32.207  29.644  1.00  0.00     0.074 A 
ATOM    112  C   UNL A   1      42.729  33.138  30.436  1.00  0.00    -0.034 C 
ATOM    113  H   UNL A   1      40.844  33.006  31.424  1.00  0.00     0.065 H 
ATOM    114  H   UNL A   1      47.391  32.571  27.974  1.00  0.00     0.065 H 
ATOM    115  C   UNL A   1      44.745  32.465  29.157  1.00  0.00     0.037 A 
ATOM    116  H   UNL A   1      43.034  34.095  30.671  1.00  0.00     0.065 H 
BRANCH  97 117
ATOM    117  C   UNL A   1      47.247  27.787  25.980  1.00  0.00     0.064 A 
ATOM    118  C   UNL A   1      48.322  27.194  26.662  1.00  0.00     0.173 A 
ATOM    119  C   UNL A   1      47.307  27.828  24.579  1.00  0.00     0.173 A 
ATOM    120  F   UNL A   1      48.323  27.137  28.002  1.00  0.00    -0.203 F 
ATOM    121  C   UNL A   1      49.425  26.699  25.972  1.00  0.00     0.198 A 
ATOM    122  C   UNL A   1      48.396  27.300  23.890  1.00  0.00     0.198 A 
ATOM    123  F   UNL A   1      46.305  28.378  23.875  1.00  0.00    -0.203 F 
ATOM    124  F   UNL A   1      50.466  26.194  26.649  1.00  0.00    -0.200 F 
ATOM    125  C   UNL A   1      49.458  26.746  24.587  1.00  0.00     0.200 A 
ATOM    126  F   UNL A   1      48.418  27.332  22.551  1.00  0.00    -0.200 F 
ATOM    127  F   UNL A   1      50.518  26.264  23.923  1.00  0.00    -0.200 F 
ENDBRANCH  97 117
BRANCH 100 128
ATOM    128  C   UNL A   1      39.232  30.864  31.105  1.00  0.00     0.064 A 
ATOM    129  C   UNL A   1      39.056  30.466  32.437  1.00  0.00     0.173 A 
ATOM    130  C   UNL A   1      38.264  31.709  30.543  1.00  0.00     0.173 A 
ATOM    131  F   UNL A   1      39.946  29.646  33.014  1.00  0.00    -0.203 F 
ATOM    132  C   UNL A   1      37.945  30.879  33.170  1.00  0.00     0.198 A 
ATOM    133  C   UNL A   1      37.170  32.147  31.287  1.00  0.00     0.198 A 
ATOM    134  F   UNL A   1      38.391  32.127  29.275  1.00  0.00    -0.203 F 
ATOM    135  F   UNL A   1      37.778  30.447  34.428  1.00  0.00    -0.200 F 
ATOM    136  C   UNL A   1      37.007  31.724  32.597  1.00  0.00     0.200 A 
ATOM    137  F   UNL A   1      36.277  32.978  30.735  1.00  0.00    -0.200 F 
ATOM    138  F   UNL A   1      35.944  32.127  33.306  1.00  0.00    -0.200 F 
ENDBRANCH 100 128
BRANCH 115 139
ATOM    139  C   UNL A   1      45.324  33.824  29.430  1.00  0.00     0.064 A 
ATOM    140  C   UNL A   1      46.124  34.076  30.554  1.00  0.00     0.173 A 
ATOM    141  C   UNL A   1      45.108  34.878  28.528  1.00  0.00     0.173 A 
ATOM    142  F   UNL A   1      46.349  33.107  31.454  1.00  0.00    -0.203 F 
ATOM    143  C   UNL A   1      46.660  35.340  30.781  1.00  0.00     0.198 A 
ATOM    144  C   UNL A   1      45.676  36.130  28.740  1.00  0.00     0.198 A 
ATOM    145  F   UNL A   1      44.359  34.688  27.432  1.00  0.00    -0.203 F 
ATOM    146  F   UNL A   1      47.378  35.573  31.889  1.00  0.00    -0.200 F 
ATOM    147  C   UNL A   1      46.444  36.364  29.870  1.00  0.00     0.200 A 
ATOM    148  F   UNL A   1      45.480  37.113  27.849  1.00  0.00    -0.200 F 
ATOM    149  F   UNL A   1      46.970  37.577  30.085  1.00  0.00    -0.200 F 
ENDBRANCH 115 139
ENDBRANCH  80  83
ENDBRANCH  70  73
ENDBRANCH  66  69
ENDBRANCH  63  66
ENDBRANCH  60  63
ENDBRANCH  57  60
ENDBRANCH  54  57
ENDBRANCH   1  54
TORSDOF 24
ENDMDL
MODEL 2
REMARK VINA RESULT:     -10.5      2.303      7.680
REMARK SMILES [NH3+][C@@H](Cc1c[nH]c2ccccc12)C(=O)N[C@@H](CS)C(=O)N[C@@H](CO)C(=O)NCCCCCCNC(=O)c1ccc(-c2c3nc(c(-c4c(F)c(F)c(F)c(F)c4F)c4ccc([nH]4)c(-c4c(F)c(F)c(F)c(F)c4F)c4nc(c(-c5c(F)c(F)c(F)c(F)c5F)c5ccc2[nH]5)C=C4)C=C3)cc1
REMARK SMILES IDX 28 1 27 4 25 5 26 6 22 8 21 10 19 11 20 12 16 14 15 16 13 17
REMARK SMILES IDX 14 18 2 20 1 22 3 26 4 29 5 30 12 31 6 32 7 34 11 35 8 37
REMARK SMILES IDX 10 38 9 40 17 44 18 47 23 49 24 52 29 54 30 57 31 60 32 63
REMARK SMILES IDX 33 66 34 69 35 70 36 72 37 73 38 74 99 75 39 76 98 78 40 80
REMARK SMILES IDX 41 83 42 84 92 85 43 86 97 87 91 88 93 89 44 90 96 91 90 93
REMARK SMILES IDX 89 95 45 97 77 100 57 101 76 102 58 103 61 104 75 105 94 106
REMARK SMILES IDX 59 107 60 109 74 111 95 112 62 115 46 117 47 118 55 119
REMARK SMILES IDX 48 120 49 121 53 122 56 123 50 124 51 125 54 126 52 127
REMARK SMILES IDX 78 128 79 129 87 130 80 131 81 132 85 133 88 134 82 135
REMARK SMILES IDX 83 136 86 137 84 138 63 139 64 140 72 141 65 142 66 143
REMARK SMILES IDX 70 144 73 145 67 146 68 147 71 148 69 149
REMARK H PARENT 28 2 28 3 27 7 22 9 21 13 16 15 15 19 2 21 1 23 1 24 1 25 3 27
REMARK H PARENT 3 28 5 33 6 36 11 39 8 41 10 42 9 43 17 45 17 46 18 48 23 50
REMARK H PARENT 23 51 24 53 29 55 29 56 30 58 30 59 31 61 31 62 32 64 32 65
REMARK H PARENT 33 67 33 68 34 71 38 77 99 79 39 81 98 82 97 92 91 94 93 96
REMARK H PARENT 96 98 90 99 58 108 61 110 94 113 59 114 95 116
REMARK Flexibility Score: inf
ROOT
ATOM      1  C   UNL A   1      33.298  20.353  25.324  1.00  0.00     0.017 C 
ATOM      2  H   UNL A   1      32.492  20.735  24.733  1.00  0.00     0.049 H 
ATOM      3  H   UNL A   1      33.243  19.288  25.405  1.00  0.00     0.049 H 
ENDROOT
BRANCH   1   4
ATOM      4  N   UNL A   1      33.207  20.911  26.658  1.00  0.00    -0.354 N 
ATOM      5  C   UNL A   1      32.955  22.179  27.080  1.00  0.00     0.244 C 
ATOM      6  O   UNL A   1      32.630  22.325  28.262  1.00  0.00    -0.273 OA
ATOM      7  H   UNL A   1      33.352  20.261  27.383  1.00  0.00     0.163 HD
BRANCH   5   8
ATOM      8  C   UNL A   1      32.990  23.378  26.129  1.00  0.00     0.131 C 
ATOM      9  H   UNL A   1      32.899  22.994  25.134  1.00  0.00     0.066 H 
BRANCH   8  10
ATOM     10  N   UNL A   1      31.846  24.258  26.340  1.00  0.00    -0.340 N 
ATOM     11  C   UNL A   1      31.827  25.584  26.100  1.00  0.00     0.244 C 
ATOM     12  O   UNL A   1      31.570  26.281  27.086  1.00  0.00    -0.273 OA
ATOM     13  H   UNL A   1      31.021  23.849  26.685  1.00  0.00     0.164 HD
BRANCH  11  14
ATOM     14  C   UNL A   1      32.224  26.183  24.740  1.00  0.00     0.117 C 
ATOM     15  H   UNL A   1      31.451  26.870  24.466  1.00  0.00     0.064 H 
BRANCH  14  16
ATOM     16  N   UNL A   1      33.439  26.956  24.889  1.00  0.00    -0.338 N 
ATOM     17  C   UNL A   1      33.490  28.313  25.100  1.00  0.00     0.279 C 
ATOM     18  O   UNL A   1      34.412  28.723  25.813  1.00  0.00    -0.268 OA
ATOM     19  H   UNL A   1      34.296  26.471  24.836  1.00  0.00     0.164 HD
BRANCH  17  20
ATOM     20  C   UNL A   1      32.520  29.312  24.390  1.00  0.00     0.168 C 
ATOM     21  H   UNL A   1      32.773  30.266  24.804  1.00  0.00     0.107 H 
BRANCH  20  22
ATOM     22  N   UNL A   1      32.795  29.328  22.937  1.00  0.00    -0.347 N 
ATOM     23  H   UNL A   1      33.651  29.851  22.759  1.00  0.00     0.345 HD
ATOM     24  H   UNL A   1      32.017  29.773  22.449  1.00  0.00     0.345 HD
ATOM     25  H   UNL A   1      32.904  28.371  22.602  1.00  0.00     0.345 HD
ENDBRANCH  20  22
BRANCH  20  26
ATOM     26  C   UNL A   1      31.030  29.390  24.821  1.00  0.00     0.036 C 
ATOM     27  H   UNL A   1      30.942  30.240  25.465  1.00  0.00     0.038 H 
ATOM     28  H   UNL A   1      30.852  28.421  25.240  1.00  0.00     0.038 H 
BRANCH  26  29
ATOM     29  C   UNL A   1      29.932  29.516  23.791  1.00  0.00    -0.016 A 
ATOM     30  C   UNL A   1      29.422  28.446  23.074  1.00  0.00     0.005 A 
ATOM     31  C   UNL A   1      29.237  30.680  23.300  1.00  0.00     0.003 A 
ATOM     32  N   UNL A   1      28.633  28.926  22.066  1.00  0.00    -0.361 N 
ATOM     33  H   UNL A   1      29.607  27.450  23.270  1.00  0.00     0.082 H 
ATOM     34  C   UNL A   1      28.578  30.297  22.127  1.00  0.00     0.046 A 
ATOM     35  C   UNL A   1      29.201  32.046  23.651  1.00  0.00    -0.053 A 
ATOM     36  H   UNL A   1      28.173  28.372  21.395  1.00  0.00     0.166 HD
ATOM     37  C   UNL A   1      28.013  31.214  21.232  1.00  0.00    -0.038 A 
ATOM     38  C   UNL A   1      28.642  32.978  22.768  1.00  0.00    -0.062 A 
ATOM     39  H   UNL A   1      29.586  32.357  24.556  1.00  0.00     0.063 H 
ATOM     40  C   UNL A   1      28.085  32.569  21.562  1.00  0.00    -0.060 A 
ATOM     41  H   UNL A   1      27.559  30.900  20.359  1.00  0.00     0.064 H 
ATOM     42  H   UNL A   1      28.644  33.981  23.016  1.00  0.00     0.062 H 
ATOM     43  H   UNL A   1      27.720  33.274  20.902  1.00  0.00     0.062 H 
ENDBRANCH  26  29
ENDBRANCH  20  26
ENDBRANCH  17  20
ENDBRANCH  14  16
BRANCH  14  44
ATOM     44  C   UNL A   1      32.026  25.344  23.469  1.00  0.00     0.020 C 
ATOM     45  H   UNL A   1      30.975  25.323  23.267  1.00  0.00     0.040 H 
ATOM     46  H   UNL A   1      32.484  24.406  23.706  1.00  0.00     0.040 H 
BRANCH  44  47
ATOM     47  S   UNL A   1      32.855  25.862  21.936  1.00  0.00    -0.177 SA
ATOM     48  H   UNL A   1      31.928  26.034  20.956  1.00  0.00     0.102 HD
ENDBRANCH  44  47
ENDBRANCH  14  44
ENDBRANCH  11  14
ENDBRANCH   8  10
BRANCH   8  49
ATOM     49  C   UNL A   1      34.342  24.115  26.146  1.00  0.00     0.072 C 
ATOM     50  H   UNL A   1      34.212  25.044  26.660  1.00  0.00     0.059 H 
ATOM     51  H   UNL A   1      34.637  24.247  25.127  1.00  0.00     0.059 H 
BRANCH  49  52
ATOM     52  O   UNL A   1      35.384  23.386  26.790  1.00  0.00    -0.394 OA
ATOM     53  H   UNL A   1      36.238  23.804  26.594  1.00  0.00     0.210 HD
ENDBRANCH  49  52
ENDBRANCH   8  49
ENDBRANCH   5   8
ENDBRANCH   1   4
BRANCH   1  54
ATOM     54  C   UNL A   1      34.617  20.708  24.649  1.00  0.00    -0.036 C 
ATOM     55  H   UNL A   1      34.901  21.692  24.962  1.00  0.00     0.028 H 
ATOM     56  H   UNL A   1      34.454  20.645  23.593  1.00  0.00     0.028 H 
BRANCH  54  57
ATOM     57  C   UNL A   1      35.761  19.748  24.981  1.00  0.00    -0.052 C 
ATOM     58  H   UNL A   1      35.678  18.895  24.339  1.00  0.00     0.027 H 
ATOM     59  H   UNL A   1      35.660  19.504  26.017  1.00  0.00     0.027 H 
BRANCH  57  60
ATOM     60  C   UNL A   1      37.162  20.343  24.808  1.00  0.00    -0.052 C 
ATOM     61  H   UNL A   1      37.277  21.135  25.519  1.00  0.00     0.027 H 
ATOM     62  H   UNL A   1      37.223  20.674  23.793  1.00  0.00     0.027 H 
BRANCH  60  63
ATOM     63  C   UNL A   1      38.312  19.353  25.007  1.00  0.00    -0.036 C 
ATOM     64  H   UNL A   1      38.861  19.287  24.091  1.00  0.00     0.028 H 
ATOM     65  H   UNL A   1      37.869  18.421  25.293  1.00  0.00     0.028 H 
BRANCH  63  66
ATOM     66  C   UNL A   1      39.279  19.735  26.116  1.00  0.00     0.018 C 
ATOM     67  H   UNL A   1      38.779  19.644  27.058  1.00  0.00     0.049 H 
ATOM     68  H   UNL A   1      39.598  20.742  25.947  1.00  0.00     0.049 H 
BRANCH  66  69
ATOM     69  N   UNL A   1      40.454  18.883  26.123  1.00  0.00    -0.352 N 
ATOM     70  C   UNL A   1      41.777  19.239  26.115  1.00  0.00     0.251 C 
ATOM     71  H   UNL A   1      40.275  17.915  26.136  1.00  0.00     0.163 HD
ATOM     72  O   UNL A   1      42.644  18.404  25.898  1.00  0.00    -0.269 OA
BRANCH  70  73
ATOM     73  C   UNL A   1      42.146  20.649  26.357  1.00  0.00     0.039 A 
ATOM     74  C   UNL A   1      42.337  21.076  27.672  1.00  0.00    -0.049 A 
ATOM     75  C   UNL A   1      42.298  21.541  25.291  1.00  0.00    -0.049 A 
ATOM     76  C   UNL A   1      42.720  22.395  27.914  1.00  0.00    -0.053 A 
ATOM     77  H   UNL A   1      42.196  20.422  28.457  1.00  0.00     0.063 H 
ATOM     78  C   UNL A   1      42.764  22.829  25.530  1.00  0.00    -0.053 A 
ATOM     79  H   UNL A   1      42.065  21.245  24.331  1.00  0.00     0.063 H 
ATOM     80  C   UNL A   1      42.962  23.273  26.844  1.00  0.00    -0.014 A 
ATOM     81  H   UNL A   1      42.827  22.727  28.885  1.00  0.00     0.063 H 
ATOM     82  H   UNL A   1      42.966  23.458  24.737  1.00  0.00     0.063 H 
BRANCH  80  83
ATOM     83  C   UNL A   1      43.410  24.666  27.095  1.00  0.00     0.031 A 
ATOM     84  C   UNL A   1      42.446  25.687  27.630  1.00  0.00     0.074 A 
ATOM     85  C   UNL A   1      44.677  25.014  26.805  1.00  0.00     0.049 A 
ATOM     86  N   UNL A   1      42.652  26.947  27.918  1.00  0.00    -0.248 NA
ATOM     87  C   UNL A   1      41.058  25.245  27.842  1.00  0.00    -0.034 C 
ATOM     88  C   UNL A   1      45.685  24.127  26.221  1.00  0.00    -0.036 A 
ATOM     89  N   UNL A   1      45.335  26.207  26.961  1.00  0.00    -0.354 N 
ATOM     90  C   UNL A   1      41.424  27.446  28.332  1.00  0.00     0.074 A 
ATOM     91  C   UNL A   1      40.463  26.374  28.196  1.00  0.00    -0.034 C 
ATOM     92  H   UNL A   1      40.654  24.301  27.739  1.00  0.00     0.065 H 
ATOM     93  C   UNL A   1      46.842  24.794  26.102  1.00  0.00    -0.036 A 
ATOM     94  H   UNL A   1      45.528  23.145  25.946  1.00  0.00     0.065 H 
ATOM     95  C   UNL A   1      46.651  26.165  26.566  1.00  0.00     0.049 A 
ATOM     96  H   UNL A   1      44.907  27.017  27.321  1.00  0.00     0.167 HD
ATOM     97  C   UNL A   1      41.131  28.678  28.811  1.00  0.00     0.037 A 
ATOM     98  H   UNL A   1      39.449  26.475  28.355  1.00  0.00     0.065 H 
ATOM     99  H   UNL A   1      47.725  24.403  25.740  1.00  0.00     0.065 H 
ATOM    100  C   UNL A   1      47.595  27.124  26.580  1.00  0.00     0.037 A 
ATOM    101  C   UNL A   1      42.097  29.733  28.964  1.00  0.00     0.049 A 
ATOM    102  C   UNL A   1      47.248  28.483  27.124  1.00  0.00     0.074 A 
ATOM    103  C   UNL A   1      41.921  30.995  29.500  1.00  0.00    -0.036 A 
ATOM    104  N   UNL A   1      43.426  29.649  28.569  1.00  0.00    -0.354 N 
ATOM    105  N   UNL A   1      46.105  28.918  27.598  1.00  0.00    -0.248 NA
ATOM    106  C   UNL A   1      48.325  29.482  27.148  1.00  0.00    -0.034 C 
ATOM    107  C   UNL A   1      43.125  31.695  29.376  1.00  0.00    -0.036 A 
ATOM    108  H   UNL A   1      41.050  31.358  29.920  1.00  0.00     0.065 H 
ATOM    109  C   UNL A   1      44.073  30.848  28.825  1.00  0.00     0.049 A 
ATOM    110  H   UNL A   1      43.847  28.855  28.167  1.00  0.00     0.167 HD
ATOM    111  C   UNL A   1      46.332  30.226  28.006  1.00  0.00     0.074 A 
ATOM    112  C   UNL A   1      47.726  30.508  27.735  1.00  0.00    -0.034 C 
ATOM    113  H   UNL A   1      49.292  29.403  26.801  1.00  0.00     0.065 H 
ATOM    114  H   UNL A   1      43.282  32.679  29.649  1.00  0.00     0.065 H 
ATOM    115  C   UNL A   1      45.464  31.111  28.555  1.00  0.00     0.037 A 
ATOM    116  H   UNL A   1      48.194  31.398  27.970  1.00  0.00     0.065 H 
BRANCH  97 117
ATOM    117  C   UNL A   1      39.705  28.952  29.201  1.00  0.00     0.064 A 
ATOM    118  C   UNL A   1      39.244  28.746  30.512  1.00  0.00     0.173 A 
ATOM    119  C   UNL A   1      38.794  29.455  28.261  1.00  0.00     0.173 A 
ATOM    120  F   UNL A   1      40.070  28.256  31.449  1.00  0.00    -0.203 F 
ATOM    121  C   UNL A   1      37.918  28.996  30.854  1.00  0.00     0.198 A 
ATOM    122  C   UNL A   1      37.477  29.738  28.615  1.00  0.00     0.198 A 
ATOM    123  F   UNL A   1      39.181  29.678  26.995  1.00  0.00    -0.203 F 
ATOM    124  F   UNL A   1      37.487  28.732  32.096  1.00  0.00    -0.200 F 
ATOM    125  C   UNL A   1      37.038  29.499  29.908  1.00  0.00     0.200 A 
ATOM    126  F   UNL A   1      36.633  30.239  27.704  1.00  0.00    -0.200 F 
ATOM    127  F   UNL A   1      35.763  29.745  30.241  1.00  0.00    -0.200 F 
ENDBRANCH  97 117
BRANCH 100 128
ATOM    128  C   UNL A   1      48.966  26.819  26.094  1.00  0.00     0.064 A 
ATOM    129  C   UNL A   1      49.943  26.310  26.961  1.00  0.00     0.173 A 
ATOM    130  C   UNL A   1      49.325  27.020  24.753  1.00  0.00     0.173 A 
ATOM    131  F   UNL A   1      49.653  26.116  28.255  1.00  0.00    -0.203 F 
ATOM    132  C   UNL A   1      51.232  26.033  26.510  1.00  0.00     0.198 A 
ATOM    133  C   UNL A   1      50.605  26.713  24.296  1.00  0.00     0.198 A 
ATOM    134  F   UNL A   1      48.425  27.496  23.880  1.00  0.00    -0.203 F 
ATOM    135  F   UNL A   1      52.159  25.589  27.370  1.00  0.00    -0.200 F 
ATOM    136  C   UNL A   1      51.560  26.228  25.177  1.00  0.00     0.200 A 
ATOM    137  F   UNL A   1      50.912  26.886  23.003  1.00  0.00    -0.200 F 
ATOM    138  F   UNL A   1      52.797  25.954  24.742  1.00  0.00    -0.200 F 
ENDBRANCH 100 128
BRANCH 115 139
ATOM    139  C   UNL A   1      46.006  32.458  28.942  1.00  0.00     0.064 A 
ATOM    140  C   UNL A   1      45.974  33.549  28.062  1.00  0.00     0.173 A 
ATOM    141  C   UNL A   1      46.525  32.667  30.229  1.00  0.00     0.173 A 
ATOM    142  F   UNL A   1      45.501  33.399  26.815  1.00  0.00    -0.203 F 
ATOM    143  C   UNL A   1      46.470  34.792  28.445  1.00  0.00     0.198 A 
ATOM    144  C   UNL A   1      46.986  33.920  30.621  1.00  0.00     0.198 A 
ATOM    145  F   UNL A   1      46.570  31.659  31.113  1.00  0.00    -0.203 F 
ATOM    146  F   UNL A   1      46.479  35.808  27.570  1.00  0.00    -0.200 F 
ATOM    147  C   UNL A   1      46.967  34.979  29.727  1.00  0.00     0.200 A 
ATOM    148  F   UNL A   1      47.451  34.102  31.865  1.00  0.00    -0.200 F 
ATOM    149  F   UNL A   1      47.435  36.179  30.097  1.00  0.00    -0.200 F 
ENDBRANCH 115 139
ENDBRANCH  80  83
ENDBRANCH  70  73
ENDBRANCH  66  69
ENDBRANCH  63  66
ENDBRANCH  60  63
ENDBRANCH  57  60
ENDBRANCH  54  57
ENDBRANCH   1  54
TORSDOF 24
ENDMDL
MODEL 3
REMARK VINA RESULT:     -10.5      2.212      3.686
REMARK SMILES [NH3+][C@@H](Cc1c[nH]c2ccccc12)C(=O)N[C@@H](CS)C(=O)N[C@@H](CO)C(=O)NCCCCCCNC(=O)c1ccc(-c2c3nc(c(-c4c(F)c(F)c(F)c(F)c4F)c4ccc([nH]4)c(-c4c(F)c(F)c(F)c(F)c4F)c4nc(c(-c5c(F)c(F)c(F)c(F)c5F)c5ccc2[nH]5)C=C4)C=C3)cc1
REMARK SMILES IDX 28 1 27 4 25 5 26 6 22 8 21 10 19 11 20 12 16 14 15 16 13 17
REMARK SMILES IDX 14 18 2 20 1 22 3 26 4 29 5 30 12 31 6 32 7 34 11 35 8 37
REMARK SMILES IDX 10 38 9 40 17 44 18 47 23 49 24 52 29 54 30 57 31 60 32 63
REMARK SMILES IDX 33 66 34 69 35 70 36 72 37 73 38 74 99 75 39 76 98 78 40 80
REMARK SMILES IDX 41 83 42 84 92 85 43 86 97 87 91 88 93 89 44 90 96 91 90 93
REMARK SMILES IDX 89 95 45 97 77 100 57 101 76 102 58 103 61 104 75 105 94 106
REMARK SMILES IDX 59 107 60 109 74 111 95 112 62 115 46 117 47 118 55 119
REMARK SMILES IDX 48 120 49 121 53 122 56 123 50 124 51 125 54 126 52 127
REMARK SMILES IDX 78 128 79 129 87 130 80 131 81 132 85 133 88 134 82 135
REMARK SMILES IDX 83 136 86 137 84 138 63 139 64 140 72 141 65 142 66 143
REMARK SMILES IDX 70 144 73 145 67 146 68 147 71 148 69 149
REMARK H PARENT 28 2 28 3 27 7 22 9 21 13 16 15 15 19 2 21 1 23 1 24 1 25 3 27
REMARK H PARENT 3 28 5 33 6 36 11 39 8 41 10 42 9 43 17 45 17 46 18 48 23 50
REMARK H PARENT 23 51 24 53 29 55 29 56 30 58 30 59 31 61 31 62 32 64 32 65
REMARK H PARENT 33 67 33 68 34 71 38 77 99 79 39 81 98 82 97 92 91 94 93 96
REMARK H PARENT 96 98 90 99 58 108 61 110 94 113 59 114 95 116
REMARK Flexibility Score: inf
ROOT
ATOM      1  C   UNL A   1      33.256  20.338  25.316  1.00  0.00     0.017 C 
ATOM      2  H   UNL A   1      32.427  20.680  24.733  1.00  0.00     0.049 H 
ATOM      3  H   UNL A   1      33.249  19.272  25.406  1.00  0.00     0.049 H 
ENDROOT
BRANCH   1   4
ATOM      4  N   UNL A   1      33.157  20.902  26.647  1.00  0.00    -0.354 N 
ATOM      5  C   UNL A   1      32.916  22.175  27.062  1.00  0.00     0.244 C 
ATOM      6  O   UNL A   1      32.579  22.329  28.239  1.00  0.00    -0.273 OA
ATOM      7  H   UNL A   1      33.285  20.253  27.376  1.00  0.00     0.163 HD
BRANCH   5   8
ATOM      8  C   UNL A   1      32.978  23.369  26.107  1.00  0.00     0.131 C 
ATOM      9  H   UNL A   1      32.910  22.982  25.112  1.00  0.00     0.066 H 
BRANCH   8  10
ATOM     10  N   UNL A   1      31.833  24.254  26.288  1.00  0.00    -0.340 N 
ATOM     11  C   UNL A   1      31.823  25.579  26.038  1.00  0.00     0.244 C 
ATOM     12  O   UNL A   1      31.547  26.284  27.014  1.00  0.00    -0.273 OA
ATOM     13  H   UNL A   1      30.999  23.851  26.618  1.00  0.00     0.164 HD
BRANCH  11  14
ATOM     14  C   UNL A   1      32.251  26.167  24.683  1.00  0.00     0.117 C 
ATOM     15  H   UNL A   1      31.491  26.861  24.392  1.00  0.00     0.064 H 
BRANCH  14  16
ATOM     16  N   UNL A   1      33.472  26.928  24.851  1.00  0.00    -0.338 N 
ATOM     17  C   UNL A   1      33.532  28.279  25.094  1.00  0.00     0.279 C 
ATOM     18  O   UNL A   1      34.456  28.667  25.816  1.00  0.00    -0.268 OA
ATOM     19  H   UNL A   1      34.325  26.439  24.787  1.00  0.00     0.164 HD
BRANCH  17  20
ATOM     20  C   UNL A   1      32.569  29.302  24.407  1.00  0.00     0.168 C 
ATOM     21  H   UNL A   1      32.840  30.246  24.831  1.00  0.00     0.107 H 
BRANCH  20  22
ATOM     22  N   UNL A   1      32.829  29.333  22.952  1.00  0.00    -0.347 N 
ATOM     23  H   UNL A   1      33.691  29.846  22.772  1.00  0.00     0.345 HD
ATOM     24  H   UNL A   1      32.053  29.795  22.477  1.00  0.00     0.345 HD
ATOM     25  H   UNL A   1      32.921  28.380  22.602  1.00  0.00     0.345 HD
ENDBRANCH  20  22
BRANCH  20  26
ATOM     26  C   UNL A   1      31.084  29.395  24.854  1.00  0.00     0.036 C 
ATOM     27  H   UNL A   1      31.010  30.251  25.492  1.00  0.00     0.038 H 
ATOM     28  H   UNL A   1      30.904  28.431  25.284  1.00  0.00     0.038 H 
BRANCH  26  29
ATOM     29  C   UNL A   1      29.976  29.521  23.836  1.00  0.00    -0.016 A 
ATOM     30  C   UNL A   1      29.438  28.447  23.146  1.00  0.00     0.005 A 
ATOM     31  C   UNL A   1      29.296  30.688  23.331  1.00  0.00     0.003 A 
ATOM     32  N   UNL A   1      28.645  28.921  22.139  1.00  0.00    -0.361 N 
ATOM     33  H   UNL A   1      29.607  27.452  23.359  1.00  0.00     0.082 H 
ATOM     34  C   UNL A   1      28.615  30.294  22.174  1.00  0.00     0.046 A 
ATOM     35  C   UNL A   1      29.288  32.060  23.655  1.00  0.00    -0.053 A 
ATOM     36  H   UNL A   1      28.166  28.363  21.485  1.00  0.00     0.166 HD
ATOM     37  C   UNL A   1      28.054  31.204  21.269  1.00  0.00    -0.038 A 
ATOM     38  C   UNL A   1      28.734  32.985  22.762  1.00  0.00    -0.062 A 
ATOM     39  H   UNL A   1      29.690  32.382  24.550  1.00  0.00     0.063 H 
ATOM     40  C   UNL A   1      28.154  32.563  21.571  1.00  0.00    -0.060 A 
ATOM     41  H   UNL A   1      27.584  30.881  20.408  1.00  0.00     0.064 H 
ATOM     42  H   UNL A   1      28.758  33.992  22.990  1.00  0.00     0.062 H 
ATOM     43  H   UNL A   1      27.793  33.262  20.902  1.00  0.00     0.062 H 
ENDBRANCH  26  29
ENDBRANCH  20  26
ENDBRANCH  17  20
ENDBRANCH  14  16
BRANCH  14  44
ATOM     44  C   UNL A   1      32.067  25.324  23.413  1.00  0.00     0.020 C 
ATOM     45  H   UNL A   1      31.026  25.346  23.170  1.00  0.00     0.040 H 
ATOM     46  H   UNL A   1      32.476  24.371  23.675  1.00  0.00     0.040 H 
BRANCH  44  47
ATOM     47  S   UNL A   1      32.976  25.792  21.909  1.00  0.00    -0.177 SA
ATOM     48  H   UNL A   1      32.095  25.993  20.892  1.00  0.00     0.102 HD
ENDBRANCH  44  47
ENDBRANCH  14  44
ENDBRANCH  11  14
ENDBRANCH   8  10
BRANCH   8  49
ATOM     49  C   UNL A   1      34.332  24.101  26.153  1.00  0.00     0.072 C 
ATOM     50  H   UNL A   1      34.198  25.025  26.676  1.00  0.00     0.059 H 
ATOM     51  H   UNL A   1      34.643  24.245  25.140  1.00  0.00     0.059 H 
BRANCH  49  52
ATOM     52  O   UNL A   1      35.362  23.362  26.803  1.00  0.00    -0.394 OA
ATOM     53  H   UNL A   1      35.984  23.022  26.140  1.00  0.00     0.210 HD
ENDBRANCH  49  52
ENDBRANCH   8  49
ENDBRANCH   5   8
ENDBRANCH   1   4
BRANCH   1  54
ATOM     54  C   UNL A   1      34.549  20.745  24.622  1.00  0.00    -0.036 C 
ATOM     55  H   UNL A   1      34.788  21.747  24.914  1.00  0.00     0.028 H 
ATOM     56  H   UNL A   1      34.381  20.654  23.570  1.00  0.00     0.028 H 
BRANCH  54  57
ATOM     57  C   UNL A   1      35.742  19.848  24.960  1.00  0.00    -0.052 C 
ATOM     58  H   UNL A   1      35.702  18.986  24.327  1.00  0.00     0.027 H 
ATOM     59  H   UNL A   1      35.657  19.610  25.999  1.00  0.00     0.027 H 
BRANCH  57  60
ATOM     60  C   UNL A   1      37.110  20.513  24.778  1.00  0.00    -0.052 C 
ATOM     61  H   UNL A   1      37.211  21.277  25.521  1.00  0.00     0.027 H 
ATOM     62  H   UNL A   1      37.128  20.891  23.777  1.00  0.00     0.027 H 
BRANCH  60  63
ATOM     63  C   UNL A   1      38.308  19.568  24.901  1.00  0.00    -0.036 C 
ATOM     64  H   UNL A   1      38.843  19.582  23.974  1.00  0.00     0.028 H 
ATOM     65  H   UNL A   1      37.914  18.602  25.139  1.00  0.00     0.028 H 
BRANCH  63  66
ATOM     66  C   UNL A   1      39.276  19.931  26.016  1.00  0.00     0.018 C 
ATOM     67  H   UNL A   1      38.792  19.780  26.958  1.00  0.00     0.049 H 
ATOM     68  H   UNL A   1      39.560  20.954  25.890  1.00  0.00     0.049 H 
BRANCH  66  69
ATOM     69  N   UNL A   1      40.478  19.119  25.970  1.00  0.00    -0.352 N 
ATOM     70  C   UNL A   1      41.789  19.517  25.999  1.00  0.00     0.251 C 
ATOM     71  H   UNL A   1      40.332  18.147  25.910  1.00  0.00     0.163 HD
ATOM     72  O   UNL A   1      42.684  18.728  25.728  1.00  0.00    -0.269 OA
BRANCH  70  73
ATOM     73  C   UNL A   1      42.110  20.916  26.346  1.00  0.00     0.039 A 
ATOM     74  C   UNL A   1      42.284  21.251  27.690  1.00  0.00    -0.049 A 
ATOM     75  C   UNL A   1      42.236  21.890  25.350  1.00  0.00    -0.049 A 
ATOM     76  C   UNL A   1      42.622  22.560  28.031  1.00  0.00    -0.053 A 
ATOM     77  H   UNL A   1      42.163  20.536  28.423  1.00  0.00     0.063 H 
ATOM     78  C   UNL A   1      42.659  23.171  25.686  1.00  0.00    -0.053 A 
ATOM     79  H   UNL A   1      42.015  21.658  24.369  1.00  0.00     0.063 H 
ATOM     80  C   UNL A   1      42.838  23.523  27.030  1.00  0.00    -0.014 A 
ATOM     81  H   UNL A   1      42.715  22.823  29.024  1.00  0.00     0.063 H 
ATOM     82  H   UNL A   1      42.841  23.864  24.942  1.00  0.00     0.063 H 
BRANCH  80  83
ATOM     83  C   UNL A   1      43.238  24.906  27.386  1.00  0.00     0.031 A 
ATOM     84  C   UNL A   1      44.647  25.372  27.151  1.00  0.00     0.074 A 
ATOM     85  C   UNL A   1      42.337  25.729  27.955  1.00  0.00     0.049 A 
ATOM     86  N   UNL A   1      45.182  26.543  27.390  1.00  0.00    -0.248 NA
ATOM     87  C   UNL A   1      45.591  24.385  26.602  1.00  0.00    -0.034 C 
ATOM     88  C   UNL A   1      40.959  25.369  28.292  1.00  0.00    -0.036 A 
ATOM     89  N   UNL A   1      42.445  27.038  28.351  1.00  0.00    -0.354 N 
ATOM     90  C   UNL A   1      46.519  26.427  27.032  1.00  0.00     0.074 A 
ATOM     91  C   UNL A   1      46.732  25.057  26.622  1.00  0.00    -0.034 C 
ATOM     92  H   UNL A   1      45.410  23.420  26.285  1.00  0.00     0.065 H 
ATOM     93  C   UNL A   1      40.338  26.439  28.810  1.00  0.00    -0.036 A 
ATOM     94  H   UNL A   1      40.533  24.439  28.152  1.00  0.00     0.065 H 
ATOM     95  C   UNL A   1      41.283  27.551  28.875  1.00  0.00     0.049 A 
ATOM     96  H   UNL A   1      43.274  27.561  28.268  1.00  0.00     0.167 HD
ATOM     97  C   UNL A   1      47.475  27.386  27.019  1.00  0.00     0.037 A 
ATOM     98  H   UNL A   1      47.650  24.657  26.378  1.00  0.00     0.065 H 
ATOM     99  H   UNL A   1      39.353  26.472  29.113  1.00  0.00     0.065 H 
ATOM    100  C   UNL A   1      41.011  28.780  29.352  1.00  0.00     0.037 A 
ATOM    101  C   UNL A   1      47.250  28.753  27.407  1.00  0.00     0.049 A 
ATOM    102  C   UNL A   1      42.087  29.831  29.319  1.00  0.00     0.074 A 
ATOM    103  C   UNL A   1      48.130  29.819  27.368  1.00  0.00    -0.036 A 
ATOM    104  N   UNL A   1      46.054  29.241  27.917  1.00  0.00    -0.354 N 
ATOM    105  N   UNL A   1      43.324  29.735  28.893  1.00  0.00    -0.248 NA
ATOM    106  C   UNL A   1      41.726  31.164  29.819  1.00  0.00    -0.034 C 
ATOM    107  C   UNL A   1      47.488  30.937  27.908  1.00  0.00    -0.036 A 
ATOM    108  H   UNL A   1      49.095  29.793  27.002  1.00  0.00     0.065 H 
ATOM    109  C   UNL A   1      46.184  30.587  28.222  1.00  0.00     0.049 A 
ATOM    110  H   UNL A   1      45.235  28.711  28.043  1.00  0.00     0.167 HD
ATOM    111  C   UNL A   1      43.879  31.000  29.044  1.00  0.00     0.074 A 
ATOM    112  C   UNL A   1      42.838  31.847  29.587  1.00  0.00    -0.034 C 
ATOM    113  H   UNL A   1      40.840  31.483  30.239  1.00  0.00     0.065 H 
ATOM    114  H   UNL A   1      47.913  31.867  28.050  1.00  0.00     0.065 H 
ATOM    115  C   UNL A   1      45.136  31.419  28.757  1.00  0.00     0.037 A 
ATOM    116  H   UNL A   1      42.948  32.857  29.771  1.00  0.00     0.065 H 
BRANCH  97 117
ATOM    117  C   UNL A   1      48.854  26.988  26.571  1.00  0.00     0.064 A 
ATOM    118  C   UNL A   1      49.246  27.067  25.225  1.00  0.00     0.173 A 
ATOM    119  C   UNL A   1      49.805  26.548  27.503  1.00  0.00     0.173 A 
ATOM    120  F   UNL A   1      48.374  27.470  24.289  1.00  0.00    -0.203 F 
ATOM    121  C   UNL A   1      50.525  26.685  24.826  1.00  0.00     0.198 A 
ATOM    122  C   UNL A   1      51.094  26.201  27.106  1.00  0.00     0.198 A 
ATOM    123  F   UNL A   1      49.488  26.459  28.804  1.00  0.00    -0.203 F 
ATOM    124  F   UNL A   1      50.855  26.711  23.527  1.00  0.00    -0.200 F 
ATOM    125  C   UNL A   1      51.449  26.260  25.768  1.00  0.00     0.200 A 
ATOM    126  F   UNL A   1      51.991  25.805  28.019  1.00  0.00    -0.200 F 
ATOM    127  F   UNL A   1      52.681  25.898  25.383  1.00  0.00    -0.200 F 
ENDBRANCH  97 117
BRANCH 100 128
ATOM    128  C   UNL A   1      39.651  29.089  29.868  1.00  0.00     0.064 A 
ATOM    129  C   UNL A   1      38.634  29.524  29.007  1.00  0.00     0.173 A 
ATOM    130  C   UNL A   1      39.338  28.945  31.227  1.00  0.00     0.173 A 
ATOM    131  F   UNL A   1      38.889  29.692  27.702  1.00  0.00    -0.203 F 
ATOM    132  C   UNL A   1      37.362  29.824  29.490  1.00  0.00     0.198 A 
ATOM    133  C   UNL A   1      38.057  29.215  31.704  1.00  0.00     0.198 A 
ATOM    134  F   UNL A   1      40.273  28.522  32.091  1.00  0.00    -0.203 F 
ATOM    135  F   UNL A   1      36.421  30.282  28.653  1.00  0.00    -0.200 F 
ATOM    136  C   UNL A   1      37.073  29.664  30.837  1.00  0.00     0.200 A 
ATOM    137  F   UNL A   1      37.778  29.041  33.003  1.00  0.00    -0.200 F 
ATOM    138  F   UNL A   1      35.848  29.944  31.300  1.00  0.00    -0.200 F 
ENDBRANCH 100 128
BRANCH 115 139
ATOM    139  C   UNL A   1      45.446  32.871  28.984  1.00  0.00     0.064 A 
ATOM    140  C   UNL A   1      45.985  33.333  30.193  1.00  0.00     0.173 A 
ATOM    141  C   UNL A   1      45.240  33.807  27.958  1.00  0.00     0.173 A 
ATOM    142  F   UNL A   1      46.189  32.483  31.211  1.00  0.00    -0.203 F 
ATOM    143  C   UNL A   1      46.277  34.682  30.377  1.00  0.00     0.198 A 
ATOM    144  C   UNL A   1      45.567  35.147  28.133  1.00  0.00     0.198 A 
ATOM    145  F   UNL A   1      44.735  33.416  26.777  1.00  0.00    -0.203 F 
ATOM    146  F   UNL A   1      46.742  35.110  31.560  1.00  0.00    -0.200 F 
ATOM    147  C   UNL A   1      46.077  35.586  29.345  1.00  0.00     0.200 A 
ATOM    148  F   UNL A   1      45.387  36.016  27.128  1.00  0.00    -0.200 F 
ATOM    149  F   UNL A   1      46.368  36.882  29.521  1.00  0.00    -0.200 F 
ENDBRANCH 115 139
ENDBRANCH  80  83
ENDBRANCH  70  73
ENDBRANCH  66  69
ENDBRANCH  63  66
ENDBRANCH  60  63
ENDBRANCH  57  60
ENDBRANCH  54  57
ENDBRANCH   1  54
TORSDOF 24
ENDMDL
MODEL 4
REMARK VINA RESULT:     -10.5      2.331      3.746
REMARK SMILES [NH3+][C@@H](Cc1c[nH]c2ccccc12)C(=O)N[C@@H](CS)C(=O)N[C@@H](CO)C(=O)NCCCCCCNC(=O)c1ccc(-c2c3nc(c(-c4c(F)c(F)c(F)c(F)c4F)c4ccc([nH]4)c(-c4c(F)c(F)c(F)c(F)c4F)c4nc(c(-c5c(F)c(F)c(F)c(F)c5F)c5ccc2[nH]5)C=C4)C=C3)cc1
REMARK SMILES IDX 28 1 27 4 25 5 26 6 22 8 21 10 19 11 20 12 16 14 15 16 13 17
REMARK SMILES IDX 14 18 2 20 1 22 3 26 4 29 5 30 12 31 6 32 7 34 11 35 8 37
REMARK SMILES IDX 10 38 9 40 17 44 18 47 23 49 24 52 29 54 30 57 31 60 32 63
REMARK SMILES IDX 33 66 34 69 35 70 36 72 37 73 38 74 99 75 39 76 98 78 40 80
REMARK SMILES IDX 41 83 42 84 92 85 43 86 97 87 91 88 93 89 44 90 96 91 90 93
REMARK SMILES IDX 89 95 45 97 77 100 57 101 76 102 58 103 61 104 75 105 94 106
REMARK SMILES IDX 59 107 60 109 74 111 95 112 62 115 46 117 47 118 55 119
REMARK SMILES IDX 48 120 49 121 53 122 56 123 50 124 51 125 54 126 52 127
REMARK SMILES IDX 78 128 79 129 87 130 80 131 81 132 85 133 88 134 82 135
REMARK SMILES IDX 83 136 86 137 84 138 63 139 64 140 72 141 65 142 66 143
REMARK SMILES IDX 70 144 73 145 67 146 68 147 71 148 69 149
REMARK H PARENT 28 2 28 3 27 7 22 9 21 13 16 15 15 19 2 21 1 23 1 24 1 25 3 27
REMARK H PARENT 3 28 5 33 6 36 11 39 8 41 10 42 9 43 17 45 17 46 18 48 23 50
REMARK H PARENT 23 51 24 53 29 55 29 56 30 58 30 59 31 61 31 62 32 64 32 65
REMARK H PARENT 33 67 33 68 34 71 38 77 99 79 39 81 98 82 97 92 91 94 93 96
REMARK H PARENT 96 98 90 99 58 108 61 110 94 113 59 114 95 116
REMARK Flexibility Score: inf
ROOT
ATOM      1  C   UNL A   1      33.451  20.249  25.363  1.00  0.00     0.017 C 
ATOM      2  H   UNL A   1      32.582  20.492  24.788  1.00  0.00     0.049 H 
ATOM      3  H   UNL A   1      33.561  19.190  25.467  1.00  0.00     0.049 H 
ENDROOT
BRANCH   1   4
ATOM      4  N   UNL A   1      33.309  20.819  26.688  1.00  0.00    -0.354 N 
ATOM      5  C   UNL A   1      33.073  22.097  27.090  1.00  0.00     0.244 C 
ATOM      6  O   UNL A   1      32.693  22.260  28.253  1.00  0.00    -0.273 OA
ATOM      7  H   UNL A   1      33.398  20.171  27.423  1.00  0.00     0.163 HD
BRANCH   5   8
ATOM      8  C   UNL A   1      33.191  23.287  26.135  1.00  0.00     0.131 C 
ATOM      9  H   UNL A   1      33.189  22.895  25.139  1.00  0.00     0.066 H 
BRANCH   8  10
ATOM     10  N   UNL A   1      32.033  24.167  26.237  1.00  0.00    -0.340 N 
ATOM     11  C   UNL A   1      32.037  25.495  26.006  1.00  0.00     0.244 C 
ATOM     12  O   UNL A   1      31.683  26.186  26.966  1.00  0.00    -0.273 OA
ATOM     13  H   UNL A   1      31.176  23.757  26.494  1.00  0.00     0.164 HD
BRANCH  11  14
ATOM     14  C   UNL A   1      32.570  26.103  24.697  1.00  0.00     0.117 C 
ATOM     15  H   UNL A   1      31.816  26.772  24.336  1.00  0.00     0.064 H 
BRANCH  14  16
ATOM     16  N   UNL A   1      33.742  26.905  24.978  1.00  0.00    -0.338 N 
ATOM     17  C   UNL A   1      33.725  28.236  25.319  1.00  0.00     0.279 C 
ATOM     18  O   UNL A   1      34.595  28.611  26.112  1.00  0.00    -0.268 OA
ATOM     19  H   UNL A   1      34.621  26.462  24.921  1.00  0.00     0.164 HD
BRANCH  17  20
ATOM     20  C   UNL A   1      32.745  29.261  24.660  1.00  0.00     0.168 C 
ATOM     21  H   UNL A   1      32.958  30.186  25.154  1.00  0.00     0.107 H 
BRANCH  20  22
ATOM     22  N   UNL A   1      33.058  29.398  23.222  1.00  0.00    -0.347 N 
ATOM     23  H   UNL A   1      34.007  29.753  23.114  1.00  0.00     0.345 HD
ATOM     24  H   UNL A   1      32.401  30.048  22.791  1.00  0.00     0.345 HD
ATOM     25  H   UNL A   1      32.982  28.487  22.769  1.00  0.00     0.345 HD
ENDBRANCH  20  22
BRANCH  20  26
ATOM     26  C   UNL A   1      31.242  29.264  25.052  1.00  0.00     0.036 C 
ATOM     27  H   UNL A   1      31.093  30.114  25.686  1.00  0.00     0.038 H 
ATOM     28  H   UNL A   1      31.104  28.291  25.476  1.00  0.00     0.038 H 
BRANCH  26  29
ATOM     29  C   UNL A   1      30.166  29.324  23.993  1.00  0.00    -0.016 A 
ATOM     30  C   UNL A   1      29.758  28.230  23.247  1.00  0.00     0.005 A 
ATOM     31  C   UNL A   1      29.400  30.440  23.498  1.00  0.00     0.003 A 
ATOM     32  N   UNL A   1      28.963  28.666  22.223  1.00  0.00    -0.361 N 
ATOM     33  H   UNL A   1      30.012  27.248  23.434  1.00  0.00     0.082 H 
ATOM     34  C   UNL A   1      28.804  30.028  22.302  1.00  0.00     0.046 A 
ATOM     35  C   UNL A   1      29.251  31.794  23.866  1.00  0.00    -0.053 A 
ATOM     36  H   UNL A   1      28.564  28.090  21.533  1.00  0.00     0.166 HD
ATOM     37  C   UNL A   1      28.196  30.914  21.404  1.00  0.00    -0.038 A 
ATOM     38  C   UNL A   1      28.649  32.696  22.981  1.00  0.00    -0.062 A 
ATOM     39  H   UNL A   1      29.587  32.119  24.787  1.00  0.00     0.063 H 
ATOM     40  C   UNL A   1      28.157  32.265  21.754  1.00  0.00    -0.060 A 
ATOM     41  H   UNL A   1      27.791  30.580  20.514  1.00  0.00     0.064 H 
ATOM     42  H   UNL A   1      28.569  33.691  23.242  1.00  0.00     0.062 H 
ATOM     43  H   UNL A   1      27.758  32.951  21.094  1.00  0.00     0.062 H 
ENDBRANCH  26  29
ENDBRANCH  20  26
ENDBRANCH  17  20
ENDBRANCH  14  16
BRANCH  14  44
ATOM     44  C   UNL A   1      32.534  25.259  23.414  1.00  0.00     0.020 C 
ATOM     45  H   UNL A   1      31.601  24.736  23.408  1.00  0.00     0.040 H 
ATOM     46  H   UNL A   1      33.418  24.659  23.476  1.00  0.00     0.040 H 
BRANCH  44  47
ATOM     47  S   UNL A   1      32.686  26.097  21.808  1.00  0.00    -0.177 SA
ATOM     48  H   UNL A   1      31.985  25.406  20.869  1.00  0.00     0.102 HD
ENDBRANCH  44  47
ENDBRANCH  14  44
ENDBRANCH  11  14
ENDBRANCH   8  10
BRANCH   8  49
ATOM     49  C   UNL A   1      34.535  24.026  26.265  1.00  0.00     0.072 C 
ATOM     50  H   UNL A   1      34.362  24.953  26.771  1.00  0.00     0.059 H 
ATOM     51  H   UNL A   1      34.912  24.165  25.274  1.00  0.00     0.059 H 
BRANCH  49  52
ATOM     52  O   UNL A   1      35.524  23.297  26.988  1.00  0.00    -0.394 OA
ATOM     53  H   UNL A   1      36.257  23.070  26.393  1.00  0.00     0.210 HD
ENDBRANCH  49  52
ENDBRANCH   8  49
ENDBRANCH   5   8
ENDBRANCH   1   4
BRANCH   1  54
ATOM     54  C   UNL A   1      34.684  20.784  24.644  1.00  0.00    -0.036 C 
ATOM     55  H   UNL A   1      34.789  21.822  24.882  1.00  0.00     0.028 H 
ATOM     56  H   UNL A   1      34.532  20.616  23.599  1.00  0.00     0.028 H 
BRANCH  54  57
ATOM     57  C   UNL A   1      35.982  20.069  25.027  1.00  0.00    -0.052 C 
ATOM     58  H   UNL A   1      36.093  19.216  24.390  1.00  0.00     0.027 H 
ATOM     59  H   UNL A   1      35.893  19.811  26.061  1.00  0.00     0.027 H 
BRANCH  57  60
ATOM     60  C   UNL A   1      37.243  20.930  24.900  1.00  0.00    -0.052 C 
ATOM     61  H   UNL A   1      37.301  21.564  25.761  1.00  0.00     0.027 H 
ATOM     62  H   UNL A   1      37.146  21.470  23.982  1.00  0.00     0.027 H 
BRANCH  60  63
ATOM     63  C   UNL A   1      38.552  20.144  24.799  1.00  0.00    -0.036 C 
ATOM     64  H   UNL A   1      39.195  20.650  24.110  1.00  0.00     0.028 H 
ATOM     65  H   UNL A   1      38.293  19.156  24.477  1.00  0.00     0.028 H 
BRANCH  63  66
ATOM     66  C   UNL A   1      39.292  19.991  26.118  1.00  0.00     0.018 C 
ATOM     67  H   UNL A   1      38.613  19.613  26.854  1.00  0.00     0.049 H 
ATOM     68  H   UNL A   1      39.668  20.952  26.402  1.00  0.00     0.049 H 
BRANCH  66  69
ATOM     69  N   UNL A   1      40.417  19.081  26.003  1.00  0.00    -0.352 N 
ATOM     70  C   UNL A   1      41.758  19.362  26.022  1.00  0.00     0.251 C 
ATOM     71  H   UNL A   1      40.184  18.131  25.897  1.00  0.00     0.163 HD
ATOM     72  O   UNL A   1      42.574  18.513  25.691  1.00  0.00    -0.269 OA
BRANCH  70  73
ATOM     73  C   UNL A   1      42.208  20.707  26.434  1.00  0.00     0.039 A 
ATOM     74  C   UNL A   1      42.492  21.651  25.445  1.00  0.00    -0.049 A 
ATOM     75  C   UNL A   1      42.350  21.031  27.786  1.00  0.00    -0.049 A 
ATOM     76  C   UNL A   1      42.884  22.936  25.818  1.00  0.00    -0.053 A 
ATOM     77  H   UNL A   1      42.413  21.399  24.448  1.00  0.00     0.063 H 
ATOM     78  C   UNL A   1      42.654  22.336  28.155  1.00  0.00    -0.053 A 
ATOM     79  H   UNL A   1      42.229  20.304  28.508  1.00  0.00     0.063 H 
ATOM     80  C   UNL A   1      42.942  23.296  27.175  1.00  0.00    -0.014 A 
ATOM     81  H   UNL A   1      43.131  23.627  25.093  1.00  0.00     0.063 H 
ATOM     82  H   UNL A   1      42.668  22.599  29.154  1.00  0.00     0.063 H 
BRANCH  80  83
ATOM     83  C   UNL A   1      43.318  24.674  27.577  1.00  0.00     0.031 A 
ATOM     84  C   UNL A   1      44.759  25.098  27.571  1.00  0.00     0.074 A 
ATOM     85  C   UNL A   1      42.360  25.528  27.982  1.00  0.00     0.049 A 
ATOM     86  N   UNL A   1      45.281  26.258  27.881  1.00  0.00    -0.248 NA
ATOM     87  C   UNL A   1      45.752  24.079  27.195  1.00  0.00    -0.034 C 
ATOM     88  C   UNL A   1      40.936  25.210  28.092  1.00  0.00    -0.036 A 
ATOM     89  N   UNL A   1      42.438  26.840  28.376  1.00  0.00    -0.354 N 
ATOM     90  C   UNL A   1      46.655  26.102  27.748  1.00  0.00     0.074 A 
ATOM     91  C   UNL A   1      46.892  24.721  27.394  1.00  0.00    -0.034 C 
ATOM     92  H   UNL A   1      45.598  23.114  26.863  1.00  0.00     0.065 H 
ATOM     93  C   UNL A   1      40.269  26.304  28.489  1.00  0.00    -0.036 A 
ATOM     94  H   UNL A   1      40.512  24.289  27.895  1.00  0.00     0.065 H 
ATOM     95  C   UNL A   1      41.221  27.391  28.697  1.00  0.00     0.049 A 
ATOM     96  H   UNL A   1      43.285  27.339  28.424  1.00  0.00     0.167 HD
ATOM     97  C   UNL A   1      47.627  27.036  27.882  1.00  0.00     0.037 A 
ATOM     98  H   UNL A   1      47.827  24.293  27.308  1.00  0.00     0.065 H 
ATOM     99  H   UNL A   1      39.249  26.368  28.627  1.00  0.00     0.065 H 
ATOM    100  C   UNL A   1      40.910  28.634  29.109  1.00  0.00     0.037 A 
ATOM    101  C   UNL A   1      47.380  28.414  28.213  1.00  0.00     0.049 A 
ATOM    102  C   UNL A   1      42.007  29.656  29.241  1.00  0.00     0.074 A 
ATOM    103  C   UNL A   1      48.285  29.455  28.307  1.00  0.00    -0.036 A 
ATOM    104  N   UNL A   1      46.132  28.941  28.515  1.00  0.00    -0.354 N 
ATOM    105  N   UNL A   1      43.294  29.521  29.025  1.00  0.00    -0.248 NA
ATOM    106  C   UNL A   1      41.608  31.005  29.661  1.00  0.00    -0.034 C 
ATOM    107  C   UNL A   1      47.596  30.598  28.723  1.00  0.00    -0.036 A 
ATOM    108  H   UNL A   1      49.296  29.398  28.104  1.00  0.00     0.065 H 
ATOM    109  C   UNL A   1      46.248  30.288  28.823  1.00  0.00     0.049 A 
ATOM    110  H   UNL A   1      45.288  28.434  28.511  1.00  0.00     0.167 HD
ATOM    111  C   UNL A   1      43.852  30.773  29.251  1.00  0.00     0.074 A 
ATOM    112  C   UNL A   1      42.761  31.655  29.607  1.00  0.00    -0.034 C 
ATOM    113  H   UNL A   1      40.674  31.354  29.927  1.00  0.00     0.065 H 
ATOM    114  H   UNL A   1      48.018  31.519  28.922  1.00  0.00     0.065 H 
ATOM    115  C   UNL A   1      45.151  31.155  29.170  1.00  0.00     0.037 A 
ATOM    116  H   UNL A   1      42.869  32.665  29.796  1.00  0.00     0.065 H 
BRANCH  97 117
ATOM    117  C   UNL A   1      49.049  26.594  27.670  1.00  0.00     0.064 A 
ATOM    118  C   UNL A   1      49.893  26.277  28.747  1.00  0.00     0.173 A 
ATOM    119  C   UNL A   1      49.566  26.458  26.374  1.00  0.00     0.173 A 
ATOM    120  F   UNL A   1      49.454  26.399  30.009  1.00  0.00    -0.203 F 
ATOM    121  C   UNL A   1      51.210  25.878  28.534  1.00  0.00     0.198 A 
ATOM    122  C   UNL A   1      50.873  26.025  26.163  1.00  0.00     0.198 A 
ATOM    123  F   UNL A   1      48.803  26.742  25.307  1.00  0.00    -0.203 F 
ATOM    124  F   UNL A   1      52.014  25.640  29.580  1.00  0.00    -0.200 F 
ATOM    125  C   UNL A   1      51.696  25.745  27.242  1.00  0.00     0.200 A 
ATOM    126  F   UNL A   1      51.336  25.882  24.914  1.00  0.00    -0.200 F 
ATOM    127  F   UNL A   1      52.962  25.356  27.038  1.00  0.00    -0.200 F 
ENDBRANCH  97 117
BRANCH 100 128
ATOM    128  C   UNL A   1      39.494  28.986  29.392  1.00  0.00     0.064 A 
ATOM    129  C   UNL A   1      38.952  28.828  30.674  1.00  0.00     0.173 A 
ATOM    130  C   UNL A   1      38.658  29.498  28.388  1.00  0.00     0.173 A 
ATOM    131  F   UNL A   1      39.707  28.328  31.663  1.00  0.00    -0.203 F 
ATOM    132  C   UNL A   1      37.622  29.148  30.938  1.00  0.00     0.198 A 
ATOM    133  C   UNL A   1      37.336  29.847  28.661  1.00  0.00     0.198 A 
ATOM    134  F   UNL A   1      39.130  29.678  27.146  1.00  0.00    -0.203 F 
ATOM    135  F   UNL A   1      37.116  28.945  32.162  1.00  0.00    -0.200 F 
ATOM    136  C   UNL A   1      36.817  29.663  29.933  1.00  0.00     0.200 A 
ATOM    137  F   UNL A   1      36.569  30.362  27.691  1.00  0.00    -0.200 F 
ATOM    138  F   UNL A   1      35.541  29.979  30.188  1.00  0.00    -0.200 F 
ENDBRANCH 100 128
BRANCH 115 139
ATOM    139  C   UNL A   1      45.461  32.601  29.428  1.00  0.00     0.064 A 
ATOM    140  C   UNL A   1      45.403  33.564  28.410  1.00  0.00     0.173 A 
ATOM    141  C   UNL A   1      45.778  33.036  30.725  1.00  0.00     0.173 A 
ATOM    142  F   UNL A   1      45.118  33.200  27.150  1.00  0.00    -0.203 F 
ATOM    143  C   UNL A   1      45.682  34.902  28.674  1.00  0.00     0.198 A 
ATOM    144  C   UNL A   1      46.020  34.379  30.992  1.00  0.00     0.198 A 
ATOM    145  F   UNL A   1      45.838  32.157  31.737  1.00  0.00    -0.203 F 
ATOM    146  F   UNL A   1      45.673  35.797  27.676  1.00  0.00    -0.200 F 
ATOM    147  C   UNL A   1      45.981  35.311  29.966  1.00  0.00     0.200 A 
ATOM    148  F   UNL A   1      46.293  34.773  32.244  1.00  0.00    -0.200 F 
ATOM    149  F   UNL A   1      46.239  36.601  30.220  1.00  0.00    -0.200 F 
ENDBRANCH 115 139
ENDBRANCH  80  83
ENDBRANCH  70  73
ENDBRANCH  66  69
ENDBRANCH  63  66
ENDBRANCH  60  63
ENDBRANCH  57  60
ENDBRANCH  54  57
ENDBRANCH   1  54
TORSDOF 24
ENDMDL
MODEL 5
REMARK VINA RESULT:     -10.2      3.132      8.555
REMARK SMILES [NH3+][C@@H](Cc1c[nH]c2ccccc12)C(=O)N[C@@H](CS)C(=O)N[C@@H](CO)C(=O)NCCCCCCNC(=O)c1ccc(-c2c3nc(c(-c4c(F)c(F)c(F)c(F)c4F)c4ccc([nH]4)c(-c4c(F)c(F)c(F)c(F)c4F)c4nc(c(-c5c(F)c(F)c(F)c(F)c5F)c5ccc2[nH]5)C=C4)C=C3)cc1
REMARK SMILES IDX 28 1 27 4 25 5 26 6 22 8 21 10 19 11 20 12 16 14 15 16 13 17
REMARK SMILES IDX 14 18 2 20 1 22 3 26 4 29 5 30 12 31 6 32 7 34 11 35 8 37
REMARK SMILES IDX 10 38 9 40 17 44 18 47 23 49 24 52 29 54 30 57 31 60 32 63
REMARK SMILES IDX 33 66 34 69 35 70 36 72 37 73 38 74 99 75 39 76 98 78 40 80
REMARK SMILES IDX 41 83 42 84 92 85 43 86 97 87 91 88 93 89 44 90 96 91 90 93
REMARK SMILES IDX 89 95 45 97 77 100 57 101 76 102 58 103 61 104 75 105 94 106
REMARK SMILES IDX 59 107 60 109 74 111 95 112 62 115 46 117 47 118 55 119
REMARK SMILES IDX 48 120 49 121 53 122 56 123 50 124 51 125 54 126 52 127
REMARK SMILES IDX 78 128 79 129 87 130 80 131 81 132 85 133 88 134 82 135
REMARK SMILES IDX 83 136 86 137 84 138 63 139 64 140 72 141 65 142 66 143
REMARK SMILES IDX 70 144 73 145 67 146 68 147 71 148 69 149
REMARK H PARENT 28 2 28 3 27 7 22 9 21 13 16 15 15 19 2 21 1 23 1 24 1 25 3 27
REMARK H PARENT 3 28 5 33 6 36 11 39 8 41 10 42 9 43 17 45 17 46 18 48 23 50
REMARK H PARENT 23 51 24 53 29 55 29 56 30 58 30 59 31 61 31 62 32 64 32 65
REMARK H PARENT 33 67 33 68 34 71 38 77 99 79 39 81 98 82 97 92 91 94 93 96
REMARK H PARENT 96 98 90 99 58 108 61 110 94 113 59 114 95 116
REMARK Flexibility Score: inf
ROOT
ATOM      1  C   UNL A   1      35.173  29.052  27.315  1.00  0.00     0.017 C 
ATOM      2  H   UNL A   1      35.321  28.747  26.300  1.00  0.00     0.049 H 
ATOM      3  H   UNL A   1      35.071  28.205  27.960  1.00  0.00     0.049 H 
ENDROOT
BRANCH   1   4
ATOM      4  N   UNL A   1      33.954  29.829  27.397  1.00  0.00    -0.354 N 
ATOM      5  C   UNL A   1      32.753  29.676  26.777  1.00  0.00     0.244 C 
ATOM      6  O   UNL A   1      31.792  30.288  27.251  1.00  0.00    -0.273 OA
ATOM      7  H   UNL A   1      34.002  30.601  28.006  1.00  0.00     0.163 HD
BRANCH   5   8
ATOM      8  C   UNL A   1      32.563  28.728  25.590  1.00  0.00     0.131 C 
ATOM      9  H   UNL A   1      33.385  28.889  24.923  1.00  0.00     0.066 H 
BRANCH   8  10
ATOM     10  N   UNL A   1      32.634  27.333  26.008  1.00  0.00    -0.340 N 
ATOM     11  C   UNL A   1      32.648  26.270  25.179  1.00  0.00     0.244 C 
ATOM     12  O   UNL A   1      31.719  25.474  25.349  1.00  0.00    -0.273 OA
ATOM     13  H   UNL A   1      32.677  27.153  26.974  1.00  0.00     0.164 HD
BRANCH  11  14
ATOM     14  C   UNL A   1      33.661  26.132  24.030  1.00  0.00     0.117 C 
ATOM     15  H   UNL A   1      34.360  26.935  24.135  1.00  0.00     0.064 H 
BRANCH  14  16
ATOM     16  N   UNL A   1      34.408  24.901  24.190  1.00  0.00    -0.338 N 
ATOM     17  C   UNL A   1      34.252  23.777  23.415  1.00  0.00     0.279 C 
ATOM     18  O   UNL A   1      35.271  23.113  23.200  1.00  0.00    -0.268 OA
ATOM     19  H   UNL A   1      35.080  24.867  24.910  1.00  0.00     0.164 HD
BRANCH  17  20
ATOM     20  C   UNL A   1      32.853  23.281  22.923  1.00  0.00     0.168 C 
ATOM     21  H   UNL A   1      32.201  24.111  23.100  1.00  0.00     0.107 H 
BRANCH  20  22
ATOM     22  N   UNL A   1      32.903  23.006  21.471  1.00  0.00    -0.347 N 
ATOM     23  H   UNL A   1      32.979  22.001  21.318  1.00  0.00     0.345 HD
ATOM     24  H   UNL A   1      33.713  23.474  21.064  1.00  0.00     0.345 HD
ATOM     25  H   UNL A   1      32.052  23.354  21.030  1.00  0.00     0.345 HD
ENDBRANCH  20  22
BRANCH  20  26
ATOM     26  C   UNL A   1      32.026  22.295  23.793  1.00  0.00     0.036 C 
ATOM     27  H   UNL A   1      31.215  21.955  23.182  1.00  0.00     0.038 H 
ATOM     28  H   UNL A   1      31.792  22.880  24.659  1.00  0.00     0.038 H 
BRANCH  26  29
ATOM     29  C   UNL A   1      32.666  21.062  24.385  1.00  0.00    -0.016 A 
ATOM     30  C   UNL A   1      33.384  21.059  25.569  1.00  0.00     0.005 A 
ATOM     31  C   UNL A   1      32.731  19.710  23.887  1.00  0.00     0.003 A 
ATOM     32  N   UNL A   1      34.029  19.860  25.692  1.00  0.00    -0.361 N 
ATOM     33  H   UNL A   1      33.424  21.835  26.248  1.00  0.00     0.082 H 
ATOM     34  C   UNL A   1      33.718  19.050  24.628  1.00  0.00     0.046 A 
ATOM     35  C   UNL A   1      32.153  19.012  22.806  1.00  0.00    -0.053 A 
ATOM     36  H   UNL A   1      34.627  19.613  26.433  1.00  0.00     0.166 HD
ATOM     37  C   UNL A   1      34.244  17.804  24.263  1.00  0.00    -0.038 A 
ATOM     38  C   UNL A   1      32.666  17.766  22.425  1.00  0.00    -0.062 A 
ATOM     39  H   UNL A   1      31.354  19.420  22.296  1.00  0.00     0.063 H 
ATOM     40  C   UNL A   1      33.718  17.187  23.126  1.00  0.00    -0.060 A 
ATOM     41  H   UNL A   1      34.993  17.358  24.815  1.00  0.00     0.064 H 
ATOM     42  H   UNL A   1      32.260  17.273  21.615  1.00  0.00     0.062 H 
ATOM     43  H   UNL A   1      34.115  16.291  22.804  1.00  0.00     0.062 H 
ENDBRANCH  26  29
ENDBRANCH  20  26
ENDBRANCH  17  20
ENDBRANCH  14  16
BRANCH  14  44
ATOM     44  C   UNL A   1      33.252  26.578  22.618  1.00  0.00     0.020 C 
ATOM     45  H   UNL A   1      32.183  26.576  22.586  1.00  0.00     0.040 H 
ATOM     46  H   UNL A   1      33.751  25.883  21.975  1.00  0.00     0.040 H 
BRANCH  44  47
ATOM     47  S   UNL A   1      33.801  28.203  22.017  1.00  0.00    -0.177 SA
ATOM     48  H   UNL A   1      32.763  28.835  21.408  1.00  0.00     0.102 HD
ENDBRANCH  44  47
ENDBRANCH  14  44
ENDBRANCH  11  14
ENDBRANCH   8  10
BRANCH   8  49
ATOM     49  C   UNL A   1      31.310  29.056  24.759  1.00  0.00     0.072 C 
ATOM     50  H   UNL A   1      30.463  28.604  25.232  1.00  0.00     0.059 H 
ATOM     51  H   UNL A   1      31.481  28.676  23.774  1.00  0.00     0.059 H 
BRANCH  49  52
ATOM     52  O   UNL A   1      31.058  30.453  24.626  1.00  0.00    -0.394 OA
ATOM     53  H   UNL A   1      30.457  30.741  25.331  1.00  0.00     0.210 HD
ENDBRANCH  49  52
ENDBRANCH   8  49
ENDBRANCH   5   8
ENDBRANCH   1   4
BRANCH   1  54
ATOM     54  C   UNL A   1      36.388  29.851  27.772  1.00  0.00    -0.036 C 
ATOM     55  H   UNL A   1      36.703  30.476  26.962  1.00  0.00     0.028 H 
ATOM     56  H   UNL A   1      37.137  29.144  28.059  1.00  0.00     0.028 H 
BRANCH  54  57
ATOM     57  C   UNL A   1      36.122  30.738  28.990  1.00  0.00    -0.052 C 
ATOM     58  H   UNL A   1      35.090  31.023  28.977  1.00  0.00     0.027 H 
ATOM     59  H   UNL A   1      36.788  31.571  28.909  1.00  0.00     0.027 H 
BRANCH  57  60
ATOM     60  C   UNL A   1      36.419  30.074  30.338  1.00  0.00    -0.052 C 
ATOM     61  H   UNL A   1      37.480  29.972  30.432  1.00  0.00     0.027 H 
ATOM     62  H   UNL A   1      35.903  29.137  30.330  1.00  0.00     0.027 H 
BRANCH  60  63
ATOM     63  C   UNL A   1      35.903  30.837  31.560  1.00  0.00    -0.036 C 
ATOM     64  H   UNL A   1      36.724  30.992  32.230  1.00  0.00     0.028 H 
ATOM     65  H   UNL A   1      35.125  30.240  31.989  1.00  0.00     0.028 H 
BRANCH  63  66
ATOM     66  C   UNL A   1      35.288  32.189  31.238  1.00  0.00     0.018 C 
ATOM     67  H   UNL A   1      34.222  32.096  31.247  1.00  0.00     0.049 H 
ATOM     68  H   UNL A   1      35.638  32.492  30.274  1.00  0.00     0.049 H 
BRANCH  66  69
ATOM     69  N   UNL A   1      35.680  33.202  32.201  1.00  0.00    -0.352 N 
ATOM     70  C   UNL A   1      36.935  33.541  32.633  1.00  0.00     0.251 C 
ATOM     71  H   UNL A   1      34.941  33.717  32.598  1.00  0.00     0.163 HD
ATOM     72  O   UNL A   1      37.082  34.262  33.610  1.00  0.00    -0.269 OA
BRANCH  70  73
ATOM     73  C   UNL A   1      38.112  33.014  31.914  1.00  0.00     0.039 A 
ATOM     74  C   UNL A   1      39.010  32.198  32.604  1.00  0.00    -0.049 A 
ATOM     75  C   UNL A   1      38.327  33.326  30.568  1.00  0.00    -0.049 A 
ATOM     76  C   UNL A   1      40.108  31.663  31.929  1.00  0.00    -0.053 A 
ATOM     77  H   UNL A   1      38.863  31.993  33.604  1.00  0.00     0.063 H 
ATOM     78  C   UNL A   1      39.372  32.722  29.877  1.00  0.00    -0.053 A 
ATOM     79  H   UNL A   1      37.713  34.003  30.089  1.00  0.00     0.063 H 
ATOM     80  C   UNL A   1      40.282  31.900  30.555  1.00  0.00    -0.014 A 
ATOM     81  H   UNL A   1      40.795  31.091  32.442  1.00  0.00     0.063 H 
ATOM     82  H   UNL A   1      39.476  32.879  28.861  1.00  0.00     0.063 H 
BRANCH  80  83
ATOM     83  C   UNL A   1      41.425  31.300  29.823  1.00  0.00     0.031 A 
ATOM     84  C   UNL A   1      42.656  32.113  29.543  1.00  0.00     0.074 A 
ATOM     85  C   UNL A   1      41.333  30.032  29.381  1.00  0.00     0.049 A 
ATOM     86  N   UNL A   1      43.756  31.763  28.926  1.00  0.00    -0.248 NA
ATOM     87  C   UNL A   1      42.643  33.516  29.988  1.00  0.00    -0.034 C 
ATOM     88  C   UNL A   1      40.163  29.166  29.536  1.00  0.00    -0.036 A 
ATOM     89  N   UNL A   1      42.239  29.250  28.710  1.00  0.00    -0.354 N 
ATOM     90  C   UNL A   1      44.554  32.899  28.900  1.00  0.00     0.074 A 
ATOM     91  C   UNL A   1      43.789  33.967  29.504  1.00  0.00    -0.034 C 
ATOM     92  H   UNL A   1      41.925  34.017  30.535  1.00  0.00     0.065 H 
ATOM     93  C   UNL A   1      40.434  27.962  29.009  1.00  0.00    -0.036 A 
ATOM     94  H   UNL A   1      39.272  29.439  29.979  1.00  0.00     0.065 H 
ATOM     95  C   UNL A   1      41.782  27.981  28.449  1.00  0.00     0.049 A 
ATOM     96  H   UNL A   1      43.132  29.566  28.443  1.00  0.00     0.167 HD
ATOM     97  C   UNL A   1      45.821  33.031  28.441  1.00  0.00     0.037 A 
ATOM     98  H   UNL A   1      44.096  34.951  29.551  1.00  0.00     0.065 H 
ATOM     99  H   UNL A   1      39.794  27.153  29.001  1.00  0.00     0.065 H 
ATOM    100  C   UNL A   1      42.384  26.949  27.828  1.00  0.00     0.037 A 
ATOM    101  C   UNL A   1      46.584  31.957  27.862  1.00  0.00     0.049 A 
ATOM    102  C   UNL A   1      43.796  27.118  27.335  1.00  0.00     0.074 A 
ATOM    103  C   UNL A   1      47.896  31.966  27.428  1.00  0.00    -0.036 A 
ATOM    104  N   UNL A   1      46.094  30.679  27.628  1.00  0.00    -0.354 N 
ATOM    105  N   UNL A   1      44.574  28.171  27.397  1.00  0.00    -0.248 NA
ATOM    106  C   UNL A   1      44.418  25.950  26.697  1.00  0.00    -0.034 C 
ATOM    107  C   UNL A   1      48.183  30.713  26.877  1.00  0.00    -0.036 A 
ATOM    108  H   UNL A   1      48.552  32.761  27.498  1.00  0.00     0.065 H 
ATOM    109  C   UNL A   1      47.071  29.900  27.029  1.00  0.00     0.049 A 
ATOM    110  H   UNL A   1      45.187  30.371  27.854  1.00  0.00     0.167 HD
ATOM    111  C   UNL A   1      45.786  27.785  26.837  1.00  0.00     0.074 A 
ATOM    112  C   UNL A   1      45.641  26.396  26.454  1.00  0.00    -0.034 C 
ATOM    113  H   UNL A   1      44.009  25.025  26.493  1.00  0.00     0.065 H 
ATOM    114  H   UNL A   1      49.073  30.439  26.431  1.00  0.00     0.065 H 
ATOM    115  C   UNL A   1      46.914  28.516  26.659  1.00  0.00     0.037 A 
ATOM    116  H   UNL A   1      46.398  25.826  26.043  1.00  0.00     0.065 H 
BRANCH  97 117
ATOM    117  C   UNL A   1      46.462  34.387  28.546  1.00  0.00     0.064 A 
ATOM    118  C   UNL A   1      47.199  34.772  29.678  1.00  0.00     0.173 A 
ATOM    119  C   UNL A   1      46.361  35.305  27.490  1.00  0.00     0.173 A 
ATOM    120  F   UNL A   1      47.318  33.939  30.722  1.00  0.00    -0.203 F 
ATOM    121  C   UNL A   1      47.778  36.036  29.762  1.00  0.00     0.198 A 
ATOM    122  C   UNL A   1      46.971  36.555  27.562  1.00  0.00     0.198 A 
ATOM    123  F   UNL A   1      45.674  34.989  26.381  1.00  0.00    -0.203 F 
ATOM    124  F   UNL A   1      48.424  36.402  30.878  1.00  0.00    -0.200 F 
ATOM    125  C   UNL A   1      47.670  36.923  28.702  1.00  0.00     0.200 A 
ATOM    126  F   UNL A   1      46.880  37.404  26.531  1.00  0.00    -0.200 F 
ATOM    127  F   UNL A   1      48.233  38.136  28.782  1.00  0.00    -0.200 F 
ENDBRANCH  97 117
BRANCH 100 128
ATOM    128  C   UNL A   1      41.665  25.658  27.673  1.00  0.00     0.064 A 
ATOM    129  C   UNL A   1      42.010  24.541  28.447  1.00  0.00     0.173 A 
ATOM    130  C   UNL A   1      40.612  25.517  26.757  1.00  0.00     0.173 A 
ATOM    131  F   UNL A   1      43.020  24.622  29.325  1.00  0.00    -0.203 F 
ATOM    132  C   UNL A   1      41.344  23.327  28.295  1.00  0.00     0.198 A 
ATOM    133  C   UNL A   1      39.926  24.310  26.629  1.00  0.00     0.198 A 
ATOM    134  F   UNL A   1      40.236  26.557  25.999  1.00  0.00    -0.203 F 
ATOM    135  F   UNL A   1      41.724  22.262  29.015  1.00  0.00    -0.200 F 
ATOM    136  C   UNL A   1      40.299  23.214  27.391  1.00  0.00     0.200 A 
ATOM    137  F   UNL A   1      38.905  24.212  25.767  1.00  0.00    -0.200 F 
ATOM    138  F   UNL A   1      39.653  22.049  27.251  1.00  0.00    -0.200 F 
ENDBRANCH 100 128
BRANCH 115 139
ATOM    139  C   UNL A   1      48.100  27.816  26.060  1.00  0.00     0.064 A 
ATOM    140  C   UNL A   1      48.242  27.654  24.674  1.00  0.00     0.173 A 
ATOM    141  C   UNL A   1      49.130  27.339  26.885  1.00  0.00     0.173 A 
ATOM    142  F   UNL A   1      47.280  28.080  23.841  1.00  0.00    -0.203 F 
ATOM    143  C   UNL A   1      49.356  27.013  24.139  1.00  0.00     0.198 A 
ATOM    144  C   UNL A   1      50.259  26.731  26.344  1.00  0.00     0.198 A 
ATOM    145  F   UNL A   1      49.049  27.476  28.217  1.00  0.00    -0.203 F 
ATOM    146  F   UNL A   1      49.446  26.822  22.815  1.00  0.00    -0.200 F 
ATOM    147  C   UNL A   1      50.368  26.561  24.973  1.00  0.00     0.200 A 
ATOM    148  F   UNL A   1      51.243  26.310  27.152  1.00  0.00    -0.200 F 
ATOM    149  F   UNL A   1      51.444  25.953  24.455  1.00  0.00    -0.200 F 
ENDBRANCH 115 139
ENDBRANCH  80  83
ENDBRANCH  70  73
ENDBRANCH  66  69
ENDBRANCH  63  66
ENDBRANCH  60  63
ENDBRANCH  57  60
ENDBRANCH  54  57
ENDBRANCH   1  54
TORSDOF 24
ENDMDL
MODEL 6
REMARK VINA RESULT:     -10.1      4.655     10.431
REMARK SMILES [NH3+][C@@H](Cc1c[nH]c2ccccc12)C(=O)N[C@@H](CS)C(=O)N[C@@H](CO)C(=O)NCCCCCCNC(=O)c1ccc(-c2c3nc(c(-c4c(F)c(F)c(F)c(F)c4F)c4ccc([nH]4)c(-c4c(F)c(F)c(F)c(F)c4F)c4nc(c(-c5c(F)c(F)c(F)c(F)c5F)c5ccc2[nH]5)C=C4)C=C3)cc1
REMARK SMILES IDX 28 1 27 4 25 5 26 6 22 8 21 10 19 11 20 12 16 14 15 16 13 17
REMARK SMILES IDX 14 18 2 20 1 22 3 26 4 29 5 30 12 31 6 32 7 34 11 35 8 37
REMARK SMILES IDX 10 38 9 40 17 44 18 47 23 49 24 52 29 54 30 57 31 60 32 63
REMARK SMILES IDX 33 66 34 69 35 70 36 72 37 73 38 74 99 75 39 76 98 78 40 80
REMARK SMILES IDX 41 83 42 84 92 85 43 86 97 87 91 88 93 89 44 90 96 91 90 93
REMARK SMILES IDX 89 95 45 97 77 100 57 101 76 102 58 103 61 104 75 105 94 106
REMARK SMILES IDX 59 107 60 109 74 111 95 112 62 115 46 117 47 118 55 119
REMARK SMILES IDX 48 120 49 121 53 122 56 123 50 124 51 125 54 126 52 127
REMARK SMILES IDX 78 128 79 129 87 130 80 131 81 132 85 133 88 134 82 135
REMARK SMILES IDX 83 136 86 137 84 138 63 139 64 140 72 141 65 142 66 143
REMARK SMILES IDX 70 144 73 145 67 146 68 147 71 148 69 149
REMARK H PARENT 28 2 28 3 27 7 22 9 21 13 16 15 15 19 2 21 1 23 1 24 1 25 3 27
REMARK H PARENT 3 28 5 33 6 36 11 39 8 41 10 42 9 43 17 45 17 46 18 48 23 50
REMARK H PARENT 23 51 24 53 29 55 29 56 30 58 30 59 31 61 31 62 32 64 32 65
REMARK H PARENT 33 67 33 68 34 71 38 77 99 79 39 81 98 82 97 92 91 94 93 96
REMARK H PARENT 96 98 90 99 58 108 61 110 94 113 59 114 95 116
REMARK Flexibility Score: inf
ROOT
ATOM      1  C   UNL A   1      32.373  29.293  23.625  1.00  0.00     0.017 C 
ATOM      2  H   UNL A   1      32.820  30.187  23.243  1.00  0.00     0.049 H 
ATOM      3  H   UNL A   1      33.086  28.710  24.170  1.00  0.00     0.049 H 
ENDROOT
BRANCH   1   4
ATOM      4  N   UNL A   1      31.896  28.496  22.514  1.00  0.00    -0.354 N 
ATOM      5  C   UNL A   1      31.602  27.171  22.425  1.00  0.00     0.244 C 
ATOM      6  O   UNL A   1      30.926  26.807  21.459  1.00  0.00    -0.273 OA
ATOM      7  H   UNL A   1      31.760  29.000  21.679  1.00  0.00     0.163 HD
BRANCH   5   8
ATOM      8  C   UNL A   1      32.015  26.170  23.507  1.00  0.00     0.131 C 
ATOM      9  H   UNL A   1      32.207  25.238  23.018  1.00  0.00     0.066 H 
BRANCH   8  10
ATOM     10  N   UNL A   1      33.262  26.567  24.150  1.00  0.00    -0.340 N 
ATOM     11  C   UNL A   1      33.917  25.856  25.089  1.00  0.00     0.244 C 
ATOM     12  O   UNL A   1      34.071  26.443  26.165  1.00  0.00    -0.273 OA
ATOM     13  H   UNL A   1      33.658  27.424  23.875  1.00  0.00     0.164 HD
BRANCH  11  14
ATOM     14  C   UNL A   1      34.320  24.387  24.880  1.00  0.00     0.117 C 
ATOM     15  H   UNL A   1      33.491  23.789  25.195  1.00  0.00     0.064 H 
BRANCH  14  16
ATOM     16  N   UNL A   1      34.507  24.133  23.466  1.00  0.00    -0.338 N 
ATOM     17  C   UNL A   1      33.706  23.323  22.698  1.00  0.00     0.279 C 
ATOM     18  O   UNL A   1      33.544  23.667  21.522  1.00  0.00    -0.268 OA
ATOM     19  H   UNL A   1      35.266  24.576  23.021  1.00  0.00     0.164 HD
BRANCH  17  20
ATOM     20  C   UNL A   1      33.122  21.972  23.225  1.00  0.00     0.168 C 
ATOM     21  H   UNL A   1      32.612  22.239  24.127  1.00  0.00     0.107 H 
BRANCH  20  22
ATOM     22  N   UNL A   1      32.141  21.439  22.256  1.00  0.00    -0.347 N 
ATOM     23  H   UNL A   1      32.089  22.061  21.449  1.00  0.00     0.345 HD
ATOM     24  H   UNL A   1      31.224  21.378  22.697  1.00  0.00     0.345 HD
ATOM     25  H   UNL A   1      32.434  20.511  21.952  1.00  0.00     0.345 HD
ENDBRANCH  20  22
BRANCH  20  26
ATOM     26  C   UNL A   1      34.051  20.939  23.919  1.00  0.00     0.036 C 
ATOM     27  H   UNL A   1      34.683  21.493  24.583  1.00  0.00     0.038 H 
ATOM     28  H   UNL A   1      34.510  20.437  23.092  1.00  0.00     0.038 H 
BRANCH  26  29
ATOM     29  C   UNL A   1      33.476  19.798  24.725  1.00  0.00    -0.016 A 
ATOM     30  C   UNL A   1      32.942  19.945  25.995  1.00  0.00     0.005 A 
ATOM     31  C   UNL A   1      33.394  18.390  24.428  1.00  0.00     0.003 A 
ATOM     32  N   UNL A   1      32.743  18.705  26.536  1.00  0.00    -0.361 N 
ATOM     33  H   UNL A   1      32.729  20.843  26.456  1.00  0.00     0.082 H 
ATOM     34  C   UNL A   1      33.099  17.736  25.630  1.00  0.00     0.046 A 
ATOM     35  C   UNL A   1      33.663  17.587  23.300  1.00  0.00    -0.053 A 
ATOM     36  H   UNL A   1      32.396  18.532  27.440  1.00  0.00     0.166 HD
ATOM     37  C   UNL A   1      33.194  16.348  25.789  1.00  0.00    -0.038 A 
ATOM     38  C   UNL A   1      33.764  16.198  23.440  1.00  0.00    -0.062 A 
ATOM     39  H   UNL A   1      33.787  18.024  22.373  1.00  0.00     0.063 H 
ATOM     40  C   UNL A   1      33.563  15.592  24.675  1.00  0.00    -0.060 A 
ATOM     41  H   UNL A   1      32.997  15.900  26.699  1.00  0.00     0.064 H 
ATOM     42  H   UNL A   1      33.991  15.617  22.618  1.00  0.00     0.062 H 
ATOM     43  H   UNL A   1      33.687  14.572  24.771  1.00  0.00     0.062 H 
ENDBRANCH  26  29
ENDBRANCH  20  26
ENDBRANCH  17  20
ENDBRANCH  14  16
BRANCH  14  44
ATOM     44  C   UNL A   1      35.271  23.724  25.887  1.00  0.00     0.020 C 
ATOM     45  H   UNL A   1      34.951  22.709  26.000  1.00  0.00     0.040 H 
ATOM     46  H   UNL A   1      35.200  24.345  26.755  1.00  0.00     0.040 H 
BRANCH  44  47
ATOM     47  S   UNL A   1      37.051  23.685  25.521  1.00  0.00    -0.177 SA
ATOM     48  H   UNL A   1      37.377  24.750  24.740  1.00  0.00     0.102 HD
ENDBRANCH  44  47
ENDBRANCH  14  44
ENDBRANCH  11  14
ENDBRANCH   8  10
BRANCH   8  49
ATOM     49  C   UNL A   1      30.881  25.867  24.504  1.00  0.00     0.072 C 
ATOM     50  H   UNL A   1      31.249  26.035  25.494  1.00  0.00     0.059 H 
ATOM     51  H   UNL A   1      30.587  24.852  24.342  1.00  0.00     0.059 H 
BRANCH  49  52
ATOM     52  O   UNL A   1      29.720  26.670  24.314  1.00  0.00    -0.394 OA
ATOM     53  H   UNL A   1      29.287  26.820  25.170  1.00  0.00     0.210 HD
ENDBRANCH  49  52
ENDBRANCH   8  49
ENDBRANCH   5   8
ENDBRANCH   1   4
BRANCH   1  54
ATOM     54  C   UNL A   1      31.246  29.673  24.577  1.00  0.00    -0.036 C 
ATOM     55  H   UNL A   1      30.734  28.779  24.867  1.00  0.00     0.028 H 
ATOM     56  H   UNL A   1      30.612  30.357  24.053  1.00  0.00     0.028 H 
BRANCH  54  57
ATOM     57  C   UNL A   1      31.721  30.388  25.844  1.00  0.00    -0.052 C 
ATOM     58  H   UNL A   1      32.780  30.527  25.772  1.00  0.00     0.027 H 
ATOM     59  H   UNL A   1      31.435  29.769  26.667  1.00  0.00     0.027 H 
BRANCH  57  60
ATOM     60  C   UNL A   1      31.074  31.756  26.083  1.00  0.00    -0.052 C 
ATOM     61  H   UNL A   1      30.013  31.620  26.122  1.00  0.00     0.027 H 
ATOM     62  H   UNL A   1      31.391  32.383  25.276  1.00  0.00     0.027 H 
BRANCH  60  63
ATOM     63  C   UNL A   1      31.511  32.460  27.370  1.00  0.00    -0.036 C 
ATOM     64  H   UNL A   1      31.676  31.715  28.120  1.00  0.00     0.028 H 
ATOM     65  H   UNL A   1      30.728  33.143  27.628  1.00  0.00     0.028 H 
BRANCH  63  66
ATOM     66  C   UNL A   1      32.780  33.285  27.229  1.00  0.00     0.018 C 
ATOM     67  H   UNL A   1      32.969  33.456  26.190  1.00  0.00     0.049 H 
ATOM     68  H   UNL A   1      33.583  32.741  27.681  1.00  0.00     0.049 H 
BRANCH  66  69
ATOM     69  N   UNL A   1      32.667  34.566  27.903  1.00  0.00    -0.352 N 
ATOM     70  C   UNL A   1      33.319  35.012  29.023  1.00  0.00     0.251 C 
ATOM     71  H   UNL A   1      32.034  35.203  27.499  1.00  0.00     0.163 HD
ATOM     72  O   UNL A   1      32.950  36.029  29.593  1.00  0.00    -0.269 OA
BRANCH  70  73
ATOM     73  C   UNL A   1      34.466  34.240  29.544  1.00  0.00     0.039 A 
ATOM     74  C   UNL A   1      35.747  34.552  29.088  1.00  0.00    -0.049 A 
ATOM     75  C   UNL A   1      34.274  33.215  30.475  1.00  0.00    -0.049 A 
ATOM     76  C   UNL A   1      36.844  33.857  29.597  1.00  0.00    -0.053 A 
ATOM     77  H   UNL A   1      35.882  35.291  28.380  1.00  0.00     0.063 H 
ATOM     78  C   UNL A   1      35.374  32.585  31.045  1.00  0.00    -0.053 A 
ATOM     79  H   UNL A   1      33.319  32.927  30.738  1.00  0.00     0.063 H 
ATOM     80  C   UNL A   1      36.668  32.887  30.599  1.00  0.00    -0.014 A 
ATOM     81  H   UNL A   1      37.789  34.057  29.237  1.00  0.00     0.063 H 
ATOM     82  H   UNL A   1      35.237  31.893  31.800  1.00  0.00     0.063 H 
BRANCH  80  83
ATOM     83  C   UNL A   1      37.835  32.174  31.174  1.00  0.00     0.031 A 
ATOM     84  C   UNL A   1      38.329  32.515  32.551  1.00  0.00     0.074 A 
ATOM     85  C   UNL A   1      38.470  31.244  30.436  1.00  0.00     0.049 A 
ATOM     86  N   UNL A   1      39.325  31.998  33.224  1.00  0.00    -0.248 NA
ATOM     87  C   UNL A   1      37.630  33.601  33.258  1.00  0.00    -0.034 C 
ATOM     88  C   UNL A   1      38.122  30.874  29.063  1.00  0.00    -0.036 A 
ATOM     89  N   UNL A   1      39.540  30.440  30.736  1.00  0.00    -0.354 N 
ATOM     90  C   UNL A   1      39.378  32.701  34.421  1.00  0.00     0.074 A 
ATOM     91  C   UNL A   1      38.358  33.723  34.357  1.00  0.00    -0.034 C 
ATOM     92  H   UNL A   1      36.792  34.129  32.971  1.00  0.00     0.065 H 
ATOM     93  C   UNL A   1      38.939  29.892  28.651  1.00  0.00    -0.036 A 
ATOM     94  H   UNL A   1      37.369  31.301  28.501  1.00  0.00     0.065 H 
ATOM     95  C   UNL A   1      39.889  29.587  29.717  1.00  0.00     0.049 A 
ATOM     96  H   UNL A   1      40.012  30.470  31.599  1.00  0.00     0.167 HD
ATOM     97  C   UNL A   1      40.186  32.492  35.487  1.00  0.00     0.037 A 
ATOM     98  H   UNL A   1      38.216  34.451  35.074  1.00  0.00     0.065 H 
ATOM     99  H   UNL A   1      38.902  29.427  27.731  1.00  0.00     0.065 H 
ATOM    100  C   UNL A   1      40.865  28.662  29.652  1.00  0.00     0.037 A 
ATOM    101  C   UNL A   1      41.185  31.458  35.551  1.00  0.00     0.049 A 
ATOM    102  C   UNL A   1      41.744  28.443  30.853  1.00  0.00     0.074 A 
ATOM    103  C   UNL A   1      42.009  31.117  36.607  1.00  0.00    -0.036 A 
ATOM    104  N   UNL A   1      41.500  30.600  34.505  1.00  0.00    -0.354 N 
ATOM    105  N   UNL A   1      41.726  29.052  32.014  1.00  0.00    -0.248 NA
ATOM    106  C   UNL A   1      42.770  27.398  30.741  1.00  0.00    -0.034 C 
ATOM    107  C   UNL A   1      42.863  30.095  36.183  1.00  0.00    -0.036 A 
ATOM    108  H   UNL A   1      41.996  31.544  37.547  1.00  0.00     0.065 H 
ATOM    109  C   UNL A   1      42.527  29.750  34.883  1.00  0.00     0.049 A 
ATOM    110  H   UNL A   1      41.059  30.596  33.625  1.00  0.00     0.167 HD
ATOM    111  C   UNL A   1      42.714  28.445  32.780  1.00  0.00     0.074 A 
ATOM    112  C   UNL A   1      43.301  27.410  31.955  1.00  0.00    -0.034 C 
ATOM    113  H   UNL A   1      43.013  26.809  29.929  1.00  0.00     0.065 H 
ATOM    114  H   UNL A   1      43.618  29.667  36.743  1.00  0.00     0.065 H 
ATOM    115  C   UNL A   1      43.097  28.720  34.052  1.00  0.00     0.037 A 
ATOM    116  H   UNL A   1      44.040  26.764  32.273  1.00  0.00     0.065 H 
BRANCH  97 117
ATOM    117  C   UNL A   1      40.023  33.403  36.672  1.00  0.00     0.064 A 
ATOM    118  C   UNL A   1      40.802  34.561  36.827  1.00  0.00     0.173 A 
ATOM    119  C   UNL A   1      39.057  33.131  37.651  1.00  0.00     0.173 A 
ATOM    120  F   UNL A   1      41.749  34.865  35.926  1.00  0.00    -0.203 F 
ATOM    121  C   UNL A   1      40.645  35.389  37.935  1.00  0.00     0.198 A 
ATOM    122  C   UNL A   1      38.877  33.980  38.740  1.00  0.00     0.198 A 
ATOM    123  F   UNL A   1      38.280  32.041  37.551  1.00  0.00    -0.203 F 
ATOM    124  F   UNL A   1      41.442  36.455  38.092  1.00  0.00    -0.200 F 
ATOM    125  C   UNL A   1      39.678  35.102  38.886  1.00  0.00     0.200 A 
ATOM    126  F   UNL A   1      37.932  33.710  39.650  1.00  0.00    -0.200 F 
ATOM    127  F   UNL A   1      39.523  35.904  39.950  1.00  0.00    -0.200 F 
ENDBRANCH  97 117
BRANCH 100 128
ATOM    128  C   UNL A   1      41.036  27.853  28.417  1.00  0.00     0.064 A 
ATOM    129  C   UNL A   1      41.883  28.280  27.384  1.00  0.00     0.173 A 
ATOM    130  C   UNL A   1      40.366  26.633  28.248  1.00  0.00     0.173 A 
ATOM    131  F   UNL A   1      42.533  29.448  27.492  1.00  0.00    -0.203 F 
ATOM    132  C   UNL A   1      42.035  27.528  26.222  1.00  0.00     0.198 A 
ATOM    133  C   UNL A   1      40.544  25.866  27.098  1.00  0.00     0.198 A 
ATOM    134  F   UNL A   1      39.551  26.174  29.210  1.00  0.00    -0.203 F 
ATOM    135  F   UNL A   1      42.816  27.981  25.231  1.00  0.00    -0.200 F 
ATOM    136  C   UNL A   1      41.371  26.318  26.082  1.00  0.00     0.200 A 
ATOM    137  F   UNL A   1      39.914  24.690  26.977  1.00  0.00    -0.200 F 
ATOM    138  F   UNL A   1      41.525  25.591  24.968  1.00  0.00    -0.200 F 
ENDBRANCH 100 128
BRANCH 115 139
ATOM    139  C   UNL A   1      44.175  27.861  34.647  1.00  0.00     0.064 A 
ATOM    140  C   UNL A   1      43.888  26.634  35.264  1.00  0.00     0.173 A 
ATOM    141  C   UNL A   1      45.520  28.252  34.559  1.00  0.00     0.173 A 
ATOM    142  F   UNL A   1      42.618  26.220  35.387  1.00  0.00    -0.203 F 
ATOM    143  C   UNL A   1      44.904  25.847  35.798  1.00  0.00     0.198 A 
ATOM    144  C   UNL A   1      46.536  27.446  35.062  1.00  0.00     0.198 A 
ATOM    145  F   UNL A   1      45.850  29.412  33.971  1.00  0.00    -0.203 F 
ATOM    146  F   UNL A   1      44.603  24.704  36.431  1.00  0.00    -0.200 F 
ATOM    147  C   UNL A   1      46.228  26.248  35.689  1.00  0.00     0.200 A 
ATOM    148  F   UNL A   1      47.815  27.828  34.940  1.00  0.00    -0.200 F 
ATOM    149  F   UNL A   1      47.205  25.484  36.195  1.00  0.00    -0.200 F 
ENDBRANCH 115 139
ENDBRANCH  80  83
ENDBRANCH  70  73
ENDBRANCH  66  69
ENDBRANCH  63  66
ENDBRANCH  60  63
ENDBRANCH  57  60
ENDBRANCH  54  57
ENDBRANCH   1  54
TORSDOF 24
ENDMDL
MODEL 7
REMARK VINA RESULT:     -10.0      3.067      8.575
REMARK SMILES [NH3+][C@@H](Cc1c[nH]c2ccccc12)C(=O)N[C@@H](CS)C(=O)N[C@@H](CO)C(=O)NCCCCCCNC(=O)c1ccc(-c2c3nc(c(-c4c(F)c(F)c(F)c(F)c4F)c4ccc([nH]4)c(-c4c(F)c(F)c(F)c(F)c4F)c4nc(c(-c5c(F)c(F)c(F)c(F)c5F)c5ccc2[nH]5)C=C4)C=C3)cc1
REMARK SMILES IDX 28 1 27 4 25 5 26 6 22 8 21 10 19 11 20 12 16 14 15 16 13 17
REMARK SMILES IDX 14 18 2 20 1 22 3 26 4 29 5 30 12 31 6 32 7 34 11 35 8 37
REMARK SMILES IDX 10 38 9 40 17 44 18 47 23 49 24 52 29 54 30 57 31 60 32 63
REMARK SMILES IDX 33 66 34 69 35 70 36 72 37 73 38 74 99 75 39 76 98 78 40 80
REMARK SMILES IDX 41 83 42 84 92 85 43 86 97 87 91 88 93 89 44 90 96 91 90 93
REMARK SMILES IDX 89 95 45 97 77 100 57 101 76 102 58 103 61 104 75 105 94 106
REMARK SMILES IDX 59 107 60 109 74 111 95 112 62 115 46 117 47 118 55 119
REMARK SMILES IDX 48 120 49 121 53 122 56 123 50 124 51 125 54 126 52 127
REMARK SMILES IDX 78 128 79 129 87 130 80 131 81 132 85 133 88 134 82 135
REMARK SMILES IDX 83 136 86 137 84 138 63 139 64 140 72 141 65 142 66 143
REMARK SMILES IDX 70 144 73 145 67 146 68 147 71 148 69 149
REMARK H PARENT 28 2 28 3 27 7 22 9 21 13 16 15 15 19 2 21 1 23 1 24 1 25 3 27
REMARK H PARENT 3 28 5 33 6 36 11 39 8 41 10 42 9 43 17 45 17 46 18 48 23 50
REMARK H PARENT 23 51 24 53 29 55 29 56 30 58 30 59 31 61 31 62 32 64 32 65
REMARK H PARENT 33 67 33 68 34 71 38 77 99 79 39 81 98 82 97 92 91 94 93 96
REMARK H PARENT 96 98 90 99 58 108 61 110 94 113 59 114 95 116
REMARK Flexibility Score: inf
ROOT
ATOM      1  C   UNL A   1      35.393  29.129  27.526  1.00  0.00     0.017 C 
ATOM      2  H   UNL A   1      35.683  28.723  26.579  1.00  0.00     0.049 H 
ATOM      3  H   UNL A   1      35.092  28.356  28.201  1.00  0.00     0.049 H 
ENDROOT
BRANCH   1   4
ATOM      4  N   UNL A   1      34.267  30.018  27.328  1.00  0.00    -0.354 N 
ATOM      5  C   UNL A   1      33.002  29.774  26.890  1.00  0.00     0.244 C 
ATOM      6  O   UNL A   1      32.154  30.644  27.105  1.00  0.00    -0.273 OA
ATOM      7  H   UNL A   1      34.447  30.960  27.549  1.00  0.00     0.163 HD
BRANCH   5   8
ATOM      8  C   UNL A   1      32.610  28.450  26.228  1.00  0.00     0.131 C 
ATOM      9  H   UNL A   1      31.916  28.682  25.447  1.00  0.00     0.066 H 
BRANCH   8  10
ATOM     10  N   UNL A   1      33.756  27.814  25.591  1.00  0.00    -0.340 N 
ATOM     11  C   UNL A   1      33.703  26.738  24.782  1.00  0.00     0.244 C 
ATOM     12  O   UNL A   1      34.355  25.765  25.175  1.00  0.00    -0.273 OA
ATOM     13  H   UNL A   1      34.643  28.204  25.765  1.00  0.00     0.164 HD
BRANCH  11  14
ATOM     14  C   UNL A   1      32.795  26.682  23.541  1.00  0.00     0.117 C 
ATOM     15  H   UNL A   1      32.691  27.686  23.187  1.00  0.00     0.064 H 
BRANCH  14  16
ATOM     16  N   UNL A   1      33.455  25.933  22.493  1.00  0.00    -0.338 N 
ATOM     17  C   UNL A   1      33.123  24.657  22.106  1.00  0.00     0.279 C 
ATOM     18  O   UNL A   1      33.259  24.394  20.906  1.00  0.00    -0.268 OA
ATOM     19  H   UNL A   1      34.199  26.372  22.020  1.00  0.00     0.164 HD
BRANCH  17  20
ATOM     20  C   UNL A   1      32.712  23.547  23.128  1.00  0.00     0.168 C 
ATOM     21  H   UNL A   1      32.616  24.067  24.058  1.00  0.00     0.107 H 
BRANCH  20  22
ATOM     22  N   UNL A   1      31.398  22.984  22.751  1.00  0.00    -0.347 N 
ATOM     23  H   UNL A   1      31.241  23.125  21.754  1.00  0.00     0.345 HD
ATOM     24  H   UNL A   1      30.662  23.453  23.280  1.00  0.00     0.345 HD
ATOM     25  H   UNL A   1      31.383  21.986  22.960  1.00  0.00     0.345 HD
ENDBRANCH  20  22
BRANCH  20  26
ATOM     26  C   UNL A   1      33.774  22.547  23.662  1.00  0.00     0.036 C 
ATOM     27  H   UNL A   1      34.506  23.129  24.183  1.00  0.00     0.038 H 
ATOM     28  H   UNL A   1      34.080  22.030  22.776  1.00  0.00     0.038 H 
BRANCH  26  29
ATOM     29  C   UNL A   1      33.380  21.422  24.589  1.00  0.00    -0.016 A 
ATOM     30  C   UNL A   1      33.463  21.496  25.969  1.00  0.00     0.005 A 
ATOM     31  C   UNL A   1      32.912  20.089  24.298  1.00  0.00     0.003 A 
ATOM     32  N   UNL A   1      33.274  20.246  26.491  1.00  0.00    -0.361 N 
ATOM     33  H   UNL A   1      33.638  22.354  26.515  1.00  0.00     0.082 H 
ATOM     34  C   UNL A   1      33.026  19.350  25.480  1.00  0.00     0.046 A 
ATOM     35  C   UNL A   1      32.527  19.396  23.132  1.00  0.00    -0.053 A 
ATOM     36  H   UNL A   1      33.310  20.022  27.448  1.00  0.00     0.166 HD
ATOM     37  C   UNL A   1      32.910  17.955  25.525  1.00  0.00    -0.038 A 
ATOM     38  C   UNL A   1      32.408  18.001  23.156  1.00  0.00    -0.062 A 
ATOM     39  H   UNL A   1      32.334  19.916  22.261  1.00  0.00     0.063 H 
ATOM     40  C   UNL A   1      32.628  17.290  24.330  1.00  0.00    -0.060 A 
ATOM     41  H   UNL A   1      33.029  17.437  26.410  1.00  0.00     0.064 H 
ATOM     42  H   UNL A   1      32.155  17.495  22.292  1.00  0.00     0.062 H 
ATOM     43  H   UNL A   1      32.583  16.259  24.319  1.00  0.00     0.062 H 
ENDBRANCH  26  29
ENDBRANCH  20  26
ENDBRANCH  17  20
ENDBRANCH  14  16
BRANCH  14  44
ATOM     44  C   UNL A   1      31.280  26.519  23.733  1.00  0.00     0.020 C 
ATOM     45  H   UNL A   1      31.110  26.364  24.778  1.00  0.00     0.040 H 
ATOM     46  H   UNL A   1      31.024  25.707  23.083  1.00  0.00     0.040 H 
BRANCH  44  47
ATOM     47  S   UNL A   1      30.178  27.865  23.207  1.00  0.00    -0.177 SA
ATOM     48  H   UNL A   1      30.603  28.358  22.013  1.00  0.00     0.102 HD
ENDBRANCH  44  47
ENDBRANCH  14  44
ENDBRANCH  11  14
ENDBRANCH   8  10
BRANCH   8  49
ATOM     49  C   UNL A   1      31.838  27.514  27.176  1.00  0.00     0.072 C 
ATOM     50  H   UNL A   1      32.547  26.913  27.707  1.00  0.00     0.059 H 
ATOM     51  H   UNL A   1      31.179  26.931  26.570  1.00  0.00     0.059 H 
BRANCH  49  52
ATOM     52  O   UNL A   1      31.029  28.200  28.128  1.00  0.00    -0.394 OA
ATOM     53  H   UNL A   1      30.195  28.469  27.709  1.00  0.00     0.210 HD
ENDBRANCH  49  52
ENDBRANCH   8  49
ENDBRANCH   5   8
ENDBRANCH   1   4
BRANCH   1  54
ATOM     54  C   UNL A   1      36.587  29.853  28.138  1.00  0.00    -0.036 C 
ATOM     55  H   UNL A   1      37.054  30.439  27.373  1.00  0.00     0.028 H 
ATOM     56  H   UNL A   1      37.237  29.102  28.534  1.00  0.00     0.028 H 
BRANCH  54  57
ATOM     57  C   UNL A   1      36.219  30.780  29.298  1.00  0.00    -0.052 C 
ATOM     58  H   UNL A   1      35.172  30.995  29.235  1.00  0.00     0.027 H 
ATOM     59  H   UNL A   1      36.832  31.651  29.196  1.00  0.00     0.027 H 
BRANCH  57  60
ATOM     60  C   UNL A   1      36.507  30.205  30.688  1.00  0.00    -0.052 C 
ATOM     61  H   UNL A   1      37.569  30.170  30.820  1.00  0.00     0.027 H 
ATOM     62  H   UNL A   1      36.045  29.241  30.716  1.00  0.00     0.027 H 
BRANCH  60  63
ATOM     63  C   UNL A   1      35.910  31.001  31.852  1.00  0.00    -0.036 C 
ATOM     64  H   UNL A   1      36.688  31.194  32.560  1.00  0.00     0.028 H 
ATOM     65  H   UNL A   1      35.118  30.404  32.257  1.00  0.00     0.028 H 
BRANCH  63  66
ATOM     66  C   UNL A   1      35.292  32.329  31.447  1.00  0.00     0.018 C 
ATOM     67  H   UNL A   1      34.226  32.233  31.460  1.00  0.00     0.049 H 
ATOM     68  H   UNL A   1      35.642  32.574  30.467  1.00  0.00     0.049 H 
BRANCH  66  69
ATOM     69  N   UNL A   1      35.679  33.400  32.347  1.00  0.00    -0.352 N 
ATOM     70  C   UNL A   1      36.935  33.798  32.723  1.00  0.00     0.251 C 
ATOM     71  H   UNL A   1      34.936  33.911  32.742  1.00  0.00     0.163 HD
ATOM     72  O   UNL A   1      37.088  34.570  33.659  1.00  0.00    -0.269 OA
BRANCH  70  73
ATOM     73  C   UNL A   1      38.107  33.271  31.994  1.00  0.00     0.039 A 
ATOM     74  C   UNL A   1      39.032  32.488  32.687  1.00  0.00    -0.049 A 
ATOM     75  C   UNL A   1      38.290  33.552  30.637  1.00  0.00    -0.049 A 
ATOM     76  C   UNL A   1      40.125  31.955  32.004  1.00  0.00    -0.053 A 
ATOM     77  H   UNL A   1      38.908  32.307  33.695  1.00  0.00     0.063 H 
ATOM     78  C   UNL A   1      39.331  32.947  29.941  1.00  0.00    -0.053 A 
ATOM     79  H   UNL A   1      37.656  34.206  30.154  1.00  0.00     0.063 H 
ATOM     80  C   UNL A   1      40.268  32.158  30.621  1.00  0.00    -0.014 A 
ATOM     81  H   UNL A   1      40.832  31.407  32.518  1.00  0.00     0.063 H 
ATOM     82  H   UNL A   1      39.413  33.080  28.920  1.00  0.00     0.063 H 
BRANCH  80  83
ATOM     83  C   UNL A   1      41.406  31.558  29.883  1.00  0.00     0.031 A 
ATOM     84  C   UNL A   1      42.632  32.375  29.586  1.00  0.00     0.074 A 
ATOM     85  C   UNL A   1      41.316  30.287  29.449  1.00  0.00     0.049 A 
ATOM     86  N   UNL A   1      43.727  32.025  28.961  1.00  0.00    -0.248 NA
ATOM     87  C   UNL A   1      42.617  33.780  30.022  1.00  0.00    -0.034 C 
ATOM     88  C   UNL A   1      40.151  29.417  29.620  1.00  0.00    -0.036 A 
ATOM     89  N   UNL A   1      42.218  29.504  28.775  1.00  0.00    -0.354 N 
ATOM     90  C   UNL A   1      44.520  33.164  28.920  1.00  0.00     0.074 A 
ATOM     91  C   UNL A   1      43.757  34.233  29.524  1.00  0.00    -0.034 C 
ATOM     92  H   UNL A   1      41.902  34.282  30.572  1.00  0.00     0.065 H 
ATOM     93  C   UNL A   1      40.421  28.211  29.099  1.00  0.00    -0.036 A 
ATOM     94  H   UNL A   1      39.262  29.689  30.071  1.00  0.00     0.065 H 
ATOM     95  C   UNL A   1      41.764  28.232  28.526  1.00  0.00     0.049 A 
ATOM     96  H   UNL A   1      43.107  29.823  28.497  1.00  0.00     0.167 HD
ATOM     97  C   UNL A   1      45.783  33.298  28.448  1.00  0.00     0.037 A 
ATOM     98  H   UNL A   1      44.060  35.218  29.562  1.00  0.00     0.065 H 
ATOM     99  H   UNL A   1      39.785  27.400  29.102  1.00  0.00     0.065 H 
ATOM    100  C   UNL A   1      42.365  27.199  27.906  1.00  0.00     0.037 A 
ATOM    101  C   UNL A   1      46.544  32.224  27.869  1.00  0.00     0.049 A 
ATOM    102  C   UNL A   1      43.771  27.370  27.398  1.00  0.00     0.074 A 
ATOM    103  C   UNL A   1      47.852  32.235  27.422  1.00  0.00    -0.036 A 
ATOM    104  N   UNL A   1      46.057  30.942  27.647  1.00  0.00    -0.354 N 
ATOM    105  N   UNL A   1      44.546  28.427  27.447  1.00  0.00    -0.248 NA
ATOM    106  C   UNL A   1      44.391  26.201  26.762  1.00  0.00    -0.034 C 
ATOM    107  C   UNL A   1      48.139  30.980  26.876  1.00  0.00    -0.036 A 
ATOM    108  H   UNL A   1      48.505  33.033  27.481  1.00  0.00     0.065 H 
ATOM    109  C   UNL A   1      47.032  30.163  27.044  1.00  0.00     0.049 A 
ATOM    110  H   UNL A   1      45.153  30.632  27.884  1.00  0.00     0.167 HD
ATOM    111  C   UNL A   1      45.753  28.043  26.878  1.00  0.00     0.074 A 
ATOM    112  C   UNL A   1      45.611  26.651  26.505  1.00  0.00    -0.034 C 
ATOM    113  H   UNL A   1      43.984  25.273  26.567  1.00  0.00     0.065 H 
ATOM    114  H   UNL A   1      49.026  30.707  26.424  1.00  0.00     0.065 H 
ATOM    115  C   UNL A   1      46.877  28.776  26.684  1.00  0.00     0.037 A 
ATOM    116  H   UNL A   1      46.366  26.081  26.090  1.00  0.00     0.065 H 
BRANCH  97 117
ATOM    117  C   UNL A   1      46.418  34.658  28.539  1.00  0.00     0.064 A 
ATOM    118  C   UNL A   1      46.305  35.598  27.502  1.00  0.00     0.173 A 
ATOM    119  C   UNL A   1      47.126  35.037  29.688  1.00  0.00     0.173 A 
ATOM    120  F   UNL A   1      45.648  35.285  26.375  1.00  0.00    -0.203 F 
ATOM    121  C   UNL A   1      46.907  36.849  27.598  1.00  0.00     0.198 A 
ATOM    122  C   UNL A   1      47.698  36.303  29.796  1.00  0.00     0.198 A 
ATOM    123  F   UNL A   1      47.262  34.181  30.713  1.00  0.00    -0.203 F 
ATOM    124  F   UNL A   1      46.836  37.706  26.569  1.00  0.00    -0.200 F 
ATOM    125  C   UNL A   1      47.596  37.203  28.747  1.00  0.00     0.200 A 
ATOM    126  F   UNL A   1      48.350  36.649  30.914  1.00  0.00    -0.200 F 
ATOM    127  F   UNL A   1      48.171  38.411  28.841  1.00  0.00    -0.200 F 
ENDBRANCH  97 117
BRANCH 100 128
ATOM    128  C   UNL A   1      41.650  25.904  27.766  1.00  0.00     0.064 A 
ATOM    129  C   UNL A   1      40.588  25.758  26.862  1.00  0.00     0.173 A 
ATOM    130  C   UNL A   1      42.019  24.783  28.524  1.00  0.00     0.173 A 
ATOM    131  F   UNL A   1      40.188  26.805  26.126  1.00  0.00    -0.203 F 
ATOM    132  C   UNL A   1      39.910  24.548  26.737  1.00  0.00     0.198 A 
ATOM    133  C   UNL A   1      41.360  23.564  28.376  1.00  0.00     0.198 A 
ATOM    134  F   UNL A   1      43.034  24.866  29.397  1.00  0.00    -0.203 F 
ATOM    135  F   UNL A   1      38.870  24.448  25.897  1.00  0.00    -0.200 F 
ATOM    136  C   UNL A   1      40.300  23.450  27.489  1.00  0.00     0.200 A 
ATOM    137  F   UNL A   1      41.753  22.501  29.091  1.00  0.00    -0.200 F 
ATOM    138  F   UNL A   1      39.653  22.284  27.363  1.00  0.00    -0.200 F 
ENDBRANCH 100 128
BRANCH 115 139
ATOM    139  C   UNL A   1      48.060  28.077  26.078  1.00  0.00     0.064 A 
ATOM    140  C   UNL A   1      49.133  27.625  26.860  1.00  0.00     0.173 A 
ATOM    141  C   UNL A   1      48.098  27.819  24.699  1.00  0.00     0.173 A 
ATOM    142  F   UNL A   1      49.152  27.859  28.181  1.00  0.00    -0.203 F 
ATOM    143  C   UNL A   1      50.214  26.968  26.280  1.00  0.00     0.198 A 
ATOM    144  C   UNL A   1      49.164  27.129  24.128  1.00  0.00     0.198 A 
ATOM    145  F   UNL A   1      47.093  28.221  23.907  1.00  0.00    -0.203 F 
ATOM    146  F   UNL A   1      51.254  26.592  27.038  1.00  0.00    -0.200 F 
ATOM    147  C   UNL A   1      50.225  26.712  24.916  1.00  0.00     0.200 A 
ATOM    148  F   UNL A   1      49.163  26.869  22.813  1.00  0.00    -0.200 F 
ATOM    149  F   UNL A   1      51.262  26.071  24.361  1.00  0.00    -0.200 F 
ENDBRANCH 115 139
ENDBRANCH  80  83
ENDBRANCH  70  73
ENDBRANCH  66  69
ENDBRANCH  63  66
ENDBRANCH  60  63
ENDBRANCH  57  60
ENDBRANCH  54  57
ENDBRANCH   1  54
TORSDOF 24
ENDMDL
MODEL 8
REMARK VINA RESULT:     -10.0      3.053      8.389
REMARK SMILES [NH3+][C@@H](Cc1c[nH]c2ccccc12)C(=O)N[C@@H](CS)C(=O)N[C@@H](CO)C(=O)NCCCCCCNC(=O)c1ccc(-c2c3nc(c(-c4c(F)c(F)c(F)c(F)c4F)c4ccc([nH]4)c(-c4c(F)c(F)c(F)c(F)c4F)c4nc(c(-c5c(F)c(F)c(F)c(F)c5F)c5ccc2[nH]5)C=C4)C=C3)cc1
REMARK SMILES IDX 28 1 27 4 25 5 26 6 22 8 21 10 19 11 20 12 16 14 15 16 13 17
REMARK SMILES IDX 14 18 2 20 1 22 3 26 4 29 5 30 12 31 6 32 7 34 11 35 8 37
REMARK SMILES IDX 10 38 9 40 17 44 18 47 23 49 24 52 29 54 30 57 31 60 32 63
REMARK SMILES IDX 33 66 34 69 35 70 36 72 37 73 38 74 99 75 39 76 98 78 40 80
REMARK SMILES IDX 41 83 42 84 92 85 43 86 97 87 91 88 93 89 44 90 96 91 90 93
REMARK SMILES IDX 89 95 45 97 77 100 57 101 76 102 58 103 61 104 75 105 94 106
REMARK SMILES IDX 59 107 60 109 74 111 95 112 62 115 46 117 47 118 55 119
REMARK SMILES IDX 48 120 49 121 53 122 56 123 50 124 51 125 54 126 52 127
REMARK SMILES IDX 78 128 79 129 87 130 80 131 81 132 85 133 88 134 82 135
REMARK SMILES IDX 83 136 86 137 84 138 63 139 64 140 72 141 65 142 66 143
REMARK SMILES IDX 70 144 73 145 67 146 68 147 71 148 69 149
REMARK H PARENT 28 2 28 3 27 7 22 9 21 13 16 15 15 19 2 21 1 23 1 24 1 25 3 27
REMARK H PARENT 3 28 5 33 6 36 11 39 8 41 10 42 9 43 17 45 17 46 18 48 23 50
REMARK H PARENT 23 51 24 53 29 55 29 56 30 58 30 59 31 61 31 62 32 64 32 65
REMARK H PARENT 33 67 33 68 34 71 38 77 99 79 39 81 98 82 97 92 91 94 93 96
REMARK H PARENT 96 98 90 99 58 108 61 110 94 113 59 114 95 116
REMARK Flexibility Score: inf
ROOT
ATOM      1  C   UNL A   1      35.824  29.785  27.669  1.00  0.00     0.017 C 
ATOM      2  H   UNL A   1      36.209  29.729  26.672  1.00  0.00     0.049 H 
ATOM      3  H   UNL A   1      35.135  28.990  27.860  1.00  0.00     0.049 H 
ENDROOT
BRANCH   1   4
ATOM      4  N   UNL A   1      35.118  31.040  27.828  1.00  0.00    -0.354 N 
ATOM      5  C   UNL A   1      33.815  31.365  27.615  1.00  0.00     0.244 C 
ATOM      6  O   UNL A   1      33.407  32.416  28.117  1.00  0.00    -0.273 OA
ATOM      7  H   UNL A   1      35.678  31.785  28.145  1.00  0.00     0.163 HD
BRANCH   5   8
ATOM      8  C   UNL A   1      32.858  30.443  26.855  1.00  0.00     0.131 C 
ATOM      9  H   UNL A   1      33.330  30.193  25.928  1.00  0.00     0.066 H 
BRANCH   8  10
ATOM     10  N   UNL A   1      32.652  29.188  27.568  1.00  0.00    -0.340 N 
ATOM     11  C   UNL A   1      32.009  28.109  27.079  1.00  0.00     0.244 C 
ATOM     12  O   UNL A   1      31.025  27.754  27.736  1.00  0.00    -0.273 OA
ATOM     13  H   UNL A   1      33.012  29.123  28.481  1.00  0.00     0.164 HD
BRANCH  11  14
ATOM     14  C   UNL A   1      32.392  27.456  25.740  1.00  0.00     0.117 C 
ATOM     15  H   UNL A   1      32.555  26.417  25.936  1.00  0.00     0.064 H 
BRANCH  14  16
ATOM     16  N   UNL A   1      31.274  27.540  24.824  1.00  0.00    -0.338 N 
ATOM     17  C   UNL A   1      30.505  26.476  24.419  1.00  0.00     0.279 C 
ATOM     18  O   UNL A   1      29.309  26.709  24.215  1.00  0.00    -0.268 OA
ATOM     19  H   UNL A   1      31.047  28.429  24.464  1.00  0.00     0.164 HD
BRANCH  17  20
ATOM     20  C   UNL A   1      31.111  25.068  24.109  1.00  0.00     0.168 C 
ATOM     21  H   UNL A   1      31.446  24.710  25.060  1.00  0.00     0.107 H 
BRANCH  20  22
ATOM     22  N   UNL A   1      30.053  24.171  23.599  1.00  0.00    -0.347 N 
ATOM     23  H   UNL A   1      29.269  24.164  24.252  1.00  0.00     0.345 HD
ATOM     24  H   UNL A   1      30.424  23.225  23.505  1.00  0.00     0.345 HD
ATOM     25  H   UNL A   1      29.734  24.502  22.689  1.00  0.00     0.345 HD
ENDBRANCH  20  22
BRANCH  20  26
ATOM     26  C   UNL A   1      32.508  24.952  23.442  1.00  0.00     0.036 C 
ATOM     27  H   UNL A   1      32.895  25.947  23.365  1.00  0.00     0.038 H 
ATOM     28  H   UNL A   1      32.296  24.424  22.534  1.00  0.00     0.038 H 
BRANCH  26  29
ATOM     29  C   UNL A   1      33.598  24.115  24.069  1.00  0.00    -0.016 A 
ATOM     30  C   UNL A   1      34.737  23.704  23.396  1.00  0.00     0.005 A 
ATOM     31  C   UNL A   1      33.695  23.539  25.387  1.00  0.00     0.003 A 
ATOM     32  N   UNL A   1      35.386  22.771  24.156  1.00  0.00    -0.361 N 
ATOM     33  H   UNL A   1      35.046  24.048  22.474  1.00  0.00     0.082 H 
ATOM     34  C   UNL A   1      34.717  22.584  25.341  1.00  0.00     0.046 A 
ATOM     35  C   UNL A   1      32.945  23.631  26.577  1.00  0.00    -0.053 A 
ATOM     36  H   UNL A   1      36.210  22.301  23.893  1.00  0.00     0.166 HD
ATOM     37  C   UNL A   1      34.931  21.642  26.355  1.00  0.00    -0.038 A 
ATOM     38  C   UNL A   1      33.142  22.696  27.601  1.00  0.00    -0.062 A 
ATOM     39  H   UNL A   1      32.249  24.386  26.693  1.00  0.00     0.063 H 
ATOM     40  C   UNL A   1      34.101  21.698  27.476  1.00  0.00    -0.060 A 
ATOM     41  H   UNL A   1      35.676  20.931  26.275  1.00  0.00     0.064 H 
ATOM     42  H   UNL A   1      32.569  22.750  28.458  1.00  0.00     0.062 H 
ATOM     43  H   UNL A   1      34.201  20.989  28.219  1.00  0.00     0.062 H 
ENDBRANCH  26  29
ENDBRANCH  20  26
ENDBRANCH  17  20
ENDBRANCH  14  16
BRANCH  14  44
ATOM     44  C   UNL A   1      33.816  27.649  25.197  1.00  0.00     0.020 C 
ATOM     45  H   UNL A   1      34.270  26.681  25.157  1.00  0.00     0.040 H 
ATOM     46  H   UNL A   1      34.255  28.354  25.871  1.00  0.00     0.040 H 
BRANCH  44  47
ATOM     47  S   UNL A   1      34.037  28.410  23.561  1.00  0.00    -0.177 SA
ATOM     48  H   UNL A   1      34.318  27.444  22.646  1.00  0.00     0.102 HD
ENDBRANCH  44  47
ENDBRANCH  14  44
ENDBRANCH  11  14
ENDBRANCH   8  10
BRANCH   8  49
ATOM     49  C   UNL A   1      31.547  31.143  26.455  1.00  0.00     0.072 C 
ATOM     50  H   UNL A   1      31.705  32.201  26.487  1.00  0.00     0.059 H 
ATOM     51  H   UNL A   1      30.797  30.820  27.146  1.00  0.00     0.059 H 
BRANCH  49  52
ATOM     52  O   UNL A   1      31.086  30.797  25.151  1.00  0.00    -0.394 OA
ATOM     53  H   UNL A   1      30.439  31.456  24.851  1.00  0.00     0.210 HD
ENDBRANCH  49  52
ENDBRANCH   8  49
ENDBRANCH   5   8
ENDBRANCH   1   4
BRANCH   1  54
ATOM     54  C   UNL A   1      36.981  29.655  28.652  1.00  0.00    -0.036 C 
ATOM     55  H   UNL A   1      37.895  29.635  28.095  1.00  0.00     0.028 H 
ATOM     56  H   UNL A   1      36.819  28.756  29.208  1.00  0.00     0.028 H 
BRANCH  54  57
ATOM     57  C   UNL A   1      37.061  30.798  29.667  1.00  0.00    -0.052 C 
ATOM     58  H   UNL A   1      36.355  31.550  29.379  1.00  0.00     0.027 H 
ATOM     59  H   UNL A   1      38.073  31.145  29.653  1.00  0.00     0.027 H 
BRANCH  57  60
ATOM     60  C   UNL A   1      36.761  30.387  31.112  1.00  0.00    -0.052 C 
ATOM     61  H   UNL A   1      37.692  30.305  31.634  1.00  0.00     0.027 H 
ATOM     62  H   UNL A   1      36.225  29.464  31.056  1.00  0.00     0.027 H 
BRANCH  60  63
ATOM     63  C   UNL A   1      35.865  31.358  31.885  1.00  0.00    -0.036 C 
ATOM     64  H   UNL A   1      36.263  31.467  32.873  1.00  0.00     0.028 H 
ATOM     65  H   UNL A   1      34.881  30.938  31.878  1.00  0.00     0.028 H 
BRANCH  63  66
ATOM     66  C   UNL A   1      35.755  32.738  31.260  1.00  0.00     0.018 C 
ATOM     67  H   UNL A   1      34.739  32.908  30.970  1.00  0.00     0.049 H 
ATOM     68  H   UNL A   1      36.406  32.772  30.411  1.00  0.00     0.049 H 
BRANCH  66  69
ATOM     69  N   UNL A   1      36.162  33.782  32.183  1.00  0.00    -0.352 N 
ATOM     70  C   UNL A   1      37.420  34.103  32.621  1.00  0.00     0.251 C 
ATOM     71  H   UNL A   1      35.432  34.336  32.544  1.00  0.00     0.163 HD
ATOM     72  O   UNL A   1      37.572  34.863  33.568  1.00  0.00    -0.269 OA
BRANCH  70  73
ATOM     73  C   UNL A   1      38.592  33.510  31.947  1.00  0.00     0.039 A 
ATOM     74  C   UNL A   1      39.363  32.575  32.640  1.00  0.00    -0.049 A 
ATOM     75  C   UNL A   1      38.927  33.877  30.640  1.00  0.00    -0.049 A 
ATOM     76  C   UNL A   1      40.452  31.979  32.004  1.00  0.00    -0.053 A 
ATOM     77  H   UNL A   1      39.128  32.327  33.614  1.00  0.00     0.063 H 
ATOM     78  C   UNL A   1      39.959  33.218  29.981  1.00  0.00    -0.053 A 
ATOM     79  H   UNL A   1      38.411  34.635  30.168  1.00  0.00     0.063 H 
ATOM     80  C   UNL A   1      40.741  32.277  30.662  1.00  0.00    -0.014 A 
ATOM     81  H   UNL A   1      41.048  31.316  32.523  1.00  0.00     0.063 H 
ATOM     82  H   UNL A   1      40.147  33.423  28.986  1.00  0.00     0.063 H 
BRANCH  80  83
ATOM     83  C   UNL A   1      41.874  31.615  29.968  1.00  0.00     0.031 A 
ATOM     84  C   UNL A   1      43.160  32.357  29.738  1.00  0.00     0.074 A 
ATOM     85  C   UNL A   1      41.726  30.356  29.515  1.00  0.00     0.049 A 
ATOM     86  N   UNL A   1      44.260  31.947  29.159  1.00  0.00    -0.248 NA
ATOM     87  C   UNL A   1      43.211  33.757  30.191  1.00  0.00    -0.034 C 
ATOM     88  C   UNL A   1      40.503  29.559  29.622  1.00  0.00    -0.036 A 
ATOM     89  N   UNL A   1      42.609  29.526  28.873  1.00  0.00    -0.354 N 
ATOM     90  C   UNL A   1      45.122  33.035  29.170  1.00  0.00     0.074 A 
ATOM     91  C   UNL A   1      44.398  34.143  29.752  1.00  0.00    -0.034 C 
ATOM     92  H   UNL A   1      42.503  34.296  30.715  1.00  0.00     0.065 H 
ATOM     93  C   UNL A   1      40.723  28.343  29.098  1.00  0.00    -0.036 A 
ATOM     94  H   UNL A   1      39.613  29.881  30.034  1.00  0.00     0.065 H 
ATOM     95  C   UNL A   1      42.090  28.287  28.587  1.00  0.00     0.049 A 
ATOM     96  H   UNL A   1      43.528  29.792  28.640  1.00  0.00     0.167 HD
ATOM     97  C   UNL A   1      46.411  33.096  28.758  1.00  0.00     0.037 A 
ATOM     98  H   UNL A   1      44.759  35.107  29.816  1.00  0.00     0.065 H 
ATOM     99  H   UNL A   1      40.039  27.573  29.062  1.00  0.00     0.065 H 
ATOM    100  C   UNL A   1      42.654  27.225  27.982  1.00  0.00     0.037 A 
ATOM    101  C   UNL A   1      47.130  31.982  28.200  1.00  0.00     0.049 A 
ATOM    102  C   UNL A   1      44.090  27.314  27.541  1.00  0.00     0.074 A 
ATOM    103  C   UNL A   1      48.456  31.917  27.813  1.00  0.00    -0.036 A 
ATOM    104  N   UNL A   1      46.577  30.735  27.940  1.00  0.00    -0.354 N 
ATOM    105  N   UNL A   1      44.925  28.320  27.639  1.00  0.00    -0.248 NA
ATOM    106  C   UNL A   1      44.667  26.115  26.919  1.00  0.00    -0.034 C 
ATOM    107  C   UNL A   1      48.691  30.652  27.265  1.00  0.00    -0.036 A 
ATOM    108  H   UNL A   1      49.153  32.672  27.913  1.00  0.00     0.065 H 
ATOM    109  C   UNL A   1      47.529  29.904  27.372  1.00  0.00     0.049 A 
ATOM    110  H   UNL A   1      45.646  30.479  28.131  1.00  0.00     0.167 HD
ATOM    111  C   UNL A   1      46.132  27.868  27.120  1.00  0.00     0.074 A 
ATOM    112  C   UNL A   1      45.922  26.491  26.723  1.00  0.00    -0.034 C 
ATOM    113  H   UNL A   1      44.213  25.216  26.694  1.00  0.00     0.065 H 
ATOM    114  H   UNL A   1      49.579  30.329  26.850  1.00  0.00     0.065 H 
ATOM    115  C   UNL A   1      47.306  28.533  26.987  1.00  0.00     0.037 A 
ATOM    116  H   UNL A   1      46.659  25.880  26.337  1.00  0.00     0.065 H 
BRANCH  97 117
ATOM    117  C   UNL A   1      47.123  34.412  28.894  1.00  0.00     0.064 A 
ATOM    118  C   UNL A   1      47.114  35.369  27.866  1.00  0.00     0.173 A 
ATOM    119  C   UNL A   1      47.801  34.735  30.079  1.00  0.00     0.173 A 
ATOM    120  F   UNL A   1      46.490  35.109  26.707  1.00  0.00    -0.203 F 
ATOM    121  C   UNL A   1      47.787  36.580  28.005  1.00  0.00     0.198 A 
ATOM    122  C   UNL A   1      48.444  35.961  30.229  1.00  0.00     0.198 A 
ATOM    123  F   UNL A   1      47.838  33.861  31.097  1.00  0.00    -0.203 F 
ATOM    124  F   UNL A   1      47.814  37.450  26.987  1.00  0.00    -0.200 F 
ATOM    125  C   UNL A   1      48.444  36.878  29.189  1.00  0.00     0.200 A 
ATOM    126  F   UNL A   1      49.065  36.255  31.379  1.00  0.00    -0.200 F 
ATOM    127  F   UNL A   1      49.087  38.047  29.324  1.00  0.00    -0.200 F 
ENDBRANCH  97 117
BRANCH 100 128
ATOM    128  C   UNL A   1      41.869  25.978  27.793  1.00  0.00     0.064 A 
ATOM    129  C   UNL A   1      42.138  24.831  28.552  1.00  0.00     0.173 A 
ATOM    130  C   UNL A   1      40.826  25.910  26.857  1.00  0.00     0.173 A 
ATOM    131  F   UNL A   1      43.136  24.842  29.448  1.00  0.00    -0.203 F 
ATOM    132  C   UNL A   1      41.410  23.658  28.368  1.00  0.00     0.198 A 
ATOM    133  C   UNL A   1      40.076  24.745  26.696  1.00  0.00     0.198 A 
ATOM    134  F   UNL A   1      40.520  26.982  26.112  1.00  0.00    -0.203 F 
ATOM    135  F   UNL A   1      41.718  22.562  29.076  1.00  0.00    -0.200 F 
ATOM    136  C   UNL A   1      40.375  23.618  27.446  1.00  0.00     0.200 A 
ATOM    137  F   UNL A   1      39.066  24.718  25.817  1.00  0.00    -0.200 F 
ATOM    138  F   UNL A   1      39.669  22.492  27.275  1.00  0.00    -0.200 F 
ENDBRANCH 100 128
BRANCH 115 139
ATOM    139  C   UNL A   1      48.471  27.768  26.427  1.00  0.00     0.064 A 
ATOM    140  C   UNL A   1      48.627  27.560  25.049  1.00  0.00     0.173 A 
ATOM    141  C   UNL A   1      49.469  27.274  27.282  1.00  0.00     0.173 A 
ATOM    142  F   UNL A   1      47.694  27.999  24.190  1.00  0.00    -0.203 F 
ATOM    143  C   UNL A   1      49.721  26.859  24.550  1.00  0.00     0.198 A 
ATOM    144  C   UNL A   1      50.580  26.606  26.776  1.00  0.00     0.198 A 
ATOM    145  F   UNL A   1      49.375  27.454  28.608  1.00  0.00    -0.203 F 
ATOM    146  F   UNL A   1      49.822  26.625  23.234  1.00  0.00    -0.200 F 
ATOM    147  C   UNL A   1      50.702  26.391  25.413  1.00  0.00     0.200 A 
ATOM    148  F   UNL A   1      51.535  26.170  27.611  1.00  0.00    -0.200 F 
ATOM    149  F   UNL A   1      51.759  25.725  24.929  1.00  0.00    -0.200 F 
ENDBRANCH 115 139
ENDBRANCH  80  83
ENDBRANCH  70  73
ENDBRANCH  66  69
ENDBRANCH  63  66
ENDBRANCH  60  63
ENDBRANCH  57  60
ENDBRANCH  54  57
ENDBRANCH   1  54
TORSDOF 24
ENDMDL
MODEL 9
REMARK VINA RESULT:      -9.8      4.717      8.976
REMARK SMILES [NH3+][C@@H](Cc1c[nH]c2ccccc12)C(=O)N[C@@H](CS)C(=O)N[C@@H](CO)C(=O)NCCCCCCNC(=O)c1ccc(-c2c3nc(c(-c4c(F)c(F)c(F)c(F)c4F)c4ccc([nH]4)c(-c4c(F)c(F)c(F)c(F)c4F)c4nc(c(-c5c(F)c(F)c(F)c(F)c5F)c5ccc2[nH]5)C=C4)C=C3)cc1
REMARK SMILES IDX 28 1 27 4 25 5 26 6 22 8 21 10 19 11 20 12 16 14 15 16 13 17
REMARK SMILES IDX 14 18 2 20 1 22 3 26 4 29 5 30 12 31 6 32 7 34 11 35 8 37
REMARK SMILES IDX 10 38 9 40 17 44 18 47 23 49 24 52 29 54 30 57 31 60 32 63
REMARK SMILES IDX 33 66 34 69 35 70 36 72 37 73 38 74 99 75 39 76 98 78 40 80
REMARK SMILES IDX 41 83 42 84 92 85 43 86 97 87 91 88 93 89 44 90 96 91 90 93
REMARK SMILES IDX 89 95 45 97 77 100 57 101 76 102 58 103 61 104 75 105 94 106
REMARK SMILES IDX 59 107 60 109 74 111 95 112 62 115 46 117 47 118 55 119
REMARK SMILES IDX 48 120 49 121 53 122 56 123 50 124 51 125 54 126 52 127
REMARK SMILES IDX 78 128 79 129 87 130 80 131 81 132 85 133 88 134 82 135
REMARK SMILES IDX 83 136 86 137 84 138 63 139 64 140 72 141 65 142 66 143
REMARK SMILES IDX 70 144 73 145 67 146 68 147 71 148 69 149
REMARK H PARENT 28 2 28 3 27 7 22 9 21 13 16 15 15 19 2 21 1 23 1 24 1 25 3 27
REMARK H PARENT 3 28 5 33 6 36 11 39 8 41 10 42 9 43 17 45 17 46 18 48 23 50
REMARK H PARENT 23 51 24 53 29 55 29 56 30 58 30 59 31 61 31 62 32 64 32 65
REMARK H PARENT 33 67 33 68 34 71 38 77 99 79 39 81 98 82 97 92 91 94 93 96
REMARK H PARENT 96 98 90 99 58 108 61 110 94 113 59 114 95 116
REMARK Flexibility Score: inf
ROOT
ATOM      1  C   UNL A   1      32.528  28.942  23.712  1.00  0.00     0.017 C 
ATOM      2  H   UNL A   1      33.211  29.709  23.412  1.00  0.00     0.049 H 
ATOM      3  H   UNL A   1      33.006  28.229  24.350  1.00  0.00     0.049 H 
ENDROOT
BRANCH   1   4
ATOM      4  N   UNL A   1      32.057  28.246  22.532  1.00  0.00    -0.354 N 
ATOM      5  C   UNL A   1      31.715  26.944  22.340  1.00  0.00     0.244 C 
ATOM      6  O   UNL A   1      31.058  26.678  21.329  1.00  0.00    -0.273 OA
ATOM      7  H   UNL A   1      31.970  28.813  21.732  1.00  0.00     0.163 HD
BRANCH   5   8
ATOM      8  C   UNL A   1      32.051  25.853  23.359  1.00  0.00     0.131 C 
ATOM      9  H   UNL A   1      32.114  24.929  22.823  1.00  0.00     0.066 H 
BRANCH   8  10
ATOM     10  N   UNL A   1      33.361  26.074  23.961  1.00  0.00    -0.340 N 
ATOM     11  C   UNL A   1      33.917  25.311  24.923  1.00  0.00     0.244 C 
ATOM     12  O   UNL A   1      34.188  25.915  25.966  1.00  0.00    -0.273 OA
ATOM     13  H   UNL A   1      33.883  26.842  23.636  1.00  0.00     0.164 HD
BRANCH  11  14
ATOM     14  C   UNL A   1      34.075  23.787  24.781  1.00  0.00     0.117 C 
ATOM     15  H   UNL A   1      33.122  23.355  25.003  1.00  0.00     0.064 H 
BRANCH  14  16
ATOM     16  N   UNL A   1      34.374  23.459  23.402  1.00  0.00    -0.338 N 
ATOM     17  C   UNL A   1      33.478  22.929  22.505  1.00  0.00     0.279 C 
ATOM     18  O   UNL A   1      33.604  23.283  21.328  1.00  0.00    -0.268 OA
ATOM     19  H   UNL A   1      35.290  23.629  23.083  1.00  0.00     0.164 HD
BRANCH  17  20
ATOM     20  C   UNL A   1      32.425  21.845  22.907  1.00  0.00     0.168 C 
ATOM     21  H   UNL A   1      31.706  22.379  23.493  1.00  0.00     0.107 H 
BRANCH  20  22
ATOM     22  N   UNL A   1      31.765  21.316  21.695  1.00  0.00    -0.347 N 
ATOM     23  H   UNL A   1      30.811  21.039  21.922  1.00  0.00     0.345 HD
ATOM     24  H   UNL A   1      32.282  20.506  21.352  1.00  0.00     0.345 HD
ATOM     25  H   UNL A   1      31.748  22.038  20.975  1.00  0.00     0.345 HD
ENDBRANCH  20  22
BRANCH  20  26
ATOM     26  C   UNL A   1      32.752  20.821  24.029  1.00  0.00     0.036 C 
ATOM     27  H   UNL A   1      31.976  20.913  24.761  1.00  0.00     0.038 H 
ATOM     28  H   UNL A   1      33.747  21.090  24.316  1.00  0.00     0.038 H 
BRANCH  26  29
ATOM     29  C   UNL A   1      32.879  19.348  23.720  1.00  0.00    -0.016 A 
ATOM     30  C   UNL A   1      31.930  18.624  23.017  1.00  0.00     0.005 A 
ATOM     31  C   UNL A   1      33.898  18.398  24.090  1.00  0.00     0.003 A 
ATOM     32  N   UNL A   1      32.221  17.293  23.125  1.00  0.00    -0.361 N 
ATOM     33  H   UNL A   1      31.135  19.025  22.496  1.00  0.00     0.082 H 
ATOM     34  C   UNL A   1      33.372  17.123  23.855  1.00  0.00     0.046 A 
ATOM     35  C   UNL A   1      35.159  18.476  24.717  1.00  0.00    -0.053 A 
ATOM     36  H   UNL A   1      31.686  16.564  22.737  1.00  0.00     0.166 HD
ATOM     37  C   UNL A   1      33.968  15.949  24.333  1.00  0.00    -0.038 A 
ATOM     38  C   UNL A   1      35.770  17.314  25.202  1.00  0.00    -0.062 A 
ATOM     39  H   UNL A   1      35.630  19.389  24.818  1.00  0.00     0.063 H 
ATOM     40  C   UNL A   1      35.166  16.072  25.039  1.00  0.00    -0.060 A 
ATOM     41  H   UNL A   1      33.537  15.025  24.167  1.00  0.00     0.064 H 
ATOM     42  H   UNL A   1      36.679  17.380  25.687  1.00  0.00     0.062 H 
ATOM     43  H   UNL A   1      35.607  15.232  25.444  1.00  0.00     0.062 H 
ENDBRANCH  26  29
ENDBRANCH  20  26
ENDBRANCH  17  20
ENDBRANCH  14  16
BRANCH  14  44
ATOM     44  C   UNL A   1      34.772  23.002  25.902  1.00  0.00     0.020 C 
ATOM     45  H   UNL A   1      35.585  23.605  26.249  1.00  0.00     0.040 H 
ATOM     46  H   UNL A   1      35.031  22.072  25.441  1.00  0.00     0.040 H 
BRANCH  44  47
ATOM     47  S   UNL A   1      33.807  22.515  27.363  1.00  0.00    -0.177 SA
ATOM     48  H   UNL A   1      33.730  21.158  27.423  1.00  0.00     0.102 HD
ENDBRANCH  44  47
ENDBRANCH  14  44
ENDBRANCH  11  14
ENDBRANCH   8  10
BRANCH   8  49
ATOM     49  C   UNL A   1      30.931  25.635  24.392  1.00  0.00     0.072 C 
ATOM     50  H   UNL A   1      30.206  26.414  24.273  1.00  0.00     0.059 H 
ATOM     51  H   UNL A   1      31.391  25.648  25.358  1.00  0.00     0.059 H 
BRANCH  49  52
ATOM     52  O   UNL A   1      30.269  24.380  24.265  1.00  0.00    -0.394 OA
ATOM     53  H   UNL A   1      30.908  23.662  24.398  1.00  0.00     0.210 HD
ENDBRANCH  49  52
ENDBRANCH   8  49
ENDBRANCH   5   8
ENDBRANCH   1   4
BRANCH   1  54
ATOM     54  C   UNL A   1      31.383  29.579  24.490  1.00  0.00    -0.036 C 
ATOM     55  H   UNL A   1      30.698  28.807  24.775  1.00  0.00     0.028 H 
ATOM     56  H   UNL A   1      30.936  30.307  23.847  1.00  0.00     0.028 H 
BRANCH  54  57
ATOM     57  C   UNL A   1      31.830  30.317  25.755  1.00  0.00    -0.052 C 
ATOM     58  H   UNL A   1      32.858  30.590  25.636  1.00  0.00     0.027 H 
ATOM     59  H   UNL A   1      31.666  29.646  26.571  1.00  0.00     0.027 H 
BRANCH  57  60
ATOM     60  C   UNL A   1      31.030  31.586  26.067  1.00  0.00    -0.052 C 
ATOM     61  H   UNL A   1      29.994  31.320  26.124  1.00  0.00     0.027 H 
ATOM     62  H   UNL A   1      31.247  32.278  25.281  1.00  0.00     0.027 H 
BRANCH  60  63
ATOM     63  C   UNL A   1      31.414  32.285  27.373  1.00  0.00    -0.036 C 
ATOM     64  H   UNL A   1      31.554  31.537  28.125  1.00  0.00     0.028 H 
ATOM     65  H   UNL A   1      30.618  32.963  27.604  1.00  0.00     0.028 H 
BRANCH  63  66
ATOM     66  C   UNL A   1      32.683  33.117  27.285  1.00  0.00     0.018 C 
ATOM     67  H   UNL A   1      33.017  33.134  26.268  1.00  0.00     0.049 H 
ATOM     68  H   UNL A   1      33.418  32.672  27.922  1.00  0.00     0.049 H 
BRANCH  66  69
ATOM     69  N   UNL A   1      32.465  34.481  27.730  1.00  0.00    -0.352 N 
ATOM     70  C   UNL A   1      33.013  35.136  28.802  1.00  0.00     0.251 C 
ATOM     71  H   UNL A   1      31.835  35.009  27.187  1.00  0.00     0.163 HD
ATOM     72  O   UNL A   1      32.559  36.210  29.172  1.00  0.00    -0.269 OA
BRANCH  70  73
ATOM     73  C   UNL A   1      34.152  34.524  29.515  1.00  0.00     0.039 A 
ATOM     74  C   UNL A   1      33.922  33.924  30.754  1.00  0.00    -0.049 A 
ATOM     75  C   UNL A   1      35.437  34.546  28.965  1.00  0.00    -0.049 A 
ATOM     76  C   UNL A   1      34.980  33.310  31.425  1.00  0.00    -0.053 A 
ATOM     77  H   UNL A   1      32.978  33.934  31.170  1.00  0.00     0.063 H 
ATOM     78  C   UNL A   1      36.469  33.858  29.593  1.00  0.00    -0.053 A 
ATOM     79  H   UNL A   1      35.618  35.071  28.096  1.00  0.00     0.063 H 
ATOM     80  C   UNL A   1      36.255  33.250  30.837  1.00  0.00    -0.014 A 
ATOM     81  H   UNL A   1      34.825  32.898  32.357  1.00  0.00     0.063 H 
ATOM     82  H   UNL A   1      37.395  33.796  29.140  1.00  0.00     0.063 H 
BRANCH  80  83
ATOM     83  C   UNL A   1      37.374  32.562  31.527  1.00  0.00     0.031 A 
ATOM     84  C   UNL A   1      38.077  31.409  30.868  1.00  0.00     0.074 A 
ATOM     85  C   UNL A   1      37.730  32.957  32.764  1.00  0.00     0.049 A 
ATOM     86  N   UNL A   1      39.078  30.690  31.308  1.00  0.00    -0.248 NA
ATOM     87  C   UNL A   1      37.573  30.987  29.551  1.00  0.00    -0.034 C 
ATOM     88  C   UNL A   1      37.079  34.021  33.530  1.00  0.00    -0.036 A 
ATOM     89  N   UNL A   1      38.726  32.511  33.594  1.00  0.00    -0.354 N 
ATOM     90  C   UNL A   1      39.312  29.730  30.333  1.00  0.00     0.074 A 
ATOM     91  C   UNL A   1      38.309  29.915  29.307  1.00  0.00    -0.034 C 
ATOM     92  H   UNL A   1      36.836  31.416  28.970  1.00  0.00     0.065 H 
ATOM     93  C   UNL A   1      37.714  34.170  34.703  1.00  0.00    -0.036 A 
ATOM     94  H   UNL A   1      36.261  34.568  33.218  1.00  0.00     0.065 H 
ATOM     95  C   UNL A   1      38.793  33.190  34.787  1.00  0.00     0.049 A 
ATOM     96  H   UNL A   1      39.335  31.774  33.359  1.00  0.00     0.167 HD
ATOM     97  C   UNL A   1      40.293  28.797  30.283  1.00  0.00     0.037 A 
ATOM     98  H   UNL A   1      38.185  29.293  28.493  1.00  0.00     0.065 H 
ATOM     99  H   UNL A   1      37.478  34.863  35.429  1.00  0.00     0.065 H 
ATOM    100  C   UNL A   1      39.632  33.040  35.828  1.00  0.00     0.037 A 
ATOM    101  C   UNL A   1      41.300  28.634  31.298  1.00  0.00     0.049 A 
ATOM    102  C   UNL A   1      40.720  32.003  35.746  1.00  0.00     0.074 A 
ATOM    103  C   UNL A   1      42.377  27.767  31.314  1.00  0.00    -0.036 A 
ATOM    104  N   UNL A   1      41.347  29.352  32.485  1.00  0.00    -0.354 N 
ATOM    105  N   UNL A   1      40.988  31.160  34.778  1.00  0.00    -0.248 NA
ATOM    106  C   UNL A   1      41.629  31.905  36.895  1.00  0.00    -0.034 C 
ATOM    107  C   UNL A   1      43.041  27.918  32.535  1.00  0.00    -0.036 A 
ATOM    108  H   UNL A   1      42.645  27.121  30.555  1.00  0.00     0.065 H 
ATOM    109  C   UNL A   1      42.420  28.927  33.254  1.00  0.00     0.049 A 
ATOM    110  H   UNL A   1      40.713  30.059  32.744  1.00  0.00     0.167 HD
ATOM    111  C   UNL A   1      42.114  30.455  35.185  1.00  0.00     0.074 A 
ATOM    112  C   UNL A   1      42.484  30.980  36.483  1.00  0.00    -0.034 C 
ATOM    113  H   UNL A   1      41.608  32.422  37.787  1.00  0.00     0.065 H 
ATOM    114  H   UNL A   1      43.858  27.370  32.850  1.00  0.00     0.065 H 
ATOM    115  C   UNL A   1      42.779  29.464  34.542  1.00  0.00     0.037 A 
ATOM    116  H   UNL A   1      43.311  30.673  37.019  1.00  0.00     0.065 H 
BRANCH  97 117
ATOM    117  C   UNL A   1      40.322  27.880  29.093  1.00  0.00     0.064 A 
ATOM    118  C   UNL A   1      41.073  28.181  27.945  1.00  0.00     0.173 A 
ATOM    119  C   UNL A   1      39.612  26.671  29.109  1.00  0.00     0.173 A 
ATOM    120  F   UNL A   1      41.763  29.329  27.870  1.00  0.00    -0.203 F 
ATOM    121  C   UNL A   1      41.081  27.324  26.847  1.00  0.00     0.198 A 
ATOM    122  C   UNL A   1      39.650  25.799  28.024  1.00  0.00     0.198 A 
ATOM    123  F   UNL A   1      38.881  26.329  30.182  1.00  0.00    -0.203 F 
ATOM    124  F   UNL A   1      41.757  27.663  25.740  1.00  0.00    -0.200 F 
ATOM    125  C   UNL A   1      40.376  26.131  26.890  1.00  0.00     0.200 A 
ATOM    126  F   UNL A   1      38.982  24.639  28.073  1.00  0.00    -0.200 F 
ATOM    127  F   UNL A   1      40.390  25.305  25.835  1.00  0.00    -0.200 F 
ENDBRANCH  97 117
BRANCH 100 128
ATOM    128  C   UNL A   1      39.497  33.918  37.019  1.00  0.00     0.064 A 
ATOM    129  C   UNL A   1      38.801  33.489  38.158  1.00  0.00     0.173 A 
ATOM    130  C   UNL A   1      40.068  35.199  37.048  1.00  0.00     0.173 A 
ATOM    131  F   UNL A   1      38.224  32.279  38.173  1.00  0.00    -0.203 F 
ATOM    132  C   UNL A   1      38.664  34.315  39.272  1.00  0.00     0.198 A 
ATOM    133  C   UNL A   1      39.957  36.012  38.175  1.00  0.00     0.198 A 
ATOM    134  F   UNL A   1      40.752  35.654  35.988  1.00  0.00    -0.203 F 
ATOM    135  F   UNL A   1      37.956  33.897  40.330  1.00  0.00    -0.200 F 
ATOM    136  C   UNL A   1      39.247  35.573  39.282  1.00  0.00     0.200 A 
ATOM    137  F   UNL A   1      40.538  37.219  38.186  1.00  0.00    -0.200 F 
ATOM    138  F   UNL A   1      39.123  36.363  40.356  1.00  0.00    -0.200 F 
ENDBRANCH 100 128
BRANCH 115 139
ATOM    139  C   UNL A   1      44.004  28.910  35.210  1.00  0.00     0.064 A 
ATOM    140  C   UNL A   1      45.285  29.415  34.944  1.00  0.00     0.173 A 
ATOM    141  C   UNL A   1      43.887  27.887  36.165  1.00  0.00     0.173 A 
ATOM    142  F   UNL A   1      45.454  30.383  34.030  1.00  0.00    -0.203 F 
ATOM    143  C   UNL A   1      46.407  28.895  35.585  1.00  0.00     0.198 A 
ATOM    144  C   UNL A   1      45.007  27.396  36.829  1.00  0.00     0.198 A 
ATOM    145  F   UNL A   1      42.684  27.375  36.464  1.00  0.00    -0.203 F 
ATOM    146  F   UNL A   1      47.627  29.356  35.275  1.00  0.00    -0.200 F 
ATOM    147  C   UNL A   1      46.266  27.893  36.533  1.00  0.00     0.200 A 
ATOM    148  F   UNL A   1      44.865  26.439  37.758  1.00  0.00    -0.200 F 
ATOM    149  F   UNL A   1      47.346  27.401  37.156  1.00  0.00    -0.200 F 
ENDBRANCH 115 139
ENDBRANCH  80  83
ENDBRANCH  70  73
ENDBRANCH  66  69
ENDBRANCH  63  66
ENDBRANCH  60  63
ENDBRANCH  57  60
ENDBRANCH  54  57
ENDBRANCH   1  54
TORSDOF 24
ENDMDL
MODEL 10
REMARK VINA RESULT:      -9.6      5.615     11.299
REMARK SMILES [NH3+][C@@H](Cc1c[nH]c2ccccc12)C(=O)N[C@@H](CS)C(=O)N[C@@H](CO)C(=O)NCCCCCCNC(=O)c1ccc(-c2c3nc(c(-c4c(F)c(F)c(F)c(F)c4F)c4ccc([nH]4)c(-c4c(F)c(F)c(F)c(F)c4F)c4nc(c(-c5c(F)c(F)c(F)c(F)c5F)c5ccc2[nH]5)C=C4)C=C3)cc1
REMARK SMILES IDX 28 1 27 4 25 5 26 6 22 8 21 10 19 11 20 12 16 14 15 16 13 17
REMARK SMILES IDX 14 18 2 20 1 22 3 26 4 29 5 30 12 31 6 32 7 34 11 35 8 37
REMARK SMILES IDX 10 38 9 40 17 44 18 47 23 49 24 52 29 54 30 57 31 60 32 63
REMARK SMILES IDX 33 66 34 69 35 70 36 72 37 73 38 74 99 75 39 76 98 78 40 80
REMARK SMILES IDX 41 83 42 84 92 85 43 86 97 87 91 88 93 89 44 90 96 91 90 93
REMARK SMILES IDX 89 95 45 97 77 100 57 101 76 102 58 103 61 104 75 105 94 106
REMARK SMILES IDX 59 107 60 109 74 111 95 112 62 115 46 117 47 118 55 119
REMARK SMILES IDX 48 120 49 121 53 122 56 123 50 124 51 125 54 126 52 127
REMARK SMILES IDX 78 128 79 129 87 130 80 131 81 132 85 133 88 134 82 135
REMARK SMILES IDX 83 136 86 137 84 138 63 139 64 140 72 141 65 142 66 143
REMARK SMILES IDX 70 144 73 145 67 146 68 147 71 148 69 149
REMARK H PARENT 28 2 28 3 27 7 22 9 21 13 16 15 15 19 2 21 1 23 1 24 1 25 3 27
REMARK H PARENT 3 28 5 33 6 36 11 39 8 41 10 42 9 43 17 45 17 46 18 48 23 50
REMARK H PARENT 23 51 24 53 29 55 29 56 30 58 30 59 31 61 31 62 32 64 32 65
REMARK H PARENT 33 67 33 68 34 71 38 77 99 79 39 81 98 82 97 92 91 94 93 96
REMARK H PARENT 96 98 90 99 58 108 61 110 94 113 59 114 95 116
REMARK Flexibility Score: inf
ROOT
ATOM      1  C   UNL A   1      38.922  33.806  36.214  1.00  0.00     0.017 C 
ATOM      2  H   UNL A   1      38.055  33.192  36.343  1.00  0.00     0.049 H 
ATOM      3  H   UNL A   1      38.652  34.794  35.906  1.00  0.00     0.049 H 
ENDROOT
BRANCH   1   4
ATOM      4  N   UNL A   1      39.756  33.225  35.181  1.00  0.00    -0.354 N 
ATOM      5  C   UNL A   1      39.632  32.067  34.479  1.00  0.00     0.244 C 
ATOM      6  O   UNL A   1      40.304  31.957  33.449  1.00  0.00    -0.273 OA
ATOM      7  H   UNL A   1      40.548  33.761  34.946  1.00  0.00     0.163 HD
BRANCH   5   8
ATOM      8  C   UNL A   1      38.649  30.967  34.887  1.00  0.00     0.131 C 
ATOM      9  H   UNL A   1      37.664  31.376  34.800  1.00  0.00     0.066 H 
BRANCH   8  10
ATOM     10  N   UNL A   1      38.710  29.833  33.972  1.00  0.00    -0.340 N 
ATOM     11  C   UNL A   1      37.819  29.569  32.996  1.00  0.00     0.244 C 
ATOM     12  O   UNL A   1      37.256  28.474  33.095  1.00  0.00    -0.273 OA
ATOM     13  H   UNL A   1      39.464  29.211  34.074  1.00  0.00     0.164 HD
BRANCH  11  14
ATOM     14  C   UNL A   1      37.437  30.604  31.923  1.00  0.00     0.117 C 
ATOM     15  H   UNL A   1      37.548  31.569  32.371  1.00  0.00     0.064 H 
BRANCH  14  16
ATOM     16  N   UNL A   1      38.384  30.537  30.829  1.00  0.00    -0.338 N 
ATOM     17  C   UNL A   1      39.206  31.565  30.434  1.00  0.00     0.279 C 
ATOM     18  O   UNL A   1      40.319  31.243  30.005  1.00  0.00    -0.268 OA
ATOM     19  H   UNL A   1      38.443  29.690  30.330  1.00  0.00     0.164 HD
BRANCH  17  20
ATOM     20  C   UNL A   1      38.737  33.056  30.405  1.00  0.00     0.168 C 
ATOM     21  H   UNL A   1      37.807  33.050  30.935  1.00  0.00     0.107 H 
BRANCH  20  22
ATOM     22  N   UNL A   1      39.705  33.898  31.138  1.00  0.00    -0.347 N 
ATOM     23  H   UNL A   1      40.615  33.438  31.151  1.00  0.00     0.345 HD
ATOM     24  H   UNL A   1      39.381  34.037  32.095  1.00  0.00     0.345 HD
ATOM     25  H   UNL A   1      39.789  34.803  30.673  1.00  0.00     0.345 HD
ENDBRANCH  20  22
BRANCH  20  26
ATOM     26  C   UNL A   1      38.128  33.656  29.108  1.00  0.00     0.036 C 
ATOM     27  H   UNL A   1      38.809  33.424  28.315  1.00  0.00     0.038 H 
ATOM     28  H   UNL A   1      37.987  34.686  29.365  1.00  0.00     0.038 H 
BRANCH  26  29
ATOM     29  C   UNL A   1      36.756  33.240  28.632  1.00  0.00    -0.016 A 
ATOM     30  C   UNL A   1      35.642  34.061  28.679  1.00  0.00     0.005 A 
ATOM     31  C   UNL A   1      36.289  31.980  28.107  1.00  0.00     0.003 A 
ATOM     32  N   UNL A   1      34.530  33.312  28.413  1.00  0.00    -0.361 N 
ATOM     33  H   UNL A   1      35.651  35.073  28.881  1.00  0.00     0.082 H 
ATOM     34  C   UNL A   1      34.891  32.014  28.150  1.00  0.00     0.046 A 
ATOM     35  C   UNL A   1      36.900  30.769  27.722  1.00  0.00    -0.053 A 
ATOM     36  H   UNL A   1      33.606  33.653  28.410  1.00  0.00     0.166 HD
ATOM     37  C   UNL A   1      34.093  30.879  27.963  1.00  0.00    -0.038 A 
ATOM     38  C   UNL A   1      36.118  29.622  27.534  1.00  0.00    -0.062 A 
ATOM     39  H   UNL A   1      37.922  30.727  27.580  1.00  0.00     0.063 H 
ATOM     40  C   UNL A   1      34.737  29.672  27.683  1.00  0.00    -0.060 A 
ATOM     41  H   UNL A   1      33.063  30.932  28.031  1.00  0.00     0.064 H 
ATOM     42  H   UNL A   1      36.572  28.730  27.281  1.00  0.00     0.062 H 
ATOM     43  H   UNL A   1      34.181  28.808  27.587  1.00  0.00     0.062 H 
ENDBRANCH  26  29
ENDBRANCH  20  26
ENDBRANCH  17  20
ENDBRANCH  14  16
BRANCH  14  44
ATOM     44  C   UNL A   1      35.952  30.841  31.611  1.00  0.00     0.020 C 
ATOM     45  H   UNL A   1      35.401  30.065  32.099  1.00  0.00     0.040 H 
ATOM     46  H   UNL A   1      35.914  30.854  30.541  1.00  0.00     0.040 H 
BRANCH  44  47
ATOM     47  S   UNL A   1      35.194  32.420  32.096  1.00  0.00    -0.177 SA
ATOM     48  H   UNL A   1      35.635  33.407  31.270  1.00  0.00     0.102 HD
ENDBRANCH  44  47
ENDBRANCH  14  44
ENDBRANCH  11  14
ENDBRANCH   8  10
BRANCH   8  49
ATOM     49  C   UNL A   1      38.781  30.567  36.367  1.00  0.00     0.072 C 
ATOM     50  H   UNL A   1      39.330  31.332  36.876  1.00  0.00     0.059 H 
ATOM     51  H   UNL A   1      39.279  29.621  36.391  1.00  0.00     0.059 H 
BRANCH  49  52
ATOM     52  O   UNL A   1      37.531  30.395  37.030  1.00  0.00    -0.394 OA
ATOM     53  H   UNL A   1      36.894  31.046  36.692  1.00  0.00     0.210 HD
ENDBRANCH  49  52
ENDBRANCH   8  49
ENDBRANCH   5   8
ENDBRANCH   1   4
BRANCH   1  54
ATOM     54  C   UNL A   1      39.657  33.909  37.545  1.00  0.00    -0.036 C 
ATOM     55  H   UNL A   1      40.580  34.424  37.381  1.00  0.00     0.028 H 
ATOM     56  H   UNL A   1      39.801  32.910  37.899  1.00  0.00     0.028 H 
BRANCH  54  57
ATOM     57  C   UNL A   1      38.874  34.656  38.627  1.00  0.00    -0.052 C 
ATOM     58  H   UNL A   1      39.007  34.136  39.554  1.00  0.00     0.027 H 
ATOM     59  H   UNL A   1      37.855  34.679  38.302  1.00  0.00     0.027 H 
BRANCH  57  60
ATOM     60  C   UNL A   1      39.300  36.113  38.829  1.00  0.00    -0.052 C 
ATOM     61  H   UNL A   1      38.420  36.722  38.816  1.00  0.00     0.027 H 
ATOM     62  H   UNL A   1      39.982  36.338  38.037  1.00  0.00     0.027 H 
BRANCH  60  63
ATOM     63  C   UNL A   1      40.051  36.390  40.134  1.00  0.00    -0.036 C 
ATOM     64  H   UNL A   1      39.683  35.718  40.882  1.00  0.00     0.028 H 
ATOM     65  H   UNL A   1      39.875  37.418  40.377  1.00  0.00     0.028 H 
BRANCH  63  66
ATOM     66  C   UNL A   1      41.557  36.216  40.036  1.00  0.00     0.018 C 
ATOM     67  H   UNL A   1      41.773  35.478  39.292  1.00  0.00     0.049 H 
ATOM     68  H   UNL A   1      41.921  35.913  40.995  1.00  0.00     0.049 H 
BRANCH  66  69
ATOM     69  N   UNL A   1      42.220  37.456  39.673  1.00  0.00    -0.352 N 
ATOM     70  C   UNL A   1      43.031  37.718  38.600  1.00  0.00     0.251 C 
ATOM     71  H   UNL A   1      42.064  38.214  40.282  1.00  0.00     0.163 HD
ATOM     72  O   UNL A   1      43.689  38.748  38.556  1.00  0.00    -0.269 OA
BRANCH  70  73
ATOM     73  C   UNL A   1      43.114  36.734  37.502  1.00  0.00     0.039 A 
ATOM     74  C   UNL A   1      42.021  36.592  36.645  1.00  0.00    -0.049 A 
ATOM     75  C   UNL A   1      44.262  35.957  37.322  1.00  0.00    -0.049 A 
ATOM     76  C   UNL A   1      42.098  35.692  35.581  1.00  0.00    -0.053 A 
ATOM     77  H   UNL A   1      41.165  37.147  36.797  1.00  0.00     0.063 H 
ATOM     78  C   UNL A   1      44.368  35.127  36.212  1.00  0.00    -0.053 A 
ATOM     79  H   UNL A   1      45.028  35.999  38.012  1.00  0.00     0.063 H 
ATOM     80  C   UNL A   1      43.281  34.973  35.342  1.00  0.00    -0.014 A 
ATOM     81  H   UNL A   1      41.280  35.555  34.967  1.00  0.00     0.063 H 
ATOM     82  H   UNL A   1      45.251  34.624  36.028  1.00  0.00     0.063 H 
BRANCH  80  83
ATOM     83  C   UNL A   1      43.382  34.046  34.188  1.00  0.00     0.031 A 
ATOM     84  C   UNL A   1      43.502  34.585  32.791  1.00  0.00     0.074 A 
ATOM     85  C   UNL A   1      43.327  32.718  34.401  1.00  0.00     0.049 A 
ATOM     86  N   UNL A   1      43.608  33.935  31.659  1.00  0.00    -0.248 NA
ATOM     87  C   UNL A   1      43.471  36.049  32.637  1.00  0.00    -0.034 C 
ATOM     88  C   UNL A   1      43.146  32.079  35.705  1.00  0.00    -0.036 A 
ATOM     89  N   UNL A   1      43.418  31.666  33.525  1.00  0.00    -0.354 N 
ATOM     90  C   UNL A   1      43.644  34.906  30.667  1.00  0.00     0.074 A 
ATOM     91  C   UNL A   1      43.484  36.185  31.320  1.00  0.00    -0.034 C 
ATOM     92  H   UNL A   1      43.446  36.778  33.367  1.00  0.00     0.065 H 
ATOM     93  C   UNL A   1      43.175  30.747  35.551  1.00  0.00    -0.036 A 
ATOM     94  H   UNL A   1      43.016  32.575  36.601  1.00  0.00     0.065 H 
ATOM     95  C   UNL A   1      43.341  30.437  34.133  1.00  0.00     0.049 A 
ATOM     96  H   UNL A   1      43.529  31.781  32.554  1.00  0.00     0.167 HD
ATOM     97  C   UNL A   1      43.825  34.745  29.335  1.00  0.00     0.037 A 
ATOM     98  H   UNL A   1      43.391  37.086  30.826  1.00  0.00     0.065 H 
ATOM     99  H   UNL A   1      43.093  30.053  36.309  1.00  0.00     0.065 H 
ATOM    100  C   UNL A   1      43.400  29.199  33.606  1.00  0.00     0.037 A 
ATOM    101  C   UNL A   1      44.006  33.469  28.695  1.00  0.00     0.049 A 
ATOM    102  C   UNL A   1      43.611  29.047  32.124  1.00  0.00     0.074 A 
ATOM    103  C   UNL A   1      44.264  33.198  27.364  1.00  0.00    -0.036 A 
ATOM    104  N   UNL A   1      43.940  32.244  29.346  1.00  0.00    -0.354 N 
ATOM    105  N   UNL A   1      43.735  29.975  31.206  1.00  0.00    -0.248 NA
ATOM    106  C   UNL A   1      43.703  27.675  31.607  1.00  0.00    -0.034 C 
ATOM    107  C   UNL A   1      44.294  31.811  27.197  1.00  0.00    -0.036 A 
ATOM    108  H   UNL A   1      44.409  33.901  26.621  1.00  0.00     0.065 H 
ATOM    109  C   UNL A   1      44.123  31.214  28.436  1.00  0.00     0.049 A 
ATOM    110  H   UNL A   1      43.785  32.124  30.310  1.00  0.00     0.167 HD
ATOM    111  C   UNL A   1      43.951  29.302  30.009  1.00  0.00     0.074 A 
ATOM    112  C   UNL A   1      43.955  27.889  30.323  1.00  0.00    -0.034 C 
ATOM    113  H   UNL A   1      43.599  26.781  32.111  1.00  0.00     0.065 H 
ATOM    114  H   UNL A   1      44.422  31.313  26.301  1.00  0.00     0.065 H 
ATOM    115  C   UNL A   1      44.130  29.811  28.766  1.00  0.00     0.037 A 
ATOM    116  H   UNL A   1      44.131  27.142  29.633  1.00  0.00     0.065 H 
BRANCH  97 117
ATOM    117  C   UNL A   1      43.833  35.981  28.479  1.00  0.00     0.064 A 
ATOM    118  C   UNL A   1      42.656  36.498  27.916  1.00  0.00     0.173 A 
ATOM    119  C   UNL A   1      45.029  36.675  28.243  1.00  0.00     0.173 A 
ATOM    120  F   UNL A   1      41.485  35.870  28.100  1.00  0.00    -0.203 F 
ATOM    121  C   UNL A   1      42.682  37.640  27.118  1.00  0.00     0.198 A 
ATOM    122  C   UNL A   1      45.047  37.836  27.475  1.00  0.00     0.198 A 
ATOM    123  F   UNL A   1      46.184  36.230  28.762  1.00  0.00    -0.203 F 
ATOM    124  F   UNL A   1      41.555  38.079  26.541  1.00  0.00    -0.200 F 
ATOM    125  C   UNL A   1      43.876  38.312  26.905  1.00  0.00     0.200 A 
ATOM    126  F   UNL A   1      46.199  38.493  27.283  1.00  0.00    -0.200 F 
ATOM    127  F   UNL A   1      43.900  39.414  26.142  1.00  0.00    -0.200 F 
ENDBRANCH  97 117
BRANCH 100 128
ATOM    128  C   UNL A   1      43.294  28.012  34.494  1.00  0.00     0.064 A 
ATOM    129  C   UNL A   1      44.388  27.581  35.259  1.00  0.00     0.173 A 
ATOM    130  C   UNL A   1      42.097  27.290  34.603  1.00  0.00     0.173 A 
ATOM    131  F   UNL A   1      45.558  28.229  35.176  1.00  0.00    -0.203 F 
ATOM    132  C   UNL A   1      44.293  26.462  36.082  1.00  0.00     0.198 A 
ATOM    133  C   UNL A   1      41.994  26.189  35.452  1.00  0.00     0.198 A 
ATOM    134  F   UNL A   1      41.018  27.666  33.900  1.00  0.00    -0.203 F 
ATOM    135  F   UNL A   1      45.366  26.045  36.769  1.00  0.00    -0.200 F 
ATOM    136  C   UNL A   1      43.095  25.771  36.184  1.00  0.00     0.200 A 
ATOM    137  F   UNL A   1      40.829  25.536  35.560  1.00  0.00    -0.200 F 
ATOM    138  F   UNL A   1      43.002  24.700  36.983  1.00  0.00    -0.200 F 
ENDBRANCH 100 128
BRANCH 115 139
ATOM    139  C   UNL A   1      44.391  28.836  27.654  1.00  0.00     0.064 A 
ATOM    140  C   UNL A   1      43.378  28.429  26.773  1.00  0.00     0.173 A 
ATOM    141  C   UNL A   1      45.685  28.335  27.441  1.00  0.00     0.173 A 
ATOM    142  F   UNL A   1      42.120  28.868  26.940  1.00  0.00    -0.203 F 
ATOM    143  C   UNL A   1      43.644  27.534  25.741  1.00  0.00     0.198 A 
ATOM    144  C   UNL A   1      45.954  27.468  26.386  1.00  0.00     0.198 A 
ATOM    145  F   UNL A   1      46.692  28.699  28.248  1.00  0.00    -0.203 F 
ATOM    146  F   UNL A   1      42.649  27.117  24.944  1.00  0.00    -0.200 F 
ATOM    147  C   UNL A   1      44.933  27.061  25.542  1.00  0.00     0.200 A 
ATOM    148  F   UNL A   1      47.204  27.027  26.187  1.00  0.00    -0.200 F 
ATOM    149  F   UNL A   1      45.188  26.207  24.542  1.00  0.00    -0.200 F 
ENDBRANCH 115 139
ENDBRANCH  80  83
ENDBRANCH  70  73
ENDBRANCH  66  69
ENDBRANCH  63  66
ENDBRANCH  60  63
ENDBRANCH  57  60
ENDBRANCH  54  57
ENDBRANCH   1  54
TORSDOF 24
ENDMDL
