MODEL 1
REMARK VINA RESULT:     -10.7      0.000      0.000
REMARK SMILES C[C@@H](C(=O)NCCCCCCNC(=O)c1ccc(-c2c3nc(c(-c4c(F)c(F)c(F)c(F)c4F)c4ccc([nH]4)c(-c4c(F)c(F)c(F)c(F)c4F)c4nc(c(-c5c(F)c(F)c(F)c(F)c5F)c5ccc2[nH]5)C=C4)C=C3)cc1)c1ccc2c3cc(Cl)ccc3n(C(=O)c3cocn3)c2c1
REMARK SMILES IDX 8 1 7 4 6 7 5 10 3 11 4 12 2 14 1 16 78 20 79 21 98 22 80 23
REMARK SMILES IDX 97 25 81 27 89 29 82 30 88 31 83 32 87 33 84 34 86 36 85 38
REMARK SMILES IDX 90 40 91 41 92 42 93 43 96 44 94 45 95 47 9 49 10 52 11 55
REMARK SMILES IDX 12 58 13 59 14 61 15 62 16 63 77 64 17 65 76 67 18 69 19 72
REMARK SMILES IDX 20 73 70 74 21 75 75 76 69 77 71 78 22 79 74 80 68 82 67 84
REMARK SMILES IDX 23 86 55 89 35 90 54 91 36 92 39 93 53 94 72 95 37 96 38 98
REMARK SMILES IDX 52 100 73 101 40 104 24 106 25 107 33 108 26 109 27 110
REMARK SMILES IDX 31 111 34 112 28 113 29 114 32 115 30 116 56 117 57 118
REMARK SMILES IDX 65 119 58 120 59 121 63 122 66 123 60 124 61 125 64 126
REMARK SMILES IDX 62 127 41 128 42 129 50 130 43 131 44 132 48 133 51 134
REMARK SMILES IDX 45 135 46 136 49 137 47 138
REMARK H PARENT 8 2 8 3 7 5 7 6 6 8 6 9 5 13 2 15 1 17 1 18 1 19 79 24 98 26
REMARK H PARENT 80 28 83 35 87 37 86 39 93 46 95 48 9 50 9 51 10 53 10 54
REMARK H PARENT 11 56 11 57 12 60 16 66 77 68 17 70 76 71 75 81 69 83 71 85
REMARK H PARENT 74 87 68 88 36 97 39 99 72 102 37 103 73 105
REMARK Flexibility Score: inf
ROOT
ATOM      1  C   UNL A   1      42.142  19.476  27.301  1.00  0.00    -0.052 C 
ATOM      2  H   UNL A   1      42.591  19.285  28.253  1.00  0.00     0.027 H 
ATOM      3  H   UNL A   1      41.073  19.419  27.319  1.00  0.00     0.027 H 
ENDROOT
BRANCH   1   4
ATOM      4  C   UNL A   1      42.614  18.390  26.324  1.00  0.00    -0.036 C 
ATOM      5  H   UNL A   1      42.512  17.438  26.803  1.00  0.00     0.028 H 
ATOM      6  H   UNL A   1      42.007  18.475  25.447  1.00  0.00     0.028 H 
BRANCH   4   7
ATOM      7  C   UNL A   1      44.067  18.549  25.875  1.00  0.00     0.017 C 
ATOM      8  H   UNL A   1      44.459  19.465  26.263  1.00  0.00     0.049 H 
ATOM      9  H   UNL A   1      44.638  17.721  26.243  1.00  0.00     0.049 H 
BRANCH   7  10
ATOM     10  N   UNL A   1      44.145  18.568  24.434  1.00  0.00    -0.356 N 
ATOM     11  C   UNL A   1      44.896  19.351  23.612  1.00  0.00     0.227 C 
ATOM     12  O   UNL A   1      44.668  19.242  22.405  1.00  0.00    -0.274 OA
ATOM     13  H   UNL A   1      43.568  17.916  23.976  1.00  0.00     0.163 HD
BRANCH  11  14
ATOM     14  C   UNL A   1      45.995  20.258  24.201  1.00  0.00     0.060 C 
ATOM     15  H   UNL A   1      46.766  20.284  23.459  1.00  0.00     0.045 H 
BRANCH  14  16
ATOM     16  C   UNL A   1      46.609  19.713  25.498  1.00  0.00    -0.049 C 
ATOM     17  H   UNL A   1      47.448  20.316  25.775  1.00  0.00     0.024 H 
ATOM     18  H   UNL A   1      46.930  18.704  25.344  1.00  0.00     0.024 H 
ATOM     19  H   UNL A   1      45.877  19.739  26.277  1.00  0.00     0.024 H 
ENDBRANCH  14  16
BRANCH  14  20
ATOM     20  C   UNL A   1      45.465  21.663  24.462  1.00  0.00    -0.034 A 
ATOM     21  C   UNL A   1      44.226  22.074  23.973  1.00  0.00    -0.057 A 
ATOM     22  C   UNL A   1      46.246  22.557  25.210  1.00  0.00    -0.033 A 
ATOM     23  C   UNL A   1      43.743  23.357  24.256  1.00  0.00    -0.052 A 
ATOM     24  H   UNL A   1      43.661  21.428  23.400  1.00  0.00     0.063 H 
ATOM     25  C   UNL A   1      45.785  23.861  25.439  1.00  0.00     0.058 A 
ATOM     26  H   UNL A   1      47.156  22.255  25.592  1.00  0.00     0.065 H 
ATOM     27  C   UNL A   1      44.526  24.258  25.010  1.00  0.00     0.008 A 
ATOM     28  H   UNL A   1      42.812  23.645  23.912  1.00  0.00     0.063 H 
ATOM     29  N   UNL A   1      46.400  24.928  26.102  1.00  0.00    -0.274 N 
ATOM     30  C   UNL A   1      44.333  25.590  25.465  1.00  0.00     0.009 A 
ATOM     31  C   UNL A   1      45.517  26.017  26.085  1.00  0.00     0.057 A 
ATOM     32  C   UNL A   1      43.246  26.482  25.343  1.00  0.00    -0.033 A 
ATOM     33  C   UNL A   1      45.671  27.360  26.478  1.00  0.00    -0.036 A 
ATOM     34  C   UNL A   1      43.387  27.795  25.781  1.00  0.00     0.041 A 
ATOM     35  H   UNL A   1      42.354  26.162  24.933  1.00  0.00     0.065 H 
ATOM     36  C   UNL A   1      44.588  28.236  26.321  1.00  0.00    -0.041 A 
ATOM     37  H   UNL A   1      46.565  27.694  26.873  1.00  0.00     0.065 H 
ATOM     38  Cl  UNL A   1      42.069  28.889  25.609  1.00  0.00    -0.084 Cl
ATOM     39  H   UNL A   1      44.685  29.221  26.610  1.00  0.00     0.064 H 
BRANCH  29  40
ATOM     40  C   UNL A   1      47.728  24.875  26.604  1.00  0.00     0.284 C 
ATOM     41  O   UNL A   1      47.858  24.338  27.708  1.00  0.00    -0.266 OA
BRANCH  40  42
ATOM     42  C   UNL A   1      48.907  25.428  25.944  1.00  0.00     0.167 A 
ATOM     43  C   UNL A   1      49.017  26.073  24.731  1.00  0.00     0.124 A 
ATOM     44  N   UNL A   1      50.144  25.484  26.579  1.00  0.00    -0.211 NA
ATOM     45  O   UNL A   1      50.299  26.520  24.591  1.00  0.00    -0.451 OA
ATOM     46  H   UNL A   1      48.256  26.197  24.044  1.00  0.00     0.107 H 
ATOM     47  C   UNL A   1      50.909  26.144  25.746  1.00  0.00     0.181 A 
ATOM     48  H   UNL A   1      51.897  26.362  25.951  1.00  0.00     0.127 H 
ENDBRANCH  40  42
ENDBRANCH  29  40
ENDBRANCH  14  20
ENDBRANCH  11  14
ENDBRANCH   7  10
ENDBRANCH   4   7
ENDBRANCH   1   4
BRANCH   1  49
ATOM     49  C   UNL A   1      42.491  20.909  26.888  1.00  0.00    -0.052 C 
ATOM     50  H   UNL A   1      43.342  20.872  26.242  1.00  0.00     0.027 H 
ATOM     51  H   UNL A   1      42.673  21.448  27.794  1.00  0.00     0.027 H 
BRANCH  49  52
ATOM     52  C   UNL A   1      41.371  21.655  26.159  1.00  0.00    -0.036 C 
ATOM     53  H   UNL A   1      41.393  21.368  25.128  1.00  0.00     0.028 H 
ATOM     54  H   UNL A   1      41.554  22.700  26.302  1.00  0.00     0.028 H 
BRANCH  52  55
ATOM     55  C   UNL A   1      39.978  21.376  26.704  1.00  0.00     0.018 C 
ATOM     56  H   UNL A   1      39.872  21.866  27.650  1.00  0.00     0.049 H 
ATOM     57  H   UNL A   1      39.866  20.317  26.804  1.00  0.00     0.049 H 
BRANCH  55  58
ATOM     58  N   UNL A   1      38.941  21.855  25.808  1.00  0.00    -0.352 N 
ATOM     59  C   UNL A   1      38.339  23.087  25.764  1.00  0.00     0.251 C 
ATOM     60  H   UNL A   1      38.627  21.206  25.139  1.00  0.00     0.163 HD
ATOM     61  O   UNL A   1      37.338  23.261  25.082  1.00  0.00    -0.269 OA
BRANCH  59  62
ATOM     62  C   UNL A   1      38.898  24.206  26.554  1.00  0.00     0.039 A 
ATOM     63  C   UNL A   1      38.546  24.318  27.901  1.00  0.00    -0.049 A 
ATOM     64  C   UNL A   1      39.735  25.158  25.965  1.00  0.00    -0.049 A 
ATOM     65  C   UNL A   1      39.050  25.374  28.661  1.00  0.00    -0.053 A 
ATOM     66  H   UNL A   1      37.916  23.623  28.332  1.00  0.00     0.063 H 
ATOM     67  C   UNL A   1      40.302  26.161  26.742  1.00  0.00    -0.053 A 
ATOM     68  H   UNL A   1      39.931  25.116  24.952  1.00  0.00     0.063 H 
ATOM     69  C   UNL A   1      39.941  26.298  28.090  1.00  0.00    -0.014 A 
ATOM     70  H   UNL A   1      38.766  25.478  29.648  1.00  0.00     0.063 H 
ATOM     71  H   UNL A   1      40.992  26.807  26.326  1.00  0.00     0.063 H 
BRANCH  69  72
ATOM     72  C   UNL A   1      40.453  27.449  28.876  1.00  0.00     0.031 A 
ATOM     73  C   UNL A   1      41.884  27.457  29.343  1.00  0.00     0.074 A 
ATOM     74  C   UNL A   1      39.628  28.462  29.199  1.00  0.00     0.049 A 
ATOM     75  N   UNL A   1      42.518  28.351  30.059  1.00  0.00    -0.248 NA
ATOM     76  C   UNL A   1      42.705  26.291  28.981  1.00  0.00    -0.034 C 
ATOM     77  C   UNL A   1      38.211  28.545  28.844  1.00  0.00    -0.036 A 
ATOM     78  N   UNL A   1      39.865  29.617  29.901  1.00  0.00    -0.354 N 
ATOM     79  C   UNL A   1      43.798  27.845  30.249  1.00  0.00     0.074 A 
ATOM     80  C   UNL A   1      43.834  26.541  29.626  1.00  0.00    -0.034 C 
ATOM     81  H   UNL A   1      42.464  25.487  28.381  1.00  0.00     0.065 H 
ATOM     82  C   UNL A   1      37.713  29.706  29.300  1.00  0.00    -0.036 A 
ATOM     83  H   UNL A   1      37.681  27.828  28.325  1.00  0.00     0.065 H 
ATOM     84  C   UNL A   1      38.764  30.431  30.008  1.00  0.00     0.049 A 
ATOM     85  H   UNL A   1      40.740  29.841  30.291  1.00  0.00     0.167 HD
ATOM     86  C   UNL A   1      44.855  28.426  30.864  1.00  0.00     0.037 A 
ATOM     87  H   UNL A   1      44.634  25.892  29.677  1.00  0.00     0.065 H 
ATOM     88  H   UNL A   1      36.742  30.032  29.172  1.00  0.00     0.065 H 
ATOM     89  C   UNL A   1      38.624  31.629  30.604  1.00  0.00     0.037 A 
ATOM     90  C   UNL A   1      44.823  29.740  31.450  1.00  0.00     0.049 A 
ATOM     91  C   UNL A   1      39.819  32.260  31.271  1.00  0.00     0.074 A 
ATOM     92  C   UNL A   1      45.856  30.449  32.039  1.00  0.00    -0.036 A 
ATOM     93  N   UNL A   1      43.695  30.544  31.520  1.00  0.00    -0.354 N 
ATOM     94  N   UNL A   1      41.044  31.806  31.379  1.00  0.00    -0.248 NA
ATOM     95  C   UNL A   1      39.612  33.578  31.886  1.00  0.00    -0.034 C 
ATOM     96  C   UNL A   1      45.340  31.661  32.509  1.00  0.00    -0.036 A 
ATOM     97  H   UNL A   1      46.835  30.137  32.117  1.00  0.00     0.065 H 
ATOM     98  C   UNL A   1      44.001  31.734  32.160  1.00  0.00     0.049 A 
ATOM     99  H   UNL A   1      42.807  30.305  31.166  1.00  0.00     0.167 HD
ATOM    100  C   UNL A   1      41.762  32.796  32.035  1.00  0.00     0.074 A 
ATOM    101  C   UNL A   1      40.837  33.881  32.292  1.00  0.00    -0.034 C 
ATOM    102  H   UNL A   1      38.741  34.124  31.978  1.00  0.00     0.065 H 
ATOM    103  H   UNL A   1      45.868  32.379  33.029  1.00  0.00     0.065 H 
ATOM    104  C   UNL A   1      43.071  32.810  32.390  1.00  0.00     0.037 A 
ATOM    105  H   UNL A   1      41.097  34.775  32.735  1.00  0.00     0.065 H 
BRANCH  86 106
ATOM    106  C   UNL A   1      46.135  27.642  30.934  1.00  0.00     0.064 A 
ATOM    107  C   UNL A   1      47.167  27.822  30.000  1.00  0.00     0.173 A 
ATOM    108  C   UNL A   1      46.343  26.714  31.966  1.00  0.00     0.173 A 
ATOM    109  F   UNL A   1      47.015  28.689  28.986  1.00  0.00    -0.203 F 
ATOM    110  C   UNL A   1      48.342  27.079  30.074  1.00  0.00     0.198 A 
ATOM    111  C   UNL A   1      47.534  25.997  32.058  1.00  0.00     0.198 A 
ATOM    112  F   UNL A   1      45.394  26.506  32.891  1.00  0.00    -0.203 F 
ATOM    113  F   UNL A   1      49.287  27.228  29.136  1.00  0.00    -0.200 F 
ATOM    114  C   UNL A   1      48.527  26.173  31.107  1.00  0.00     0.200 A 
ATOM    115  F   UNL A   1      47.718  25.133  33.065  1.00  0.00    -0.200 F 
ATOM    116  F   UNL A   1      49.661  25.463  31.181  1.00  0.00    -0.200 F 
ENDBRANCH  86 106
BRANCH  89 117
ATOM    117  C   UNL A   1      37.318  32.337  30.560  1.00  0.00     0.064 A 
ATOM    118  C   UNL A   1      37.021  33.230  29.521  1.00  0.00     0.173 A 
ATOM    119  C   UNL A   1      36.348  32.148  31.555  1.00  0.00     0.173 A 
ATOM    120  F   UNL A   1      37.923  33.459  28.557  1.00  0.00    -0.203 F 
ATOM    121  C   UNL A   1      35.814  33.927  29.492  1.00  0.00     0.198 A 
ATOM    122  C   UNL A   1      35.130  32.823  31.510  1.00  0.00     0.198 A 
ATOM    123  F   UNL A   1      36.580  31.299  32.567  1.00  0.00    -0.203 F 
ATOM    124  F   UNL A   1      35.578  34.812  28.515  1.00  0.00    -0.200 F 
ATOM    125  C   UNL A   1      34.868  33.719  30.485  1.00  0.00     0.200 A 
ATOM    126  F   UNL A   1      34.211  32.607  32.461  1.00  0.00    -0.200 F 
ATOM    127  F   UNL A   1      33.707  34.388  30.456  1.00  0.00    -0.200 F 
ENDBRANCH  89 117
BRANCH 104 128
ATOM    128  C   UNL A   1      43.596  34.059  33.039  1.00  0.00     0.064 A 
ATOM    129  C   UNL A   1      43.625  34.215  34.433  1.00  0.00     0.173 A 
ATOM    130  C   UNL A   1      44.104  35.103  32.250  1.00  0.00     0.173 A 
ATOM    131  F   UNL A   1      43.139  33.253  35.230  1.00  0.00    -0.203 F 
ATOM    132  C   UNL A   1      44.112  35.385  35.011  1.00  0.00     0.198 A 
ATOM    133  C   UNL A   1      44.622  36.256  32.833  1.00  0.00     0.198 A 
ATOM    134  F   UNL A   1      44.108  35.001  30.913  1.00  0.00    -0.203 F 
ATOM    135  F   UNL A   1      44.077  35.536  36.343  1.00  0.00    -0.200 F 
ATOM    136  C   UNL A   1      44.616  36.401  34.212  1.00  0.00     0.200 A 
ATOM    137  F   UNL A   1      45.123  37.229  32.060  1.00  0.00    -0.200 F 
ATOM    138  F   UNL A   1      45.089  37.523  34.771  1.00  0.00    -0.200 F 
ENDBRANCH 104 128
ENDBRANCH  69  72
ENDBRANCH  59  62
ENDBRANCH  55  58
ENDBRANCH  52  55
ENDBRANCH  49  52
ENDBRANCH   1  49
TORSDOF 17
ENDMDL
MODEL 2
REMARK VINA RESULT:     -10.6      5.339     10.392
REMARK SMILES C[C@@H](C(=O)NCCCCCCNC(=O)c1ccc(-c2c3nc(c(-c4c(F)c(F)c(F)c(F)c4F)c4ccc([nH]4)c(-c4c(F)c(F)c(F)c(F)c4F)c4nc(c(-c5c(F)c(F)c(F)c(F)c5F)c5ccc2[nH]5)C=C4)C=C3)cc1)c1ccc2c3cc(Cl)ccc3n(C(=O)c3cocn3)c2c1
REMARK SMILES IDX 8 1 7 4 6 7 5 10 3 11 4 12 2 14 1 16 78 20 79 21 98 22 80 23
REMARK SMILES IDX 97 25 81 27 89 29 82 30 88 31 83 32 87 33 84 34 86 36 85 38
REMARK SMILES IDX 90 40 91 41 92 42 93 43 96 44 94 45 95 47 9 49 10 52 11 55
REMARK SMILES IDX 12 58 13 59 14 61 15 62 16 63 77 64 17 65 76 67 18 69 19 72
REMARK SMILES IDX 20 73 70 74 21 75 75 76 69 77 71 78 22 79 74 80 68 82 67 84
REMARK SMILES IDX 23 86 55 89 35 90 54 91 36 92 39 93 53 94 72 95 37 96 38 98
REMARK SMILES IDX 52 100 73 101 40 104 24 106 25 107 33 108 26 109 27 110
REMARK SMILES IDX 31 111 34 112 28 113 29 114 32 115 30 116 56 117 57 118
REMARK SMILES IDX 65 119 58 120 59 121 63 122 66 123 60 124 61 125 64 126
REMARK SMILES IDX 62 127 41 128 42 129 50 130 43 131 44 132 48 133 51 134
REMARK SMILES IDX 45 135 46 136 49 137 47 138
REMARK H PARENT 8 2 8 3 7 5 7 6 6 8 6 9 5 13 2 15 1 17 1 18 1 19 79 24 98 26
REMARK H PARENT 80 28 83 35 87 37 86 39 93 46 95 48 9 50 9 51 10 53 10 54
REMARK H PARENT 11 56 11 57 12 60 16 66 77 68 17 70 76 71 75 81 69 83 71 85
REMARK H PARENT 74 87 68 88 36 97 39 99 72 102 37 103 73 105
REMARK Flexibility Score: inf
ROOT
ATOM      1  C   UNL A   1      41.324  27.783  28.777  1.00  0.00    -0.052 C 
ATOM      2  H   UNL A   1      42.003  26.967  28.915  1.00  0.00     0.027 H 
ATOM      3  H   UNL A   1      41.765  28.621  28.280  1.00  0.00     0.027 H 
ENDROOT
BRANCH   1   4
ATOM      4  C   UNL A   1      40.891  28.283  30.162  1.00  0.00    -0.036 C 
ATOM      5  H   UNL A   1      39.822  28.260  30.211  1.00  0.00     0.028 H 
ATOM      6  H   UNL A   1      41.349  27.638  30.883  1.00  0.00     0.028 H 
BRANCH   4   7
ATOM      7  C   UNL A   1      41.356  29.705  30.481  1.00  0.00     0.017 C 
ATOM      8  H   UNL A   1      42.341  29.670  30.895  1.00  0.00     0.049 H 
ATOM      9  H   UNL A   1      41.358  30.281  29.579  1.00  0.00     0.049 H 
BRANCH   7  10
ATOM     10  N   UNL A   1      40.461  30.322  31.431  1.00  0.00    -0.356 N 
ATOM     11  C   UNL A   1      39.611  31.372  31.273  1.00  0.00     0.227 C 
ATOM     12  O   UNL A   1      39.054  31.776  32.295  1.00  0.00    -0.274 OA
ATOM     13  H   UNL A   1      40.466  29.921  32.329  1.00  0.00     0.163 HD
BRANCH  11  14
ATOM     14  C   UNL A   1      39.348  31.948  29.866  1.00  0.00     0.060 C 
ATOM     15  H   UNL A   1      40.216  31.693  29.292  1.00  0.00     0.045 H 
BRANCH  14  16
ATOM     16  C   UNL A   1      39.204  33.475  29.846  1.00  0.00    -0.049 C 
ATOM     17  H   UNL A   1      38.279  33.740  29.379  1.00  0.00     0.024 H 
ATOM     18  H   UNL A   1      40.016  33.903  29.296  1.00  0.00     0.024 H 
ATOM     19  H   UNL A   1      39.217  33.848  30.848  1.00  0.00     0.024 H 
ENDBRANCH  14  16
BRANCH  14  20
ATOM     20  C   UNL A   1      38.103  31.329  29.244  1.00  0.00    -0.034 A 
ATOM     21  C   UNL A   1      38.073  29.990  28.854  1.00  0.00    -0.057 A 
ATOM     22  C   UNL A   1      36.964  32.129  29.061  1.00  0.00    -0.033 A 
ATOM     23  C   UNL A   1      36.907  29.434  28.319  1.00  0.00    -0.052 A 
ATOM     24  H   UNL A   1      38.918  29.407  28.963  1.00  0.00     0.063 H 
ATOM     25  C   UNL A   1      35.817  31.582  28.468  1.00  0.00     0.058 A 
ATOM     26  H   UNL A   1      36.971  33.115  29.364  1.00  0.00     0.065 H 
ATOM     27  C   UNL A   1      35.759  30.236  28.136  1.00  0.00     0.008 A 
ATOM     28  H   UNL A   1      36.885  28.435  28.057  1.00  0.00     0.063 H 
ATOM     29  N   UNL A   1      34.599  32.187  28.143  1.00  0.00    -0.274 N 
ATOM     30  C   UNL A   1      34.452  29.986  27.640  1.00  0.00     0.009 A 
ATOM     31  C   UNL A   1      33.762  31.208  27.591  1.00  0.00     0.057 A 
ATOM     32  C   UNL A   1      33.824  28.810  27.178  1.00  0.00    -0.033 A 
ATOM     33  C   UNL A   1      32.498  31.288  26.974  1.00  0.00    -0.036 A 
ATOM     34  C   UNL A   1      32.553  28.888  26.617  1.00  0.00     0.041 A 
ATOM     35  H   UNL A   1      34.305  27.899  27.255  1.00  0.00     0.065 H 
ATOM     36  C   UNL A   1      31.907  30.111  26.496  1.00  0.00    -0.041 A 
ATOM     37  H   UNL A   1      32.017  32.196  26.876  1.00  0.00     0.065 H 
ATOM     38  Cl  UNL A   1      31.800  27.456  26.030  1.00  0.00    -0.084 Cl
ATOM     39  H   UNL A   1      30.978  30.154  26.048  1.00  0.00     0.064 H 
BRANCH  29  40
ATOM     40  C   UNL A   1      34.353  33.579  28.292  1.00  0.00     0.284 C 
ATOM     41  O   UNL A   1      34.643  34.277  27.315  1.00  0.00    -0.266 OA
BRANCH  40  42
ATOM     42  C   UNL A   1      33.836  34.225  29.494  1.00  0.00     0.167 A 
ATOM     43  C   UNL A   1      34.223  34.079  30.809  1.00  0.00     0.124 A 
ATOM     44  N   UNL A   1      32.895  35.248  29.430  1.00  0.00    -0.211 NA
ATOM     45  O   UNL A   1      33.534  34.981  31.567  1.00  0.00    -0.451 OA
ATOM     46  H   UNL A   1      34.918  33.400  31.160  1.00  0.00     0.107 H 
ATOM     47  C   UNL A   1      32.772  35.657  30.668  1.00  0.00     0.181 A 
ATOM     48  H   UNL A   1      32.145  36.431  30.939  1.00  0.00     0.127 H 
ENDBRANCH  40  42
ENDBRANCH  29  40
ENDBRANCH  14  20
ENDBRANCH  11  14
ENDBRANCH   7  10
ENDBRANCH   4   7
ENDBRANCH   1   4
BRANCH   1  49
ATOM     49  C   UNL A   1      40.179  27.302  27.879  1.00  0.00    -0.052 C 
ATOM     50  H   UNL A   1      40.365  27.653  26.886  1.00  0.00     0.027 H 
ATOM     51  H   UNL A   1      39.279  27.695  28.303  1.00  0.00     0.027 H 
BRANCH  49  52
ATOM     52  C   UNL A   1      40.005  25.784  27.823  1.00  0.00    -0.036 C 
ATOM     53  H   UNL A   1      39.062  25.537  28.265  1.00  0.00     0.028 H 
ATOM     54  H   UNL A   1      40.834  25.360  28.351  1.00  0.00     0.028 H 
BRANCH  52  55
ATOM     55  C   UNL A   1      40.041  25.203  26.417  1.00  0.00     0.018 C 
ATOM     56  H   UNL A   1      40.540  25.894  25.770  1.00  0.00     0.049 H 
ATOM     57  H   UNL A   1      39.032  25.039  26.100  1.00  0.00     0.049 H 
BRANCH  55  58
ATOM     58  N   UNL A   1      40.738  23.931  26.375  1.00  0.00    -0.352 N 
ATOM     59  C   UNL A   1      42.077  23.684  26.201  1.00  0.00     0.251 C 
ATOM     60  H   UNL A   1      40.171  23.134  26.487  1.00  0.00     0.163 HD
ATOM     61  O   UNL A   1      42.472  22.547  25.983  1.00  0.00    -0.269 OA
BRANCH  59  62
ATOM     62  C   UNL A   1      43.043  24.802  26.266  1.00  0.00     0.039 A 
ATOM     63  C   UNL A   1      43.639  25.104  27.492  1.00  0.00    -0.049 A 
ATOM     64  C   UNL A   1      43.335  25.571  25.135  1.00  0.00    -0.049 A 
ATOM     65  C   UNL A   1      44.542  26.164  27.579  1.00  0.00    -0.053 A 
ATOM     66  H   UNL A   1      43.412  24.546  28.330  1.00  0.00     0.063 H 
ATOM     67  C   UNL A   1      44.296  26.572  25.204  1.00  0.00    -0.053 A 
ATOM     68  H   UNL A   1      42.835  25.394  24.249  1.00  0.00     0.063 H 
ATOM     69  C   UNL A   1      44.886  26.900  26.433  1.00  0.00    -0.014 A 
ATOM     70  H   UNL A   1      44.959  26.411  28.491  1.00  0.00     0.063 H 
ATOM     71  H   UNL A   1      44.576  27.077  24.348  1.00  0.00     0.063 H 
BRANCH  69  72
ATOM     72  C   UNL A   1      45.814  28.055  26.519  1.00  0.00     0.031 A 
ATOM     73  C   UNL A   1      47.288  27.847  26.302  1.00  0.00     0.074 A 
ATOM     74  C   UNL A   1      45.340  29.277  26.827  1.00  0.00     0.049 A 
ATOM     75  N   UNL A   1      48.267  28.715  26.357  1.00  0.00    -0.248 NA
ATOM     76  C   UNL A   1      47.727  26.472  26.011  1.00  0.00    -0.034 C 
ATOM     77  C   UNL A   1      43.939  29.595  27.105  1.00  0.00    -0.036 A 
ATOM     78  N   UNL A   1      45.988  30.480  26.958  1.00  0.00    -0.354 N 
ATOM     79  C   UNL A   1      49.430  27.989  26.131  1.00  0.00     0.074 A 
ATOM     80  C   UNL A   1      49.044  26.603  25.997  1.00  0.00    -0.034 C 
ATOM     81  H   UNL A   1      47.156  25.626  25.858  1.00  0.00     0.065 H 
ATOM     82  C   UNL A   1      43.828  30.913  27.340  1.00  0.00    -0.036 A 
ATOM     83  H   UNL A   1      43.162  28.917  27.117  1.00  0.00     0.065 H 
ATOM     84  C   UNL A   1      45.151  31.525  27.263  1.00  0.00     0.049 A 
ATOM     85  H   UNL A   1      46.960  30.583  26.845  1.00  0.00     0.167 HD
ATOM     86  C   UNL A   1      50.701  28.442  26.018  1.00  0.00     0.037 A 
ATOM     87  H   UNL A   1      49.709  25.818  25.903  1.00  0.00     0.065 H 
ATOM     88  H   UNL A   1      42.947  31.413  27.543  1.00  0.00     0.065 H 
ATOM     89  C   UNL A   1      45.424  32.829  27.452  1.00  0.00     0.037 A 
ATOM     90  C   UNL A   1      51.074  29.828  26.116  1.00  0.00     0.049 A 
ATOM     91  C   UNL A   1      46.845  33.309  27.309  1.00  0.00     0.074 A 
ATOM     92  C   UNL A   1      52.323  30.401  25.952  1.00  0.00    -0.036 A 
ATOM     93  N   UNL A   1      50.195  30.862  26.405  1.00  0.00    -0.354 N 
ATOM     94  N   UNL A   1      47.926  32.626  27.020  1.00  0.00    -0.248 NA
ATOM     95  C   UNL A   1      47.079  34.746  27.505  1.00  0.00    -0.034 C 
ATOM     96  C   UNL A   1      52.208  31.774  26.190  1.00  0.00    -0.036 A 
ATOM     97  H   UNL A   1      53.189  29.901  25.698  1.00  0.00     0.065 H 
ATOM     98  C   UNL A   1      50.877  32.066  26.443  1.00  0.00     0.049 A 
ATOM     99  H   UNL A   1      49.228  30.755  26.558  1.00  0.00     0.167 HD
ATOM    100  C   UNL A   1      48.958  33.552  26.959  1.00  0.00     0.074 A 
ATOM    101  C   UNL A   1      48.371  34.848  27.231  1.00  0.00    -0.034 C 
ATOM    102  H   UNL A   1      46.411  35.482  27.782  1.00  0.00     0.065 H 
ATOM    103  H   UNL A   1      52.984  32.455  26.180  1.00  0.00     0.065 H 
ATOM    104  C   UNL A   1      50.273  33.350  26.696  1.00  0.00     0.037 A 
ATOM    105  H   UNL A   1      48.893  35.738  27.214  1.00  0.00     0.065 H 
BRANCH  86 106
ATOM    106  C   UNL A   1      51.782  27.425  25.778  1.00  0.00     0.064 A 
ATOM    107  C   UNL A   1      52.492  26.836  26.835  1.00  0.00     0.173 A 
ATOM    108  C   UNL A   1      52.094  27.017  24.473  1.00  0.00     0.173 A 
ATOM    109  F   UNL A   1      52.242  27.199  28.103  1.00  0.00    -0.203 F 
ATOM    110  C   UNL A   1      53.498  25.903  26.593  1.00  0.00     0.198 A 
ATOM    111  C   UNL A   1      53.077  26.058  24.236  1.00  0.00     0.198 A 
ATOM    112  F   UNL A   1      51.442  27.543  23.424  1.00  0.00    -0.203 F 
ATOM    113  F   UNL A   1      54.202  25.398  27.616  1.00  0.00    -0.200 F 
ATOM    114  C   UNL A   1      53.784  25.510  25.295  1.00  0.00     0.200 A 
ATOM    115  F   UNL A   1      53.342  25.668  22.981  1.00  0.00    -0.200 F 
ATOM    116  F   UNL A   1      54.748  24.609  25.064  1.00  0.00    -0.200 F 
ENDBRANCH  86 106
BRANCH  89 117
ATOM    117  C   UNL A   1      44.326  33.785  27.750  1.00  0.00     0.064 A 
ATOM    118  C   UNL A   1      43.797  33.890  29.044  1.00  0.00     0.173 A 
ATOM    119  C   UNL A   1      43.776  34.603  26.753  1.00  0.00     0.173 A 
ATOM    120  F   UNL A   1      44.277  33.116  30.028  1.00  0.00    -0.203 F 
ATOM    121  C   UNL A   1      42.742  34.756  29.324  1.00  0.00     0.198 A 
ATOM    122  C   UNL A   1      42.740  35.490  27.040  1.00  0.00     0.198 A 
ATOM    123  F   UNL A   1      44.250  34.546  25.499  1.00  0.00    -0.203 F 
ATOM    124  F   UNL A   1      42.222  34.798  30.558  1.00  0.00    -0.200 F 
ATOM    125  C   UNL A   1      42.217  35.559  28.322  1.00  0.00     0.200 A 
ATOM    126  F   UNL A   1      42.246  36.275  26.073  1.00  0.00    -0.200 F 
ATOM    127  F   UNL A   1      41.203  36.392  28.591  1.00  0.00    -0.200 F 
ENDBRANCH  89 117
BRANCH 104 128
ATOM    128  C   UNL A   1      51.157  34.562  26.630  1.00  0.00     0.064 A 
ATOM    129  C   UNL A   1      51.337  35.286  25.441  1.00  0.00     0.173 A 
ATOM    130  C   UNL A   1      51.810  35.022  27.784  1.00  0.00     0.173 A 
ATOM    131  F   UNL A   1      50.745  34.880  24.308  1.00  0.00    -0.203 F 
ATOM    132  C   UNL A   1      52.166  36.404  25.403  1.00  0.00     0.198 A 
ATOM    133  C   UNL A   1      52.610  36.161  27.750  1.00  0.00     0.198 A 
ATOM    134  F   UNL A   1      51.665  34.373  28.948  1.00  0.00    -0.203 F 
ATOM    135  F   UNL A   1      52.369  37.046  24.244  1.00  0.00    -0.200 F 
ATOM    136  C   UNL A   1      52.796  36.845  26.558  1.00  0.00     0.200 A 
ATOM    137  F   UNL A   1      53.205  36.594  28.870  1.00  0.00    -0.200 F 
ATOM    138  F   UNL A   1      53.589  37.924  26.521  1.00  0.00    -0.200 F 
ENDBRANCH 104 128
ENDBRANCH  69  72
ENDBRANCH  59  62
ENDBRANCH  55  58
ENDBRANCH  52  55
ENDBRANCH  49  52
ENDBRANCH   1  49
TORSDOF 17
ENDMDL
MODEL 3
REMARK VINA RESULT:     -10.5      5.333     10.226
REMARK SMILES C[C@@H](C(=O)NCCCCCCNC(=O)c1ccc(-c2c3nc(c(-c4c(F)c(F)c(F)c(F)c4F)c4ccc([nH]4)c(-c4c(F)c(F)c(F)c(F)c4F)c4nc(c(-c5c(F)c(F)c(F)c(F)c5F)c5ccc2[nH]5)C=C4)C=C3)cc1)c1ccc2c3cc(Cl)ccc3n(C(=O)c3cocn3)c2c1
REMARK SMILES IDX 8 1 7 4 6 7 5 10 3 11 4 12 2 14 1 16 78 20 79 21 98 22 80 23
REMARK SMILES IDX 97 25 81 27 89 29 82 30 88 31 83 32 87 33 84 34 86 36 85 38
REMARK SMILES IDX 90 40 91 41 92 42 93 43 96 44 94 45 95 47 9 49 10 52 11 55
REMARK SMILES IDX 12 58 13 59 14 61 15 62 16 63 77 64 17 65 76 67 18 69 19 72
REMARK SMILES IDX 20 73 70 74 21 75 75 76 69 77 71 78 22 79 74 80 68 82 67 84
REMARK SMILES IDX 23 86 55 89 35 90 54 91 36 92 39 93 53 94 72 95 37 96 38 98
REMARK SMILES IDX 52 100 73 101 40 104 24 106 25 107 33 108 26 109 27 110
REMARK SMILES IDX 31 111 34 112 28 113 29 114 32 115 30 116 56 117 57 118
REMARK SMILES IDX 65 119 58 120 59 121 63 122 66 123 60 124 61 125 64 126
REMARK SMILES IDX 62 127 41 128 42 129 50 130 43 131 44 132 48 133 51 134
REMARK SMILES IDX 45 135 46 136 49 137 47 138
REMARK H PARENT 8 2 8 3 7 5 7 6 6 8 6 9 5 13 2 15 1 17 1 18 1 19 79 24 98 26
REMARK H PARENT 80 28 83 35 87 37 86 39 93 46 95 48 9 50 9 51 10 53 10 54
REMARK H PARENT 11 56 11 57 12 60 16 66 77 68 17 70 76 71 75 81 69 83 71 85
REMARK H PARENT 74 87 68 88 36 97 39 99 72 102 37 103 73 105
REMARK Flexibility Score: inf
ROOT
ATOM      1  C   UNL A   1      41.342  27.298  28.543  1.00  0.00    -0.052 C 
ATOM      2  H   UNL A   1      41.736  26.323  28.738  1.00  0.00     0.027 H 
ATOM      3  H   UNL A   1      42.084  27.998  28.221  1.00  0.00     0.027 H 
ENDROOT
BRANCH   1   4
ATOM      4  C   UNL A   1      40.771  27.852  29.856  1.00  0.00    -0.036 C 
ATOM      5  H   UNL A   1      39.704  27.888  29.772  1.00  0.00     0.028 H 
ATOM      6  H   UNL A   1      41.099  27.199  30.638  1.00  0.00     0.028 H 
BRANCH   4   7
ATOM      7  C   UNL A   1      41.273  29.253  30.209  1.00  0.00     0.017 C 
ATOM      8  H   UNL A   1      42.273  29.187  30.580  1.00  0.00     0.049 H 
ATOM      9  H   UNL A   1      41.247  29.864  29.330  1.00  0.00     0.049 H 
BRANCH   7  10
ATOM     10  N   UNL A   1      40.428  29.847  31.218  1.00  0.00    -0.356 N 
ATOM     11  C   UNL A   1      39.626  30.944  31.148  1.00  0.00     0.227 C 
ATOM     12  O   UNL A   1      39.110  31.305  32.208  1.00  0.00    -0.274 OA
ATOM     13  H   UNL A   1      40.433  29.388  32.088  1.00  0.00     0.163 HD
BRANCH  11  14
ATOM     14  C   UNL A   1      39.362  31.622  29.788  1.00  0.00     0.060 C 
ATOM     15  H   UNL A   1      40.216  31.387  29.187  1.00  0.00     0.045 H 
BRANCH  14  16
ATOM     16  C   UNL A   1      39.257  33.151  29.876  1.00  0.00    -0.049 C 
ATOM     17  H   UNL A   1      39.774  33.591  29.049  1.00  0.00     0.024 H 
ATOM     18  H   UNL A   1      39.696  33.486  30.792  1.00  0.00     0.024 H 
ATOM     19  H   UNL A   1      38.227  33.439  29.848  1.00  0.00     0.024 H 
ENDBRANCH  14  16
BRANCH  14  20
ATOM     20  C   UNL A   1      38.094  31.079  29.142  1.00  0.00    -0.034 A 
ATOM     21  C   UNL A   1      38.019  29.766  28.679  1.00  0.00    -0.057 A 
ATOM     22  C   UNL A   1      36.981  31.924  29.012  1.00  0.00    -0.033 A 
ATOM     23  C   UNL A   1      36.832  29.278  28.122  1.00  0.00    -0.052 A 
ATOM     24  H   UNL A   1      38.845  29.151  28.748  1.00  0.00     0.063 H 
ATOM     25  C   UNL A   1      35.813  31.448  28.398  1.00  0.00     0.058 A 
ATOM     26  H   UNL A   1      37.020  32.891  29.369  1.00  0.00     0.065 H 
ATOM     27  C   UNL A   1      35.710  30.125  27.992  1.00  0.00     0.008 A 
ATOM     28  H   UNL A   1      36.777  28.296  27.805  1.00  0.00     0.063 H 
ATOM     29  N   UNL A   1      34.614  32.109  28.115  1.00  0.00    -0.274 N 
ATOM     30  C   UNL A   1      34.392  29.946  27.491  1.00  0.00     0.009 A 
ATOM     31  C   UNL A   1      33.742  31.190  27.516  1.00  0.00     0.057 A 
ATOM     32  C   UNL A   1      33.725  28.817  26.969  1.00  0.00    -0.033 A 
ATOM     33  C   UNL A   1      32.478  31.344  26.914  1.00  0.00    -0.036 A 
ATOM     34  C   UNL A   1      32.454  28.967  26.423  1.00  0.00     0.041 A 
ATOM     35  H   UNL A   1      34.176  27.889  26.992  1.00  0.00     0.065 H 
ATOM     36  C   UNL A   1      31.847  30.215  26.375  1.00  0.00    -0.041 A 
ATOM     37  H   UNL A   1      32.027  32.271  26.870  1.00  0.00     0.065 H 
ATOM     38  Cl  UNL A   1      31.651  27.595  25.763  1.00  0.00    -0.084 Cl
ATOM     39  H   UNL A   1      30.918  30.313  25.937  1.00  0.00     0.064 H 
BRANCH  29  40
ATOM     40  C   UNL A   1      34.414  33.497  28.343  1.00  0.00     0.284 C 
ATOM     41  O   UNL A   1      34.719  34.239  27.405  1.00  0.00    -0.266 OA
BRANCH  40  42
ATOM     42  C   UNL A   1      33.925  34.092  29.584  1.00  0.00     0.167 A 
ATOM     43  C   UNL A   1      34.427  33.996  30.864  1.00  0.00     0.124 A 
ATOM     44  N   UNL A   1      32.877  35.007  29.595  1.00  0.00    -0.211 NA
ATOM     45  O   UNL A   1      33.706  34.824  31.676  1.00  0.00    -0.451 OA
ATOM     46  H   UNL A   1      35.216  33.399  31.159  1.00  0.00     0.107 H 
ATOM     47  C   UNL A   1      32.808  35.408  30.840  1.00  0.00     0.181 A 
ATOM     48  H   UNL A   1      32.124  36.112  31.161  1.00  0.00     0.127 H 
ENDBRANCH  40  42
ENDBRANCH  29  40
ENDBRANCH  14  20
ENDBRANCH  11  14
ENDBRANCH   7  10
ENDBRANCH   4   7
ENDBRANCH   1   4
BRANCH   1  49
ATOM     49  C   UNL A   1      40.331  27.184  27.398  1.00  0.00    -0.052 C 
ATOM     50  H   UNL A   1      40.797  27.543  26.506  1.00  0.00     0.027 H 
ATOM     51  H   UNL A   1      39.478  27.761  27.690  1.00  0.00     0.027 H 
BRANCH  49  52
ATOM     52  C   UNL A   1      39.823  25.765  27.134  1.00  0.00    -0.036 C 
ATOM     53  H   UNL A   1      39.959  25.548  26.095  1.00  0.00     0.028 H 
ATOM     54  H   UNL A   1      38.794  25.747  27.430  1.00  0.00     0.028 H 
BRANCH  52  55
ATOM     55  C   UNL A   1      40.529  24.688  27.944  1.00  0.00     0.018 C 
ATOM     56  H   UNL A   1      39.834  24.269  28.643  1.00  0.00     0.049 H 
ATOM     57  H   UNL A   1      41.356  25.142  28.449  1.00  0.00     0.049 H 
BRANCH  55  58
ATOM     58  N   UNL A   1      41.045  23.627  27.099  1.00  0.00    -0.352 N 
ATOM     59  C   UNL A   1      42.130  23.641  26.259  1.00  0.00     0.251 C 
ATOM     60  H   UNL A   1      40.547  22.779  27.135  1.00  0.00     0.163 HD
ATOM     61  O   UNL A   1      42.305  22.728  25.463  1.00  0.00    -0.269 OA
BRANCH  59  62
ATOM     62  C   UNL A   1      43.083  24.770  26.311  1.00  0.00     0.039 A 
ATOM     63  C   UNL A   1      43.886  24.919  27.444  1.00  0.00    -0.049 A 
ATOM     64  C   UNL A   1      43.162  25.696  25.267  1.00  0.00    -0.049 A 
ATOM     65  C   UNL A   1      44.782  25.986  27.520  1.00  0.00    -0.053 A 
ATOM     66  H   UNL A   1      43.818  24.243  28.221  1.00  0.00     0.063 H 
ATOM     67  C   UNL A   1      44.113  26.710  25.307  1.00  0.00    -0.053 A 
ATOM     68  H   UNL A   1      42.514  25.628  24.467  1.00  0.00     0.063 H 
ATOM     69  C   UNL A   1      44.911  26.884  26.448  1.00  0.00    -0.014 A 
ATOM     70  H   UNL A   1      45.354  26.118  28.370  1.00  0.00     0.063 H 
ATOM     71  H   UNL A   1      44.232  27.337  24.496  1.00  0.00     0.063 H 
BRANCH  69  72
ATOM     72  C   UNL A   1      45.830  28.046  26.532  1.00  0.00     0.031 A 
ATOM     73  C   UNL A   1      47.306  27.848  26.313  1.00  0.00     0.074 A 
ATOM     74  C   UNL A   1      45.348  29.264  26.840  1.00  0.00     0.049 A 
ATOM     75  N   UNL A   1      48.278  28.724  26.367  1.00  0.00    -0.248 NA
ATOM     76  C   UNL A   1      47.754  26.477  26.021  1.00  0.00    -0.034 C 
ATOM     77  C   UNL A   1      43.945  29.572  27.119  1.00  0.00    -0.036 A 
ATOM     78  N   UNL A   1      45.986  30.472  26.969  1.00  0.00    -0.354 N 
ATOM     79  C   UNL A   1      49.446  28.007  26.139  1.00  0.00     0.074 A 
ATOM     80  C   UNL A   1      49.070  26.617  26.006  1.00  0.00    -0.034 C 
ATOM     81  H   UNL A   1      47.189  25.627  25.870  1.00  0.00     0.065 H 
ATOM     82  C   UNL A   1      43.824  30.889  27.353  1.00  0.00    -0.036 A 
ATOM     83  H   UNL A   1      43.172  28.888  27.132  1.00  0.00     0.065 H 
ATOM     84  C   UNL A   1      45.142  31.511  27.275  1.00  0.00     0.049 A 
ATOM     85  H   UNL A   1      46.958  30.582  26.855  1.00  0.00     0.167 HD
ATOM     86  C   UNL A   1      50.714  28.469  26.025  1.00  0.00     0.037 A 
ATOM     87  H   UNL A   1      49.740  25.838  25.912  1.00  0.00     0.065 H 
ATOM     88  H   UNL A   1      42.940  31.383  27.557  1.00  0.00     0.065 H 
ATOM     89  C   UNL A   1      45.406  32.817  27.463  1.00  0.00     0.037 A 
ATOM     90  C   UNL A   1      51.076  29.858  26.122  1.00  0.00     0.049 A 
ATOM     91  C   UNL A   1      46.823  33.307  27.318  1.00  0.00     0.074 A 
ATOM     92  C   UNL A   1      52.321  30.439  25.955  1.00  0.00    -0.036 A 
ATOM     93  N   UNL A   1      50.190  30.885  26.410  1.00  0.00    -0.354 N 
ATOM     94  N   UNL A   1      47.909  32.632  27.028  1.00  0.00    -0.248 NA
ATOM     95  C   UNL A   1      47.046  34.746  27.513  1.00  0.00    -0.034 C 
ATOM     96  C   UNL A   1      52.196  31.812  26.193  1.00  0.00    -0.036 A 
ATOM     97  H   UNL A   1      53.190  29.946  25.700  1.00  0.00     0.065 H 
ATOM     98  C   UNL A   1      50.863  32.095  26.447  1.00  0.00     0.049 A 
ATOM     99  H   UNL A   1      49.224  30.771  26.565  1.00  0.00     0.167 HD
ATOM    100  C   UNL A   1      48.934  33.566  26.965  1.00  0.00     0.074 A 
ATOM    101  C   UNL A   1      48.338  34.858  27.237  1.00  0.00    -0.034 C 
ATOM    102  H   UNL A   1      46.374  35.478  27.791  1.00  0.00     0.065 H 
ATOM    103  H   UNL A   1      52.967  32.499  26.181  1.00  0.00     0.065 H 
ATOM    104  C   UNL A   1      50.250  33.374  26.701  1.00  0.00     0.037 A 
ATOM    105  H   UNL A   1      48.853  35.751  27.219  1.00  0.00     0.065 H 
BRANCH  86 106
ATOM    106  C   UNL A   1      51.801  27.460  25.783  1.00  0.00     0.064 A 
ATOM    107  C   UNL A   1      52.521  26.880  26.839  1.00  0.00     0.173 A 
ATOM    108  C   UNL A   1      52.111  27.049  24.478  1.00  0.00     0.173 A 
ATOM    109  F   UNL A   1      52.274  27.246  28.107  1.00  0.00    -0.203 F 
ATOM    110  C   UNL A   1      53.534  25.955  26.596  1.00  0.00     0.198 A 
ATOM    111  C   UNL A   1      53.100  26.097  24.241  1.00  0.00     0.198 A 
ATOM    112  F   UNL A   1      51.450  27.565  23.431  1.00  0.00    -0.203 F 
ATOM    113  F   UNL A   1      54.246  25.460  27.618  1.00  0.00    -0.200 F 
ATOM    114  C   UNL A   1      53.817  25.559  25.299  1.00  0.00     0.200 A 
ATOM    115  F   UNL A   1      53.363  25.704  22.987  1.00  0.00    -0.200 F 
ATOM    116  F   UNL A   1      54.787  24.665  25.067  1.00  0.00    -0.200 F 
ENDBRANCH  86 106
BRANCH  89 117
ATOM    117  C   UNL A   1      44.301  33.765  27.762  1.00  0.00     0.064 A 
ATOM    118  C   UNL A   1      43.768  34.585  26.757  1.00  0.00     0.173 A 
ATOM    119  C   UNL A   1      43.764  33.882  29.051  1.00  0.00     0.173 A 
ATOM    120  F   UNL A   1      44.260  34.524  25.512  1.00  0.00    -0.203 F 
ATOM    121  C   UNL A   1      42.759  35.504  27.037  1.00  0.00     0.198 A 
ATOM    122  C   UNL A   1      42.734  34.780  29.324  1.00  0.00     0.198 A 
ATOM    123  F   UNL A   1      44.234  33.115  30.047  1.00  0.00    -0.203 F 
ATOM    124  F   UNL A   1      42.303  36.312  26.069  1.00  0.00    -0.200 F 
ATOM    125  C   UNL A   1      42.239  35.598  28.319  1.00  0.00     0.200 A 
ATOM    126  F   UNL A   1      42.224  34.857  30.561  1.00  0.00    -0.200 F 
ATOM    127  F   UNL A   1      41.268  36.481  28.588  1.00  0.00    -0.200 F 
ENDBRANCH  89 117
BRANCH 104 128
ATOM    128  C   UNL A   1      51.124  34.593  26.633  1.00  0.00     0.064 A 
ATOM    129  C   UNL A   1      51.765  35.112  27.769  1.00  0.00     0.173 A 
ATOM    130  C   UNL A   1      51.347  35.233  25.403  1.00  0.00     0.173 A 
ATOM    131  F   UNL A   1      51.574  34.544  28.969  1.00  0.00    -0.203 F 
ATOM    132  C   UNL A   1      52.567  36.246  27.681  1.00  0.00     0.198 A 
ATOM    133  C   UNL A   1      52.178  36.346  25.315  1.00  0.00     0.198 A 
ATOM    134  F   UNL A   1      50.766  34.773  24.286  1.00  0.00    -0.203 F 
ATOM    135  F   UNL A   1      53.122  36.758  28.789  1.00  0.00    -0.200 F 
ATOM    136  C   UNL A   1      52.779  36.858  26.454  1.00  0.00     0.200 A 
ATOM    137  F   UNL A   1      52.393  36.927  24.126  1.00  0.00    -0.200 F 
ATOM    138  F   UNL A   1      53.554  37.947  26.372  1.00  0.00    -0.200 F 
ENDBRANCH 104 128
ENDBRANCH  69  72
ENDBRANCH  59  62
ENDBRANCH  55  58
ENDBRANCH  52  55
ENDBRANCH  49  52
ENDBRANCH   1  49
TORSDOF 17
ENDMDL
MODEL 4
REMARK VINA RESULT:     -10.4      0.618      7.107
REMARK SMILES C[C@@H](C(=O)NCCCCCCNC(=O)c1ccc(-c2c3nc(c(-c4c(F)c(F)c(F)c(F)c4F)c4ccc([nH]4)c(-c4c(F)c(F)c(F)c(F)c4F)c4nc(c(-c5c(F)c(F)c(F)c(F)c5F)c5ccc2[nH]5)C=C4)C=C3)cc1)c1ccc2c3cc(Cl)ccc3n(C(=O)c3cocn3)c2c1
REMARK SMILES IDX 8 1 7 4 6 7 5 10 3 11 4 12 2 14 1 16 78 20 79 21 98 22 80 23
REMARK SMILES IDX 97 25 81 27 89 29 82 30 88 31 83 32 87 33 84 34 86 36 85 38
REMARK SMILES IDX 90 40 91 41 92 42 93 43 96 44 94 45 95 47 9 49 10 52 11 55
REMARK SMILES IDX 12 58 13 59 14 61 15 62 16 63 77 64 17 65 76 67 18 69 19 72
REMARK SMILES IDX 20 73 70 74 21 75 75 76 69 77 71 78 22 79 74 80 68 82 67 84
REMARK SMILES IDX 23 86 55 89 35 90 54 91 36 92 39 93 53 94 72 95 37 96 38 98
REMARK SMILES IDX 52 100 73 101 40 104 24 106 25 107 33 108 26 109 27 110
REMARK SMILES IDX 31 111 34 112 28 113 29 114 32 115 30 116 56 117 57 118
REMARK SMILES IDX 65 119 58 120 59 121 63 122 66 123 60 124 61 125 64 126
REMARK SMILES IDX 62 127 41 128 42 129 50 130 43 131 44 132 48 133 51 134
REMARK SMILES IDX 45 135 46 136 49 137 47 138
REMARK H PARENT 8 2 8 3 7 5 7 6 6 8 6 9 5 13 2 15 1 17 1 18 1 19 79 24 98 26
REMARK H PARENT 80 28 83 35 87 37 86 39 93 46 95 48 9 50 9 51 10 53 10 54
REMARK H PARENT 11 56 11 57 12 60 16 66 77 68 17 70 76 71 75 81 69 83 71 85
REMARK H PARENT 74 87 68 88 36 97 39 99 72 102 37 103 73 105
REMARK Flexibility Score: inf
ROOT
ATOM      1  C   UNL A   1      42.174  19.380  27.405  1.00  0.00    -0.052 C 
ATOM      2  H   UNL A   1      42.728  19.190  28.301  1.00  0.00     0.027 H 
ATOM      3  H   UNL A   1      41.120  19.231  27.521  1.00  0.00     0.027 H 
ENDROOT
BRANCH   1   4
ATOM      4  C   UNL A   1      42.635  18.377  26.338  1.00  0.00    -0.036 C 
ATOM      5  H   UNL A   1      42.582  17.392  26.755  1.00  0.00     0.028 H 
ATOM      6  H   UNL A   1      41.988  18.501  25.494  1.00  0.00     0.028 H 
BRANCH   4   7
ATOM      7  C   UNL A   1      44.062  18.613  25.841  1.00  0.00     0.017 C 
ATOM      8  H   UNL A   1      44.438  19.520  26.264  1.00  0.00     0.049 H 
ATOM      9  H   UNL A   1      44.675  17.787  26.138  1.00  0.00     0.049 H 
BRANCH   7  10
ATOM     10  N   UNL A   1      44.079  18.715  24.401  1.00  0.00    -0.356 N 
ATOM     11  C   UNL A   1      44.797  19.542  23.594  1.00  0.00     0.227 C 
ATOM     12  O   UNL A   1      44.518  19.503  22.394  1.00  0.00    -0.274 OA
ATOM     13  H   UNL A   1      43.480  18.091  23.932  1.00  0.00     0.163 HD
BRANCH  11  14
ATOM     14  C   UNL A   1      45.924  20.411  24.187  1.00  0.00     0.060 C 
ATOM     15  H   UNL A   1      46.683  20.441  23.432  1.00  0.00     0.045 H 
BRANCH  14  16
ATOM     16  C   UNL A   1      46.550  19.820  25.458  1.00  0.00    -0.049 C 
ATOM     17  H   UNL A   1      46.924  20.613  26.072  1.00  0.00     0.024 H 
ATOM     18  H   UNL A   1      47.353  19.167  25.189  1.00  0.00     0.024 H 
ATOM     19  H   UNL A   1      45.808  19.270  25.997  1.00  0.00     0.024 H 
ENDBRANCH  14  16
BRANCH  14  20
ATOM     20  C   UNL A   1      45.428  21.819  24.493  1.00  0.00    -0.034 A 
ATOM     21  C   UNL A   1      44.154  22.239  24.113  1.00  0.00    -0.057 A 
ATOM     22  C   UNL A   1      46.276  22.707  25.172  1.00  0.00    -0.033 A 
ATOM     23  C   UNL A   1      43.705  23.524  24.436  1.00  0.00    -0.052 A 
ATOM     24  H   UNL A   1      43.538  21.597  23.590  1.00  0.00     0.063 H 
ATOM     25  C   UNL A   1      45.845  24.014  25.440  1.00  0.00     0.058 A 
ATOM     26  H   UNL A   1      47.213  22.399  25.474  1.00  0.00     0.065 H 
ATOM     27  C   UNL A   1      44.556  24.419  25.122  1.00  0.00     0.008 A 
ATOM     28  H   UNL A   1      42.750  23.818  24.174  1.00  0.00     0.063 H 
ATOM     29  N   UNL A   1      46.521  25.076  26.050  1.00  0.00    -0.274 N 
ATOM     30  C   UNL A   1      44.411  25.752  25.592  1.00  0.00     0.009 A 
ATOM     31  C   UNL A   1      45.647  26.170  26.110  1.00  0.00     0.057 A 
ATOM     32  C   UNL A   1      43.323  26.651  25.565  1.00  0.00    -0.033 A 
ATOM     33  C   UNL A   1      45.842  27.512  26.488  1.00  0.00    -0.036 A 
ATOM     34  C   UNL A   1      43.510  27.962  25.990  1.00  0.00     0.041 A 
ATOM     35  H   UNL A   1      42.397  26.337  25.232  1.00  0.00     0.065 H 
ATOM     36  C   UNL A   1      44.756  28.395  26.425  1.00  0.00    -0.041 A 
ATOM     37  H   UNL A   1      46.768  27.839  26.806  1.00  0.00     0.065 H 
ATOM     38  Cl  UNL A   1      42.189  29.064  25.932  1.00  0.00    -0.084 Cl
ATOM     39  H   UNL A   1      44.883  29.379  26.706  1.00  0.00     0.064 H 
BRANCH  29  40
ATOM     40  C   UNL A   1      47.887  25.014  26.436  1.00  0.00     0.284 C 
ATOM     41  O   UNL A   1      48.124  24.338  27.441  1.00  0.00    -0.266 OA
BRANCH  40  42
ATOM     42  C   UNL A   1      48.989  25.702  25.771  1.00  0.00     0.167 A 
ATOM     43  C   UNL A   1      49.093  26.147  24.470  1.00  0.00     0.124 A 
ATOM     44  N   UNL A   1      50.109  26.141  26.470  1.00  0.00    -0.211 NA
ATOM     45  O   UNL A   1      50.261  26.842  24.341  1.00  0.00    -0.451 OA
ATOM     46  H   UNL A   1      48.404  25.981  23.720  1.00  0.00     0.107 H 
ATOM     47  C   UNL A   1      50.804  26.810  25.586  1.00  0.00     0.181 A 
ATOM     48  H   UNL A   1      51.697  27.277  25.817  1.00  0.00     0.127 H 
ENDBRANCH  40  42
ENDBRANCH  29  40
ENDBRANCH  14  20
ENDBRANCH  11  14
ENDBRANCH   7  10
ENDBRANCH   4   7
ENDBRANCH   1   4
BRANCH   1  49
ATOM     49  C   UNL A   1      42.364  20.852  27.031  1.00  0.00    -0.052 C 
ATOM     50  H   UNL A   1      43.308  20.952  26.540  1.00  0.00     0.027 H 
ATOM     51  H   UNL A   1      42.303  21.406  27.944  1.00  0.00     0.027 H 
BRANCH  49  52
ATOM     52  C   UNL A   1      41.285  21.421  26.108  1.00  0.00    -0.036 C 
ATOM     53  H   UNL A   1      41.265  20.834  25.213  1.00  0.00     0.028 H 
ATOM     54  H   UNL A   1      41.543  22.444  25.927  1.00  0.00     0.028 H 
BRANCH  52  55
ATOM     55  C   UNL A   1      39.887  21.424  26.709  1.00  0.00     0.018 C 
ATOM     56  H   UNL A   1      39.893  22.023  27.596  1.00  0.00     0.049 H 
ATOM     57  H   UNL A   1      39.619  20.412  26.930  1.00  0.00     0.049 H 
BRANCH  55  58
ATOM     58  N   UNL A   1      38.902  21.959  25.787  1.00  0.00    -0.352 N 
ATOM     59  C   UNL A   1      38.335  23.207  25.757  1.00  0.00     0.251 C 
ATOM     60  H   UNL A   1      38.601  21.339  25.084  1.00  0.00     0.163 HD
ATOM     61  O   UNL A   1      37.368  23.429  25.040  1.00  0.00    -0.269 OA
BRANCH  59  62
ATOM     62  C   UNL A   1      38.888  24.285  26.606  1.00  0.00     0.039 A 
ATOM     63  C   UNL A   1      39.761  25.210  26.032  1.00  0.00    -0.049 A 
ATOM     64  C   UNL A   1      38.576  24.364  27.967  1.00  0.00    -0.049 A 
ATOM     65  C   UNL A   1      40.307  26.226  26.818  1.00  0.00    -0.053 A 
ATOM     66  H   UNL A   1      40.003  25.143  25.030  1.00  0.00     0.063 H 
ATOM     67  C   UNL A   1      39.053  25.423  28.729  1.00  0.00    -0.053 A 
ATOM     68  H   UNL A   1      37.992  23.634  28.405  1.00  0.00     0.063 H 
ATOM     69  C   UNL A   1      39.948  26.347  28.171  1.00  0.00    -0.014 A 
ATOM     70  H   UNL A   1      40.978  26.892  26.404  1.00  0.00     0.063 H 
ATOM     71  H   UNL A   1      38.749  25.531  29.710  1.00  0.00     0.063 H 
BRANCH  69  72
ATOM     72  C   UNL A   1      40.552  27.398  29.028  1.00  0.00     0.031 A 
ATOM     73  C   UNL A   1      39.726  28.583  29.450  1.00  0.00     0.074 A 
ATOM     74  C   UNL A   1      41.843  27.307  29.394  1.00  0.00     0.049 A 
ATOM     75  N   UNL A   1      40.068  29.619  30.173  1.00  0.00    -0.248 NA
ATOM     76  C   UNL A   1      38.334  28.625  28.971  1.00  0.00    -0.034 C 
ATOM     77  C   UNL A   1      42.758  26.231  29.011  1.00  0.00    -0.036 A 
ATOM     78  N   UNL A   1      42.612  28.135  30.173  1.00  0.00    -0.354 N 
ATOM     79  C   UNL A   1      38.948  30.439  30.215  1.00  0.00     0.074 A 
ATOM     80  C   UNL A   1      37.934  29.812  29.398  1.00  0.00    -0.034 C 
ATOM     81  H   UNL A   1      37.808  27.914  28.440  1.00  0.00     0.065 H 
ATOM     82  C   UNL A   1      43.953  26.447  29.582  1.00  0.00    -0.036 A 
ATOM     83  H   UNL A   1      42.521  25.434  28.399  1.00  0.00     0.065 H 
ATOM     84  C   UNL A   1      43.900  27.692  30.344  1.00  0.00     0.049 A 
ATOM     85  H   UNL A   1      42.272  28.969  30.571  1.00  0.00     0.167 HD
ATOM     86  C   UNL A   1      38.771  31.596  30.897  1.00  0.00     0.037 A 
ATOM     87  H   UNL A   1      37.019  30.235  29.176  1.00  0.00     0.065 H 
ATOM     88  H   UNL A   1      44.778  25.832  29.497  1.00  0.00     0.065 H 
ATOM     89  C   UNL A   1      44.918  28.228  31.042  1.00  0.00     0.037 A 
ATOM     90  C   UNL A   1      39.772  32.196  31.739  1.00  0.00     0.049 A 
ATOM     91  C   UNL A   1      44.691  29.509  31.801  1.00  0.00     0.074 A 
ATOM     92  C   UNL A   1      39.672  33.330  32.525  1.00  0.00    -0.036 A 
ATOM     93  N   UNL A   1      41.059  31.705  31.905  1.00  0.00    -0.354 N 
ATOM     94  N   UNL A   1      43.605  30.237  31.895  1.00  0.00    -0.248 NA
ATOM     95  C   UNL A   1      45.832  30.035  32.563  1.00  0.00    -0.034 C 
ATOM     96  C   UNL A   1      40.915  33.554  33.127  1.00  0.00    -0.036 A 
ATOM     97  H   UNL A   1      38.829  33.910  32.646  1.00  0.00     0.065 H 
ATOM     98  C   UNL A   1      41.770  32.525  32.765  1.00  0.00     0.049 A 
ATOM     99  H   UNL A   1      41.413  30.893  31.475  1.00  0.00     0.167 HD
ATOM    100  C   UNL A   1      43.916  31.280  32.757  1.00  0.00     0.074 A 
ATOM    101  C   UNL A   1      45.292  31.085  33.166  1.00  0.00    -0.034 C 
ATOM    102  H   UNL A   1      46.799  29.680  32.615  1.00  0.00     0.065 H 
ATOM    103  H   UNL A   1      41.155  34.350  33.738  1.00  0.00     0.065 H 
ATOM    104  C   UNL A   1      43.134  32.305  33.176  1.00  0.00     0.037 A 
ATOM    105  H   UNL A   1      45.789  31.687  33.839  1.00  0.00     0.065 H 
BRANCH  86 106
ATOM    106  C   UNL A   1      37.445  32.289  30.757  1.00  0.00     0.064 A 
ATOM    107  C   UNL A   1      36.402  32.086  31.674  1.00  0.00     0.173 A 
ATOM    108  C   UNL A   1      37.222  33.188  29.703  1.00  0.00     0.173 A 
ATOM    109  F   UNL A   1      36.558  31.228  32.694  1.00  0.00    -0.203 F 
ATOM    110  C   UNL A   1      35.176  32.728  31.522  1.00  0.00     0.198 A 
ATOM    111  C   UNL A   1      36.006  33.856  29.574  1.00  0.00     0.198 A 
ATOM    112  F   UNL A   1      38.185  33.425  28.800  1.00  0.00    -0.203 F 
ATOM    113  F   UNL A   1      34.177  32.473  32.379  1.00  0.00    -0.200 F 
ATOM    114  C   UNL A   1      34.982  33.618  30.477  1.00  0.00     0.200 A 
ATOM    115  F   UNL A   1      35.825  34.727  28.571  1.00  0.00    -0.200 F 
ATOM    116  F   UNL A   1      33.804  34.240  30.335  1.00  0.00    -0.200 F 
ENDBRANCH  86 106
BRANCH  89 117
ATOM    117  C   UNL A   1      46.231  27.534  31.099  1.00  0.00     0.064 A 
ATOM    118  C   UNL A   1      47.261  27.875  30.211  1.00  0.00     0.173 A 
ATOM    119  C   UNL A   1      46.481  26.513  32.026  1.00  0.00     0.173 A 
ATOM    120  F   UNL A   1      47.065  28.832  29.294  1.00  0.00    -0.203 F 
ATOM    121  C   UNL A   1      48.482  27.204  30.232  1.00  0.00     0.198 A 
ATOM    122  C   UNL A   1      47.712  25.862  32.066  1.00  0.00     0.198 A 
ATOM    123  F   UNL A   1      45.531  26.153  32.902  1.00  0.00    -0.203 F 
ATOM    124  F   UNL A   1      49.431  27.515  29.338  1.00  0.00    -0.200 F 
ATOM    125  C   UNL A   1      48.708  26.200  31.162  1.00  0.00     0.200 A 
ATOM    126  F   UNL A   1      47.933  24.904  32.976  1.00  0.00    -0.200 F 
ATOM    127  F   UNL A   1      49.882  25.556  31.182  1.00  0.00    -0.200 F 
ENDBRANCH  89 117
BRANCH 104 128
ATOM    128  C   UNL A   1      43.725  33.260  34.172  1.00  0.00     0.064 A 
ATOM    129  C   UNL A   1      44.404  34.423  33.774  1.00  0.00     0.173 A 
ATOM    130  C   UNL A   1      43.583  33.022  35.548  1.00  0.00     0.173 A 
ATOM    131  F   UNL A   1      44.578  34.689  32.471  1.00  0.00    -0.203 F 
ATOM    132  C   UNL A   1      44.948  35.291  34.716  1.00  0.00     0.198 A 
ATOM    133  C   UNL A   1      44.098  33.911  36.487  1.00  0.00     0.198 A 
ATOM    134  F   UNL A   1      42.936  31.931  35.982  1.00  0.00    -0.203 F 
ATOM    135  F   UNL A   1      45.642  36.364  34.312  1.00  0.00    -0.200 F 
ATOM    136  C   UNL A   1      44.789  35.039  36.071  1.00  0.00     0.200 A 
ATOM    137  F   UNL A   1      43.930  33.673  37.795  1.00  0.00    -0.200 F 
ATOM    138  F   UNL A   1      45.310  35.878  36.976  1.00  0.00    -0.200 F 
ENDBRANCH 104 128
ENDBRANCH  69  72
ENDBRANCH  59  62
ENDBRANCH  55  58
ENDBRANCH  52  55
ENDBRANCH  49  52
ENDBRANCH   1  49
TORSDOF 17
ENDMDL
MODEL 5
REMARK VINA RESULT:     -10.3      5.273     12.301
REMARK SMILES C[C@@H](C(=O)NCCCCCCNC(=O)c1ccc(-c2c3nc(c(-c4c(F)c(F)c(F)c(F)c4F)c4ccc([nH]4)c(-c4c(F)c(F)c(F)c(F)c4F)c4nc(c(-c5c(F)c(F)c(F)c(F)c5F)c5ccc2[nH]5)C=C4)C=C3)cc1)c1ccc2c3cc(Cl)ccc3n(C(=O)c3cocn3)c2c1
REMARK SMILES IDX 8 1 7 4 6 7 5 10 3 11 4 12 2 14 1 16 78 20 79 21 98 22 80 23
REMARK SMILES IDX 97 25 81 27 89 29 82 30 88 31 83 32 87 33 84 34 86 36 85 38
REMARK SMILES IDX 90 40 91 41 92 42 93 43 96 44 94 45 95 47 9 49 10 52 11 55
REMARK SMILES IDX 12 58 13 59 14 61 15 62 16 63 77 64 17 65 76 67 18 69 19 72
REMARK SMILES IDX 20 73 70 74 21 75 75 76 69 77 71 78 22 79 74 80 68 82 67 84
REMARK SMILES IDX 23 86 55 89 35 90 54 91 36 92 39 93 53 94 72 95 37 96 38 98
REMARK SMILES IDX 52 100 73 101 40 104 24 106 25 107 33 108 26 109 27 110
REMARK SMILES IDX 31 111 34 112 28 113 29 114 32 115 30 116 56 117 57 118
REMARK SMILES IDX 65 119 58 120 59 121 63 122 66 123 60 124 61 125 64 126
REMARK SMILES IDX 62 127 41 128 42 129 50 130 43 131 44 132 48 133 51 134
REMARK SMILES IDX 45 135 46 136 49 137 47 138
REMARK H PARENT 8 2 8 3 7 5 7 6 6 8 6 9 5 13 2 15 1 17 1 18 1 19 79 24 98 26
REMARK H PARENT 80 28 83 35 87 37 86 39 93 46 95 48 9 50 9 51 10 53 10 54
REMARK H PARENT 11 56 11 57 12 60 16 66 77 68 17 70 76 71 75 81 69 83 71 85
REMARK H PARENT 74 87 68 88 36 97 39 99 72 102 37 103 73 105
REMARK Flexibility Score: inf
ROOT
ATOM      1  C   UNL A   1      40.804  27.787  29.901  1.00  0.00    -0.052 C 
ATOM      2  H   UNL A   1      39.960  28.364  30.218  1.00  0.00     0.027 H 
ATOM      3  H   UNL A   1      40.924  26.876  30.449  1.00  0.00     0.027 H 
ENDROOT
BRANCH   1   4
ATOM      4  C   UNL A   1      42.071  28.615  30.160  1.00  0.00    -0.036 C 
ATOM      5  H   UNL A   1      42.566  28.214  31.020  1.00  0.00     0.028 H 
ATOM      6  H   UNL A   1      42.670  28.552  29.275  1.00  0.00     0.028 H 
BRANCH   4   7
ATOM      7  C   UNL A   1      41.802  30.100  30.409  1.00  0.00     0.017 C 
ATOM      8  H   UNL A   1      42.676  30.552  30.825  1.00  0.00     0.049 H 
ATOM      9  H   UNL A   1      41.552  30.569  29.479  1.00  0.00     0.049 H 
BRANCH   7  10
ATOM     10  N   UNL A   1      40.699  30.261  31.327  1.00  0.00    -0.356 N 
ATOM     11  C   UNL A   1      39.597  31.054  31.236  1.00  0.00     0.227 C 
ATOM     12  O   UNL A   1      38.873  31.090  32.233  1.00  0.00    -0.274 OA
ATOM     13  H   UNL A   1      40.752  29.712  32.142  1.00  0.00     0.163 HD
BRANCH  11  14
ATOM     14  C   UNL A   1      39.286  31.795  29.920  1.00  0.00     0.060 C 
ATOM     15  H   UNL A   1      40.145  31.640  29.301  1.00  0.00     0.045 H 
BRANCH  14  16
ATOM     16  C   UNL A   1      39.103  33.308  30.097  1.00  0.00    -0.049 C 
ATOM     17  H   UNL A   1      39.008  33.536  31.138  1.00  0.00     0.024 H 
ATOM     18  H   UNL A   1      38.221  33.624  29.581  1.00  0.00     0.024 H 
ATOM     19  H   UNL A   1      39.953  33.820  29.696  1.00  0.00     0.024 H 
ENDBRANCH  14  16
BRANCH  14  20
ATOM     20  C   UNL A   1      38.042  31.225  29.251  1.00  0.00    -0.034 A 
ATOM     21  C   UNL A   1      37.990  29.900  28.821  1.00  0.00    -0.057 A 
ATOM     22  C   UNL A   1      36.927  32.057  29.065  1.00  0.00    -0.033 A 
ATOM     23  C   UNL A   1      36.824  29.387  28.242  1.00  0.00    -0.052 A 
ATOM     24  H   UNL A   1      38.818  29.293  28.932  1.00  0.00     0.063 H 
ATOM     25  C   UNL A   1      35.782  31.557  28.429  1.00  0.00     0.058 A 
ATOM     26  H   UNL A   1      36.949  33.034  29.397  1.00  0.00     0.065 H 
ATOM     27  C   UNL A   1      35.700  30.223  28.056  1.00  0.00     0.008 A 
ATOM     28  H   UNL A   1      36.785  28.397  27.950  1.00  0.00     0.063 H 
ATOM     29  N   UNL A   1      34.587  32.200  28.093  1.00  0.00    -0.274 N 
ATOM     30  C   UNL A   1      34.400  30.019  27.521  1.00  0.00     0.009 A 
ATOM     31  C   UNL A   1      33.740  31.258  27.493  1.00  0.00     0.057 A 
ATOM     32  C   UNL A   1      33.756  28.872  27.010  1.00  0.00    -0.033 A 
ATOM     33  C   UNL A   1      32.494  31.387  26.849  1.00  0.00    -0.036 A 
ATOM     34  C   UNL A   1      32.501  28.997  26.422  1.00  0.00     0.041 A 
ATOM     35  H   UNL A   1      34.213  27.948  27.071  1.00  0.00     0.065 H 
ATOM     36  C   UNL A   1      31.887  30.239  26.322  1.00  0.00    -0.041 A 
ATOM     37  H   UNL A   1      32.038  32.309  26.767  1.00  0.00     0.065 H 
ATOM     38  Cl  UNL A   1      31.729  27.602  25.775  1.00  0.00    -0.084 Cl
ATOM     39  H   UNL A   1      30.971  30.317  25.854  1.00  0.00     0.064 H 
BRANCH  29  40
ATOM     40  C   UNL A   1      34.371  33.592  28.277  1.00  0.00     0.284 C 
ATOM     41  O   UNL A   1      34.663  34.308  27.314  1.00  0.00    -0.266 OA
BRANCH  40  42
ATOM     42  C   UNL A   1      33.879  34.220  29.500  1.00  0.00     0.167 A 
ATOM     43  C   UNL A   1      34.353  34.124  30.792  1.00  0.00     0.124 A 
ATOM     44  N   UNL A   1      32.865  35.172  29.480  1.00  0.00    -0.211 NA
ATOM     45  O   UNL A   1      33.646  34.987  31.579  1.00  0.00    -0.451 OA
ATOM     46  H   UNL A   1      35.115  33.503  31.109  1.00  0.00     0.107 H 
ATOM     47  C   UNL A   1      32.786  35.591  30.718  1.00  0.00     0.181 A 
ATOM     48  H   UNL A   1      32.122  36.324  31.016  1.00  0.00     0.127 H 
ENDBRANCH  40  42
ENDBRANCH  29  40
ENDBRANCH  14  20
ENDBRANCH  11  14
ENDBRANCH   7  10
ENDBRANCH   4   7
ENDBRANCH   1   4
BRANCH   1  49
ATOM     49  C   UNL A   1      40.584  27.386  28.439  1.00  0.00    -0.052 C 
ATOM     50  H   UNL A   1      41.541  27.239  27.986  1.00  0.00     0.027 H 
ATOM     51  H   UNL A   1      40.023  28.179  27.990  1.00  0.00     0.027 H 
BRANCH  49  52
ATOM     52  C   UNL A   1      39.763  26.110  28.244  1.00  0.00    -0.036 C 
ATOM     53  H   UNL A   1      38.757  26.308  28.551  1.00  0.00     0.028 H 
ATOM     54  H   UNL A   1      40.234  25.349  28.830  1.00  0.00     0.028 H 
BRANCH  52  55
ATOM     55  C   UNL A   1      39.733  25.601  26.810  1.00  0.00     0.018 C 
ATOM     56  H   UNL A   1      40.292  26.274  26.192  1.00  0.00     0.049 H 
ATOM     57  H   UNL A   1      38.711  25.550  26.497  1.00  0.00     0.049 H 
BRANCH  55  58
ATOM     58  N   UNL A   1      40.306  24.272  26.695  1.00  0.00    -0.352 N 
ATOM     59  C   UNL A   1      41.601  23.910  26.426  1.00  0.00     0.251 C 
ATOM     60  H   UNL A   1      39.676  23.528  26.831  1.00  0.00     0.163 HD
ATOM     61  O   UNL A   1      41.874  22.747  26.160  1.00  0.00    -0.269 OA
BRANCH  59  62
ATOM     62  C   UNL A   1      42.669  24.934  26.448  1.00  0.00     0.039 A 
ATOM     63  C   UNL A   1      43.351  25.167  27.643  1.00  0.00    -0.049 A 
ATOM     64  C   UNL A   1      42.973  25.682  25.307  1.00  0.00    -0.049 A 
ATOM     65  C   UNL A   1      44.351  26.139  27.689  1.00  0.00    -0.053 A 
ATOM     66  H   UNL A   1      43.116  24.624  28.489  1.00  0.00     0.063 H 
ATOM     67  C   UNL A   1      44.025  26.590  25.332  1.00  0.00    -0.053 A 
ATOM     68  H   UNL A   1      42.416  25.561  24.446  1.00  0.00     0.063 H 
ATOM     69  C   UNL A   1      44.704  26.851  26.531  1.00  0.00    -0.014 A 
ATOM     70  H   UNL A   1      44.834  26.337  28.580  1.00  0.00     0.063 H 
ATOM     71  H   UNL A   1      44.308  27.075  24.465  1.00  0.00     0.063 H 
BRANCH  69  72
ATOM     72  C   UNL A   1      45.738  27.914  26.575  1.00  0.00     0.031 A 
ATOM     73  C   UNL A   1      45.339  29.332  26.884  1.00  0.00     0.074 A 
ATOM     74  C   UNL A   1      47.022  27.616  26.304  1.00  0.00     0.049 A 
ATOM     75  N   UNL A   1      46.080  30.409  26.946  1.00  0.00    -0.248 NA
ATOM     76  C   UNL A   1      43.908  29.579  27.127  1.00  0.00    -0.034 C 
ATOM     77  C   UNL A   1      47.525  26.288  25.948  1.00  0.00    -0.036 A 
ATOM     78  N   UNL A   1      48.140  28.411  26.287  1.00  0.00    -0.354 N 
ATOM     79  C   UNL A   1      45.207  31.456  27.212  1.00  0.00     0.074 A 
ATOM     80  C   UNL A   1      43.874  30.898  27.240  1.00  0.00    -0.034 C 
ATOM     81  H   UNL A   1      43.133  28.901  27.192  1.00  0.00     0.065 H 
ATOM     82  C   UNL A   1      48.855  26.354  25.779  1.00  0.00    -0.036 A 
ATOM     83  H   UNL A   1      46.949  25.438  25.843  1.00  0.00     0.065 H 
ATOM     84  C   UNL A   1      49.294  27.732  25.983  1.00  0.00     0.049 A 
ATOM     85  H   UNL A   1      48.117  29.377  26.473  1.00  0.00     0.167 HD
ATOM     86  C   UNL A   1      45.492  32.760  27.439  1.00  0.00     0.037 A 
ATOM     87  H   UNL A   1      43.010  31.454  27.337  1.00  0.00     0.065 H 
ATOM     88  H   UNL A   1      49.469  25.558  25.544  1.00  0.00     0.065 H 
ATOM     89  C   UNL A   1      50.562  28.173  25.887  1.00  0.00     0.037 A 
ATOM     90  C   UNL A   1      46.825  33.303  27.445  1.00  0.00     0.049 A 
ATOM     91  C   UNL A   1      50.855  29.626  26.156  1.00  0.00     0.074 A 
ATOM     92  C   UNL A   1      47.230  34.596  27.729  1.00  0.00    -0.036 A 
ATOM     93  N   UNL A   1      47.973  32.579  27.154  1.00  0.00    -0.354 N 
ATOM     94  N   UNL A   1      50.030  30.592  26.481  1.00  0.00    -0.248 NA
ATOM     95  C   UNL A   1      52.260  30.044  26.058  1.00  0.00    -0.034 C 
ATOM     96  C   UNL A   1      48.617  34.665  27.561  1.00  0.00    -0.036 A 
ATOM     97  H   UNL A   1      46.616  35.373  28.014  1.00  0.00     0.065 H 
ATOM     98  C   UNL A   1      49.084  33.402  27.232  1.00  0.00     0.049 A 
ATOM     99  H   UNL A   1      47.993  31.621  26.927  1.00  0.00     0.167 HD
ATOM    100  C   UNL A   1      50.818  31.720  26.667  1.00  0.00     0.074 A 
ATOM    101  C   UNL A   1      52.188  31.315  26.428  1.00  0.00    -0.034 C 
ATOM    102  H   UNL A   1      53.085  29.494  25.776  1.00  0.00     0.065 H 
ATOM    103  H   UNL A   1      49.195  35.514  27.663  1.00  0.00     0.065 H 
ATOM    104  C   UNL A   1      50.443  32.977  27.009  1.00  0.00     0.037 A 
ATOM    105  H   UNL A   1      53.004  31.937  26.531  1.00  0.00     0.065 H 
BRANCH  86 106
ATOM    106  C   UNL A   1      44.340  33.689  27.697  1.00  0.00     0.064 A 
ATOM    107  C   UNL A   1      43.823  34.524  26.694  1.00  0.00     0.173 A 
ATOM    108  C   UNL A   1      43.728  33.727  28.959  1.00  0.00     0.173 A 
ATOM    109  F   UNL A   1      44.378  34.536  25.472  1.00  0.00    -0.203 F 
ATOM    110  C   UNL A   1      42.761  35.387  26.954  1.00  0.00     0.198 A 
ATOM    111  C   UNL A   1      42.643  34.566  29.206  1.00  0.00     0.198 A 
ATOM    112  F   UNL A   1      44.177  32.946  29.953  1.00  0.00    -0.203 F 
ATOM    113  F   UNL A   1      42.323  36.216  25.997  1.00  0.00    -0.200 F 
ATOM    114  C   UNL A   1      42.168  35.401  28.207  1.00  0.00     0.200 A 
ATOM    115  F   UNL A   1      42.061  34.568  30.413  1.00  0.00    -0.200 F 
ATOM    116  F   UNL A   1      41.143  36.228  28.455  1.00  0.00    -0.200 F 
ENDBRANCH  86 106
BRANCH  89 117
ATOM    117  C   UNL A   1      51.660  27.223  25.567  1.00  0.00     0.064 A 
ATOM    118  C   UNL A   1      52.321  26.522  26.586  1.00  0.00     0.173 A 
ATOM    119  C   UNL A   1      52.079  27.005  24.247  1.00  0.00     0.173 A 
ATOM    120  F   UNL A   1      51.970  26.710  27.865  1.00  0.00    -0.203 F 
ATOM    121  C   UNL A   1      53.377  25.659  26.298  1.00  0.00     0.198 A 
ATOM    122  C   UNL A   1      53.115  26.120  23.958  1.00  0.00     0.198 A 
ATOM    123  F   UNL A   1      51.474  27.646  23.236  1.00  0.00    -0.203 F 
ATOM    124  F   UNL A   1      54.025  25.041  27.295  1.00  0.00    -0.200 F 
ATOM    125  C   UNL A   1      53.770  25.455  24.983  1.00  0.00     0.200 A 
ATOM    126  F   UNL A   1      53.482  25.914  22.686  1.00  0.00    -0.200 F 
ATOM    127  F   UNL A   1      54.784  24.625  24.707  1.00  0.00    -0.200 F 
ENDBRANCH  89 117
BRANCH 104 128
ATOM    128  C   UNL A   1      51.532  33.992  27.205  1.00  0.00     0.064 A 
ATOM    129  C   UNL A   1      52.012  34.780  26.148  1.00  0.00     0.173 A 
ATOM    130  C   UNL A   1      52.082  34.198  28.480  1.00  0.00     0.173 A 
ATOM    131  F   UNL A   1      51.528  34.613  24.908  1.00  0.00    -0.203 F 
ATOM    132  C   UNL A   1      53.026  35.712  26.353  1.00  0.00     0.198 A 
ATOM    133  C   UNL A   1      53.071  35.155  28.688  1.00  0.00     0.198 A 
ATOM    134  F   UNL A   1      51.653  33.478  29.527  1.00  0.00    -0.203 F 
ATOM    135  F   UNL A   1      53.509  36.412  25.318  1.00  0.00    -0.200 F 
ATOM    136  C   UNL A   1      53.550  35.903  27.624  1.00  0.00     0.200 A 
ATOM    137  F   UNL A   1      53.565  35.349  29.919  1.00  0.00    -0.200 F 
ATOM    138  F   UNL A   1      54.523  36.803  27.820  1.00  0.00    -0.200 F 
ENDBRANCH 104 128
ENDBRANCH  69  72
ENDBRANCH  59  62
ENDBRANCH  55  58
ENDBRANCH  52  55
ENDBRANCH  49  52
ENDBRANCH   1  49
TORSDOF 17
ENDMDL
MODEL 6
REMARK VINA RESULT:     -10.3      8.172     12.061
REMARK SMILES C[C@@H](C(=O)NCCCCCCNC(=O)c1ccc(-c2c3nc(c(-c4c(F)c(F)c(F)c(F)c4F)c4ccc([nH]4)c(-c4c(F)c(F)c(F)c(F)c4F)c4nc(c(-c5c(F)c(F)c(F)c(F)c5F)c5ccc2[nH]5)C=C4)C=C3)cc1)c1ccc2c3cc(Cl)ccc3n(C(=O)c3cocn3)c2c1
REMARK SMILES IDX 8 1 7 4 6 7 5 10 3 11 4 12 2 14 1 16 78 20 79 21 98 22 80 23
REMARK SMILES IDX 97 25 81 27 89 29 82 30 88 31 83 32 87 33 84 34 86 36 85 38
REMARK SMILES IDX 90 40 91 41 92 42 93 43 96 44 94 45 95 47 9 49 10 52 11 55
REMARK SMILES IDX 12 58 13 59 14 61 15 62 16 63 77 64 17 65 76 67 18 69 19 72
REMARK SMILES IDX 20 73 70 74 21 75 75 76 69 77 71 78 22 79 74 80 68 82 67 84
REMARK SMILES IDX 23 86 55 89 35 90 54 91 36 92 39 93 53 94 72 95 37 96 38 98
REMARK SMILES IDX 52 100 73 101 40 104 24 106 25 107 33 108 26 109 27 110
REMARK SMILES IDX 31 111 34 112 28 113 29 114 32 115 30 116 56 117 57 118
REMARK SMILES IDX 65 119 58 120 59 121 63 122 66 123 60 124 61 125 64 126
REMARK SMILES IDX 62 127 41 128 42 129 50 130 43 131 44 132 48 133 51 134
REMARK SMILES IDX 45 135 46 136 49 137 47 138
REMARK H PARENT 8 2 8 3 7 5 7 6 6 8 6 9 5 13 2 15 1 17 1 18 1 19 79 24 98 26
REMARK H PARENT 80 28 83 35 87 37 86 39 93 46 95 48 9 50 9 51 10 53 10 54
REMARK H PARENT 11 56 11 57 12 60 16 66 77 68 17 70 76 71 75 81 69 83 71 85
REMARK H PARENT 74 87 68 88 36 97 39 99 72 102 37 103 73 105
REMARK Flexibility Score: inf
ROOT
ATOM      1  C   UNL A   1      45.090  21.814  35.503  1.00  0.00    -0.052 C 
ATOM      2  H   UNL A   1      44.414  22.594  35.786  1.00  0.00     0.027 H 
ATOM      3  H   UNL A   1      44.596  20.911  35.212  1.00  0.00     0.027 H 
ENDROOT
BRANCH   1   4
ATOM      4  C   UNL A   1      45.948  21.461  36.726  1.00  0.00    -0.036 C 
ATOM      5  H   UNL A   1      46.940  21.827  36.560  1.00  0.00     0.028 H 
ATOM      6  H   UNL A   1      45.480  21.913  37.576  1.00  0.00     0.028 H 
BRANCH   4   7
ATOM      7  C   UNL A   1      46.031  19.960  37.013  1.00  0.00     0.017 C 
ATOM      8  H   UNL A   1      45.563  19.754  37.951  1.00  0.00     0.049 H 
ATOM      9  H   UNL A   1      45.533  19.428  36.228  1.00  0.00     0.049 H 
BRANCH   7  10
ATOM     10  N   UNL A   1      47.410  19.538  37.064  1.00  0.00    -0.356 N 
ATOM     11  C   UNL A   1      48.369  19.799  37.993  1.00  0.00     0.227 C 
ATOM     12  O   UNL A   1      49.508  19.414  37.719  1.00  0.00    -0.274 OA
ATOM     13  H   UNL A   1      47.701  18.973  36.312  1.00  0.00     0.163 HD
BRANCH  11  14
ATOM     14  C   UNL A   1      47.990  20.487  39.321  1.00  0.00     0.060 C 
ATOM     15  H   UNL A   1      47.066  20.990  39.122  1.00  0.00     0.045 H 
BRANCH  14  16
ATOM     16  C   UNL A   1      49.008  21.539  39.779  1.00  0.00    -0.049 C 
ATOM     17  H   UNL A   1      48.491  22.385  40.179  1.00  0.00     0.024 H 
ATOM     18  H   UNL A   1      49.604  21.846  38.945  1.00  0.00     0.024 H 
ATOM     19  H   UNL A   1      49.640  21.118  40.533  1.00  0.00     0.024 H 
ENDBRANCH  14  16
BRANCH  14  20
ATOM     20  C   UNL A   1      47.805  19.464  40.434  1.00  0.00    -0.034 A 
ATOM     21  C   UNL A   1      48.876  19.045  41.222  1.00  0.00    -0.057 A 
ATOM     22  C   UNL A   1      46.526  18.934  40.667  1.00  0.00    -0.033 A 
ATOM     23  C   UNL A   1      48.677  18.132  42.263  1.00  0.00    -0.052 A 
ATOM     24  H   UNL A   1      49.823  19.412  41.035  1.00  0.00     0.063 H 
ATOM     25  C   UNL A   1      46.342  17.974  41.671  1.00  0.00     0.058 A 
ATOM     26  H   UNL A   1      45.723  19.253  40.102  1.00  0.00     0.065 H 
ATOM     27  C   UNL A   1      47.390  17.599  42.500  1.00  0.00     0.008 A 
ATOM     28  H   UNL A   1      49.471  17.847  42.858  1.00  0.00     0.063 H 
ATOM     29  N   UNL A   1      45.189  17.277  42.049  1.00  0.00    -0.274 N 
ATOM     30  C   UNL A   1      46.863  16.685  43.451  1.00  0.00     0.009 A 
ATOM     31  C   UNL A   1      45.518  16.446  43.128  1.00  0.00     0.057 A 
ATOM     32  C   UNL A   1      47.454  16.002  44.536  1.00  0.00    -0.033 A 
ATOM     33  C   UNL A   1      44.791  15.444  43.800  1.00  0.00    -0.036 A 
ATOM     34  C   UNL A   1      46.713  15.050  45.229  1.00  0.00     0.041 A 
ATOM     35  H   UNL A   1      48.427  16.208  44.811  1.00  0.00     0.065 H 
ATOM     36  C   UNL A   1      45.408  14.758  44.855  1.00  0.00    -0.041 A 
ATOM     37  H   UNL A   1      43.824  15.219  43.520  1.00  0.00     0.065 H 
ATOM     38  Cl  UNL A   1      47.443  14.200  46.535  1.00  0.00    -0.084 Cl
ATOM     39  H   UNL A   1      44.886  14.026  45.361  1.00  0.00     0.064 H 
BRANCH  29  40
ATOM     40  C   UNL A   1      43.953  17.379  41.355  1.00  0.00     0.284 C 
ATOM     41  O   UNL A   1      43.403  18.483  41.409  1.00  0.00    -0.266 OA
BRANCH  40  42
ATOM     42  C   UNL A   1      43.290  16.294  40.639  1.00  0.00     0.167 A 
ATOM     43  C   UNL A   1      43.537  15.790  39.379  1.00  0.00     0.124 A 
ATOM     44  N   UNL A   1      42.333  15.489  41.248  1.00  0.00    -0.211 NA
ATOM     45  O   UNL A   1      42.744  14.695  39.186  1.00  0.00    -0.451 OA
ATOM     46  H   UNL A   1      44.208  16.176  38.696  1.00  0.00     0.107 H 
ATOM     47  C   UNL A   1      42.066  14.568  40.357  1.00  0.00     0.181 A 
ATOM     48  H   UNL A   1      41.392  13.805  40.530  1.00  0.00     0.127 H 
ENDBRANCH  40  42
ENDBRANCH  29  40
ENDBRANCH  14  20
ENDBRANCH  11  14
ENDBRANCH   7  10
ENDBRANCH   4   7
ENDBRANCH   1   4
BRANCH   1  49
ATOM     49  C   UNL A   1      45.878  22.288  34.278  1.00  0.00    -0.052 C 
ATOM     50  H   UNL A   1      45.537  23.269  34.022  1.00  0.00     0.027 H 
ATOM     51  H   UNL A   1      45.702  21.567  33.508  1.00  0.00     0.027 H 
BRANCH  49  52
ATOM     52  C   UNL A   1      47.394  22.348  34.477  1.00  0.00    -0.036 C 
ATOM     53  H   UNL A   1      47.859  21.819  33.672  1.00  0.00     0.028 H 
ATOM     54  H   UNL A   1      47.596  21.909  35.433  1.00  0.00     0.028 H 
BRANCH  52  55
ATOM     55  C   UNL A   1      47.963  23.758  34.515  1.00  0.00     0.018 C 
ATOM     56  H   UNL A   1      47.320  24.406  33.956  1.00  0.00     0.049 H 
ATOM     57  H   UNL A   1      48.945  23.731  34.090  1.00  0.00     0.049 H 
BRANCH  55  58
ATOM     58  N   UNL A   1      48.074  24.261  35.872  1.00  0.00    -0.352 N 
ATOM     59  C   UNL A   1      47.469  25.353  36.441  1.00  0.00     0.251 C 
ATOM     60  H   UNL A   1      48.665  23.746  36.467  1.00  0.00     0.163 HD
ATOM     61  O   UNL A   1      47.830  25.757  37.538  1.00  0.00    -0.269 OA
BRANCH  59  62
ATOM     62  C   UNL A   1      46.382  26.049  35.718  1.00  0.00     0.039 A 
ATOM     63  C   UNL A   1      45.091  25.521  35.777  1.00  0.00    -0.049 A 
ATOM     64  C   UNL A   1      46.640  27.195  34.960  1.00  0.00    -0.049 A 
ATOM     65  C   UNL A   1      44.054  26.154  35.089  1.00  0.00    -0.053 A 
ATOM     66  H   UNL A   1      44.904  24.667  36.325  1.00  0.00     0.063 H 
ATOM     67  C   UNL A   1      45.592  27.871  34.345  1.00  0.00    -0.053 A 
ATOM     68  H   UNL A   1      47.608  27.539  34.856  1.00  0.00     0.063 H 
ATOM     69  C   UNL A   1      44.295  27.341  34.377  1.00  0.00    -0.014 A 
ATOM     70  H   UNL A   1      43.105  25.747  35.103  1.00  0.00     0.063 H 
ATOM     71  H   UNL A   1      45.770  28.767  33.862  1.00  0.00     0.063 H 
BRANCH  69  72
ATOM     72  C   UNL A   1      43.210  28.001  33.609  1.00  0.00     0.031 A 
ATOM     73  C   UNL A   1      43.020  27.675  32.152  1.00  0.00     0.074 A 
ATOM     74  C   UNL A   1      42.424  28.916  34.207  1.00  0.00     0.049 A 
ATOM     75  N   UNL A   1      42.152  28.158  31.299  1.00  0.00    -0.248 NA
ATOM     76  C   UNL A   1      43.949  26.694  31.567  1.00  0.00    -0.034 C 
ATOM     77  C   UNL A   1      42.540  29.350  35.600  1.00  0.00    -0.036 A 
ATOM     78  N   UNL A   1      41.371  29.646  33.717  1.00  0.00    -0.354 N 
ATOM     79  C   UNL A   1      42.446  27.559  30.081  1.00  0.00     0.074 A 
ATOM     80  C   UNL A   1      43.607  26.723  30.288  1.00  0.00    -0.034 C 
ATOM     81  H   UNL A   1      44.678  26.132  32.032  1.00  0.00     0.065 H 
ATOM     82  C   UNL A   1      41.574  30.245  35.861  1.00  0.00    -0.036 A 
ATOM     83  H   UNL A   1      43.249  29.020  36.273  1.00  0.00     0.065 H 
ATOM     84  C   UNL A   1      40.794  30.474  34.648  1.00  0.00     0.049 A 
ATOM     85  H   UNL A   1      41.059  29.584  32.785  1.00  0.00     0.167 HD
ATOM     86  C   UNL A   1      41.789  27.674  28.901  1.00  0.00     0.037 A 
ATOM     87  H   UNL A   1      44.102  26.216  29.539  1.00  0.00     0.065 H 
ATOM     88  H   UNL A   1      41.410  30.700  36.774  1.00  0.00     0.065 H 
ATOM     89  C   UNL A   1      39.750  31.315  34.535  1.00  0.00     0.037 A 
ATOM     90  C   UNL A   1      40.612  28.479  28.710  1.00  0.00     0.049 A 
ATOM     91  C   UNL A   1      39.030  31.415  33.216  1.00  0.00     0.074 A 
ATOM     92  C   UNL A   1      39.832  28.613  27.575  1.00  0.00    -0.036 A 
ATOM     93  N   UNL A   1      40.043  29.287  29.685  1.00  0.00    -0.354 N 
ATOM     94  N   UNL A   1      39.269  30.787  32.090  1.00  0.00    -0.248 NA
ATOM     95  C   UNL A   1      37.884  32.333  33.158  1.00  0.00    -0.034 C 
ATOM     96  C   UNL A   1      38.821  29.541  27.847  1.00  0.00    -0.036 A 
ATOM     97  H   UNL A   1      39.973  28.116  26.683  1.00  0.00     0.065 H 
ATOM     98  C   UNL A   1      38.935  29.938  29.171  1.00  0.00     0.049 A 
ATOM     99  H   UNL A   1      40.378  29.382  30.606  1.00  0.00     0.167 HD
ATOM    100  C   UNL A   1      38.282  31.200  31.204  1.00  0.00     0.074 A 
ATOM    101  C   UNL A   1      37.435  32.126  31.928  1.00  0.00    -0.034 C 
ATOM    102  H   UNL A   1      37.523  32.971  33.884  1.00  0.00     0.065 H 
ATOM    103  H   UNL A   1      38.112  29.874  27.176  1.00  0.00     0.065 H 
ATOM    104  C   UNL A   1      38.091  30.842  29.911  1.00  0.00     0.037 A 
ATOM    105  H   UNL A   1      36.590  32.568  31.536  1.00  0.00     0.065 H 
BRANCH  86 106
ATOM    106  C   UNL A   1      42.333  26.911  27.727  1.00  0.00     0.064 A 
ATOM    107  C   UNL A   1      43.269  27.476  26.846  1.00  0.00     0.173 A 
ATOM    108  C   UNL A   1      41.933  25.587  27.492  1.00  0.00     0.173 A 
ATOM    109  F   UNL A   1      43.677  28.743  27.017  1.00  0.00    -0.203 F 
ATOM    110  C   UNL A   1      43.754  26.758  25.755  1.00  0.00     0.198 A 
ATOM    111  C   UNL A   1      42.447  24.860  26.421  1.00  0.00     0.198 A 
ATOM    112  F   UNL A   1      41.046  24.994  28.306  1.00  0.00    -0.203 F 
ATOM    113  F   UNL A   1      44.601  27.341  24.896  1.00  0.00    -0.200 F 
ATOM    114  C   UNL A   1      43.349  25.449  25.549  1.00  0.00     0.200 A 
ATOM    115  F   UNL A   1      42.065  23.589  26.231  1.00  0.00    -0.200 F 
ATOM    116  F   UNL A   1      43.821  24.758  24.503  1.00  0.00    -0.200 F 
ENDBRANCH  86 106
BRANCH  89 117
ATOM    117  C   UNL A   1      39.288  32.095  35.713  1.00  0.00     0.064 A 
ATOM    118  C   UNL A   1      38.387  31.540  36.632  1.00  0.00     0.173 A 
ATOM    119  C   UNL A   1      39.726  33.407  35.939  1.00  0.00     0.173 A 
ATOM    120  F   UNL A   1      37.925  30.295  36.450  1.00  0.00    -0.203 F 
ATOM    121  C   UNL A   1      37.920  32.278  37.718  1.00  0.00     0.198 A 
ATOM    122  C   UNL A   1      39.281  34.134  37.042  1.00  0.00     0.198 A 
ATOM    123  F   UNL A   1      40.594  33.982  35.093  1.00  0.00    -0.203 F 
ATOM    124  F   UNL A   1      37.019  31.741  38.553  1.00  0.00    -0.200 F 
ATOM    125  C   UNL A   1      38.371  33.573  37.925  1.00  0.00     0.200 A 
ATOM    126  F   UNL A   1      39.731  35.380  37.247  1.00  0.00    -0.200 F 
ATOM    127  F   UNL A   1      37.923  34.282  38.970  1.00  0.00    -0.200 F 
ENDBRANCH  89 117
BRANCH 104 128
ATOM    128  C   UNL A   1      36.888  31.405  29.211  1.00  0.00     0.064 A 
ATOM    129  C   UNL A   1      36.821  32.749  28.812  1.00  0.00     0.173 A 
ATOM    130  C   UNL A   1      35.796  30.575  28.910  1.00  0.00     0.173 A 
ATOM    131  F   UNL A   1      37.832  33.585  29.088  1.00  0.00    -0.203 F 
ATOM    132  C   UNL A   1      35.692  33.248  28.169  1.00  0.00     0.198 A 
ATOM    133  C   UNL A   1      34.683  31.071  28.235  1.00  0.00     0.198 A 
ATOM    134  F   UNL A   1      35.812  29.282  29.261  1.00  0.00    -0.203 F 
ATOM    135  F   UNL A   1      35.626  34.548  27.849  1.00  0.00    -0.200 F 
ATOM    136  C   UNL A   1      34.627  32.408  27.875  1.00  0.00     0.200 A 
ATOM    137  F   UNL A   1      33.663  30.254  27.939  1.00  0.00    -0.200 F 
ATOM    138  F   UNL A   1      33.544  32.890  27.252  1.00  0.00    -0.200 F 
ENDBRANCH 104 128
ENDBRANCH  69  72
ENDBRANCH  59  62
ENDBRANCH  55  58
ENDBRANCH  52  55
ENDBRANCH  49  52
ENDBRANCH   1  49
TORSDOF 17
ENDMDL
MODEL 7
REMARK VINA RESULT:     -10.0      5.256     12.189
REMARK SMILES C[C@@H](C(=O)NCCCCCCNC(=O)c1ccc(-c2c3nc(c(-c4c(F)c(F)c(F)c(F)c4F)c4ccc([nH]4)c(-c4c(F)c(F)c(F)c(F)c4F)c4nc(c(-c5c(F)c(F)c(F)c(F)c5F)c5ccc2[nH]5)C=C4)C=C3)cc1)c1ccc2c3cc(Cl)ccc3n(C(=O)c3cocn3)c2c1
REMARK SMILES IDX 8 1 7 4 6 7 5 10 3 11 4 12 2 14 1 16 78 20 79 21 98 22 80 23
REMARK SMILES IDX 97 25 81 27 89 29 82 30 88 31 83 32 87 33 84 34 86 36 85 38
REMARK SMILES IDX 90 40 91 41 92 42 93 43 96 44 94 45 95 47 9 49 10 52 11 55
REMARK SMILES IDX 12 58 13 59 14 61 15 62 16 63 77 64 17 65 76 67 18 69 19 72
REMARK SMILES IDX 20 73 70 74 21 75 75 76 69 77 71 78 22 79 74 80 68 82 67 84
REMARK SMILES IDX 23 86 55 89 35 90 54 91 36 92 39 93 53 94 72 95 37 96 38 98
REMARK SMILES IDX 52 100 73 101 40 104 24 106 25 107 33 108 26 109 27 110
REMARK SMILES IDX 31 111 34 112 28 113 29 114 32 115 30 116 56 117 57 118
REMARK SMILES IDX 65 119 58 120 59 121 63 122 66 123 60 124 61 125 64 126
REMARK SMILES IDX 62 127 41 128 42 129 50 130 43 131 44 132 48 133 51 134
REMARK SMILES IDX 45 135 46 136 49 137 47 138
REMARK H PARENT 8 2 8 3 7 5 7 6 6 8 6 9 5 13 2 15 1 17 1 18 1 19 79 24 98 26
REMARK H PARENT 80 28 83 35 87 37 86 39 93 46 95 48 9 50 9 51 10 53 10 54
REMARK H PARENT 11 56 11 57 12 60 16 66 77 68 17 70 76 71 75 81 69 83 71 85
REMARK H PARENT 74 87 68 88 36 97 39 99 72 102 37 103 73 105
REMARK Flexibility Score: inf
ROOT
ATOM      1  C   UNL A   1      41.413  28.035  28.394  1.00  0.00    -0.052 C 
ATOM      2  H   UNL A   1      42.349  27.557  28.192  1.00  0.00     0.027 H 
ATOM      3  H   UNL A   1      41.427  29.088  28.208  1.00  0.00     0.027 H 
ENDROOT
BRANCH   1   4
ATOM      4  C   UNL A   1      41.106  27.866  29.889  1.00  0.00    -0.036 C 
ATOM      5  H   UNL A   1      40.047  27.764  30.006  1.00  0.00     0.028 H 
ATOM      6  H   UNL A   1      41.641  27.002  30.221  1.00  0.00     0.028 H 
BRANCH   4   7
ATOM      7  C   UNL A   1      41.574  29.038  30.754  1.00  0.00     0.017 C 
ATOM      8  H   UNL A   1      42.443  28.745  31.304  1.00  0.00     0.049 H 
ATOM      9  H   UNL A   1      41.804  29.869  30.120  1.00  0.00     0.049 H 
BRANCH   7  10
ATOM     10  N   UNL A   1      40.533  29.425  31.676  1.00  0.00    -0.356 N 
ATOM     11  C   UNL A   1      39.686  30.489  31.639  1.00  0.00     0.227 C 
ATOM     12  O   UNL A   1      38.974  30.649  32.632  1.00  0.00    -0.274 OA
ATOM     13  H   UNL A   1      40.418  28.827  32.450  1.00  0.00     0.163 HD
BRANCH  11  14
ATOM     14  C   UNL A   1      39.616  31.375  30.378  1.00  0.00     0.060 C 
ATOM     15  H   UNL A   1      40.523  31.178  29.846  1.00  0.00     0.045 H 
BRANCH  14  16
ATOM     16  C   UNL A   1      39.570  32.878  30.687  1.00  0.00    -0.049 C 
ATOM     17  H   UNL A   1      40.254  33.394  30.047  1.00  0.00     0.024 H 
ATOM     18  H   UNL A   1      39.843  33.040  31.708  1.00  0.00     0.024 H 
ATOM     19  H   UNL A   1      38.579  33.245  30.521  1.00  0.00     0.024 H 
ENDBRANCH  14  16
BRANCH  14  20
ATOM     20  C   UNL A   1      38.410  31.013  29.520  1.00  0.00    -0.034 A 
ATOM     21  C   UNL A   1      38.501  30.065  28.501  1.00  0.00    -0.057 A 
ATOM     22  C   UNL A   1      37.185  31.652  29.764  1.00  0.00    -0.033 A 
ATOM     23  C   UNL A   1      37.373  29.722  27.750  1.00  0.00    -0.052 A 
ATOM     24  H   UNL A   1      39.408  29.614  28.302  1.00  0.00     0.063 H 
ATOM     25  C   UNL A   1      36.071  31.349  28.968  1.00  0.00     0.058 A 
ATOM     26  H   UNL A   1      37.103  32.340  30.528  1.00  0.00     0.065 H 
ATOM     27  C   UNL A   1      36.137  30.362  27.995  1.00  0.00     0.008 A 
ATOM     28  H   UNL A   1      37.442  29.000  27.015  1.00  0.00     0.063 H 
ATOM     29  N   UNL A   1      34.779  31.884  28.990  1.00  0.00    -0.274 N 
ATOM     30  C   UNL A   1      34.838  30.244  27.433  1.00  0.00     0.009 A 
ATOM     31  C   UNL A   1      34.021  31.228  28.011  1.00  0.00     0.057 A 
ATOM     32  C   UNL A   1      34.314  29.399  26.431  1.00  0.00    -0.033 A 
ATOM     33  C   UNL A   1      32.723  31.457  27.514  1.00  0.00    -0.036 A 
ATOM     34  C   UNL A   1      33.013  29.597  25.981  1.00  0.00     0.041 A 
ATOM     35  H   UNL A   1      34.892  28.640  26.036  1.00  0.00     0.065 H 
ATOM     36  C   UNL A   1      32.234  30.625  26.498  1.00  0.00    -0.041 A 
ATOM     37  H   UNL A   1      32.144  32.224  27.890  1.00  0.00     0.065 H 
ATOM     38  Cl  UNL A   1      32.384  28.583  24.741  1.00  0.00    -0.084 Cl
ATOM     39  H   UNL A   1      31.283  30.777  26.129  1.00  0.00     0.064 H 
BRANCH  29  40
ATOM     40  C   UNL A   1      34.395  32.966  29.827  1.00  0.00     0.284 C 
ATOM     41  O   UNL A   1      34.307  32.702  31.030  1.00  0.00    -0.266 OA
BRANCH  40  42
ATOM     42  C   UNL A   1      34.072  34.316  29.375  1.00  0.00     0.167 A 
ATOM     43  C   UNL A   1      34.698  35.102  28.431  1.00  0.00     0.124 A 
ATOM     44  N   UNL A   1      32.917  34.971  29.789  1.00  0.00    -0.211 NA
ATOM     45  O   UNL A   1      33.963  36.240  28.258  1.00  0.00    -0.451 OA
ATOM     46  H   UNL A   1      35.575  34.869  27.938  1.00  0.00     0.107 H 
ATOM     47  C   UNL A   1      32.903  36.080  29.093  1.00  0.00     0.181 A 
ATOM     48  H   UNL A   1      32.146  36.778  29.172  1.00  0.00     0.127 H 
ENDBRANCH  40  42
ENDBRANCH  29  40
ENDBRANCH  14  20
ENDBRANCH  11  14
ENDBRANCH   7  10
ENDBRANCH   4   7
ENDBRANCH   1   4
BRANCH   1  49
ATOM     49  C   UNL A   1      40.363  27.444  27.449  1.00  0.00    -0.052 C 
ATOM     50  H   UNL A   1      40.712  27.564  26.446  1.00  0.00     0.027 H 
ATOM     51  H   UNL A   1      39.452  27.969  27.644  1.00  0.00     0.027 H 
BRANCH  49  52
ATOM     52  C   UNL A   1      40.063  25.960  27.674  1.00  0.00    -0.036 C 
ATOM     53  H   UNL A   1      39.144  25.882  28.217  1.00  0.00     0.028 H 
ATOM     54  H   UNL A   1      40.897  25.556  28.210  1.00  0.00     0.028 H 
BRANCH  52  55
ATOM     55  C   UNL A   1      39.932  25.149  26.394  1.00  0.00     0.018 C 
ATOM     56  H   UNL A   1      40.365  25.704  25.587  1.00  0.00     0.049 H 
ATOM     57  H   UNL A   1      38.892  24.967  26.221  1.00  0.00     0.049 H 
BRANCH  55  58
ATOM     58  N   UNL A   1      40.603  23.866  26.495  1.00  0.00    -0.352 N 
ATOM     59  C   UNL A   1      41.945  23.585  26.440  1.00  0.00     0.251 C 
ATOM     60  H   UNL A   1      40.012  23.089  26.623  1.00  0.00     0.163 HD
ATOM     61  O   UNL A   1      42.330  22.428  26.335  1.00  0.00    -0.269 OA
BRANCH  59  62
ATOM     62  C   UNL A   1      42.928  24.689  26.495  1.00  0.00     0.039 A 
ATOM     63  C   UNL A   1      43.138  25.459  25.350  1.00  0.00    -0.049 A 
ATOM     64  C   UNL A   1      43.663  24.942  27.657  1.00  0.00    -0.049 A 
ATOM     65  C   UNL A   1      44.072  26.496  25.376  1.00  0.00    -0.053 A 
ATOM     66  H   UNL A   1      42.605  25.263  24.488  1.00  0.00     0.063 H 
ATOM     67  C   UNL A   1      44.532  26.026  27.707  1.00  0.00    -0.053 A 
ATOM     68  H   UNL A   1      43.562  24.324  28.477  1.00  0.00     0.063 H 
ATOM     69  C   UNL A   1      44.769  26.795  26.558  1.00  0.00    -0.014 A 
ATOM     70  H   UNL A   1      44.253  27.045  24.521  1.00  0.00     0.063 H 
ATOM     71  H   UNL A   1      45.005  26.267  28.593  1.00  0.00     0.063 H 
BRANCH  69  72
ATOM     72  C   UNL A   1      45.793  27.868  26.589  1.00  0.00     0.031 A 
ATOM     73  C   UNL A   1      45.380  29.287  26.872  1.00  0.00     0.074 A 
ATOM     74  C   UNL A   1      47.081  27.576  26.327  1.00  0.00     0.049 A 
ATOM     75  N   UNL A   1      46.113  30.372  26.919  1.00  0.00    -0.248 NA
ATOM     76  C   UNL A   1      43.947  29.525  27.106  1.00  0.00    -0.034 C 
ATOM     77  C   UNL A   1      47.596  26.247  25.995  1.00  0.00    -0.036 A 
ATOM     78  N   UNL A   1      48.192  28.380  26.301  1.00  0.00    -0.354 N 
ATOM     79  C   UNL A   1      45.229  31.415  27.164  1.00  0.00     0.074 A 
ATOM     80  C   UNL A   1      43.901  30.845  27.197  1.00  0.00    -0.034 C 
ATOM     81  H   UNL A   1      43.178  28.842  27.179  1.00  0.00     0.065 H 
ATOM     82  C   UNL A   1      48.926  26.322  25.831  1.00  0.00    -0.036 A 
ATOM     83  H   UNL A   1      47.028  25.391  25.902  1.00  0.00     0.065 H 
ATOM     84  C   UNL A   1      49.353  27.706  26.013  1.00  0.00     0.049 A 
ATOM     85  H   UNL A   1      48.160  29.350  26.471  1.00  0.00     0.167 HD
ATOM     86  C   UNL A   1      45.503  32.725  27.371  1.00  0.00     0.037 A 
ATOM     87  H   UNL A   1      43.032  31.396  27.281  1.00  0.00     0.065 H 
ATOM     88  H   UNL A   1      49.548  25.527  25.610  1.00  0.00     0.065 H 
ATOM     89  C   UNL A   1      50.617  28.156  25.915  1.00  0.00     0.037 A 
ATOM     90  C   UNL A   1      46.831  33.280  27.373  1.00  0.00     0.049 A 
ATOM     91  C   UNL A   1      50.897  29.616  26.160  1.00  0.00     0.074 A 
ATOM     92  C   UNL A   1      47.223  34.580  27.637  1.00  0.00    -0.036 A 
ATOM     93  N   UNL A   1      47.985  32.560  27.099  1.00  0.00    -0.354 N 
ATOM     94  N   UNL A   1      50.063  30.580  26.466  1.00  0.00    -0.248 NA
ATOM     95  C   UNL A   1      52.298  30.045  26.061  1.00  0.00    -0.034 C 
ATOM     96  C   UNL A   1      48.611  34.658  27.473  1.00  0.00    -0.036 A 
ATOM     97  H   UNL A   1      46.601  35.356  27.907  1.00  0.00     0.065 H 
ATOM     98  C   UNL A   1      49.089  33.394  27.167  1.00  0.00     0.049 A 
ATOM     99  H   UNL A   1      48.015  31.599  26.888  1.00  0.00     0.167 HD
ATOM    100  C   UNL A   1      50.840  31.718  26.636  1.00  0.00     0.074 A 
ATOM    101  C   UNL A   1      52.214  31.321  26.409  1.00  0.00    -0.034 C 
ATOM    102  H   UNL A   1      53.129  29.497  25.791  1.00  0.00     0.065 H 
ATOM    103  H   UNL A   1      49.181  35.514  27.564  1.00  0.00     0.065 H 
ATOM    104  C   UNL A   1      50.452  32.977  26.956  1.00  0.00     0.037 A 
ATOM    105  H   UNL A   1      53.025  31.952  26.505  1.00  0.00     0.065 H 
BRANCH  86 106
ATOM    106  C   UNL A   1      44.341  33.648  27.609  1.00  0.00     0.064 A 
ATOM    107  C   UNL A   1      43.763  33.799  28.879  1.00  0.00     0.173 A 
ATOM    108  C   UNL A   1      43.815  34.413  26.557  1.00  0.00     0.173 A 
ATOM    109  F   UNL A   1      44.221  33.083  29.918  1.00  0.00    -0.203 F 
ATOM    110  C   UNL A   1      42.680  34.651  29.079  1.00  0.00     0.198 A 
ATOM    111  C   UNL A   1      42.754  35.290  26.768  1.00  0.00     0.198 A 
ATOM    112  F   UNL A   1      44.332  34.313  25.323  1.00  0.00    -0.203 F 
ATOM    113  F   UNL A   1      42.109  34.733  30.289  1.00  0.00    -0.200 F 
ATOM    114  C   UNL A   1      42.182  35.401  28.026  1.00  0.00     0.200 A 
ATOM    115  F   UNL A   1      42.282  36.026  25.751  1.00  0.00    -0.200 F 
ATOM    116  F   UNL A   1      41.143  36.225  28.221  1.00  0.00    -0.200 F 
ENDBRANCH  86 106
BRANCH  89 117
ATOM    117  C   UNL A   1      51.725  27.211  25.615  1.00  0.00     0.064 A 
ATOM    118  C   UNL A   1      52.141  26.991  24.294  1.00  0.00     0.173 A 
ATOM    119  C   UNL A   1      52.379  26.503  26.632  1.00  0.00     0.173 A 
ATOM    120  F   UNL A   1      51.534  27.630  23.285  1.00  0.00    -0.203 F 
ATOM    121  C   UNL A   1      53.152  26.078  24.001  1.00  0.00     0.198 A 
ATOM    122  C   UNL A   1      53.411  25.612  26.340  1.00  0.00     0.198 A 
ATOM    123  F   UNL A   1      52.023  26.683  27.913  1.00  0.00    -0.203 F 
ATOM    124  F   UNL A   1      53.496  25.849  22.726  1.00  0.00    -0.200 F 
ATOM    125  C   UNL A   1      53.790  25.393  25.025  1.00  0.00     0.200 A 
ATOM    126  F   UNL A   1      54.034  24.964  27.333  1.00  0.00    -0.200 F 
ATOM    127  F   UNL A   1      54.762  24.516  24.742  1.00  0.00    -0.200 F 
ENDBRANCH  89 117
BRANCH 104 128
ATOM    128  C   UNL A   1      51.532  34.005  27.139  1.00  0.00     0.064 A 
ATOM    129  C   UNL A   1      52.230  34.142  28.349  1.00  0.00     0.173 A 
ATOM    130  C   UNL A   1      51.892  34.847  26.075  1.00  0.00     0.173 A 
ATOM    131  F   UNL A   1      51.914  33.371  29.401  1.00  0.00    -0.203 F 
ATOM    132  C   UNL A   1      53.223  35.106  28.497  1.00  0.00     0.198 A 
ATOM    133  C   UNL A   1      52.910  35.785  26.216  1.00  0.00     0.198 A 
ATOM    134  F   UNL A   1      51.264  34.751  24.895  1.00  0.00    -0.203 F 
ATOM    135  F   UNL A   1      53.836  35.258  29.680  1.00  0.00    -0.200 F 
ATOM    136  C   UNL A   1      53.568  35.922  27.429  1.00  0.00     0.200 A 
ATOM    137  F   UNL A   1      53.252  36.562  25.178  1.00  0.00    -0.200 F 
ATOM    138  F   UNL A   1      54.527  36.846  27.572  1.00  0.00    -0.200 F 
ENDBRANCH 104 128
ENDBRANCH  69  72
ENDBRANCH  59  62
ENDBRANCH  55  58
ENDBRANCH  52  55
ENDBRANCH  49  52
ENDBRANCH   1  49
TORSDOF 17
ENDMDL
MODEL 8
REMARK VINA RESULT:      -9.9      5.531     12.369
REMARK SMILES C[C@@H](C(=O)NCCCCCCNC(=O)c1ccc(-c2c3nc(c(-c4c(F)c(F)c(F)c(F)c4F)c4ccc([nH]4)c(-c4c(F)c(F)c(F)c(F)c4F)c4nc(c(-c5c(F)c(F)c(F)c(F)c5F)c5ccc2[nH]5)C=C4)C=C3)cc1)c1ccc2c3cc(Cl)ccc3n(C(=O)c3cocn3)c2c1
REMARK SMILES IDX 8 1 7 4 6 7 5 10 3 11 4 12 2 14 1 16 78 20 79 21 98 22 80 23
REMARK SMILES IDX 97 25 81 27 89 29 82 30 88 31 83 32 87 33 84 34 86 36 85 38
REMARK SMILES IDX 90 40 91 41 92 42 93 43 96 44 94 45 95 47 9 49 10 52 11 55
REMARK SMILES IDX 12 58 13 59 14 61 15 62 16 63 77 64 17 65 76 67 18 69 19 72
REMARK SMILES IDX 20 73 70 74 21 75 75 76 69 77 71 78 22 79 74 80 68 82 67 84
REMARK SMILES IDX 23 86 55 89 35 90 54 91 36 92 39 93 53 94 72 95 37 96 38 98
REMARK SMILES IDX 52 100 73 101 40 104 24 106 25 107 33 108 26 109 27 110
REMARK SMILES IDX 31 111 34 112 28 113 29 114 32 115 30 116 56 117 57 118
REMARK SMILES IDX 65 119 58 120 59 121 63 122 66 123 60 124 61 125 64 126
REMARK SMILES IDX 62 127 41 128 42 129 50 130 43 131 44 132 48 133 51 134
REMARK SMILES IDX 45 135 46 136 49 137 47 138
REMARK H PARENT 8 2 8 3 7 5 7 6 6 8 6 9 5 13 2 15 1 17 1 18 1 19 79 24 98 26
REMARK H PARENT 80 28 83 35 87 37 86 39 93 46 95 48 9 50 9 51 10 53 10 54
REMARK H PARENT 11 56 11 57 12 60 16 66 77 68 17 70 76 71 75 81 69 83 71 85
REMARK H PARENT 74 87 68 88 36 97 39 99 72 102 37 103 73 105
REMARK Flexibility Score: inf
ROOT
ATOM      1  C   UNL A   1      34.200  33.617  33.055  1.00  0.00    -0.052 C 
ATOM      2  H   UNL A   1      33.739  32.652  33.083  1.00  0.00     0.027 H 
ATOM      3  H   UNL A   1      33.502  34.422  33.160  1.00  0.00     0.027 H 
ENDROOT
BRANCH   1   4
ATOM      4  C   UNL A   1      34.855  33.793  31.678  1.00  0.00    -0.036 C 
ATOM      5  H   UNL A   1      34.487  34.699  31.242  1.00  0.00     0.028 H 
ATOM      6  H   UNL A   1      35.913  33.815  31.837  1.00  0.00     0.028 H 
BRANCH   4   7
ATOM      7  C   UNL A   1      34.577  32.644  30.707  1.00  0.00     0.017 C 
ATOM      8  H   UNL A   1      35.007  31.745  31.093  1.00  0.00     0.049 H 
ATOM      9  H   UNL A   1      33.518  32.528  30.599  1.00  0.00     0.049 H 
BRANCH   7  10
ATOM     10  N   UNL A   1      35.152  32.932  29.415  1.00  0.00    -0.356 N 
ATOM     11  C   UNL A   1      35.432  32.096  28.379  1.00  0.00     0.227 C 
ATOM     12  O   UNL A   1      36.045  32.593  27.432  1.00  0.00    -0.274 OA
ATOM     13  H   UNL A   1      35.374  33.878  29.259  1.00  0.00     0.163 HD
BRANCH  11  14
ATOM     14  C   UNL A   1      34.936  30.636  28.410  1.00  0.00     0.060 C 
ATOM     15  H   UNL A   1      34.586  30.480  29.409  1.00  0.00     0.045 H 
BRANCH  14  16
ATOM     16  C   UNL A   1      36.041  29.607  28.134  1.00  0.00    -0.049 C 
ATOM     17  H   UNL A   1      36.817  30.064  27.556  1.00  0.00     0.024 H 
ATOM     18  H   UNL A   1      35.632  28.780  27.593  1.00  0.00     0.024 H 
ATOM     19  H   UNL A   1      36.445  29.261  29.062  1.00  0.00     0.024 H 
ENDBRANCH  14  16
BRANCH  14  20
ATOM     20  C   UNL A   1      33.805  30.419  27.413  1.00  0.00    -0.034 A 
ATOM     21  C   UNL A   1      32.849  31.406  27.173  1.00  0.00    -0.057 A 
ATOM     22  C   UNL A   1      33.727  29.198  26.726  1.00  0.00    -0.033 A 
ATOM     23  C   UNL A   1      31.840  31.199  26.227  1.00  0.00    -0.052 A 
ATOM     24  H   UNL A   1      32.888  32.294  27.697  1.00  0.00     0.063 H 
ATOM     25  C   UNL A   1      32.679  28.972  25.823  1.00  0.00     0.058 A 
ATOM     26  H   UNL A   1      34.441  28.470  26.883  1.00  0.00     0.065 H 
ATOM     27  C   UNL A   1      31.761  29.972  25.532  1.00  0.00     0.008 A 
ATOM     28  H   UNL A   1      31.151  31.945  26.036  1.00  0.00     0.063 H 
ATOM     29  N   UNL A   1      32.370  27.834  25.070  1.00  0.00    -0.274 N 
ATOM     30  C   UNL A   1      30.890  29.459  24.533  1.00  0.00     0.009 A 
ATOM     31  C   UNL A   1      31.236  28.119  24.298  1.00  0.00     0.057 A 
ATOM     32  C   UNL A   1      29.795  30.030  23.850  1.00  0.00    -0.033 A 
ATOM     33  C   UNL A   1      30.427  27.309  23.479  1.00  0.00    -0.036 A 
ATOM     34  C   UNL A   1      29.030  29.236  23.001  1.00  0.00     0.041 A 
ATOM     35  H   UNL A   1      29.564  31.028  23.979  1.00  0.00     0.065 H 
ATOM     36  C   UNL A   1      29.327  27.890  22.834  1.00  0.00    -0.041 A 
ATOM     37  H   UNL A   1      30.639  26.306  23.357  1.00  0.00     0.065 H 
ATOM     38  Cl  UNL A   1      27.680  29.926  22.188  1.00  0.00    -0.084 Cl
ATOM     39  H   UNL A   1      28.729  27.309  22.225  1.00  0.00     0.064 H 
BRANCH  29  40
ATOM     40  C   UNL A   1      33.075  26.607  25.186  1.00  0.00     0.284 C 
ATOM     41  O   UNL A   1      34.091  26.510  24.491  1.00  0.00    -0.266 OA
BRANCH  40  42
ATOM     42  C   UNL A   1      32.675  25.473  26.014  1.00  0.00     0.167 A 
ATOM     43  C   UNL A   1      31.472  25.219  26.638  1.00  0.00     0.124 A 
ATOM     44  N   UNL A   1      33.493  24.359  26.177  1.00  0.00    -0.211 NA
ATOM     45  O   UNL A   1      31.527  23.975  27.197  1.00  0.00    -0.451 OA
ATOM     46  H   UNL A   1      30.665  25.862  26.675  1.00  0.00     0.107 H 
ATOM     47  C   UNL A   1      32.762  23.516  26.863  1.00  0.00     0.181 A 
ATOM     48  H   UNL A   1      33.098  22.576  27.130  1.00  0.00     0.127 H 
ENDBRANCH  40  42
ENDBRANCH  29  40
ENDBRANCH  14  20
ENDBRANCH  11  14
ENDBRANCH   7  10
ENDBRANCH   4   7
ENDBRANCH   1   4
BRANCH   1  49
ATOM     49  C   UNL A   1      35.160  33.721  34.244  1.00  0.00    -0.052 C 
ATOM     50  H   UNL A   1      34.907  32.954  34.944  1.00  0.00     0.027 H 
ATOM     51  H   UNL A   1      35.043  34.708  34.640  1.00  0.00     0.027 H 
BRANCH  49  52
ATOM     52  C   UNL A   1      36.639  33.571  33.885  1.00  0.00    -0.036 C 
ATOM     53  H   UNL A   1      37.183  34.356  34.369  1.00  0.00     0.028 H 
ATOM     54  H   UNL A   1      36.703  33.619  32.818  1.00  0.00     0.028 H 
BRANCH  52  55
ATOM     55  C   UNL A   1      37.250  32.241  34.301  1.00  0.00     0.018 C 
ATOM     56  H   UNL A   1      37.117  32.114  35.356  1.00  0.00     0.049 H 
ATOM     57  H   UNL A   1      38.288  32.257  34.043  1.00  0.00     0.049 H 
BRANCH  55  58
ATOM     58  N   UNL A   1      36.633  31.123  33.611  1.00  0.00    -0.352 N 
ATOM     59  C   UNL A   1      36.994  30.532  32.427  1.00  0.00     0.251 C 
ATOM     60  H   UNL A   1      35.845  30.735  34.055  1.00  0.00     0.163 HD
ATOM     61  O   UNL A   1      36.245  29.734  31.881  1.00  0.00    -0.269 OA
BRANCH  59  62
ATOM     62  C   UNL A   1      38.292  30.873  31.803  1.00  0.00     0.039 A 
ATOM     63  C   UNL A   1      39.458  30.717  32.554  1.00  0.00    -0.049 A 
ATOM     64  C   UNL A   1      38.357  31.374  30.500  1.00  0.00    -0.049 A 
ATOM     65  C   UNL A   1      40.692  31.046  31.991  1.00  0.00    -0.053 A 
ATOM     66  H   UNL A   1      39.409  30.360  33.522  1.00  0.00     0.063 H 
ATOM     67  C   UNL A   1      39.591  31.623  29.911  1.00  0.00    -0.053 A 
ATOM     68  H   UNL A   1      37.488  31.561  29.975  1.00  0.00     0.063 H 
ATOM     69  C   UNL A   1      40.770  31.491  30.661  1.00  0.00    -0.014 A 
ATOM     70  H   UNL A   1      41.553  30.963  32.555  1.00  0.00     0.063 H 
ATOM     71  H   UNL A   1      39.642  31.905  28.920  1.00  0.00     0.063 H 
BRANCH  69  72
ATOM     72  C   UNL A   1      42.070  31.883  30.063  1.00  0.00     0.031 A 
ATOM     73  C   UNL A   1      42.433  33.339  29.951  1.00  0.00     0.074 A 
ATOM     74  C   UNL A   1      42.903  30.939  29.588  1.00  0.00     0.049 A 
ATOM     75  N   UNL A   1      43.504  33.892  29.440  1.00  0.00    -0.248 NA
ATOM     76  C   UNL A   1      41.446  34.308  30.457  1.00  0.00    -0.034 C 
ATOM     77  C   UNL A   1      42.643  29.499  29.598  1.00  0.00    -0.036 A 
ATOM     78  N   UNL A   1      44.141  31.050  29.006  1.00  0.00    -0.354 N 
ATOM     79  C   UNL A   1      43.309  35.263  29.543  1.00  0.00     0.074 A 
ATOM     80  C   UNL A   1      41.994  35.462  30.109  1.00  0.00    -0.034 C 
ATOM     81  H   UNL A   1      40.558  34.133  30.952  1.00  0.00     0.065 H 
ATOM     82  C   UNL A   1      43.703  28.859  29.078  1.00  0.00    -0.036 A 
ATOM     83  H   UNL A   1      41.784  29.048  29.948  1.00  0.00     0.065 H 
ATOM     84  C   UNL A   1      44.701  29.842  28.668  1.00  0.00     0.049 A 
ATOM     85  H   UNL A   1      44.585  31.914  28.844  1.00  0.00     0.167 HD
ATOM     86  C   UNL A   1      44.160  36.266  29.220  1.00  0.00     0.037 A 
ATOM     87  H   UNL A   1      41.542  36.383  30.227  1.00  0.00     0.065 H 
ATOM     88  H   UNL A   1      43.796  27.835  28.982  1.00  0.00     0.065 H 
ATOM     89  C   UNL A   1      45.888  29.564  28.099  1.00  0.00     0.037 A 
ATOM     90  C   UNL A   1      45.483  36.060  28.691  1.00  0.00     0.049 A 
ATOM     91  C   UNL A   1      46.822  30.697  27.761  1.00  0.00     0.074 A 
ATOM     92  C   UNL A   1      46.450  37.004  28.392  1.00  0.00    -0.036 A 
ATOM     93  N   UNL A   1      46.024  34.820  28.383  1.00  0.00    -0.354 N 
ATOM     94  N   UNL A   1      46.658  31.986  27.932  1.00  0.00    -0.248 NA
ATOM     95  C   UNL A   1      48.112  30.332  27.162  1.00  0.00    -0.034 C 
ATOM     96  C   UNL A   1      47.557  36.338  27.856  1.00  0.00    -0.036 A 
ATOM     97  H   UNL A   1      46.368  38.021  28.539  1.00  0.00     0.065 H 
ATOM     98  C   UNL A   1      47.304  34.976  27.878  1.00  0.00     0.049 A 
ATOM     99  H   UNL A   1      45.565  33.957  28.506  1.00  0.00     0.167 HD
ATOM    100  C   UNL A   1      47.836  32.582  27.503  1.00  0.00     0.074 A 
ATOM    101  C   UNL A   1      48.711  31.511  27.072  1.00  0.00    -0.034 C 
ATOM    102  H   UNL A   1      48.461  29.401  26.885  1.00  0.00     0.065 H 
ATOM    103  H   UNL A   1      48.417  36.787  27.504  1.00  0.00     0.065 H 
ATOM    104  C   UNL A   1      48.168  33.896  27.472  1.00  0.00     0.037 A 
ATOM    105  H   UNL A   1      49.677  31.648  26.737  1.00  0.00     0.065 H 
BRANCH  86 106
ATOM    106  C   UNL A   1      43.684  37.676  29.429  1.00  0.00     0.064 A 
ATOM    107  C   UNL A   1      42.912  38.347  28.469  1.00  0.00     0.173 A 
ATOM    108  C   UNL A   1      43.983  38.357  30.619  1.00  0.00     0.173 A 
ATOM    109  F   UNL A   1      42.606  37.746  27.308  1.00  0.00    -0.203 F 
ATOM    110  C   UNL A   1      42.488  39.658  28.675  1.00  0.00     0.198 A 
ATOM    111  C   UNL A   1      43.528  39.656  30.837  1.00  0.00     0.198 A 
ATOM    112  F   UNL A   1      44.713  37.762  31.575  1.00  0.00    -0.203 F 
ATOM    113  F   UNL A   1      41.802  40.297  27.717  1.00  0.00    -0.200 F 
ATOM    114  C   UNL A   1      42.791  40.307  29.861  1.00  0.00     0.200 A 
ATOM    115  F   UNL A   1      43.809  40.277  31.990  1.00  0.00    -0.200 F 
ATOM    116  F   UNL A   1      42.378  41.566  30.061  1.00  0.00    -0.200 F 
ENDBRANCH  86 106
BRANCH  89 117
ATOM    117  C   UNL A   1      46.287  28.153  27.856  1.00  0.00     0.064 A 
ATOM    118  C   UNL A   1      46.988  27.428  28.829  1.00  0.00     0.173 A 
ATOM    119  C   UNL A   1      45.988  27.506  26.649  1.00  0.00     0.173 A 
ATOM    120  F   UNL A   1      47.313  28.009  29.993  1.00  0.00    -0.203 F 
ATOM    121  C   UNL A   1      47.399  26.117  28.594  1.00  0.00     0.198 A 
ATOM    122  C   UNL A   1      46.374  26.185  26.426  1.00  0.00     0.198 A 
ATOM    123  F   UNL A   1      45.313  28.153  25.687  1.00  0.00    -0.203 F 
ATOM    124  F   UNL A   1      48.112  25.465  29.522  1.00  0.00    -0.200 F 
ATOM    125  C   UNL A   1      47.087  25.495  27.394  1.00  0.00     0.200 A 
ATOM    126  F   UNL A   1      46.057  25.583  25.272  1.00  0.00    -0.200 F 
ATOM    127  F   UNL A   1      47.481  24.235  27.169  1.00  0.00    -0.200 F 
ENDBRANCH  89 117
BRANCH 104 128
ATOM    128  C   UNL A   1      49.554  34.247  27.013  1.00  0.00     0.064 A 
ATOM    129  C   UNL A   1      50.664  34.155  27.866  1.00  0.00     0.173 A 
ATOM    130  C   UNL A   1      49.776  34.654  25.687  1.00  0.00     0.173 A 
ATOM    131  F   UNL A   1      50.504  33.784  29.144  1.00  0.00    -0.203 F 
ATOM    132  C   UNL A   1      51.939  34.491  27.419  1.00  0.00     0.198 A 
ATOM    133  C   UNL A   1      51.057  34.955  25.235  1.00  0.00     0.198 A 
ATOM    134  F   UNL A   1      48.751  34.749  24.828  1.00  0.00    -0.203 F 
ATOM    135  F   UNL A   1      52.976  34.451  28.267  1.00  0.00    -0.200 F 
ATOM    136  C   UNL A   1      52.136  34.883  26.102  1.00  0.00     0.200 A 
ATOM    137  F   UNL A   1      51.247  35.319  23.959  1.00  0.00    -0.200 F 
ATOM    138  F   UNL A   1      53.365  35.202  25.673  1.00  0.00    -0.200 F 
ENDBRANCH 104 128
ENDBRANCH  69  72
ENDBRANCH  59  62
ENDBRANCH  55  58
ENDBRANCH  52  55
ENDBRANCH  49  52
ENDBRANCH   1  49
TORSDOF 17
ENDMDL
MODEL 9
REMARK VINA RESULT:      -9.8      4.885     10.170
REMARK SMILES C[C@@H](C(=O)NCCCCCCNC(=O)c1ccc(-c2c3nc(c(-c4c(F)c(F)c(F)c(F)c4F)c4ccc([nH]4)c(-c4c(F)c(F)c(F)c(F)c4F)c4nc(c(-c5c(F)c(F)c(F)c(F)c5F)c5ccc2[nH]5)C=C4)C=C3)cc1)c1ccc2c3cc(Cl)ccc3n(C(=O)c3cocn3)c2c1
REMARK SMILES IDX 8 1 7 4 6 7 5 10 3 11 4 12 2 14 1 16 78 20 79 21 98 22 80 23
REMARK SMILES IDX 97 25 81 27 89 29 82 30 88 31 83 32 87 33 84 34 86 36 85 38
REMARK SMILES IDX 90 40 91 41 92 42 93 43 96 44 94 45 95 47 9 49 10 52 11 55
REMARK SMILES IDX 12 58 13 59 14 61 15 62 16 63 77 64 17 65 76 67 18 69 19 72
REMARK SMILES IDX 20 73 70 74 21 75 75 76 69 77 71 78 22 79 74 80 68 82 67 84
REMARK SMILES IDX 23 86 55 89 35 90 54 91 36 92 39 93 53 94 72 95 37 96 38 98
REMARK SMILES IDX 52 100 73 101 40 104 24 106 25 107 33 108 26 109 27 110
REMARK SMILES IDX 31 111 34 112 28 113 29 114 32 115 30 116 56 117 57 118
REMARK SMILES IDX 65 119 58 120 59 121 63 122 66 123 60 124 61 125 64 126
REMARK SMILES IDX 62 127 41 128 42 129 50 130 43 131 44 132 48 133 51 134
REMARK SMILES IDX 45 135 46 136 49 137 47 138
REMARK H PARENT 8 2 8 3 7 5 7 6 6 8 6 9 5 13 2 15 1 17 1 18 1 19 79 24 98 26
REMARK H PARENT 80 28 83 35 87 37 86 39 93 46 95 48 9 50 9 51 10 53 10 54
REMARK H PARENT 11 56 11 57 12 60 16 66 77 68 17 70 76 71 75 81 69 83 71 85
REMARK H PARENT 74 87 68 88 36 97 39 99 72 102 37 103 73 105
REMARK Flexibility Score: inf
ROOT
ATOM      1  C   UNL A   1      39.270  29.796  29.651  1.00  0.00    -0.052 C 
ATOM      2  H   UNL A   1      40.050  30.528  29.670  1.00  0.00     0.027 H 
ATOM      3  H   UNL A   1      38.610  29.860  30.491  1.00  0.00     0.027 H 
ENDROOT
BRANCH   1   4
ATOM      4  C   UNL A   1      39.920  28.407  29.721  1.00  0.00    -0.036 C 
ATOM      5  H   UNL A   1      39.489  27.873  30.543  1.00  0.00     0.028 H 
ATOM      6  H   UNL A   1      39.737  27.930  28.781  1.00  0.00     0.028 H 
BRANCH   4   7
ATOM      7  C   UNL A   1      41.437  28.440  29.914  1.00  0.00     0.017 C 
ATOM      8  H   UNL A   1      41.725  29.401  30.283  1.00  0.00     0.049 H 
ATOM      9  H   UNL A   1      41.716  27.679  30.613  1.00  0.00     0.049 H 
BRANCH   7  10
ATOM     10  N   UNL A   1      42.106  28.191  28.659  1.00  0.00    -0.356 N 
ATOM     11  C   UNL A   1      42.552  27.022  28.125  1.00  0.00     0.227 C 
ATOM     12  O   UNL A   1      43.207  27.117  27.086  1.00  0.00    -0.274 OA
ATOM     13  H   UNL A   1      42.261  28.989  28.104  1.00  0.00     0.163 HD
BRANCH  11  14
ATOM     14  C   UNL A   1      42.180  25.680  28.788  1.00  0.00     0.060 C 
ATOM     15  H   UNL A   1      41.878  25.932  29.783  1.00  0.00     0.045 H 
BRANCH  14  16
ATOM     16  C   UNL A   1      43.357  24.700  28.890  1.00  0.00    -0.049 C 
ATOM     17  H   UNL A   1      43.580  24.517  29.920  1.00  0.00     0.024 H 
ATOM     18  H   UNL A   1      44.214  25.121  28.408  1.00  0.00     0.024 H 
ATOM     19  H   UNL A   1      43.096  23.779  28.412  1.00  0.00     0.024 H 
ENDBRANCH  14  16
BRANCH  14  20
ATOM     20  C   UNL A   1      41.037  24.999  28.044  1.00  0.00    -0.034 A 
ATOM     21  C   UNL A   1      39.853  25.676  27.755  1.00  0.00    -0.057 A 
ATOM     22  C   UNL A   1      41.186  23.662  27.646  1.00  0.00    -0.033 A 
ATOM     23  C   UNL A   1      38.831  25.043  27.040  1.00  0.00    -0.052 A 
ATOM     24  H   UNL A   1      39.731  26.651  28.071  1.00  0.00     0.063 H 
ATOM     25  C   UNL A   1      40.135  23.012  26.982  1.00  0.00     0.058 A 
ATOM     26  H   UNL A   1      42.066  23.159  27.838  1.00  0.00     0.065 H 
ATOM     27  C   UNL A   1      38.980  23.697  26.635  1.00  0.00     0.008 A 
ATOM     28  H   UNL A   1      37.968  25.559  26.807  1.00  0.00     0.063 H 
ATOM     29  N   UNL A   1      40.034  21.689  26.539  1.00  0.00    -0.274 N 
ATOM     30  C   UNL A   1      38.160  22.790  25.912  1.00  0.00     0.009 A 
ATOM     31  C   UNL A   1      38.791  21.537  25.909  1.00  0.00     0.057 A 
ATOM     32  C   UNL A   1      36.895  22.938  25.302  1.00  0.00    -0.033 A 
ATOM     33  C   UNL A   1      38.121  20.403  25.411  1.00  0.00    -0.036 A 
ATOM     34  C   UNL A   1      36.261  21.823  24.765  1.00  0.00     0.041 A 
ATOM     35  H   UNL A   1      36.445  23.866  25.256  1.00  0.00     0.065 H 
ATOM     36  C   UNL A   1      36.853  20.569  24.837  1.00  0.00    -0.041 A 
ATOM     37  H   UNL A   1      38.555  19.468  25.469  1.00  0.00     0.065 H 
ATOM     38  Cl  UNL A   1      34.708  21.999  24.045  1.00  0.00    -0.084 Cl
ATOM     39  H   UNL A   1      36.353  19.747  24.462  1.00  0.00     0.064 H 
BRANCH  29  40
ATOM     40  C   UNL A   1      41.022  20.701  26.797  1.00  0.00     0.284 C 
ATOM     41  O   UNL A   1      40.853  20.036  27.823  1.00  0.00    -0.266 OA
BRANCH  40  42
ATOM     42  C   UNL A   1      42.205  20.451  25.980  1.00  0.00     0.167 A 
ATOM     43  C   UNL A   1      43.271  21.279  25.697  1.00  0.00     0.124 A 
ATOM     44  N   UNL A   1      42.479  19.195  25.450  1.00  0.00    -0.211 NA
ATOM     45  O   UNL A   1      44.198  20.567  24.991  1.00  0.00    -0.451 OA
ATOM     46  H   UNL A   1      43.354  22.271  25.972  1.00  0.00     0.107 H 
ATOM     47  C   UNL A   1      43.660  19.323  24.899  1.00  0.00     0.181 A 
ATOM     48  H   UNL A   1      44.144  18.540  24.431  1.00  0.00     0.127 H 
ENDBRANCH  40  42
ENDBRANCH  29  40
ENDBRANCH  14  20
ENDBRANCH  11  14
ENDBRANCH   7  10
ENDBRANCH   4   7
ENDBRANCH   1   4
BRANCH   1  49
ATOM     49  C   UNL A   1      38.412  30.044  28.407  1.00  0.00    -0.052 C 
ATOM     50  H   UNL A   1      38.331  29.124  27.869  1.00  0.00     0.027 H 
ATOM     51  H   UNL A   1      38.903  30.815  27.851  1.00  0.00     0.027 H 
BRANCH  49  52
ATOM     52  C   UNL A   1      36.999  30.553  28.697  1.00  0.00    -0.036 C 
ATOM     53  H   UNL A   1      36.669  30.120  29.618  1.00  0.00     0.028 H 
ATOM     54  H   UNL A   1      36.392  30.267  27.863  1.00  0.00     0.028 H 
BRANCH  52  55
ATOM     55  C   UNL A   1      36.893  32.066  28.815  1.00  0.00     0.018 C 
ATOM     56  H   UNL A   1      36.815  32.485  27.833  1.00  0.00     0.049 H 
ATOM     57  H   UNL A   1      37.768  32.423  29.317  1.00  0.00     0.049 H 
BRANCH  55  58
ATOM     58  N   UNL A   1      35.734  32.468  29.590  1.00  0.00    -0.352 N 
ATOM     59  C   UNL A   1      35.542  32.418  30.948  1.00  0.00     0.251 C 
ATOM     60  H   UNL A   1      34.981  32.828  29.069  1.00  0.00     0.163 HD
ATOM     61  O   UNL A   1      34.429  32.603  31.422  1.00  0.00    -0.269 OA
BRANCH  59  62
ATOM     62  C   UNL A   1      36.686  32.128  31.840  1.00  0.00     0.039 A 
ATOM     63  C   UNL A   1      36.512  31.210  32.877  1.00  0.00    -0.049 A 
ATOM     64  C   UNL A   1      37.912  32.780  31.677  1.00  0.00    -0.049 A 
ATOM     65  C   UNL A   1      37.573  30.932  33.740  1.00  0.00    -0.053 A 
ATOM     66  H   UNL A   1      35.602  30.739  33.006  1.00  0.00     0.063 H 
ATOM     67  C   UNL A   1      38.992  32.442  32.484  1.00  0.00    -0.053 A 
ATOM     68  H   UNL A   1      38.014  33.513  30.958  1.00  0.00     0.063 H 
ATOM     69  C   UNL A   1      38.825  31.538  33.543  1.00  0.00    -0.014 A 
ATOM     70  H   UNL A   1      37.437  30.279  34.528  1.00  0.00     0.063 H 
ATOM     71  H   UNL A   1      39.920  32.856  32.303  1.00  0.00     0.063 H 
BRANCH  69  72
ATOM     72  C   UNL A   1      39.951  31.282  34.477  1.00  0.00     0.031 A 
ATOM     73  C   UNL A   1      40.271  32.285  35.552  1.00  0.00     0.074 A 
ATOM     74  C   UNL A   1      40.702  30.175  34.336  1.00  0.00     0.049 A 
ATOM     75  N   UNL A   1      41.225  32.264  36.449  1.00  0.00    -0.248 NA
ATOM     76  C   UNL A   1      39.425  33.488  35.610  1.00  0.00    -0.034 C 
ATOM     77  C   UNL A   1      40.519  29.153  33.305  1.00  0.00    -0.036 A 
ATOM     78  N   UNL A   1      41.774  29.724  35.065  1.00  0.00    -0.354 N 
ATOM     79  C   UNL A   1      41.104  33.453  37.157  1.00  0.00     0.074 A 
ATOM     80  C   UNL A   1      40.026  34.200  36.550  1.00  0.00    -0.034 C 
ATOM     81  H   UNL A   1      38.583  33.717  35.060  1.00  0.00     0.065 H 
ATOM     82  C   UNL A   1      41.424  28.178  33.487  1.00  0.00    -0.036 A 
ATOM     83  H   UNL A   1      39.807  29.177  32.558  1.00  0.00     0.065 H 
ATOM     84  C   UNL A   1      42.272  28.522  34.625  1.00  0.00     0.049 A 
ATOM     85  H   UNL A   1      42.151  30.216  35.830  1.00  0.00     0.167 HD
ATOM     86  C   UNL A   1      41.811  33.872  38.234  1.00  0.00     0.037 A 
ATOM     87  H   UNL A   1      39.761  35.161  36.815  1.00  0.00     0.065 H 
ATOM     88  H   UNL A   1      41.508  27.323  32.915  1.00  0.00     0.065 H 
ATOM     89  C   UNL A   1      43.293  27.781  35.094  1.00  0.00     0.037 A 
ATOM     90  C   UNL A   1      42.858  33.107  38.857  1.00  0.00     0.049 A 
ATOM     91  C   UNL A   1      44.055  28.264  36.301  1.00  0.00     0.074 A 
ATOM     92  C   UNL A   1      43.591  33.409  39.991  1.00  0.00    -0.036 A 
ATOM     93  N   UNL A   1      43.320  31.882  38.397  1.00  0.00    -0.354 N 
ATOM     94  N   UNL A   1      43.884  29.354  37.008  1.00  0.00    -0.248 NA
ATOM     95  C   UNL A   1      45.144  27.403  36.781  1.00  0.00    -0.034 C 
ATOM     96  C   UNL A   1      44.531  32.392  40.187  1.00  0.00    -0.036 A 
ATOM     97  H   UNL A   1      43.467  34.241  40.588  1.00  0.00     0.065 H 
ATOM     98  C   UNL A   1      44.343  31.426  39.211  1.00  0.00     0.049 A 
ATOM     99  H   UNL A   1      42.972  31.408  37.607  1.00  0.00     0.167 HD
ATOM    100  C   UNL A   1      44.812  29.291  38.039  1.00  0.00     0.074 A 
ATOM    101  C   UNL A   1      45.538  28.048  37.869  1.00  0.00    -0.034 C 
ATOM    102  H   UNL A   1      45.507  26.525  36.376  1.00  0.00     0.065 H 
ATOM    103  H   UNL A   1      45.245  32.365  40.932  1.00  0.00     0.065 H 
ATOM    104  C   UNL A   1      45.042  30.177  39.038  1.00  0.00     0.037 A 
ATOM    105  H   UNL A   1      46.269  27.710  38.513  1.00  0.00     0.065 H 
BRANCH  86 106
ATOM    106  C   UNL A   1      41.473  35.220  38.804  1.00  0.00     0.064 A 
ATOM    107  C   UNL A   1      42.255  36.355  38.535  1.00  0.00     0.173 A 
ATOM    108  C   UNL A   1      40.338  35.386  39.612  1.00  0.00     0.173 A 
ATOM    109  F   UNL A   1      43.358  36.251  37.779  1.00  0.00    -0.203 F 
ATOM    110  C   UNL A   1      41.933  37.595  39.081  1.00  0.00     0.198 A 
ATOM    111  C   UNL A   1      39.999  36.635  40.128  1.00  0.00     0.198 A 
ATOM    112  F   UNL A   1      39.551  34.337  39.897  1.00  0.00    -0.203 F 
ATOM    113  F   UNL A   1      42.728  38.650  38.857  1.00  0.00    -0.200 F 
ATOM    114  C   UNL A   1      40.802  37.735  39.870  1.00  0.00     0.200 A 
ATOM    115  F   UNL A   1      38.897  36.772  40.878  1.00  0.00    -0.200 F 
ATOM    116  F   UNL A   1      40.491  38.930  40.390  1.00  0.00    -0.200 F 
ENDBRANCH  86 106
BRANCH  89 117
ATOM    117  C   UNL A   1      43.627  26.482  34.455  1.00  0.00     0.064 A 
ATOM    118  C   UNL A   1      43.089  25.282  34.944  1.00  0.00     0.173 A 
ATOM    119  C   UNL A   1      44.493  26.407  33.356  1.00  0.00     0.173 A 
ATOM    120  F   UNL A   1      42.270  25.299  36.005  1.00  0.00    -0.203 F 
ATOM    121  C   UNL A   1      43.427  24.056  34.375  1.00  0.00     0.198 A 
ATOM    122  C   UNL A   1      44.808  25.183  32.768  1.00  0.00     0.198 A 
ATOM    123  F   UNL A   1      45.029  27.526  32.845  1.00  0.00    -0.203 F 
ATOM    124  F   UNL A   1      42.940  22.922  34.895  1.00  0.00    -0.200 F 
ATOM    125  C   UNL A   1      44.283  24.008  33.284  1.00  0.00     0.200 A 
ATOM    126  F   UNL A   1      45.622  25.142  31.705  1.00  0.00    -0.200 F 
ATOM    127  F   UNL A   1      44.607  22.829  32.737  1.00  0.00    -0.200 F 
ENDBRANCH  89 117
BRANCH 104 128
ATOM    128  C   UNL A   1      46.078  29.810  40.061  1.00  0.00     0.064 A 
ATOM    129  C   UNL A   1      45.759  29.068  41.209  1.00  0.00     0.173 A 
ATOM    130  C   UNL A   1      47.418  30.184  39.873  1.00  0.00     0.173 A 
ATOM    131  F   UNL A   1      44.491  28.698  41.441  1.00  0.00    -0.203 F 
ATOM    132  C   UNL A   1      46.736  28.744  42.146  1.00  0.00     0.198 A 
ATOM    133  C   UNL A   1      48.398  29.828  40.795  1.00  0.00     0.198 A 
ATOM    134  F   UNL A   1      47.779  30.886  38.789  1.00  0.00    -0.203 F 
ATOM    135  F   UNL A   1      46.398  28.085  43.263  1.00  0.00    -0.200 F 
ATOM    136  C   UNL A   1      48.056  29.118  41.935  1.00  0.00     0.200 A 
ATOM    137  F   UNL A   1      49.675  30.176  40.581  1.00  0.00    -0.200 F 
ATOM    138  F   UNL A   1      48.995  28.801  42.836  1.00  0.00    -0.200 F 
ENDBRANCH 104 128
ENDBRANCH  69  72
ENDBRANCH  59  62
ENDBRANCH  55  58
ENDBRANCH  52  55
ENDBRANCH  49  52
ENDBRANCH   1  49
TORSDOF 17
ENDMDL
MODEL 10
REMARK VINA RESULT:      -9.8      4.163     10.758
REMARK SMILES C[C@@H](C(=O)NCCCCCCNC(=O)c1ccc(-c2c3nc(c(-c4c(F)c(F)c(F)c(F)c4F)c4ccc([nH]4)c(-c4c(F)c(F)c(F)c(F)c4F)c4nc(c(-c5c(F)c(F)c(F)c(F)c5F)c5ccc2[nH]5)C=C4)C=C3)cc1)c1ccc2c3cc(Cl)ccc3n(C(=O)c3cocn3)c2c1
REMARK SMILES IDX 8 1 7 4 6 7 5 10 3 11 4 12 2 14 1 16 78 20 79 21 98 22 80 23
REMARK SMILES IDX 97 25 81 27 89 29 82 30 88 31 83 32 87 33 84 34 86 36 85 38
REMARK SMILES IDX 90 40 91 41 92 42 93 43 96 44 94 45 95 47 9 49 10 52 11 55
REMARK SMILES IDX 12 58 13 59 14 61 15 62 16 63 77 64 17 65 76 67 18 69 19 72
REMARK SMILES IDX 20 73 70 74 21 75 75 76 69 77 71 78 22 79 74 80 68 82 67 84
REMARK SMILES IDX 23 86 55 89 35 90 54 91 36 92 39 93 53 94 72 95 37 96 38 98
REMARK SMILES IDX 52 100 73 101 40 104 24 106 25 107 33 108 26 109 27 110
REMARK SMILES IDX 31 111 34 112 28 113 29 114 32 115 30 116 56 117 57 118
REMARK SMILES IDX 65 119 58 120 59 121 63 122 66 123 60 124 61 125 64 126
REMARK SMILES IDX 62 127 41 128 42 129 50 130 43 131 44 132 48 133 51 134
REMARK SMILES IDX 45 135 46 136 49 137 47 138
REMARK H PARENT 8 2 8 3 7 5 7 6 6 8 6 9 5 13 2 15 1 17 1 18 1 19 79 24 98 26
REMARK H PARENT 80 28 83 35 87 37 86 39 93 46 95 48 9 50 9 51 10 53 10 54
REMARK H PARENT 11 56 11 57 12 60 16 66 77 68 17 70 76 71 75 81 69 83 71 85
REMARK H PARENT 74 87 68 88 36 97 39 99 72 102 37 103 73 105
REMARK Flexibility Score: inf
ROOT
ATOM      1  C   UNL A   1      37.138  33.411  30.853  1.00  0.00    -0.052 C 
ATOM      2  H   UNL A   1      36.134  33.287  31.201  1.00  0.00     0.027 H 
ATOM      3  H   UNL A   1      37.719  32.514  30.910  1.00  0.00     0.027 H 
ENDROOT
BRANCH   1   4
ATOM      4  C   UNL A   1      37.834  34.433  31.763  1.00  0.00    -0.036 C 
ATOM      5  H   UNL A   1      38.013  35.323  31.197  1.00  0.00     0.028 H 
ATOM      6  H   UNL A   1      37.185  34.600  32.598  1.00  0.00     0.028 H 
BRANCH   4   7
ATOM      7  C   UNL A   1      39.170  33.949  32.331  1.00  0.00     0.017 C 
ATOM      8  H   UNL A   1      39.556  33.170  31.709  1.00  0.00     0.049 H 
ATOM      9  H   UNL A   1      39.855  34.771  32.359  1.00  0.00     0.049 H 
BRANCH   7  10
ATOM     10  N   UNL A   1      38.989  33.443  33.671  1.00  0.00    -0.356 N 
ATOM     11  C   UNL A   1      38.668  32.191  34.095  1.00  0.00     0.227 C 
ATOM     12  O   UNL A   1      38.451  32.068  35.302  1.00  0.00    -0.274 OA
ATOM     13  H   UNL A   1      39.119  34.106  34.387  1.00  0.00     0.163 HD
BRANCH  11  14
ATOM     14  C   UNL A   1      38.651  31.018  33.094  1.00  0.00     0.060 C 
ATOM     15  H   UNL A   1      38.848  31.461  32.139  1.00  0.00     0.045 H 
BRANCH  14  16
ATOM     16  C   UNL A   1      37.295  30.305  33.008  1.00  0.00    -0.049 C 
ATOM     17  H   UNL A   1      37.334  29.396  33.571  1.00  0.00     0.024 H 
ATOM     18  H   UNL A   1      37.072  30.084  31.986  1.00  0.00     0.024 H 
ATOM     19  H   UNL A   1      36.533  30.940  33.410  1.00  0.00     0.024 H 
ENDBRANCH  14  16
BRANCH  14  20
ATOM     20  C   UNL A   1      39.725  29.992  33.433  1.00  0.00    -0.034 A 
ATOM     21  C   UNL A   1      39.768  28.749  32.802  1.00  0.00    -0.057 A 
ATOM     22  C   UNL A   1      40.688  30.310  34.403  1.00  0.00    -0.033 A 
ATOM     23  C   UNL A   1      40.785  27.837  33.103  1.00  0.00    -0.052 A 
ATOM     24  H   UNL A   1      39.045  28.503  32.108  1.00  0.00     0.063 H 
ATOM     25  C   UNL A   1      41.669  29.369  34.745  1.00  0.00     0.058 A 
ATOM     26  H   UNL A   1      40.675  31.235  34.861  1.00  0.00     0.065 H 
ATOM     27  C   UNL A   1      41.757  28.156  34.077  1.00  0.00     0.008 A 
ATOM     28  H   UNL A   1      40.825  26.929  32.612  1.00  0.00     0.063 H 
ATOM     29  N   UNL A   1      42.686  29.439  35.702  1.00  0.00    -0.274 N 
ATOM     30  C   UNL A   1      42.891  27.476  34.597  1.00  0.00     0.009 A 
ATOM     31  C   UNL A   1      43.423  28.248  35.641  1.00  0.00     0.057 A 
ATOM     32  C   UNL A   1      43.470  26.227  34.284  1.00  0.00    -0.033 A 
ATOM     33  C   UNL A   1      44.451  27.734  36.454  1.00  0.00    -0.036 A 
ATOM     34  C   UNL A   1      44.521  25.748  35.060  1.00  0.00     0.041 A 
ATOM     35  H   UNL A   1      43.117  25.675  33.486  1.00  0.00     0.065 H 
ATOM     36  C   UNL A   1      44.992  26.479  36.143  1.00  0.00    -0.041 A 
ATOM     37  H   UNL A   1      44.799  28.270  37.264  1.00  0.00     0.065 H 
ATOM     38  Cl  UNL A   1      45.210  24.214  34.693  1.00  0.00    -0.084 Cl
ATOM     39  H   UNL A   1      45.750  26.093  36.726  1.00  0.00     0.064 H 
BRANCH  29  40
ATOM     40  C   UNL A   1      42.834  30.524  36.608  1.00  0.00     0.284 C 
ATOM     41  O   UNL A   1      41.885  30.708  37.376  1.00  0.00    -0.266 OA
BRANCH  40  42
ATOM     42  C   UNL A   1      43.975  31.432  36.665  1.00  0.00     0.167 A 
ATOM     43  C   UNL A   1      45.173  31.386  35.983  1.00  0.00     0.124 A 
ATOM     44  N   UNL A   1      43.930  32.623  37.383  1.00  0.00    -0.211 NA
ATOM     45  O   UNL A   1      45.881  32.517  36.272  1.00  0.00    -0.451 OA
ATOM     46  H   UNL A   1      45.482  30.623  35.360  1.00  0.00     0.107 H 
ATOM     47  C   UNL A   1      45.063  33.216  37.102  1.00  0.00     0.181 A 
ATOM     48  H   UNL A   1      45.315  34.144  37.481  1.00  0.00     0.127 H 
ENDBRANCH  40  42
ENDBRANCH  29  40
ENDBRANCH  14  20
ENDBRANCH  11  14
ENDBRANCH   7  10
ENDBRANCH   4   7
ENDBRANCH   1   4
BRANCH   1  49
ATOM     49  C   UNL A   1      37.085  33.798  29.372  1.00  0.00    -0.052 C 
ATOM     50  H   UNL A   1      37.960  33.411  28.895  1.00  0.00     0.027 H 
ATOM     51  H   UNL A   1      37.026  34.866  29.342  1.00  0.00     0.027 H 
BRANCH  49  52
ATOM     52  C   UNL A   1      35.861  33.276  28.619  1.00  0.00    -0.036 C 
ATOM     53  H   UNL A   1      36.201  32.674  27.802  1.00  0.00     0.028 H 
ATOM     54  H   UNL A   1      35.307  34.134  28.299  1.00  0.00     0.028 H 
BRANCH  52  55
ATOM     55  C   UNL A   1      34.916  32.438  29.468  1.00  0.00     0.018 C 
ATOM     56  H   UNL A   1      34.191  33.085  29.919  1.00  0.00     0.049 H 
ATOM     57  H   UNL A   1      35.496  31.934  30.212  1.00  0.00     0.049 H 
BRANCH  55  58
ATOM     58  N   UNL A   1      34.225  31.434  28.680  1.00  0.00    -0.352 N 
ATOM     59  C   UNL A   1      34.744  30.361  28.001  1.00  0.00     0.251 C 
ATOM     60  H   UNL A   1      33.248  31.539  28.625  1.00  0.00     0.163 HD
ATOM     61  O   UNL A   1      34.047  29.731  27.217  1.00  0.00    -0.269 OA
BRANCH  59  62
ATOM     62  C   UNL A   1      36.155  29.971  28.213  1.00  0.00     0.039 A 
ATOM     63  C   UNL A   1      36.520  29.411  29.439  1.00  0.00    -0.049 A 
ATOM     64  C   UNL A   1      37.120  30.188  27.225  1.00  0.00    -0.049 A 
ATOM     65  C   UNL A   1      37.849  29.050  29.666  1.00  0.00    -0.053 A 
ATOM     66  H   UNL A   1      35.810  29.265  30.174  1.00  0.00     0.063 H 
ATOM     67  C   UNL A   1      38.425  29.753  27.420  1.00  0.00    -0.053 A 
ATOM     68  H   UNL A   1      36.862  30.672  26.350  1.00  0.00     0.063 H 
ATOM     69  C   UNL A   1      38.810  29.208  28.654  1.00  0.00    -0.014 A 
ATOM     70  H   UNL A   1      38.128  28.667  30.583  1.00  0.00     0.063 H 
ATOM     71  H   UNL A   1      39.114  29.830  26.655  1.00  0.00     0.063 H 
BRANCH  69  72
ATOM     72  C   UNL A   1      40.234  28.866  28.896  1.00  0.00     0.031 A 
ATOM     73  C   UNL A   1      41.132  29.854  29.590  1.00  0.00     0.074 A 
ATOM     74  C   UNL A   1      40.727  27.692  28.461  1.00  0.00     0.049 A 
ATOM     75  N   UNL A   1      42.407  29.761  29.874  1.00  0.00    -0.248 NA
ATOM     76  C   UNL A   1      40.523  31.132  29.996  1.00  0.00    -0.034 C 
ATOM     77  C   UNL A   1      39.967  26.673  27.736  1.00  0.00    -0.036 A 
ATOM     78  N   UNL A   1      41.986  27.156  28.567  1.00  0.00    -0.354 N 
ATOM     79  C   UNL A   1      42.752  30.969  30.467  1.00  0.00     0.074 A 
ATOM     80  C   UNL A   1      41.571  31.802  30.449  1.00  0.00    -0.034 C 
ATOM     81  H   UNL A   1      39.536  31.428  29.940  1.00  0.00     0.065 H 
ATOM     82  C   UNL A   1      40.766  25.622  27.491  1.00  0.00    -0.036 A 
ATOM     83  H   UNL A   1      38.976  26.749  27.457  1.00  0.00     0.065 H 
ATOM     84  C   UNL A   1      42.101  25.906  28.012  1.00  0.00     0.049 A 
ATOM     85  H   UNL A   1      42.736  27.625  28.999  1.00  0.00     0.167 HD
ATOM     86  C   UNL A   1      43.939  31.340  31.003  1.00  0.00     0.037 A 
ATOM     87  H   UNL A   1      41.548  32.789  30.751  1.00  0.00     0.065 H 
ATOM     88  H   UNL A   1      40.483  24.752  27.012  1.00  0.00     0.065 H 
ATOM     89  C   UNL A   1      43.162  25.082  27.939  1.00  0.00     0.037 A 
ATOM     90  C   UNL A   1      45.101  30.493  31.050  1.00  0.00     0.049 A 
ATOM     91  C   UNL A   1      44.468  25.514  28.554  1.00  0.00     0.074 A 
ATOM     92  C   UNL A   1      46.332  30.747  31.629  1.00  0.00    -0.036 A 
ATOM     93  N   UNL A   1      45.173  29.223  30.497  1.00  0.00    -0.354 N 
ATOM     94  N   UNL A   1      44.763  26.628  29.179  1.00  0.00    -0.248 NA
ATOM     95  C   UNL A   1      45.586  24.564  28.463  1.00  0.00    -0.034 C 
ATOM     96  C   UNL A   1      47.165  29.650  31.381  1.00  0.00    -0.036 A 
ATOM     97  H   UNL A   1      46.591  31.597  32.151  1.00  0.00     0.065 H 
ATOM     98  C   UNL A   1      46.434  28.688  30.702  1.00  0.00     0.049 A 
ATOM     99  H   UNL A   1      44.436  28.768  30.028  1.00  0.00     0.167 HD
ATOM    100  C   UNL A   1      46.082  26.498  29.592  1.00  0.00     0.074 A 
ATOM    101  C   UNL A   1      46.528  25.190  29.154  1.00  0.00    -0.034 C 
ATOM    102  H   UNL A   1      45.626  23.650  27.987  1.00  0.00     0.065 H 
ATOM    103  H   UNL A   1      48.156  29.571  31.657  1.00  0.00     0.065 H 
ATOM    104  C   UNL A   1      46.854  27.377  30.275  1.00  0.00     0.037 A 
ATOM    105  H   UNL A   1      47.460  24.797  29.354  1.00  0.00     0.065 H 
BRANCH  86 106
ATOM    106  C   UNL A   1      44.039  32.725  31.578  1.00  0.00     0.064 A 
ATOM    107  C   UNL A   1      43.660  33.006  32.900  1.00  0.00     0.173 A 
ATOM    108  C   UNL A   1      44.544  33.781  30.805  1.00  0.00     0.173 A 
ATOM    109  F   UNL A   1      43.160  32.036  33.681  1.00  0.00    -0.203 F 
ATOM    110  C   UNL A   1      43.749  34.298  33.414  1.00  0.00     0.198 A 
ATOM    111  C   UNL A   1      44.665  35.064  31.333  1.00  0.00     0.198 A 
ATOM    112  F   UNL A   1      44.927  33.568  29.537  1.00  0.00    -0.203 F 
ATOM    113  F   UNL A   1      43.327  34.552  34.660  1.00  0.00    -0.200 F 
ATOM    114  C   UNL A   1      44.258  35.323  32.632  1.00  0.00     0.200 A 
ATOM    115  F   UNL A   1      45.171  36.051  30.580  1.00  0.00    -0.200 F 
ATOM    116  F   UNL A   1      44.349  36.564  33.129  1.00  0.00    -0.200 F 
ENDBRANCH  86 106
BRANCH  89 117
ATOM    117  C   UNL A   1      43.028  23.746  27.303  1.00  0.00     0.064 A 
ATOM    118  C   UNL A   1      43.463  23.531  25.987  1.00  0.00     0.173 A 
ATOM    119  C   UNL A   1      42.454  22.664  27.985  1.00  0.00     0.173 A 
ATOM    120  F   UNL A   1      44.001  24.539  25.287  1.00  0.00    -0.203 F 
ATOM    121  C   UNL A   1      43.305  22.292  25.370  1.00  0.00     0.198 A 
ATOM    122  C   UNL A   1      42.324  21.417  27.377  1.00  0.00     0.198 A 
ATOM    123  F   UNL A   1      42.028  22.815  29.248  1.00  0.00    -0.203 F 
ATOM    124  F   UNL A   1      43.683  22.128  24.095  1.00  0.00    -0.200 F 
ATOM    125  C   UNL A   1      42.740  21.234  26.067  1.00  0.00     0.200 A 
ATOM    126  F   UNL A   1      41.792  20.393  28.059  1.00  0.00    -0.200 F 
ATOM    127  F   UNL A   1      42.590  20.042  25.473  1.00  0.00    -0.200 F 
ENDBRANCH  89 117
BRANCH 104 128
ATOM    128  C   UNL A   1      48.240  26.934  30.646  1.00  0.00     0.064 A 
ATOM    129  C   UNL A   1      48.518  26.309  31.872  1.00  0.00     0.173 A 
ATOM    130  C   UNL A   1      49.302  27.113  29.745  1.00  0.00     0.173 A 
ATOM    131  F   UNL A   1      47.541  26.128  32.772  1.00  0.00    -0.203 F 
ATOM    132  C   UNL A   1      49.812  25.912  32.196  1.00  0.00     0.198 A 
ATOM    133  C   UNL A   1      50.588  26.682  30.058  1.00  0.00     0.198 A 
ATOM    134  F   UNL A   1      49.090  27.695  28.557  1.00  0.00    -0.203 F 
ATOM    135  F   UNL A   1      50.064  25.371  33.396  1.00  0.00    -0.200 F 
ATOM    136  C   UNL A   1      50.845  26.092  31.287  1.00  0.00     0.200 A 
ATOM    137  F   UNL A   1      51.581  26.843  29.172  1.00  0.00    -0.200 F 
ATOM    138  F   UNL A   1      52.089  25.705  31.598  1.00  0.00    -0.200 F 
ENDBRANCH 104 128
ENDBRANCH  69  72
ENDBRANCH  59  62
ENDBRANCH  55  58
ENDBRANCH  52  55
ENDBRANCH  49  52
ENDBRANCH   1  49
TORSDOF 17
ENDMDL
