MODEL 1
REMARK VINA RESULT:     -12.8      0.000      0.000
REMARK SMILES NS(=O)(=O)c1ccc(N2N=C(C(=O)NCCCCCCNC(=O)c3ccc(-c4c5nc(c(-c6c(F)c(F)c(F)c(F)c6F)c6ccc([nH]6)c(-c6c(F)c(F)c(F)c(F)c6F)c6nc(c(-c7c(F)c(F)c(F)c(F)c7F)c7ccc4[nH]7)C=C6)C=C5)cc3)C[C@H]2c2ccco2)cc1
REMARK SMILES IDX 17 1 16 4 15 7 14 10 12 11 13 12 11 14 9 15 10 16 88 17
REMARK SMILES IDX 87 18 8 22 5 23 6 24 95 25 7 26 94 28 2 32 3 33 4 34 1 35
REMARK SMILES IDX 89 38 90 39 93 40 91 41 92 43 18 46 19 49 20 52 21 55 22 56
REMARK SMILES IDX 23 58 24 59 25 60 86 61 26 62 85 64 27 66 28 69 29 70 79 71
REMARK SMILES IDX 30 72 84 73 78 74 80 75 31 76 83 77 77 79 76 81 32 83 64 86
REMARK SMILES IDX 44 87 63 88 45 89 48 90 62 91 81 92 46 93 47 95 61 97 82 98
REMARK SMILES IDX 49 101 33 103 34 104 42 105 35 106 36 107 40 108 43 109
REMARK SMILES IDX 37 110 38 111 41 112 39 113 65 114 66 115 74 116 67 117
REMARK SMILES IDX 68 118 72 119 75 120 69 121 70 122 73 123 71 124 50 125
REMARK SMILES IDX 51 126 59 127 52 128 53 129 57 130 60 131 54 132 55 133
REMARK SMILES IDX 58 134 56 135
REMARK H PARENT 17 2 17 3 16 5 16 6 15 8 15 9 14 13 88 19 87 20 87 21 6 27
REMARK H PARENT 95 29 7 30 94 31 1 36 1 37 90 42 91 44 92 45 18 47 18 48 19 50
REMARK H PARENT 19 51 20 53 20 54 21 57 25 63 86 65 26 67 85 68 84 78 78 80
REMARK H PARENT 80 82 83 84 77 85 45 94 48 96 81 99 46 100 82 102
REMARK Flexibility Score: inf
ROOT
ATOM      1  C   UNL A   1      37.204  22.174  24.676  1.00  0.00    -0.052 C 
ATOM      2  H   UNL A   1      36.918  22.753  25.530  1.00  0.00     0.027 H 
ATOM      3  H   UNL A   1      38.259  22.178  24.499  1.00  0.00     0.027 H 
ENDROOT
BRANCH   1   4
ATOM      4  C   UNL A   1      36.557  22.798  23.440  1.00  0.00    -0.036 C 
ATOM      5  H   UNL A   1      37.254  23.483  23.003  1.00  0.00     0.028 H 
ATOM      6  H   UNL A   1      36.303  21.994  22.781  1.00  0.00     0.028 H 
BRANCH   4   7
ATOM      7  C   UNL A   1      35.264  23.552  23.734  1.00  0.00     0.018 C 
ATOM      8  H   UNL A   1      35.117  23.594  24.794  1.00  0.00     0.049 H 
ATOM      9  H   UNL A   1      35.345  24.538  23.327  1.00  0.00     0.049 H 
BRANCH   7  10
ATOM     10  N   UNL A   1      34.127  22.894  23.126  1.00  0.00    -0.351 N 
ATOM     11  C   UNL A   1      32.775  23.124  23.127  1.00  0.00     0.267 C 
ATOM     12  O   UNL A   1      32.058  22.294  22.576  1.00  0.00    -0.268 OA
ATOM     13  H   UNL A   1      34.380  22.105  22.593  1.00  0.00     0.163 HD
BRANCH  11  14
ATOM     14  C   UNL A   1      32.130  24.366  23.725  1.00  0.00     0.128 C 
ATOM     15  N   UNL A   1      31.271  26.311  23.778  1.00  0.00    -0.254 N 
ATOM     16  N   UNL A   1      31.572  25.263  22.969  1.00  0.00    -0.171 NA
ATOM     17  C   UNL A   1      31.466  26.047  25.204  1.00  0.00     0.116 C 
ATOM     18  C   UNL A   1      32.114  24.664  25.186  1.00  0.00     0.027 C 
ATOM     19  H   UNL A   1      30.534  26.117  25.725  1.00  0.00     0.064 H 
ATOM     20  H   UNL A   1      33.105  24.690  25.590  1.00  0.00     0.036 H 
ATOM     21  H   UNL A   1      31.602  23.932  25.776  1.00  0.00     0.036 H 
BRANCH  15  22
ATOM     22  C   UNL A   1      30.509  27.371  23.311  1.00  0.00     0.060 A 
ATOM     23  C   UNL A   1      29.027  29.593  22.459  1.00  0.00     0.082 A 
ATOM     24  C   UNL A   1      28.368  28.487  23.003  1.00  0.00    -0.040 A 
ATOM     25  C   UNL A   1      30.410  29.582  22.288  1.00  0.00    -0.040 A 
ATOM     26  C   UNL A   1      29.113  27.379  23.419  1.00  0.00    -0.035 A 
ATOM     27  H   UNL A   1      27.340  28.488  23.094  1.00  0.00     0.064 H 
ATOM     28  C   UNL A   1      31.136  28.471  22.709  1.00  0.00    -0.035 A 
ATOM     29  H   UNL A   1      30.890  30.386  21.854  1.00  0.00     0.064 H 
ATOM     30  H   UNL A   1      28.627  26.557  23.813  1.00  0.00     0.065 H 
ATOM     31  H   UNL A   1      32.160  28.456  22.575  1.00  0.00     0.065 H 
BRANCH  23  32
ATOM     32  S   UNL A   1      28.101  31.003  21.939  1.00  0.00     0.238 S 
ATOM     33  O   UNL A   1      27.168  31.375  22.975  1.00  0.00    -0.207 OA
ATOM     34  O   UNL A   1      27.708  30.839  20.558  1.00  0.00    -0.207 OA
BRANCH  32  35
ATOM     35  N   UNL A   1      29.284  32.198  21.929  1.00  0.00    -0.225 NA
ATOM     36  H   UNL A   1      30.207  31.764  21.960  1.00  0.00     0.137 HD
ATOM     37  H   UNL A   1      29.164  32.801  22.742  1.00  0.00     0.137 HD
ENDBRANCH  32  35
ENDBRANCH  23  32
ENDBRANCH  15  22
BRANCH  17  38
ATOM     38  C   UNL A   1      32.255  27.046  26.001  1.00  0.00     0.128 A 
ATOM     39  C   UNL A   1      33.612  27.219  26.203  1.00  0.00    -0.018 A 
ATOM     40  O   UNL A   1      31.570  28.005  26.694  1.00  0.00    -0.467 OA
ATOM     41  C   UNL A   1      33.754  28.313  27.089  1.00  0.00    -0.023 A 
ATOM     42  H   UNL A   1      34.373  26.660  25.788  1.00  0.00     0.066 H 
ATOM     43  C   UNL A   1      32.483  28.768  27.343  1.00  0.00     0.091 A 
ATOM     44  H   UNL A   1      34.636  28.692  27.469  1.00  0.00     0.066 H 
ATOM     45  H   UNL A   1      32.256  29.576  27.944  1.00  0.00     0.104 H 
ENDBRANCH  17  38
ENDBRANCH  11  14
ENDBRANCH   7  10
ENDBRANCH   4   7
ENDBRANCH   1   4
BRANCH   1  46
ATOM     46  C   UNL A   1      36.816  20.714  24.939  1.00  0.00    -0.052 C 
ATOM     47  H   UNL A   1      36.148  20.403  24.164  1.00  0.00     0.027 H 
ATOM     48  H   UNL A   1      36.376  20.693  25.914  1.00  0.00     0.027 H 
BRANCH  46  49
ATOM     49  C   UNL A   1      37.988  19.729  24.979  1.00  0.00    -0.036 C 
ATOM     50  H   UNL A   1      38.286  19.522  23.972  1.00  0.00     0.028 H 
ATOM     51  H   UNL A   1      37.638  18.860  25.497  1.00  0.00     0.028 H 
BRANCH  49  52
ATOM     52  C   UNL A   1      39.206  20.231  25.743  1.00  0.00     0.018 C 
ATOM     53  H   UNL A   1      38.900  20.531  26.724  1.00  0.00     0.049 H 
ATOM     54  H   UNL A   1      39.622  21.054  25.200  1.00  0.00     0.049 H 
BRANCH  52  55
ATOM     55  N   UNL A   1      40.230  19.207  25.864  1.00  0.00    -0.352 N 
ATOM     56  C   UNL A   1      41.575  19.346  26.091  1.00  0.00     0.251 C 
ATOM     57  H   UNL A   1      39.913  18.280  25.770  1.00  0.00     0.163 HD
ATOM     58  O   UNL A   1      42.329  18.389  25.947  1.00  0.00    -0.269 OA
BRANCH  56  59
ATOM     59  C   UNL A   1      42.119  20.659  26.493  1.00  0.00     0.039 A 
ATOM     60  C   UNL A   1      42.562  21.538  25.502  1.00  0.00    -0.049 A 
ATOM     61  C   UNL A   1      42.202  21.018  27.841  1.00  0.00    -0.049 A 
ATOM     62  C   UNL A   1      43.038  22.799  25.862  1.00  0.00    -0.053 A 
ATOM     63  H   UNL A   1      42.537  21.257  24.510  1.00  0.00     0.063 H 
ATOM     64  C   UNL A   1      42.599  22.304  28.192  1.00  0.00    -0.053 A 
ATOM     65  H   UNL A   1      41.969  20.331  28.575  1.00  0.00     0.063 H 
ATOM     66  C   UNL A   1      43.030  23.205  27.207  1.00  0.00    -0.014 A 
ATOM     67  H   UNL A   1      43.400  23.437  25.136  1.00  0.00     0.063 H 
ATOM     68  H   UNL A   1      42.577  22.596  29.182  1.00  0.00     0.063 H 
BRANCH  66  69
ATOM     69  C   UNL A   1      43.472  24.567  27.601  1.00  0.00     0.031 A 
ATOM     70  C   UNL A   1      42.458  25.620  27.952  1.00  0.00     0.074 A 
ATOM     71  C   UNL A   1      44.785  24.870  27.589  1.00  0.00     0.049 A 
ATOM     72  N   UNL A   1      42.643  26.877  28.264  1.00  0.00    -0.248 NA
ATOM     73  C   UNL A   1      41.044  25.213  27.921  1.00  0.00    -0.034 C 
ATOM     74  C   UNL A   1      45.861  23.947  27.225  1.00  0.00    -0.036 A 
ATOM     75  N   UNL A   1      45.437  26.041  27.884  1.00  0.00    -0.354 N 
ATOM     76  C   UNL A   1      41.375  27.410  28.457  1.00  0.00     0.074 A 
ATOM     77  C   UNL A   1      40.427  26.358  28.165  1.00  0.00    -0.034 C 
ATOM     78  H   UNL A   1      40.640  24.278  27.753  1.00  0.00     0.065 H 
ATOM     79  C   UNL A   1      47.040  24.577  27.345  1.00  0.00    -0.036 A 
ATOM     80  H   UNL A   1      45.734  22.968  26.925  1.00  0.00     0.065 H 
ATOM     81  C   UNL A   1      46.802  25.960  27.747  1.00  0.00     0.049 A 
ATOM     82  H   UNL A   1      44.972  26.861  28.166  1.00  0.00     0.167 HD
ATOM     83  C   UNL A   1      41.035  28.657  28.863  1.00  0.00     0.037 A 
ATOM     84  H   UNL A   1      39.402  26.484  28.149  1.00  0.00     0.065 H 
ATOM     85  H   UNL A   1      47.966  24.154  27.177  1.00  0.00     0.065 H 
ATOM     86  C   UNL A   1      47.753  26.899  27.916  1.00  0.00     0.037 A 
ATOM     87  C   UNL A   1      41.986  29.695  29.166  1.00  0.00     0.049 A 
ATOM     88  C   UNL A   1      47.345  28.284  28.344  1.00  0.00     0.074 A 
ATOM     89  C   UNL A   1      41.746  30.973  29.636  1.00  0.00    -0.036 A 
ATOM     90  N   UNL A   1      43.360  29.574  29.020  1.00  0.00    -0.354 N 
ATOM     91  N   UNL A   1      46.147  28.757  28.591  1.00  0.00    -0.248 NA
ATOM     92  C   UNL A   1      48.425  29.265  28.522  1.00  0.00    -0.034 C 
ATOM     93  C   UNL A   1      42.969  31.647  29.714  1.00  0.00    -0.036 A 
ATOM     94  H   UNL A   1      40.823  31.363  29.888  1.00  0.00     0.065 H 
ATOM     95  C   UNL A   1      43.979  30.767  29.361  1.00  0.00     0.049 A 
ATOM     96  H   UNL A   1      43.828  28.763  28.718  1.00  0.00     0.167 HD
ATOM     97  C   UNL A   1      46.331  30.075  28.986  1.00  0.00     0.074 A 
ATOM     98  C   UNL A   1      47.757  30.322  28.960  1.00  0.00    -0.034 C 
ATOM     99  H   UNL A   1      49.436  29.158  28.352  1.00  0.00     0.065 H 
ATOM    100  H   UNL A   1      43.097  32.634  29.988  1.00  0.00     0.065 H 
ATOM    101  C   UNL A   1      45.401  30.998  29.338  1.00  0.00     0.037 A 
ATOM    102  H   UNL A   1      48.198  31.211  29.246  1.00  0.00     0.065 H 
BRANCH  83 103
ATOM    103  C   UNL A   1      39.572  28.969  29.002  1.00  0.00     0.064 A 
ATOM    104  C   UNL A   1      38.791  29.362  27.903  1.00  0.00     0.173 A 
ATOM    105  C   UNL A   1      38.931  28.836  30.244  1.00  0.00     0.173 A 
ATOM    106  F   UNL A   1      39.354  29.515  26.695  1.00  0.00    -0.203 F 
ATOM    107  C   UNL A   1      37.435  29.643  28.049  1.00  0.00     0.198 A 
ATOM    108  C   UNL A   1      37.567  29.082  30.378  1.00  0.00     0.198 A 
ATOM    109  F   UNL A   1      39.626  28.457  31.327  1.00  0.00    -0.203 F 
ATOM    110  F   UNL A   1      36.724  30.071  26.996  1.00  0.00    -0.200 F 
ATOM    111  C   UNL A   1      36.822  29.494  29.283  1.00  0.00     0.200 A 
ATOM    112  F   UNL A   1      36.973  28.922  31.569  1.00  0.00    -0.200 F 
ATOM    113  F   UNL A   1      35.515  29.756  29.421  1.00  0.00    -0.200 F 
ENDBRANCH  83 103
BRANCH  86 114
ATOM    114  C   UNL A   1      49.184  26.558  27.697  1.00  0.00     0.064 A 
ATOM    115  C   UNL A   1      49.710  26.449  26.402  1.00  0.00     0.173 A 
ATOM    116  C   UNL A   1      50.051  26.324  28.775  1.00  0.00     0.173 A 
ATOM    117  F   UNL A   1      48.918  26.645  25.338  1.00  0.00    -0.203 F 
ATOM    118  C   UNL A   1      51.040  26.091  26.194  1.00  0.00     0.198 A 
ATOM    119  C   UNL A   1      51.390  26.000  28.565  1.00  0.00     0.198 A 
ATOM    120  F   UNL A   1      49.601  26.422  30.034  1.00  0.00    -0.203 F 
ATOM    121  F   UNL A   1      51.503  25.940  24.945  1.00  0.00    -0.200 F 
ATOM    122  C   UNL A   1      51.881  25.873  27.275  1.00  0.00     0.200 A 
ATOM    123  F   UNL A   1      52.202  25.808  29.613  1.00  0.00    -0.200 F 
ATOM    124  F   UNL A   1      53.161  25.532  27.074  1.00  0.00    -0.200 F 
ENDBRANCH  86 114
BRANCH 101 125
ATOM    125  C   UNL A   1      45.898  32.349  29.769  1.00  0.00     0.064 A 
ATOM    126  C   UNL A   1      46.043  33.410  28.862  1.00  0.00     0.173 A 
ATOM    127  C   UNL A   1      46.195  32.596  31.119  1.00  0.00     0.173 A 
ATOM    128  F   UNL A   1      45.786  33.223  27.558  1.00  0.00    -0.203 F 
ATOM    129  C   UNL A   1      46.496  34.657  29.286  1.00  0.00     0.198 A 
ATOM    130  C   UNL A   1      46.612  33.854  31.543  1.00  0.00     0.198 A 
ATOM    131  F   UNL A   1      46.065  31.621  32.030  1.00  0.00    -0.203 F 
ATOM    132  F   UNL A   1      46.681  35.638  28.391  1.00  0.00    -0.200 F 
ATOM    133  C   UNL A   1      46.771  34.880  30.626  1.00  0.00     0.200 A 
ATOM    134  F   UNL A   1      46.858  34.073  32.843  1.00  0.00    -0.200 F 
ATOM    135  F   UNL A   1      47.197  36.084  31.032  1.00  0.00    -0.200 F 
ENDBRANCH 101 125
ENDBRANCH  66  69
ENDBRANCH  56  59
ENDBRANCH  52  55
ENDBRANCH  49  52
ENDBRANCH  46  49
ENDBRANCH   1  46
TORSDOF 17
ENDMDL
MODEL 2
REMARK VINA RESULT:     -12.5      0.471      7.199
REMARK SMILES NS(=O)(=O)c1ccc(N2N=C(C(=O)NCCCCCCNC(=O)c3ccc(-c4c5nc(c(-c6c(F)c(F)c(F)c(F)c6F)c6ccc([nH]6)c(-c6c(F)c(F)c(F)c(F)c6F)c6nc(c(-c7c(F)c(F)c(F)c(F)c7F)c7ccc4[nH]7)C=C6)C=C5)cc3)C[C@H]2c2ccco2)cc1
REMARK SMILES IDX 17 1 16 4 15 7 14 10 12 11 13 12 11 14 9 15 10 16 88 17
REMARK SMILES IDX 87 18 8 22 5 23 6 24 95 25 7 26 94 28 2 32 3 33 4 34 1 35
REMARK SMILES IDX 89 38 90 39 93 40 91 41 92 43 18 46 19 49 20 52 21 55 22 56
REMARK SMILES IDX 23 58 24 59 25 60 86 61 26 62 85 64 27 66 28 69 29 70 79 71
REMARK SMILES IDX 30 72 84 73 78 74 80 75 31 76 83 77 77 79 76 81 32 83 64 86
REMARK SMILES IDX 44 87 63 88 45 89 48 90 62 91 81 92 46 93 47 95 61 97 82 98
REMARK SMILES IDX 49 101 33 103 34 104 42 105 35 106 36 107 40 108 43 109
REMARK SMILES IDX 37 110 38 111 41 112 39 113 65 114 66 115 74 116 67 117
REMARK SMILES IDX 68 118 72 119 75 120 69 121 70 122 73 123 71 124 50 125
REMARK SMILES IDX 51 126 59 127 52 128 53 129 57 130 60 131 54 132 55 133
REMARK SMILES IDX 58 134 56 135
REMARK H PARENT 17 2 17 3 16 5 16 6 15 8 15 9 14 13 88 19 87 20 87 21 6 27
REMARK H PARENT 95 29 7 30 94 31 1 36 1 37 90 42 91 44 92 45 18 47 18 48 19 50
REMARK H PARENT 19 51 20 53 20 54 21 57 25 63 86 65 26 67 85 68 84 78 78 80
REMARK H PARENT 80 82 83 84 77 85 45 94 48 96 81 99 46 100 82 102
REMARK Flexibility Score: inf
ROOT
ATOM      1  C   UNL A   1      37.037  21.998  24.854  1.00  0.00    -0.052 C 
ATOM      2  H   UNL A   1      36.510  22.505  25.636  1.00  0.00     0.027 H 
ATOM      3  H   UNL A   1      38.100  22.092  24.932  1.00  0.00     0.027 H 
ENDROOT
BRANCH   1   4
ATOM      4  C   UNL A   1      36.645  22.638  23.522  1.00  0.00    -0.036 C 
ATOM      5  H   UNL A   1      37.465  23.235  23.180  1.00  0.00     0.028 H 
ATOM      6  H   UNL A   1      36.410  21.838  22.850  1.00  0.00     0.028 H 
BRANCH   4   7
ATOM      7  C   UNL A   1      35.407  23.524  23.604  1.00  0.00     0.018 C 
ATOM      8  H   UNL A   1      35.261  23.827  24.620  1.00  0.00     0.049 H 
ATOM      9  H   UNL A   1      35.557  24.376  22.976  1.00  0.00     0.049 H 
BRANCH   7  10
ATOM     10  N   UNL A   1      34.229  22.817  23.149  1.00  0.00    -0.351 N 
ATOM     11  C   UNL A   1      32.879  23.026  23.276  1.00  0.00     0.267 C 
ATOM     12  O   UNL A   1      32.128  22.156  22.843  1.00  0.00    -0.268 OA
ATOM     13  H   UNL A   1      34.444  22.006  22.633  1.00  0.00     0.163 HD
BRANCH  11  14
ATOM     14  C   UNL A   1      32.271  24.286  23.872  1.00  0.00     0.128 C 
ATOM     15  N   UNL A   1      31.454  26.250  23.922  1.00  0.00    -0.254 N 
ATOM     16  N   UNL A   1      31.719  25.188  23.118  1.00  0.00    -0.171 NA
ATOM     17  C   UNL A   1      31.670  25.995  25.346  1.00  0.00     0.116 C 
ATOM     18  C   UNL A   1      32.288  24.599  25.330  1.00  0.00     0.027 C 
ATOM     19  H   UNL A   1      30.749  26.090  25.883  1.00  0.00     0.064 H 
ATOM     20  H   UNL A   1      33.286  24.608  25.716  1.00  0.00     0.036 H 
ATOM     21  H   UNL A   1      31.771  23.884  25.937  1.00  0.00     0.036 H 
BRANCH  15  22
ATOM     22  C   UNL A   1      30.707  27.321  23.457  1.00  0.00     0.060 A 
ATOM     23  C   UNL A   1      29.141  29.406  22.427  1.00  0.00     0.082 A 
ATOM     24  C   UNL A   1      30.535  29.485  22.357  1.00  0.00    -0.040 A 
ATOM     25  C   UNL A   1      28.522  28.324  23.051  1.00  0.00    -0.040 A 
ATOM     26  C   UNL A   1      31.310  28.445  22.879  1.00  0.00    -0.035 A 
ATOM     27  H   UNL A   1      30.987  30.306  21.924  1.00  0.00     0.064 H 
ATOM     28  C   UNL A   1      29.309  27.297  23.565  1.00  0.00    -0.035 A 
ATOM     29  H   UNL A   1      27.494  28.286  23.132  1.00  0.00     0.064 H 
ATOM     30  H   UNL A   1      32.339  28.506  22.837  1.00  0.00     0.065 H 
ATOM     31  H   UNL A   1      28.853  26.499  24.036  1.00  0.00     0.065 H 
BRANCH  23  32
ATOM     32  S   UNL A   1      28.150  30.706  21.762  1.00  0.00     0.238 S 
ATOM     33  O   UNL A   1      27.154  31.095  22.730  1.00  0.00    -0.207 OA
ATOM     34  O   UNL A   1      27.825  30.408  20.386  1.00  0.00    -0.207 OA
BRANCH  32  35
ATOM     35  N   UNL A   1      29.254  31.972  21.697  1.00  0.00    -0.225 NA
ATOM     36  H   UNL A   1      29.698  31.990  20.779  1.00  0.00     0.137 HD
ATOM     37  H   UNL A   1      29.965  31.840  22.416  1.00  0.00     0.137 HD
ENDBRANCH  32  35
ENDBRANCH  23  32
ENDBRANCH  15  22
BRANCH  17  38
ATOM     38  C   UNL A   1      32.494  26.985  26.119  1.00  0.00     0.128 A 
ATOM     39  C   UNL A   1      32.203  27.807  27.192  1.00  0.00    -0.018 A 
ATOM     40  O   UNL A   1      33.798  27.169  25.750  1.00  0.00    -0.467 OA
ATOM     41  C   UNL A   1      33.376  28.551  27.464  1.00  0.00    -0.023 A 
ATOM     42  H   UNL A   1      31.306  27.867  27.698  1.00  0.00     0.066 H 
ATOM     43  C   UNL A   1      34.323  28.112  26.570  1.00  0.00     0.091 A 
ATOM     44  H   UNL A   1      33.496  29.278  28.186  1.00  0.00     0.066 H 
ATOM     45  H   UNL A   1      35.297  28.452  26.529  1.00  0.00     0.104 H 
ENDBRANCH  17  38
ENDBRANCH  11  14
ENDBRANCH   7  10
ENDBRANCH   4   7
ENDBRANCH   1   4
BRANCH   1  46
ATOM     46  C   UNL A   1      36.728  20.500  24.966  1.00  0.00    -0.052 C 
ATOM     47  H   UNL A   1      36.122  20.223  24.129  1.00  0.00     0.027 H 
ATOM     48  H   UNL A   1      36.238  20.367  25.908  1.00  0.00     0.027 H 
BRANCH  46  49
ATOM     49  C   UNL A   1      37.955  19.584  24.988  1.00  0.00    -0.036 C 
ATOM     50  H   UNL A   1      38.244  19.387  23.977  1.00  0.00     0.028 H 
ATOM     51  H   UNL A   1      37.666  18.701  25.520  1.00  0.00     0.028 H 
BRANCH  49  52
ATOM     52  C   UNL A   1      39.157  20.161  25.725  1.00  0.00     0.018 C 
ATOM     53  H   UNL A   1      38.847  20.476  26.700  1.00  0.00     0.049 H 
ATOM     54  H   UNL A   1      39.530  20.986  25.154  1.00  0.00     0.049 H 
BRANCH  52  55
ATOM     55  N   UNL A   1      40.227  19.188  25.863  1.00  0.00    -0.352 N 
ATOM     56  C   UNL A   1      41.564  19.393  26.082  1.00  0.00     0.251 C 
ATOM     57  H   UNL A   1      39.951  18.246  25.789  1.00  0.00     0.163 HD
ATOM     58  O   UNL A   1      42.360  18.468  25.956  1.00  0.00    -0.269 OA
BRANCH  56  59
ATOM     59  C   UNL A   1      42.049  20.737  26.455  1.00  0.00     0.039 A 
ATOM     60  C   UNL A   1      42.421  21.625  25.443  1.00  0.00    -0.049 A 
ATOM     61  C   UNL A   1      42.147  21.117  27.796  1.00  0.00    -0.049 A 
ATOM     62  C   UNL A   1      42.840  22.913  25.776  1.00  0.00    -0.053 A 
ATOM     63  H   UNL A   1      42.386  21.330  24.455  1.00  0.00     0.063 H 
ATOM     64  C   UNL A   1      42.486  22.426  28.122  1.00  0.00    -0.053 A 
ATOM     65  H   UNL A   1      41.969  20.428  28.544  1.00  0.00     0.063 H 
ATOM     66  C   UNL A   1      42.845  23.335  27.116  1.00  0.00    -0.014 A 
ATOM     67  H   UNL A   1      43.151  23.560  25.033  1.00  0.00     0.063 H 
ATOM     68  H   UNL A   1      42.474  22.730  29.108  1.00  0.00     0.063 H 
BRANCH  66  69
ATOM     69  C   UNL A   1      43.225  24.724  27.482  1.00  0.00     0.031 A 
ATOM     70  C   UNL A   1      44.673  25.127  27.519  1.00  0.00     0.074 A 
ATOM     71  C   UNL A   1      42.269  25.605  27.832  1.00  0.00     0.049 A 
ATOM     72  N   UNL A   1      45.206  26.271  27.867  1.00  0.00    -0.248 NA
ATOM     73  C   UNL A   1      45.656  24.099  27.141  1.00  0.00    -0.034 C 
ATOM     74  C   UNL A   1      40.833  25.320  27.878  1.00  0.00    -0.036 A 
ATOM     75  N   UNL A   1      42.359  26.917  28.226  1.00  0.00    -0.354 N 
ATOM     76  C   UNL A   1      46.580  26.097  27.759  1.00  0.00     0.074 A 
ATOM     77  C   UNL A   1      46.802  24.720  27.375  1.00  0.00    -0.034 C 
ATOM     78  H   UNL A   1      45.494  23.144  26.786  1.00  0.00     0.065 H 
ATOM     79  C   UNL A   1      40.176  26.430  28.248  1.00  0.00    -0.036 A 
ATOM     80  H   UNL A   1      40.397  24.411  27.658  1.00  0.00     0.065 H 
ATOM     81  C   UNL A   1      41.144  27.490  28.513  1.00  0.00     0.049 A 
ATOM     82  H   UNL A   1      43.213  27.400  28.297  1.00  0.00     0.167 HD
ATOM     83  C   UNL A   1      47.564  27.009  27.941  1.00  0.00     0.037 A 
ATOM     84  H   UNL A   1      47.732  24.280  27.292  1.00  0.00     0.065 H 
ATOM     85  H   UNL A   1      39.152  26.519  28.334  1.00  0.00     0.065 H 
ATOM     86  C   UNL A   1      40.845  28.728  28.951  1.00  0.00     0.037 A 
ATOM     87  C   UNL A   1      47.334  28.382  28.309  1.00  0.00     0.049 A 
ATOM     88  C   UNL A   1      41.961  29.716  29.170  1.00  0.00     0.074 A 
ATOM     89  C   UNL A   1      48.258  29.399  28.466  1.00  0.00    -0.036 A 
ATOM     90  N   UNL A   1      46.089  28.928  28.587  1.00  0.00    -0.354 N 
ATOM     91  N   UNL A   1      43.252  29.560  28.996  1.00  0.00    -0.248 NA
ATOM     92  C   UNL A   1      41.577  31.054  29.639  1.00  0.00    -0.034 C 
ATOM     93  C   UNL A   1      47.581  30.543  28.900  1.00  0.00    -0.036 A 
ATOM     94  H   UNL A   1      49.274  29.327  28.291  1.00  0.00     0.065 H 
ATOM     95  C   UNL A   1      46.225  30.260  28.945  1.00  0.00     0.049 A 
ATOM     96  H   UNL A   1      45.235  28.441  28.539  1.00  0.00     0.167 HD
ATOM     97  C   UNL A   1      43.828  30.786  29.301  1.00  0.00     0.074 A 
ATOM     98  C   UNL A   1      42.744  31.679  29.655  1.00  0.00    -0.034 C 
ATOM     99  H   UNL A   1      40.643  31.413  29.889  1.00  0.00     0.065 H 
ATOM    100  H   UNL A   1      48.018  31.446  29.145  1.00  0.00     0.065 H 
ATOM    101  C   UNL A   1      45.137  31.141  29.288  1.00  0.00     0.037 A 
ATOM    102  H   UNL A   1      42.868  32.676  29.891  1.00  0.00     0.065 H 
BRANCH  83 103
ATOM    103  C   UNL A   1      48.982  26.552  27.746  1.00  0.00     0.064 A 
ATOM    104  C   UNL A   1      49.545  26.410  26.468  1.00  0.00     0.173 A 
ATOM    105  C   UNL A   1      49.802  26.289  28.854  1.00  0.00     0.173 A 
ATOM    106  F   UNL A   1      48.803  26.639  25.374  1.00  0.00    -0.203 F 
ATOM    107  C   UNL A   1      50.863  25.990  26.306  1.00  0.00     0.198 A 
ATOM    108  C   UNL A   1      51.131  25.905  28.689  1.00  0.00     0.198 A 
ATOM    109  F   UNL A   1      49.320  26.415  30.100  1.00  0.00    -0.203 F 
ATOM    110  F   UNL A   1      51.360  25.808  25.075  1.00  0.00    -0.200 F 
ATOM    111  C   UNL A   1      51.657  25.746  27.416  1.00  0.00     0.200 A 
ATOM    112  F   UNL A   1      51.902  25.685  29.764  1.00  0.00    -0.200 F 
ATOM    113  F   UNL A   1      52.928  25.351  27.259  1.00  0.00    -0.200 F 
ENDBRANCH  83 103
BRANCH  86 114
ATOM    114  C   UNL A   1      39.429  29.111  29.197  1.00  0.00     0.064 A 
ATOM    115  C   UNL A   1      38.871  29.026  30.481  1.00  0.00     0.173 A 
ATOM    116  C   UNL A   1      38.603  29.556  28.156  1.00  0.00     0.173 A 
ATOM    117  F   UNL A   1      39.614  28.587  31.507  1.00  0.00    -0.203 F 
ATOM    118  C   UNL A   1      37.534  29.345  30.707  1.00  0.00     0.198 A 
ATOM    119  C   UNL A   1      37.275  29.909  28.390  1.00  0.00     0.198 A 
ATOM    120  F   UNL A   1      39.088  29.663  26.910  1.00  0.00    -0.203 F 
ATOM    121  F   UNL A   1      37.012  29.202  31.933  1.00  0.00    -0.200 F 
ATOM    122  C   UNL A   1      36.739  29.792  29.663  1.00  0.00     0.200 A 
ATOM    123  F   UNL A   1      36.516  30.358  27.381  1.00  0.00    -0.200 F 
ATOM    124  F   UNL A   1      35.453  30.103  29.882  1.00  0.00    -0.200 F 
ENDBRANCH  86 114
BRANCH 101 125
ATOM    125  C   UNL A   1      45.470  32.566  29.625  1.00  0.00     0.064 A 
ATOM    126  C   UNL A   1      45.791  32.965  30.931  1.00  0.00     0.173 A 
ATOM    127  C   UNL A   1      45.508  33.541  28.615  1.00  0.00     0.173 A 
ATOM    128  F   UNL A   1      45.757  32.076  31.936  1.00  0.00    -0.203 F 
ATOM    129  C   UNL A   1      46.106  34.291  31.218  1.00  0.00     0.198 A 
ATOM    130  C   UNL A   1      45.859  34.857  28.900  1.00  0.00     0.198 A 
ATOM    131  F   UNL A   1      45.218  33.213  27.347  1.00  0.00    -0.203 F 
ATOM    132  F   UNL A   1      46.354  34.659  32.483  1.00  0.00    -0.200 F 
ATOM    133  C   UNL A   1      46.148  35.233  30.201  1.00  0.00     0.200 A 
ATOM    134  F   UNL A   1      45.918  35.762  27.912  1.00  0.00    -0.200 F 
ATOM    135  F   UNL A   1      46.462  36.506  30.479  1.00  0.00    -0.200 F 
ENDBRANCH 101 125
ENDBRANCH  66  69
ENDBRANCH  56  59
ENDBRANCH  52  55
ENDBRANCH  49  52
ENDBRANCH  46  49
ENDBRANCH   1  46
TORSDOF 17
ENDMDL
MODEL 3
REMARK VINA RESULT:     -12.2      5.238      9.893
REMARK SMILES NS(=O)(=O)c1ccc(N2N=C(C(=O)NCCCCCCNC(=O)c3ccc(-c4c5nc(c(-c6c(F)c(F)c(F)c(F)c6F)c6ccc([nH]6)c(-c6c(F)c(F)c(F)c(F)c6F)c6nc(c(-c7c(F)c(F)c(F)c(F)c7F)c7ccc4[nH]7)C=C6)C=C5)cc3)C[C@H]2c2ccco2)cc1
REMARK SMILES IDX 17 1 16 4 15 7 14 10 12 11 13 12 11 14 9 15 10 16 88 17
REMARK SMILES IDX 87 18 8 22 5 23 6 24 95 25 7 26 94 28 2 32 3 33 4 34 1 35
REMARK SMILES IDX 89 38 90 39 93 40 91 41 92 43 18 46 19 49 20 52 21 55 22 56
REMARK SMILES IDX 23 58 24 59 25 60 86 61 26 62 85 64 27 66 28 69 29 70 79 71
REMARK SMILES IDX 30 72 84 73 78 74 80 75 31 76 83 77 77 79 76 81 32 83 64 86
REMARK SMILES IDX 44 87 63 88 45 89 48 90 62 91 81 92 46 93 47 95 61 97 82 98
REMARK SMILES IDX 49 101 33 103 34 104 42 105 35 106 36 107 40 108 43 109
REMARK SMILES IDX 37 110 38 111 41 112 39 113 65 114 66 115 74 116 67 117
REMARK SMILES IDX 68 118 72 119 75 120 69 121 70 122 73 123 71 124 50 125
REMARK SMILES IDX 51 126 59 127 52 128 53 129 57 130 60 131 54 132 55 133
REMARK SMILES IDX 58 134 56 135
REMARK H PARENT 17 2 17 3 16 5 16 6 15 8 15 9 14 13 88 19 87 20 87 21 6 27
REMARK H PARENT 95 29 7 30 94 31 1 36 1 37 90 42 91 44 92 45 18 47 18 48 19 50
REMARK H PARENT 19 51 20 53 20 54 21 57 25 63 86 65 26 67 85 68 84 78 78 80
REMARK H PARENT 80 82 83 84 77 85 45 94 48 96 81 99 46 100 82 102
REMARK Flexibility Score: inf
ROOT
ATOM      1  C   UNL A   1      31.740  29.388  25.600  1.00  0.00    -0.052 C 
ATOM      2  H   UNL A   1      30.780  29.125  25.206  1.00  0.00     0.027 H 
ATOM      3  H   UNL A   1      32.313  30.004  24.940  1.00  0.00     0.027 H 
ENDROOT
BRANCH   1   4
ATOM      4  C   UNL A   1      32.543  28.101  25.795  1.00  0.00    -0.036 C 
ATOM      5  H   UNL A   1      32.928  27.797  24.844  1.00  0.00     0.028 H 
ATOM      6  H   UNL A   1      33.316  28.321  26.501  1.00  0.00     0.028 H 
BRANCH   4   7
ATOM      7  C   UNL A   1      31.730  26.949  26.374  1.00  0.00     0.018 C 
ATOM      8  H   UNL A   1      32.381  26.120  26.562  1.00  0.00     0.049 H 
ATOM      9  H   UNL A   1      31.272  27.279  27.283  1.00  0.00     0.049 H 
BRANCH   7  10
ATOM     10  N   UNL A   1      30.689  26.533  25.458  1.00  0.00    -0.351 N 
ATOM     11  C   UNL A   1      30.605  25.583  24.473  1.00  0.00     0.267 C 
ATOM     12  O   UNL A   1      29.581  25.556  23.796  1.00  0.00    -0.268 OA
ATOM     13  H   UNL A   1      29.855  27.047  25.566  1.00  0.00     0.163 HD
BRANCH  11  14
ATOM     14  C   UNL A   1      31.681  24.539  24.211  1.00  0.00     0.128 C 
ATOM     15  N   UNL A   1      32.668  22.657  24.304  1.00  0.00    -0.254 N 
ATOM     16  N   UNL A   1      31.472  23.281  24.461  1.00  0.00    -0.171 NA
ATOM     17  C   UNL A   1      33.719  23.502  23.737  1.00  0.00     0.116 C 
ATOM     18  C   UNL A   1      33.040  24.869  23.692  1.00  0.00     0.027 C 
ATOM     19  H   UNL A   1      34.040  23.111  22.793  1.00  0.00     0.064 H 
ATOM     20  H   UNL A   1      33.538  25.575  24.323  1.00  0.00     0.036 H 
ATOM     21  H   UNL A   1      33.039  25.326  22.724  1.00  0.00     0.036 H 
BRANCH  15  22
ATOM     22  C   UNL A   1      32.754  21.273  24.333  1.00  0.00     0.060 A 
ATOM     23  C   UNL A   1      33.061  18.488  24.401  1.00  0.00     0.082 A 
ATOM     24  C   UNL A   1      32.529  19.099  23.263  1.00  0.00    -0.040 A 
ATOM     25  C   UNL A   1      33.393  19.244  25.524  1.00  0.00    -0.040 A 
ATOM     26  C   UNL A   1      32.371  20.489  23.238  1.00  0.00    -0.035 A 
ATOM     27  H   UNL A   1      32.252  18.529  22.448  1.00  0.00     0.064 H 
ATOM     28  C   UNL A   1      33.231  20.627  25.481  1.00  0.00    -0.035 A 
ATOM     29  H   UNL A   1      33.753  18.786  26.375  1.00  0.00     0.064 H 
ATOM     30  H   UNL A   1      31.970  20.941  22.402  1.00  0.00     0.065 H 
ATOM     31  H   UNL A   1      33.467  21.188  26.315  1.00  0.00     0.065 H 
BRANCH  23  32
ATOM     32  S   UNL A   1      33.275  16.737  24.442  1.00  0.00     0.238 S 
ATOM     33  O   UNL A   1      33.629  16.263  23.126  1.00  0.00    -0.207 OA
ATOM     34  O   UNL A   1      32.218  16.140  25.227  1.00  0.00    -0.207 OA
BRANCH  32  35
ATOM     35  N   UNL A   1      34.665  16.588  25.378  1.00  0.00    -0.225 NA
ATOM     36  H   UNL A   1      34.860  15.601  25.543  1.00  0.00     0.137 HD
ATOM     37  H   UNL A   1      34.526  17.061  26.270  1.00  0.00     0.137 HD
ENDBRANCH  32  35
ENDBRANCH  23  32
ENDBRANCH  15  22
BRANCH  17  38
ATOM     38  C   UNL A   1      35.046  23.537  24.439  1.00  0.00     0.128 A 
ATOM     39  C   UNL A   1      35.456  24.095  25.636  1.00  0.00    -0.018 A 
ATOM     40  O   UNL A   1      36.110  22.920  23.841  1.00  0.00    -0.467 OA
ATOM     41  C   UNL A   1      36.842  23.834  25.752  1.00  0.00    -0.023 A 
ATOM     42  H   UNL A   1      34.867  24.602  26.314  1.00  0.00     0.066 H 
ATOM     43  C   UNL A   1      37.188  23.101  24.643  1.00  0.00     0.091 A 
ATOM     44  H   UNL A   1      37.468  24.136  26.515  1.00  0.00     0.066 H 
ATOM     45  H   UNL A   1      38.135  22.738  24.448  1.00  0.00     0.104 H 
ENDBRANCH  17  38
ENDBRANCH  11  14
ENDBRANCH   7  10
ENDBRANCH   4   7
ENDBRANCH   1   4
BRANCH   1  46
ATOM     46  C   UNL A   1      31.522  30.211  26.876  1.00  0.00    -0.052 C 
ATOM     47  H   UNL A   1      32.338  30.016  27.540  1.00  0.00     0.027 H 
ATOM     48  H   UNL A   1      30.573  29.908  27.268  1.00  0.00     0.027 H 
BRANCH  46  49
ATOM     49  C   UNL A   1      31.432  31.725  26.664  1.00  0.00    -0.036 C 
ATOM     50  H   UNL A   1      30.713  32.117  27.353  1.00  0.00     0.028 H 
ATOM     51  H   UNL A   1      31.155  31.873  25.641  1.00  0.00     0.028 H 
BRANCH  49  52
ATOM     52  C   UNL A   1      32.746  32.467  26.871  1.00  0.00     0.018 C 
ATOM     53  H   UNL A   1      33.274  32.503  25.940  1.00  0.00     0.049 H 
ATOM     54  H   UNL A   1      33.310  31.941  27.613  1.00  0.00     0.049 H 
BRANCH  52  55
ATOM     55  N   UNL A   1      32.534  33.824  27.344  1.00  0.00    -0.352 N 
ATOM     56  C   UNL A   1      33.104  34.473  28.408  1.00  0.00     0.251 C 
ATOM     57  H   UNL A   1      31.887  34.355  26.825  1.00  0.00     0.163 HD
ATOM     58  O   UNL A   1      32.650  35.545  28.796  1.00  0.00    -0.269 OA
BRANCH  56  59
ATOM     59  C   UNL A   1      34.260  33.868  29.102  1.00  0.00     0.039 A 
ATOM     60  C   UNL A   1      34.027  32.940  30.119  1.00  0.00    -0.049 A 
ATOM     61  C   UNL A   1      35.567  34.224  28.758  1.00  0.00    -0.049 A 
ATOM     62  C   UNL A   1      35.107  32.328  30.754  1.00  0.00    -0.053 A 
ATOM     63  H   UNL A   1      33.061  32.708  30.398  1.00  0.00     0.063 H 
ATOM     64  C   UNL A   1      36.641  33.553  29.334  1.00  0.00    -0.053 A 
ATOM     65  H   UNL A   1      35.736  34.981  28.079  1.00  0.00     0.063 H 
ATOM     66  C   UNL A   1      36.423  32.604  30.345  1.00  0.00    -0.014 A 
ATOM     67  H   UNL A   1      34.940  31.668  31.530  1.00  0.00     0.063 H 
ATOM     68  H   UNL A   1      37.602  33.754  29.018  1.00  0.00     0.063 H 
BRANCH  66  69
ATOM     69  C   UNL A   1      37.581  31.912  30.966  1.00  0.00     0.031 A 
ATOM     70  C   UNL A   1      38.044  32.298  32.343  1.00  0.00     0.074 A 
ATOM     71  C   UNL A   1      38.247  30.974  30.266  1.00  0.00     0.049 A 
ATOM     72  N   UNL A   1      39.066  31.852  33.029  1.00  0.00    -0.248 NA
ATOM     73  C   UNL A   1      37.273  33.347  33.031  1.00  0.00    -0.034 C 
ATOM     74  C   UNL A   1      37.921  30.543  28.906  1.00  0.00    -0.036 A 
ATOM     75  N   UNL A   1      39.344  30.218  30.600  1.00  0.00    -0.354 N 
ATOM     76  C   UNL A   1      39.064  32.568  34.219  1.00  0.00     0.074 A 
ATOM     77  C   UNL A   1      37.980  33.522  34.136  1.00  0.00    -0.034 C 
ATOM     78  H   UNL A   1      36.407  33.820  32.729  1.00  0.00     0.065 H 
ATOM     79  C   UNL A   1      38.779  29.581  28.531  1.00  0.00    -0.036 A 
ATOM     80  H   UNL A   1      37.154  30.918  28.328  1.00  0.00     0.065 H 
ATOM     81  C   UNL A   1      39.744  29.360  29.604  1.00  0.00     0.049 A 
ATOM     82  H   UNL A   1      39.800  30.284  31.469  1.00  0.00     0.167 HD
ATOM     83  C   UNL A   1      39.878  32.426  35.292  1.00  0.00     0.037 A 
ATOM     84  H   UNL A   1      37.782  34.244  34.847  1.00  0.00     0.065 H 
ATOM     85  H   UNL A   1      38.761  29.080  27.630  1.00  0.00     0.065 H 
ATOM     86  C   UNL A   1      40.779  28.500  29.557  1.00  0.00     0.037 A 
ATOM     87  C   UNL A   1      40.946  31.464  35.373  1.00  0.00     0.049 A 
ATOM     88  C   UNL A   1      41.686  28.380  30.755  1.00  0.00     0.074 A 
ATOM     89  C   UNL A   1      41.794  31.204  36.435  1.00  0.00    -0.036 A 
ATOM     90  N   UNL A   1      41.319  30.609  34.346  1.00  0.00    -0.354 N 
ATOM     91  N   UNL A   1      41.631  29.013  31.902  1.00  0.00    -0.248 NA
ATOM     92  C   UNL A   1      42.793  27.420  30.652  1.00  0.00    -0.034 C 
ATOM     93  C   UNL A   1      42.719  30.237  36.029  1.00  0.00    -0.036 A 
ATOM     94  H   UNL A   1      41.750  31.646  37.367  1.00  0.00     0.065 H 
ATOM     95  C   UNL A   1      42.405  29.842  34.739  1.00  0.00     0.049 A 
ATOM     96  H   UNL A   1      40.879  30.555  33.467  1.00  0.00     0.167 HD
ATOM     97  C   UNL A   1      42.672  28.505  32.667  1.00  0.00     0.074 A 
ATOM     98  C   UNL A   1      43.331  27.500  31.860  1.00  0.00    -0.034 C 
ATOM     99  H   UNL A   1      43.076  26.836  29.850  1.00  0.00     0.065 H 
ATOM    100  H   UNL A   1      43.504  29.879  36.596  1.00  0.00     0.065 H 
ATOM    101  C   UNL A   1      43.048  28.840  33.927  1.00  0.00     0.037 A 
ATOM    102  H   UNL A   1      44.121  26.921  32.184  1.00  0.00     0.065 H 
BRANCH  83 103
ATOM    103  C   UNL A   1      39.647  33.335  36.467  1.00  0.00     0.064 A 
ATOM    104  C   UNL A   1      38.793  32.978  37.522  1.00  0.00     0.173 A 
ATOM    105  C   UNL A   1      40.319  34.564  36.558  1.00  0.00     0.173 A 
ATOM    106  F   UNL A   1      38.118  31.819  37.482  1.00  0.00    -0.203 F 
ATOM    107  C   UNL A   1      38.595  33.830  38.605  1.00  0.00     0.198 A 
ATOM    108  C   UNL A   1      40.147  35.397  37.661  1.00  0.00     0.198 A 
ATOM    109  F   UNL A   1      41.154  34.954  35.582  1.00  0.00    -0.203 F 
ATOM    110  F   UNL A   1      37.731  33.491  39.573  1.00  0.00    -0.200 F 
ATOM    111  C   UNL A   1      39.278  35.033  38.678  1.00  0.00     0.200 A 
ATOM    112  F   UNL A   1      40.821  36.553  37.737  1.00  0.00    -0.200 F 
ATOM    113  F   UNL A   1      39.094  35.849  39.726  1.00  0.00    -0.200 F 
ENDBRANCH  83 103
BRANCH  86 114
ATOM    114  C   UNL A   1      41.008  27.673  28.343  1.00  0.00     0.064 A 
ATOM    115  C   UNL A   1      40.377  26.430  28.186  1.00  0.00     0.173 A 
ATOM    116  C   UNL A   1      41.868  28.100  27.320  1.00  0.00     0.173 A 
ATOM    117  F   UNL A   1      39.560  25.968  29.144  1.00  0.00    -0.203 F 
ATOM    118  C   UNL A   1      40.620  25.635  27.068  1.00  0.00     0.198 A 
ATOM    119  C   UNL A   1      42.083  27.319  26.186  1.00  0.00     0.198 A 
ATOM    120  F   UNL A   1      42.491  29.283  27.416  1.00  0.00    -0.203 F 
ATOM    121  F   UNL A   1      40.047  24.427  26.971  1.00  0.00    -0.200 F 
ATOM    122  C   UNL A   1      41.467  26.083  26.066  1.00  0.00     0.200 A 
ATOM    123  F   UNL A   1      42.889  27.764  25.213  1.00  0.00    -0.200 F 
ATOM    124  F   UNL A   1      41.698  25.319  24.990  1.00  0.00    -0.200 F 
ENDBRANCH  86 114
BRANCH 101 125
ATOM    125  C   UNL A   1      44.198  28.084  34.529  1.00  0.00     0.064 A 
ATOM    126  C   UNL A   1      45.520  28.547  34.437  1.00  0.00     0.173 A 
ATOM    127  C   UNL A   1      43.968  26.898  35.244  1.00  0.00     0.173 A 
ATOM    128  F   UNL A   1      45.796  29.668  33.754  1.00  0.00    -0.203 F 
ATOM    129  C   UNL A   1      46.569  27.834  35.011  1.00  0.00     0.198 A 
ATOM    130  C   UNL A   1      45.016  26.208  35.848  1.00  0.00     0.198 A 
ATOM    131  F   UNL A   1      42.723  26.414  35.371  1.00  0.00    -0.203 F 
ATOM    132  F   UNL A   1      47.829  28.266  34.862  1.00  0.00    -0.200 F 
ATOM    133  C   UNL A   1      46.315  26.671  35.723  1.00  0.00     0.200 A 
ATOM    134  F   UNL A   1      44.766  25.095  36.551  1.00  0.00    -0.200 F 
ATOM    135  F   UNL A   1      47.327  25.994  36.283  1.00  0.00    -0.200 F 
ENDBRANCH 101 125
ENDBRANCH  66  69
ENDBRANCH  56  59
ENDBRANCH  52  55
ENDBRANCH  49  52
ENDBRANCH  46  49
ENDBRANCH   1  46
TORSDOF 17
ENDMDL
MODEL 4
REMARK VINA RESULT:     -11.9      5.137      9.908
REMARK SMILES NS(=O)(=O)c1ccc(N2N=C(C(=O)NCCCCCCNC(=O)c3ccc(-c4c5nc(c(-c6c(F)c(F)c(F)c(F)c6F)c6ccc([nH]6)c(-c6c(F)c(F)c(F)c(F)c6F)c6nc(c(-c7c(F)c(F)c(F)c(F)c7F)c7ccc4[nH]7)C=C6)C=C5)cc3)C[C@H]2c2ccco2)cc1
REMARK SMILES IDX 17 1 16 4 15 7 14 10 12 11 13 12 11 14 9 15 10 16 88 17
REMARK SMILES IDX 87 18 8 22 5 23 6 24 95 25 7 26 94 28 2 32 3 33 4 34 1 35
REMARK SMILES IDX 89 38 90 39 93 40 91 41 92 43 18 46 19 49 20 52 21 55 22 56
REMARK SMILES IDX 23 58 24 59 25 60 86 61 26 62 85 64 27 66 28 69 29 70 79 71
REMARK SMILES IDX 30 72 84 73 78 74 80 75 31 76 83 77 77 79 76 81 32 83 64 86
REMARK SMILES IDX 44 87 63 88 45 89 48 90 62 91 81 92 46 93 47 95 61 97 82 98
REMARK SMILES IDX 49 101 33 103 34 104 42 105 35 106 36 107 40 108 43 109
REMARK SMILES IDX 37 110 38 111 41 112 39 113 65 114 66 115 74 116 67 117
REMARK SMILES IDX 68 118 72 119 75 120 69 121 70 122 73 123 71 124 50 125
REMARK SMILES IDX 51 126 59 127 52 128 53 129 57 130 60 131 54 132 55 133
REMARK SMILES IDX 58 134 56 135
REMARK H PARENT 17 2 17 3 16 5 16 6 15 8 15 9 14 13 88 19 87 20 87 21 6 27
REMARK H PARENT 95 29 7 30 94 31 1 36 1 37 90 42 91 44 92 45 18 47 18 48 19 50
REMARK H PARENT 19 51 20 53 20 54 21 57 25 63 86 65 26 67 85 68 84 78 78 80
REMARK H PARENT 80 82 83 84 77 85 45 94 48 96 81 99 46 100 82 102
REMARK Flexibility Score: inf
ROOT
ATOM      1  C   UNL A   1      31.552  29.208  25.123  1.00  0.00    -0.052 C 
ATOM      2  H   UNL A   1      31.314  28.172  25.255  1.00  0.00     0.027 H 
ATOM      3  H   UNL A   1      30.769  29.764  24.652  1.00  0.00     0.027 H 
ENDROOT
BRANCH   1   4
ATOM      4  C   UNL A   1      32.765  29.302  24.196  1.00  0.00    -0.036 C 
ATOM      5  H   UNL A   1      32.417  29.508  23.205  1.00  0.00     0.028 H 
ATOM      6  H   UNL A   1      33.392  30.079  24.581  1.00  0.00     0.028 H 
BRANCH   4   7
ATOM      7  C   UNL A   1      33.609  28.033  24.154  1.00  0.00     0.018 C 
ATOM      8  H   UNL A   1      34.645  28.301  24.187  1.00  0.00     0.049 H 
ATOM      9  H   UNL A   1      33.351  27.425  24.995  1.00  0.00     0.049 H 
BRANCH   7  10
ATOM     10  N   UNL A   1      33.355  27.278  22.945  1.00  0.00    -0.351 N 
ATOM     11  C   UNL A   1      33.542  25.970  22.577  1.00  0.00     0.267 C 
ATOM     12  O   UNL A   1      33.306  25.670  21.410  1.00  0.00    -0.268 OA
ATOM     13  H   UNL A   1      32.961  27.825  22.227  1.00  0.00     0.163 HD
BRANCH  11  14
ATOM     14  C   UNL A   1      33.972  24.874  23.540  1.00  0.00     0.128 C 
ATOM     15  N   UNL A   1      35.240  23.416  24.430  1.00  0.00    -0.254 N 
ATOM     16  N   UNL A   1      35.219  24.524  23.647  1.00  0.00    -0.171 NA
ATOM     17  C   UNL A   1      33.953  23.090  25.047  1.00  0.00     0.116 C 
ATOM     18  C   UNL A   1      33.020  24.108  24.395  1.00  0.00     0.027 C 
ATOM     19  H   UNL A   1      34.029  23.145  26.113  1.00  0.00     0.064 H 
ATOM     20  H   UNL A   1      32.266  23.628  23.807  1.00  0.00     0.036 H 
ATOM     21  H   UNL A   1      32.475  24.711  25.092  1.00  0.00     0.036 H 
BRANCH  15  22
ATOM     22  C   UNL A   1      36.440  22.887  24.879  1.00  0.00     0.060 A 
ATOM     23  C   UNL A   1      38.798  21.728  25.857  1.00  0.00     0.082 A 
ATOM     24  C   UNL A   1      38.488  23.051  26.185  1.00  0.00    -0.040 A 
ATOM     25  C   UNL A   1      37.973  20.995  25.006  1.00  0.00    -0.040 A 
ATOM     26  C   UNL A   1      37.313  23.625  25.688  1.00  0.00    -0.035 A 
ATOM     27  H   UNL A   1      39.121  23.599  26.788  1.00  0.00     0.064 H 
ATOM     28  C   UNL A   1      36.807  21.583  24.521  1.00  0.00    -0.035 A 
ATOM     29  H   UNL A   1      38.223  20.031  24.738  1.00  0.00     0.064 H 
ATOM     30  H   UNL A   1      37.087  24.605  25.921  1.00  0.00     0.065 H 
ATOM     31  H   UNL A   1      36.199  21.045  23.883  1.00  0.00     0.065 H 
BRANCH  23  32
ATOM     32  S   UNL A   1      40.271  20.987  26.486  1.00  0.00     0.238 S 
ATOM     33  O   UNL A   1      40.342  19.612  26.053  1.00  0.00    -0.207 OA
ATOM     34  O   UNL A   1      40.458  21.379  27.864  1.00  0.00    -0.207 OA
BRANCH  32  35
ATOM     35  N   UNL A   1      41.457  21.808  25.622  1.00  0.00    -0.225 NA
ATOM     36  H   UNL A   1      41.053  22.183  24.763  1.00  0.00     0.137 HD
ATOM     37  H   UNL A   1      42.214  21.165  25.389  1.00  0.00     0.137 HD
ENDBRANCH  32  35
ENDBRANCH  23  32
ENDBRANCH  15  22
BRANCH  17  38
ATOM     38  C   UNL A   1      33.452  21.680  24.922  1.00  0.00     0.128 A 
ATOM     39  C   UNL A   1      33.422  20.616  25.805  1.00  0.00    -0.018 A 
ATOM     40  O   UNL A   1      32.904  21.292  23.730  1.00  0.00    -0.467 OA
ATOM     41  C   UNL A   1      32.862  19.522  25.104  1.00  0.00    -0.023 A 
ATOM     42  H   UNL A   1      33.744  20.619  26.785  1.00  0.00     0.066 H 
ATOM     43  C   UNL A   1      32.547  19.990  23.851  1.00  0.00     0.091 A 
ATOM     44  H   UNL A   1      32.721  18.564  25.461  1.00  0.00     0.066 H 
ATOM     45  H   UNL A   1      32.101  19.430  23.108  1.00  0.00     0.104 H 
ENDBRANCH  17  38
ENDBRANCH  11  14
ENDBRANCH   7  10
ENDBRANCH   4   7
ENDBRANCH   1   4
BRANCH   1  46
ATOM     46  C   UNL A   1      31.751  29.832  26.509  1.00  0.00    -0.052 C 
ATOM     47  H   UNL A   1      32.726  29.563  26.857  1.00  0.00     0.027 H 
ATOM     48  H   UNL A   1      30.961  29.452  27.123  1.00  0.00     0.027 H 
BRANCH  46  49
ATOM     49  C   UNL A   1      31.633  31.358  26.557  1.00  0.00    -0.036 C 
ATOM     50  H   UNL A   1      30.854  31.612  27.246  1.00  0.00     0.028 H 
ATOM     51  H   UNL A   1      31.429  31.679  25.557  1.00  0.00     0.028 H 
BRANCH  49  52
ATOM     52  C   UNL A   1      32.906  32.073  26.992  1.00  0.00     0.018 C 
ATOM     53  H   UNL A   1      33.603  32.065  26.179  1.00  0.00     0.049 H 
ATOM     54  H   UNL A   1      33.302  31.558  27.843  1.00  0.00     0.049 H 
BRANCH  52  55
ATOM     55  N   UNL A   1      32.650  33.450  27.378  1.00  0.00    -0.352 N 
ATOM     56  C   UNL A   1      33.211  34.188  28.387  1.00  0.00     0.251 C 
ATOM     57  H   UNL A   1      31.977  33.921  26.835  1.00  0.00     0.163 HD
ATOM     58  O   UNL A   1      32.722  35.266  28.710  1.00  0.00    -0.269 OA
BRANCH  56  59
ATOM     59  C   UNL A   1      34.398  33.674  29.100  1.00  0.00     0.039 A 
ATOM     60  C   UNL A   1      34.221  32.719  30.103  1.00  0.00    -0.049 A 
ATOM     61  C   UNL A   1      35.679  34.139  28.787  1.00  0.00    -0.049 A 
ATOM     62  C   UNL A   1      35.336  32.191  30.756  1.00  0.00    -0.053 A 
ATOM     63  H   UNL A   1      33.272  32.405  30.360  1.00  0.00     0.063 H 
ATOM     64  C   UNL A   1      36.792  33.552  29.380  1.00  0.00    -0.053 A 
ATOM     65  H   UNL A   1      35.799  34.915  28.118  1.00  0.00     0.063 H 
ATOM     66  C   UNL A   1      36.632  32.579  30.377  1.00  0.00    -0.014 A 
ATOM     67  H   UNL A   1      35.207  31.512  31.523  1.00  0.00     0.063 H 
ATOM     68  H   UNL A   1      37.740  33.835  29.086  1.00  0.00     0.063 H 
BRANCH  66  69
ATOM     69  C   UNL A   1      37.830  31.978  31.017  1.00  0.00     0.031 A 
ATOM     70  C   UNL A   1      38.258  32.420  32.388  1.00  0.00     0.074 A 
ATOM     71  C   UNL A   1      38.562  31.074  30.339  1.00  0.00     0.049 A 
ATOM     72  N   UNL A   1      39.303  32.057  33.088  1.00  0.00    -0.248 NA
ATOM     73  C   UNL A   1      37.414  33.427  33.053  1.00  0.00    -0.034 C 
ATOM     74  C   UNL A   1      38.274  30.597  28.985  1.00  0.00    -0.036 A 
ATOM     75  N   UNL A   1      39.705  30.399  30.691  1.00  0.00    -0.354 N 
ATOM     76  C   UNL A   1      39.246  32.793  34.264  1.00  0.00     0.074 A 
ATOM     77  C   UNL A   1      38.101  33.670  34.158  1.00  0.00    -0.034 C 
ATOM     78  H   UNL A   1      36.520  33.835  32.738  1.00  0.00     0.065 H 
ATOM     79  C   UNL A   1      39.197  29.688  28.633  1.00  0.00    -0.036 A 
ATOM     80  H   UNL A   1      37.487  30.909  28.396  1.00  0.00     0.065 H 
ATOM     81  C   UNL A   1      40.168  29.552  29.714  1.00  0.00     0.049 A 
ATOM     82  H   UNL A   1      40.151  30.513  31.562  1.00  0.00     0.167 HD
ATOM     83  C   UNL A   1      40.061  32.726  35.343  1.00  0.00     0.037 A 
ATOM     84  H   UNL A   1      37.851  34.390  34.854  1.00  0.00     0.065 H 
ATOM     85  H   UNL A   1      39.218  29.170  27.741  1.00  0.00     0.065 H 
ATOM     86  C   UNL A   1      41.259  28.763  29.689  1.00  0.00     0.037 A 
ATOM     87  C   UNL A   1      41.191  31.839  35.448  1.00  0.00     0.049 A 
ATOM     88  C   UNL A   1      42.164  28.727  30.892  1.00  0.00     0.074 A 
ATOM     89  C   UNL A   1      42.048  31.657  36.518  1.00  0.00    -0.036 A 
ATOM     90  N   UNL A   1      41.627  30.993  34.439  1.00  0.00    -0.354 N 
ATOM     91  N   UNL A   1      42.060  29.376  32.027  1.00  0.00    -0.248 NA
ATOM     92  C   UNL A   1      43.334  27.842  30.813  1.00  0.00    -0.034 C 
ATOM     93  C   UNL A   1      43.039  30.747  36.136  1.00  0.00    -0.036 A 
ATOM     94  H   UNL A   1      41.969  32.113  37.442  1.00  0.00     0.065 H 
ATOM     95  C   UNL A   1      42.760  30.308  34.852  1.00  0.00     0.049 A 
ATOM     96  H   UNL A   1      41.197  30.893  33.559  1.00  0.00     0.167 HD
ATOM     97  C   UNL A   1      43.128  28.953  32.807  1.00  0.00     0.074 A 
ATOM     98  C   UNL A   1      43.858  27.980  32.022  1.00  0.00    -0.034 C 
ATOM     99  H   UNL A   1      43.661  27.263  30.024  1.00  0.00     0.065 H 
ATOM    100  H   UNL A   1      43.842  30.453  36.713  1.00  0.00     0.065 H 
ATOM    101  C   UNL A   1      43.473  29.336  34.062  1.00  0.00     0.037 A 
ATOM    102  H   UNL A   1      44.684  27.461  32.361  1.00  0.00     0.065 H 
BRANCH  83 103
ATOM    103  C   UNL A   1      39.763  33.638  36.500  1.00  0.00     0.064 A 
ATOM    104  C   UNL A   1      38.925  33.246  37.555  1.00  0.00     0.173 A 
ATOM    105  C   UNL A   1      40.354  34.909  36.573  1.00  0.00     0.173 A 
ATOM    106  F   UNL A   1      38.326  32.046  37.532  1.00  0.00    -0.203 F 
ATOM    107  C   UNL A   1      38.663  34.103  38.621  1.00  0.00     0.198 A 
ATOM    108  C   UNL A   1      40.120  35.749  37.659  1.00  0.00     0.198 A 
ATOM    109  F   UNL A   1      41.169  35.335  35.596  1.00  0.00    -0.203 F 
ATOM    110  F   UNL A   1      37.815  33.726  39.589  1.00  0.00    -0.200 F 
ATOM    111  C   UNL A   1      39.267  35.349  38.677  1.00  0.00     0.200 A 
ATOM    112  F   UNL A   1      40.717  36.948  37.719  1.00  0.00    -0.200 F 
ATOM    113  F   UNL A   1      39.022  36.170  39.708  1.00  0.00    -0.200 F 
ENDBRANCH  83 103
BRANCH  86 114
ATOM    114  C   UNL A   1      41.550  27.931  28.491  1.00  0.00     0.064 A 
ATOM    115  C   UNL A   1      42.355  28.418  27.452  1.00  0.00     0.173 A 
ATOM    116  C   UNL A   1      41.021  26.639  28.354  1.00  0.00     0.173 A 
ATOM    117  F   UNL A   1      42.869  29.655  27.525  1.00  0.00    -0.203 F 
ATOM    118  C   UNL A   1      42.597  27.656  26.310  1.00  0.00     0.198 A 
ATOM    119  C   UNL A   1      41.291  25.865  27.228  1.00  0.00     0.198 A 
ATOM    120  F   UNL A   1      40.250  26.122  29.322  1.00  0.00    -0.203 F 
ATOM    121  F   UNL A   1      43.324  28.168  25.308  1.00  0.00    -0.200 F 
ATOM    122  C   UNL A   1      42.070  26.378  26.202  1.00  0.00     0.200 A 
ATOM    123  F   UNL A   1      40.795  24.624  27.137  1.00  0.00    -0.200 F 
ATOM    124  F   UNL A   1      42.305  25.644  25.105  1.00  0.00    -0.200 F 
ENDBRANCH  86 114
BRANCH 101 125
ATOM    125  C   UNL A   1      44.668  28.671  34.684  1.00  0.00     0.064 A 
ATOM    126  C   UNL A   1      45.955  29.222  34.594  1.00  0.00     0.173 A 
ATOM    127  C   UNL A   1      44.515  27.482  35.415  1.00  0.00     0.173 A 
ATOM    128  F   UNL A   1      46.159  30.349  33.895  1.00  0.00    -0.203 F 
ATOM    129  C   UNL A   1      47.047  28.593  35.186  1.00  0.00     0.198 A 
ATOM    130  C   UNL A   1      45.603  26.876  36.037  1.00  0.00     0.198 A 
ATOM    131  F   UNL A   1      43.305  26.916  35.541  1.00  0.00    -0.203 F 
ATOM    132  F   UNL A   1      48.275  29.109  35.039  1.00  0.00    -0.200 F 
ATOM    133  C   UNL A   1      46.868  27.426  35.914  1.00  0.00     0.200 A 
ATOM    134  F   UNL A   1      45.424  25.759  36.756  1.00  0.00    -0.200 F 
ATOM    135  F   UNL A   1      47.919  26.828  36.492  1.00  0.00    -0.200 F 
ENDBRANCH 101 125
ENDBRANCH  66  69
ENDBRANCH  56  59
ENDBRANCH  52  55
ENDBRANCH  49  52
ENDBRANCH  46  49
ENDBRANCH   1  46
TORSDOF 17
ENDMDL
MODEL 5
REMARK VINA RESULT:     -11.9      1.010      1.974
REMARK SMILES NS(=O)(=O)c1ccc(N2N=C(C(=O)NCCCCCCNC(=O)c3ccc(-c4c5nc(c(-c6c(F)c(F)c(F)c(F)c6F)c6ccc([nH]6)c(-c6c(F)c(F)c(F)c(F)c6F)c6nc(c(-c7c(F)c(F)c(F)c(F)c7F)c7ccc4[nH]7)C=C6)C=C5)cc3)C[C@H]2c2ccco2)cc1
REMARK SMILES IDX 17 1 16 4 15 7 14 10 12 11 13 12 11 14 9 15 10 16 88 17
REMARK SMILES IDX 87 18 8 22 5 23 6 24 95 25 7 26 94 28 2 32 3 33 4 34 1 35
REMARK SMILES IDX 89 38 90 39 93 40 91 41 92 43 18 46 19 49 20 52 21 55 22 56
REMARK SMILES IDX 23 58 24 59 25 60 86 61 26 62 85 64 27 66 28 69 29 70 79 71
REMARK SMILES IDX 30 72 84 73 78 74 80 75 31 76 83 77 77 79 76 81 32 83 64 86
REMARK SMILES IDX 44 87 63 88 45 89 48 90 62 91 81 92 46 93 47 95 61 97 82 98
REMARK SMILES IDX 49 101 33 103 34 104 42 105 35 106 36 107 40 108 43 109
REMARK SMILES IDX 37 110 38 111 41 112 39 113 65 114 66 115 74 116 67 117
REMARK SMILES IDX 68 118 72 119 75 120 69 121 70 122 73 123 71 124 50 125
REMARK SMILES IDX 51 126 59 127 52 128 53 129 57 130 60 131 54 132 55 133
REMARK SMILES IDX 58 134 56 135
REMARK H PARENT 17 2 17 3 16 5 16 6 15 8 15 9 14 13 88 19 87 20 87 21 6 27
REMARK H PARENT 95 29 7 30 94 31 1 36 1 37 90 42 91 44 92 45 18 47 18 48 19 50
REMARK H PARENT 19 51 20 53 20 54 21 57 25 63 86 65 26 67 85 68 84 78 78 80
REMARK H PARENT 80 82 83 84 77 85 45 94 48 96 81 99 46 100 82 102
REMARK Flexibility Score: inf
ROOT
ATOM      1  C   UNL A   1      37.078  22.128  23.905  1.00  0.00    -0.052 C 
ATOM      2  H   UNL A   1      37.652  22.875  24.414  1.00  0.00     0.027 H 
ATOM      3  H   UNL A   1      37.517  21.813  22.982  1.00  0.00     0.027 H 
ENDROOT
BRANCH   1   4
ATOM      4  C   UNL A   1      35.718  22.731  23.553  1.00  0.00    -0.036 C 
ATOM      5  H   UNL A   1      35.881  23.619  22.978  1.00  0.00     0.028 H 
ATOM      6  H   UNL A   1      35.177  21.983  23.010  1.00  0.00     0.028 H 
BRANCH   4   7
ATOM      7  C   UNL A   1      34.871  23.094  24.767  1.00  0.00     0.018 C 
ATOM      8  H   UNL A   1      35.401  22.823  25.657  1.00  0.00     0.049 H 
ATOM      9  H   UNL A   1      34.683  24.146  24.748  1.00  0.00     0.049 H 
BRANCH   7  10
ATOM     10  N   UNL A   1      33.601  22.398  24.744  1.00  0.00    -0.351 N 
ATOM     11  C   UNL A   1      32.305  22.764  25.004  1.00  0.00     0.267 C 
ATOM     12  O   UNL A   1      31.452  21.881  24.988  1.00  0.00    -0.268 OA
ATOM     13  H   UNL A   1      33.687  21.452  24.485  1.00  0.00     0.163 HD
BRANCH  11  14
ATOM     14  C   UNL A   1      31.866  24.199  25.257  1.00  0.00     0.128 C 
ATOM     15  N   UNL A   1      31.255  26.185  24.800  1.00  0.00    -0.254 N 
ATOM     16  N   UNL A   1      31.359  24.924  24.306  1.00  0.00    -0.171 NA
ATOM     17  C   UNL A   1      31.537  26.295  26.232  1.00  0.00     0.116 C 
ATOM     18  C   UNL A   1      32.010  24.884  26.574  1.00  0.00     0.027 C 
ATOM     19  H   UNL A   1      30.667  26.634  26.756  1.00  0.00     0.064 H 
ATOM     20  H   UNL A   1      33.027  24.882  26.907  1.00  0.00     0.036 H 
ATOM     21  H   UNL A   1      31.465  24.420  27.370  1.00  0.00     0.036 H 
BRANCH  15  22
ATOM     22  C   UNL A   1      30.589  27.172  24.090  1.00  0.00     0.060 A 
ATOM     23  C   UNL A   1      29.270  29.254  22.754  1.00  0.00     0.082 A 
ATOM     24  C   UNL A   1      28.552  28.126  23.160  1.00  0.00    -0.040 A 
ATOM     25  C   UNL A   1      30.646  29.331  22.960  1.00  0.00    -0.040 A 
ATOM     26  C   UNL A   1      29.218  27.087  23.820  1.00  0.00    -0.035 A 
ATOM     27  H   UNL A   1      27.539  28.059  22.973  1.00  0.00     0.064 H 
ATOM     28  C   UNL A   1      31.293  28.289  23.620  1.00  0.00    -0.035 A 
ATOM     29  H   UNL A   1      31.179  30.150  22.628  1.00  0.00     0.064 H 
ATOM     30  H   UNL A   1      28.691  26.249  24.113  1.00  0.00     0.065 H 
ATOM     31  H   UNL A   1      32.313  28.340  23.765  1.00  0.00     0.065 H 
BRANCH  23  32
ATOM     32  S   UNL A   1      28.442  30.576  21.930  1.00  0.00     0.238 S 
ATOM     33  O   UNL A   1      27.847  30.086  20.710  1.00  0.00    -0.207 OA
ATOM     34  O   UNL A   1      29.265  31.763  21.973  1.00  0.00    -0.207 OA
BRANCH  32  35
ATOM     35  N   UNL A   1      27.164  30.880  22.980  1.00  0.00    -0.225 NA
ATOM     36  H   UNL A   1      26.626  30.023  23.118  1.00  0.00     0.137 HD
ATOM     37  H   UNL A   1      26.560  31.599  22.582  1.00  0.00     0.137 HD
ENDBRANCH  32  35
ENDBRANCH  23  32
ENDBRANCH  15  22
BRANCH  17  38
ATOM     38  C   UNL A   1      32.504  27.355  26.677  1.00  0.00     0.128 A 
ATOM     39  C   UNL A   1      32.386  28.422  27.548  1.00  0.00    -0.018 A 
ATOM     40  O   UNL A   1      33.771  27.330  26.164  1.00  0.00    -0.467 OA
ATOM     41  C   UNL A   1      33.629  29.097  27.535  1.00  0.00    -0.023 A 
ATOM     42  H   UNL A   1      31.553  28.677  28.101  1.00  0.00     0.066 H 
ATOM     43  C   UNL A   1      34.444  28.382  26.690  1.00  0.00     0.091 A 
ATOM     44  H   UNL A   1      33.875  29.955  28.054  1.00  0.00     0.066 H 
ATOM     45  H   UNL A   1      35.429  28.613  26.487  1.00  0.00     0.104 H 
ENDBRANCH  17  38
ENDBRANCH  11  14
ENDBRANCH   7  10
ENDBRANCH   4   7
ENDBRANCH   1   4
BRANCH   1  46
ATOM     46  C   UNL A   1      37.019  20.883  24.800  1.00  0.00    -0.052 C 
ATOM     47  H   UNL A   1      36.189  20.287  24.484  1.00  0.00     0.027 H 
ATOM     48  H   UNL A   1      36.928  21.242  25.804  1.00  0.00     0.027 H 
BRANCH  46  49
ATOM     49  C   UNL A   1      38.273  20.005  24.772  1.00  0.00    -0.036 C 
ATOM     50  H   UNL A   1      38.953  20.415  24.055  1.00  0.00     0.028 H 
ATOM     51  H   UNL A   1      37.947  19.017  24.521  1.00  0.00     0.028 H 
BRANCH  49  52
ATOM     52  C   UNL A   1      38.995  19.898  26.109  1.00  0.00     0.018 C 
ATOM     53  H   UNL A   1      38.324  19.485  26.834  1.00  0.00     0.049 H 
ATOM     54  H   UNL A   1      39.313  20.880  26.393  1.00  0.00     0.049 H 
BRANCH  52  55
ATOM     55  N   UNL A   1      40.172  19.050  26.024  1.00  0.00    -0.352 N 
ATOM     56  C   UNL A   1      41.498  19.400  26.034  1.00  0.00     0.251 C 
ATOM     57  H   UNL A   1      39.992  18.085  25.947  1.00  0.00     0.163 HD
ATOM     58  O   UNL A   1      42.357  18.577  25.735  1.00  0.00    -0.269 OA
BRANCH  56  59
ATOM     59  C   UNL A   1      41.889  20.779  26.392  1.00  0.00     0.039 A 
ATOM     60  C   UNL A   1      42.249  21.057  27.712  1.00  0.00    -0.049 A 
ATOM     61  C   UNL A   1      41.891  21.795  25.432  1.00  0.00    -0.049 A 
ATOM     62  C   UNL A   1      42.663  22.344  28.057  1.00  0.00    -0.053 A 
ATOM     63  H   UNL A   1      42.209  20.315  28.429  1.00  0.00     0.063 H 
ATOM     64  C   UNL A   1      42.382  23.054  25.759  1.00  0.00    -0.053 A 
ATOM     65  H   UNL A   1      41.530  21.611  24.483  1.00  0.00     0.063 H 
ATOM     66  C   UNL A   1      42.764  23.345  27.077  1.00  0.00    -0.014 A 
ATOM     67  H   UNL A   1      42.895  22.562  29.040  1.00  0.00     0.063 H 
ATOM     68  H   UNL A   1      42.465  23.779  25.029  1.00  0.00     0.063 H 
BRANCH  66  69
ATOM     69  C   UNL A   1      43.266  24.702  27.415  1.00  0.00     0.031 A 
ATOM     70  C   UNL A   1      42.337  25.728  28.001  1.00  0.00     0.074 A 
ATOM     71  C   UNL A   1      44.545  25.024  27.143  1.00  0.00     0.049 A 
ATOM     72  N   UNL A   1      42.571  26.978  28.309  1.00  0.00    -0.248 NA
ATOM     73  C   UNL A   1      40.950  25.300  28.249  1.00  0.00    -0.034 C 
ATOM     74  C   UNL A   1      45.531  24.129  26.535  1.00  0.00    -0.036 A 
ATOM     75  N   UNL A   1      45.234  26.196  27.334  1.00  0.00    -0.354 N 
ATOM     76  C   UNL A   1      41.366  27.486  28.776  1.00  0.00     0.074 A 
ATOM     77  C   UNL A   1      40.386  26.429  28.651  1.00  0.00    -0.034 C 
ATOM     78  H   UNL A   1      40.529  24.365  28.137  1.00  0.00     0.065 H 
ATOM     79  C   UNL A   1      46.704  24.774  26.430  1.00  0.00    -0.036 A 
ATOM     80  H   UNL A   1      45.354  23.158  26.237  1.00  0.00     0.065 H 
ATOM     81  C   UNL A   1      46.541  26.141  26.917  1.00  0.00     0.049 A 
ATOM     82  H   UNL A   1      44.829  27.000  27.732  1.00  0.00     0.167 HD
ATOM     83  C   UNL A   1      41.106  28.714  29.284  1.00  0.00     0.037 A 
ATOM     84  H   UNL A   1      39.380  26.539  28.852  1.00  0.00     0.065 H 
ATOM     85  H   UNL A   1      47.579  24.370  26.062  1.00  0.00     0.065 H 
ATOM     86  C   UNL A   1      47.498  27.088  26.917  1.00  0.00     0.037 A 
ATOM     87  C   UNL A   1      42.089  29.757  29.418  1.00  0.00     0.049 A 
ATOM     88  C   UNL A   1      47.176  28.454  27.464  1.00  0.00     0.074 A 
ATOM     89  C   UNL A   1      41.940  31.017  29.968  1.00  0.00    -0.036 A 
ATOM     90  N   UNL A   1      43.405  29.662  28.988  1.00  0.00    -0.354 N 
ATOM     91  N   UNL A   1      46.050  28.900  27.968  1.00  0.00    -0.248 NA
ATOM     92  C   UNL A   1      48.260  29.445  27.447  1.00  0.00    -0.034 C 
ATOM     93  C   UNL A   1      43.147  31.707  29.815  1.00  0.00    -0.036 A 
ATOM     94  H   UNL A   1      41.086  31.385  30.417  1.00  0.00     0.065 H 
ATOM     95  C   UNL A   1      44.070  30.854  29.233  1.00  0.00     0.049 A 
ATOM     96  H   UNL A   1      43.807  28.867  28.569  1.00  0.00     0.167 HD
ATOM     97  C   UNL A   1      46.300  30.209  28.359  1.00  0.00     0.074 A 
ATOM     98  C   UNL A   1      47.688  30.479  28.048  1.00  0.00    -0.034 C 
ATOM     99  H   UNL A   1      49.216  29.359  27.069  1.00  0.00     0.065 H 
ATOM    100  H   UNL A   1      43.320  32.687  30.088  1.00  0.00     0.065 H 
ATOM    101  C   UNL A   1      45.455  31.107  28.925  1.00  0.00     0.037 A 
ATOM    102  H   UNL A   1      48.170  31.365  28.266  1.00  0.00     0.065 H 
BRANCH  83 103
ATOM    103  C   UNL A   1      39.700  29.000  29.731  1.00  0.00     0.064 A 
ATOM    104  C   UNL A   1      39.279  28.762  31.049  1.00  0.00     0.173 A 
ATOM    105  C   UNL A   1      38.769  29.555  28.839  1.00  0.00     0.173 A 
ATOM    106  F   UNL A   1      40.125  28.223  31.941  1.00  0.00    -0.203 F 
ATOM    107  C   UNL A   1      37.974  29.037  31.448  1.00  0.00     0.198 A 
ATOM    108  C   UNL A   1      37.475  29.864  29.251  1.00  0.00     0.198 A 
ATOM    109  F   UNL A   1      39.117  29.809  27.568  1.00  0.00    -0.203 F 
ATOM    110  F   UNL A   1      37.582  28.749  32.697  1.00  0.00    -0.200 F 
ATOM    111  C   UNL A   1      37.076  29.595  30.552  1.00  0.00     0.200 A 
ATOM    112  F   UNL A   1      36.612  30.417  28.387  1.00  0.00    -0.200 F 
ATOM    113  F   UNL A   1      35.822  29.869  30.939  1.00  0.00    -0.200 F 
ENDBRANCH  83 103
BRANCH  86 114
ATOM    114  C   UNL A   1      48.857  26.776  26.397  1.00  0.00     0.064 A 
ATOM    115  C   UNL A   1      49.841  26.228  27.232  1.00  0.00     0.173 A 
ATOM    116  C   UNL A   1      49.203  27.030  25.062  1.00  0.00     0.173 A 
ATOM    117  F   UNL A   1      49.565  25.984  28.522  1.00  0.00    -0.203 F 
ATOM    118  C   UNL A   1      51.126  25.971  26.759  1.00  0.00     0.198 A 
ATOM    119  C   UNL A   1      50.478  26.742  24.581  1.00  0.00     0.198 A 
ATOM    120  F   UNL A   1      48.298  27.548  24.219  1.00  0.00    -0.203 F 
ATOM    121  F   UNL A   1      52.063  25.499  27.593  1.00  0.00    -0.200 F 
ATOM    122  C   UNL A   1      51.442  26.223  25.432  1.00  0.00     0.200 A 
ATOM    123  F   UNL A   1      50.773  26.970  23.294  1.00  0.00    -0.200 F 
ATOM    124  F   UNL A   1      52.677  25.973  24.977  1.00  0.00    -0.200 F 
ENDBRANCH  86 114
BRANCH 101 125
ATOM    125  C   UNL A   1      46.018  32.452  29.287  1.00  0.00     0.064 A 
ATOM    126  C   UNL A   1      45.956  33.544  28.408  1.00  0.00     0.173 A 
ATOM    127  C   UNL A   1      46.593  32.660  30.551  1.00  0.00     0.173 A 
ATOM    128  F   UNL A   1      45.429  33.394  27.183  1.00  0.00    -0.203 F 
ATOM    129  C   UNL A   1      46.476  34.784  28.769  1.00  0.00     0.198 A 
ATOM    130  C   UNL A   1      47.078  33.911  30.922  1.00  0.00     0.198 A 
ATOM    131  F   UNL A   1      46.670  31.654  31.434  1.00  0.00    -0.203 F 
ATOM    132  F   UNL A   1      46.455  35.797  27.892  1.00  0.00    -0.200 F 
ATOM    133  C   UNL A   1      47.027  34.969  30.028  1.00  0.00     0.200 A 
ATOM    134  F   UNL A   1      47.593  34.093  32.146  1.00  0.00    -0.200 F 
ATOM    135  F   UNL A   1      47.517  36.166  30.376  1.00  0.00    -0.200 F 
ENDBRANCH 101 125
ENDBRANCH  66  69
ENDBRANCH  56  59
ENDBRANCH  52  55
ENDBRANCH  49  52
ENDBRANCH  46  49
ENDBRANCH   1  46
TORSDOF 17
ENDMDL
MODEL 6
REMARK VINA RESULT:     -11.7      6.530     13.122
REMARK SMILES NS(=O)(=O)c1ccc(N2N=C(C(=O)NCCCCCCNC(=O)c3ccc(-c4c5nc(c(-c6c(F)c(F)c(F)c(F)c6F)c6ccc([nH]6)c(-c6c(F)c(F)c(F)c(F)c6F)c6nc(c(-c7c(F)c(F)c(F)c(F)c7F)c7ccc4[nH]7)C=C6)C=C5)cc3)C[C@H]2c2ccco2)cc1
REMARK SMILES IDX 17 1 16 4 15 7 14 10 12 11 13 12 11 14 9 15 10 16 88 17
REMARK SMILES IDX 87 18 8 22 5 23 6 24 95 25 7 26 94 28 2 32 3 33 4 34 1 35
REMARK SMILES IDX 89 38 90 39 93 40 91 41 92 43 18 46 19 49 20 52 21 55 22 56
REMARK SMILES IDX 23 58 24 59 25 60 86 61 26 62 85 64 27 66 28 69 29 70 79 71
REMARK SMILES IDX 30 72 84 73 78 74 80 75 31 76 83 77 77 79 76 81 32 83 64 86
REMARK SMILES IDX 44 87 63 88 45 89 48 90 62 91 81 92 46 93 47 95 61 97 82 98
REMARK SMILES IDX 49 101 33 103 34 104 42 105 35 106 36 107 40 108 43 109
REMARK SMILES IDX 37 110 38 111 41 112 39 113 65 114 66 115 74 116 67 117
REMARK SMILES IDX 68 118 72 119 75 120 69 121 70 122 73 123 71 124 50 125
REMARK SMILES IDX 51 126 59 127 52 128 53 129 57 130 60 131 54 132 55 133
REMARK SMILES IDX 58 134 56 135
REMARK H PARENT 17 2 17 3 16 5 16 6 15 8 15 9 14 13 88 19 87 20 87 21 6 27
REMARK H PARENT 95 29 7 30 94 31 1 36 1 37 90 42 91 44 92 45 18 47 18 48 19 50
REMARK H PARENT 19 51 20 53 20 54 21 57 25 63 86 65 26 67 85 68 84 78 78 80
REMARK H PARENT 80 82 83 84 77 85 45 94 48 96 81 99 46 100 82 102
REMARK Flexibility Score: inf
ROOT
ATOM      1  C   UNL A   1      49.068  27.768  32.340  1.00  0.00    -0.052 C 
ATOM      2  H   UNL A   1      48.832  28.136  33.317  1.00  0.00     0.027 H 
ATOM      3  H   UNL A   1      50.118  27.760  32.133  1.00  0.00     0.027 H 
ENDROOT
BRANCH   1   4
ATOM      4  C   UNL A   1      48.433  28.705  31.311  1.00  0.00    -0.036 C 
ATOM      5  H   UNL A   1      48.328  29.673  31.757  1.00  0.00     0.028 H 
ATOM      6  H   UNL A   1      49.078  28.713  30.458  1.00  0.00     0.028 H 
BRANCH   4   7
ATOM      7  C   UNL A   1      47.062  28.249  30.825  1.00  0.00     0.018 C 
ATOM      8  H   UNL A   1      47.165  27.314  30.314  1.00  0.00     0.049 H 
ATOM      9  H   UNL A   1      46.418  28.144  31.673  1.00  0.00     0.049 H 
BRANCH   7  10
ATOM     10  N   UNL A   1      46.480  29.219  29.922  1.00  0.00    -0.351 N 
ATOM     11  C   UNL A   1      46.418  29.339  28.557  1.00  0.00     0.267 C 
ATOM     12  O   UNL A   1      45.922  30.365  28.100  1.00  0.00    -0.268 OA
ATOM     13  H   UNL A   1      46.028  29.957  30.392  1.00  0.00     0.163 HD
BRANCH  11  14
ATOM     14  C   UNL A   1      46.881  28.258  27.592  1.00  0.00     0.128 C 
ATOM     15  N   UNL A   1      47.035  26.322  26.725  1.00  0.00    -0.254 N 
ATOM     16  N   UNL A   1      46.274  27.112  27.525  1.00  0.00    -0.171 NA
ATOM     17  C   UNL A   1      48.133  27.021  26.056  1.00  0.00     0.116 C 
ATOM     18  C   UNL A   1      48.060  28.408  26.691  1.00  0.00     0.027 C 
ATOM     19  H   UNL A   1      48.002  26.988  24.995  1.00  0.00     0.064 H 
ATOM     20  H   UNL A   1      48.949  28.633  27.243  1.00  0.00     0.036 H 
ATOM     21  H   UNL A   1      47.972  29.209  25.985  1.00  0.00     0.036 H 
BRANCH  15  22
ATOM     22  C   UNL A   1      46.576  25.081  26.311  1.00  0.00     0.060 A 
ATOM     23  C   UNL A   1      45.737  22.514  25.558  1.00  0.00     0.082 A 
ATOM     24  C   UNL A   1      46.321  23.359  24.610  1.00  0.00    -0.040 A 
ATOM     25  C   UNL A   1      45.520  22.954  26.863  1.00  0.00    -0.040 A 
ATOM     26  C   UNL A   1      46.731  24.641  24.991  1.00  0.00    -0.035 A 
ATOM     27  H   UNL A   1      46.446  23.039  23.636  1.00  0.00     0.064 H 
ATOM     28  C   UNL A   1      45.935  24.233  27.225  1.00  0.00    -0.035 A 
ATOM     29  H   UNL A   1      45.057  22.340  27.551  1.00  0.00     0.064 H 
ATOM     30  H   UNL A   1      47.154  25.270  24.290  1.00  0.00     0.065 H 
ATOM     31  H   UNL A   1      45.767  24.563  28.188  1.00  0.00     0.065 H 
BRANCH  23  32
ATOM     32  S   UNL A   1      45.225  20.890  25.094  1.00  0.00     0.238 S 
ATOM     33  O   UNL A   1      43.911  20.628  25.630  1.00  0.00    -0.207 OA
ATOM     34  O   UNL A   1      46.329  19.972  25.255  1.00  0.00    -0.207 OA
BRANCH  32  35
ATOM     35  N   UNL A   1      45.022  21.062  23.434  1.00  0.00    -0.225 NA
ATOM     36  H   UNL A   1      44.117  21.492  23.244  1.00  0.00     0.137 HD
ATOM     37  H   UNL A   1      45.062  20.144  22.990  1.00  0.00     0.137 HD
ENDBRANCH  32  35
ENDBRANCH  23  32
ENDBRANCH  15  22
BRANCH  17  38
ATOM     38  C   UNL A   1      49.505  26.416  26.141  1.00  0.00     0.128 A 
ATOM     39  C   UNL A   1      50.534  26.301  25.223  1.00  0.00    -0.018 A 
ATOM     40  O   UNL A   1      49.888  25.845  27.322  1.00  0.00    -0.467 OA
ATOM     41  C   UNL A   1      51.576  25.594  25.869  1.00  0.00    -0.023 A 
ATOM     42  H   UNL A   1      50.540  26.660  24.256  1.00  0.00     0.066 H 
ATOM     43  C   UNL A   1      51.140  25.356  27.150  1.00  0.00     0.091 A 
ATOM     44  H   UNL A   1      52.481  25.313  25.459  1.00  0.00     0.066 H 
ATOM     45  H   UNL A   1      51.690  24.874  27.879  1.00  0.00     0.104 H 
ENDBRANCH  17  38
ENDBRANCH  11  14
ENDBRANCH   7  10
ENDBRANCH   4   7
ENDBRANCH   1   4
BRANCH   1  46
ATOM     46  C   UNL A   1      48.602  26.309  32.256  1.00  0.00    -0.052 C 
ATOM     47  H   UNL A   1      48.811  25.950  31.270  1.00  0.00     0.027 H 
ATOM     48  H   UNL A   1      47.559  26.315  32.494  1.00  0.00     0.027 H 
BRANCH  46  49
ATOM     49  C   UNL A   1      49.263  25.358  33.258  1.00  0.00    -0.036 C 
ATOM     50  H   UNL A   1      49.827  25.944  33.954  1.00  0.00     0.028 H 
ATOM     51  H   UNL A   1      49.872  24.689  32.686  1.00  0.00     0.028 H 
BRANCH  49  52
ATOM     52  C   UNL A   1      48.285  24.494  34.044  1.00  0.00     0.018 C 
ATOM     53  H   UNL A   1      48.542  23.464  33.901  1.00  0.00     0.049 H 
ATOM     54  H   UNL A   1      47.299  24.698  33.683  1.00  0.00     0.049 H 
BRANCH  52  55
ATOM     55  N   UNL A   1      48.317  24.794  35.465  1.00  0.00    -0.352 N 
ATOM     56  C   UNL A   1      47.570  25.695  36.179  1.00  0.00     0.251 C 
ATOM     57  H   UNL A   1      48.968  24.275  35.991  1.00  0.00     0.163 HD
ATOM     58  O   UNL A   1      47.877  25.975  37.334  1.00  0.00    -0.269 OA
BRANCH  56  59
ATOM     59  C   UNL A   1      46.403  26.344  35.548  1.00  0.00     0.039 A 
ATOM     60  C   UNL A   1      46.561  27.606  34.973  1.00  0.00    -0.049 A 
ATOM     61  C   UNL A   1      45.154  25.714  35.535  1.00  0.00    -0.049 A 
ATOM     62  C   UNL A   1      45.479  28.213  34.336  1.00  0.00    -0.053 A 
ATOM     63  H   UNL A   1      47.473  28.086  35.019  1.00  0.00     0.063 H 
ATOM     64  C   UNL A   1      44.101  26.283  34.828  1.00  0.00    -0.053 A 
ATOM     65  H   UNL A   1      45.015  24.829  36.047  1.00  0.00     0.063 H 
ATOM     66  C   UNL A   1      44.249  27.543  34.229  1.00  0.00    -0.014 A 
ATOM     67  H   UNL A   1      45.583  29.162  33.941  1.00  0.00     0.063 H 
ATOM     68  H   UNL A   1      43.205  25.778  34.745  1.00  0.00     0.063 H 
BRANCH  66  69
ATOM     69  C   UNL A   1      43.107  28.148  33.497  1.00  0.00     0.031 A 
ATOM     70  C   UNL A   1      42.879  27.821  32.047  1.00  0.00     0.074 A 
ATOM     71  C   UNL A   1      42.307  29.032  34.124  1.00  0.00     0.049 A 
ATOM     72  N   UNL A   1      41.975  28.289  31.225  1.00  0.00    -0.248 NA
ATOM     73  C   UNL A   1      43.809  26.861  31.431  1.00  0.00    -0.034 C 
ATOM     74  C   UNL A   1      42.453  29.463  35.516  1.00  0.00    -0.036 A 
ATOM     75  N   UNL A   1      41.219  29.735  33.672  1.00  0.00    -0.354 N 
ATOM     76  C   UNL A   1      42.232  27.689  29.998  1.00  0.00     0.074 A 
ATOM     77  C   UNL A   1      43.414  26.873  30.168  1.00  0.00    -0.034 C 
ATOM     78  H   UNL A   1      44.570  26.320  31.871  1.00  0.00     0.065 H 
ATOM     79  C   UNL A   1      41.474  30.333  35.812  1.00  0.00    -0.036 A 
ATOM     80  H   UNL A   1      43.189  29.147  36.166  1.00  0.00     0.065 H 
ATOM     81  C   UNL A   1      40.662  30.558  34.620  1.00  0.00     0.049 A 
ATOM     82  H   UNL A   1      40.870  29.657  32.754  1.00  0.00     0.167 HD
ATOM     83  C   UNL A   1      41.531  27.792  28.844  1.00  0.00     0.037 A 
ATOM     84  H   UNL A   1      43.888  26.366  29.403  1.00  0.00     0.065 H 
ATOM     85  H   UNL A   1      41.322  30.773  36.732  1.00  0.00     0.065 H 
ATOM     86  C   UNL A   1      39.620  31.408  34.535  1.00  0.00     0.037 A 
ATOM     87  C   UNL A   1      40.346  28.595  28.687  1.00  0.00     0.049 A 
ATOM     88  C   UNL A   1      38.874  31.522  33.231  1.00  0.00     0.074 A 
ATOM     89  C   UNL A   1      39.534  28.725  27.575  1.00  0.00    -0.036 A 
ATOM     90  N   UNL A   1      39.810  29.412  29.671  1.00  0.00    -0.354 N 
ATOM     91  N   UNL A   1      39.084  30.896  32.098  1.00  0.00    -0.248 NA
ATOM     92  C   UNL A   1      37.741  32.457  33.198  1.00  0.00    -0.034 C 
ATOM     93  C   UNL A   1      38.543  29.668  27.865  1.00  0.00    -0.036 A 
ATOM     94  H   UNL A   1      39.640  28.213  26.685  1.00  0.00     0.065 H 
ATOM     95  C   UNL A   1      38.695  30.073  29.181  1.00  0.00     0.049 A 
ATOM     96  H   UNL A   1      40.168  29.509  30.583  1.00  0.00     0.167 HD
ATOM     97  C   UNL A   1      38.093  31.334  31.231  1.00  0.00     0.074 A 
ATOM     98  C   UNL A   1      37.272  32.267  31.974  1.00  0.00    -0.034 C 
ATOM     99  H   UNL A   1      37.400  33.093  33.935  1.00  0.00     0.065 H 
ATOM    100  H   UNL A   1      37.821  30.005  27.209  1.00  0.00     0.065 H 
ATOM    101  C   UNL A   1      37.881  30.994  29.934  1.00  0.00     0.037 A 
ATOM    102  H   UNL A   1      36.428  32.726  31.597  1.00  0.00     0.065 H 
BRANCH  83 103
ATOM    103  C   UNL A   1      42.030  27.018  27.656  1.00  0.00     0.064 A 
ATOM    104  C   UNL A   1      42.944  27.569  26.744  1.00  0.00     0.173 A 
ATOM    105  C   UNL A   1      41.616  25.693  27.446  1.00  0.00     0.173 A 
ATOM    106  F   UNL A   1      43.365  28.834  26.890  1.00  0.00    -0.203 F 
ATOM    107  C   UNL A   1      43.399  26.835  25.651  1.00  0.00     0.198 A 
ATOM    108  C   UNL A   1      42.103  24.950  26.373  1.00  0.00     0.198 A 
ATOM    109  F   UNL A   1      40.749  25.112  28.290  1.00  0.00    -0.203 F 
ATOM    110  F   UNL A   1      44.228  27.403  24.764  1.00  0.00    -0.200 F 
ATOM    111  C   UNL A   1      42.985  25.525  25.471  1.00  0.00     0.200 A 
ATOM    112  F   UNL A   1      41.713  23.678  26.210  1.00  0.00    -0.200 F 
ATOM    113  F   UNL A   1      43.431  24.817  24.424  1.00  0.00    -0.200 F 
ENDBRANCH  83 103
BRANCH  86 114
ATOM    114  C   UNL A   1      39.210  32.205  35.721  1.00  0.00     0.064 A 
ATOM    115  C   UNL A   1      39.684  33.511  35.912  1.00  0.00     0.173 A 
ATOM    116  C   UNL A   1      38.346  31.677  36.692  1.00  0.00     0.173 A 
ATOM    117  F   UNL A   1      40.527  34.055  35.023  1.00  0.00    -0.203 F 
ATOM    118  C   UNL A   1      39.333  34.246  37.042  1.00  0.00     0.198 A 
ATOM    119  C   UNL A   1      37.968  32.426  37.804  1.00  0.00     0.198 A 
ATOM    120  F   UNL A   1      37.858  30.436  36.554  1.00  0.00    -0.203 F 
ATOM    121  F   UNL A   1      39.845  35.470  37.228  1.00  0.00    -0.200 F 
ATOM    122  C   UNL A   1      38.471  33.706  37.984  1.00  0.00     0.200 A 
ATOM    123  F   UNL A   1      37.120  31.906  38.702  1.00  0.00    -0.200 F 
ATOM    124  F   UNL A   1      38.130  34.415  39.070  1.00  0.00    -0.200 F 
ENDBRANCH  86 114
BRANCH 101 125
ATOM    125  C   UNL A   1      36.689  31.599  29.248  1.00  0.00     0.064 A 
ATOM    126  C   UNL A   1      35.556  30.838  28.921  1.00  0.00     0.173 A 
ATOM    127  C   UNL A   1      36.666  32.970  28.948  1.00  0.00     0.173 A 
ATOM    128  F   UNL A   1      35.533  29.520  29.173  1.00  0.00    -0.203 F 
ATOM    129  C   UNL A   1      34.459  31.422  28.293  1.00  0.00     0.198 A 
ATOM    130  C   UNL A   1      35.552  33.557  28.354  1.00  0.00     0.198 A 
ATOM    131  F   UNL A   1      37.718  33.746  29.247  1.00  0.00    -0.203 F 
ATOM    132  F   UNL A   1      33.411  30.664  27.940  1.00  0.00    -0.200 F 
ATOM    133  C   UNL A   1      34.454  32.781  28.019  1.00  0.00     0.200 A 
ATOM    134  F   UNL A   1      35.542  34.874  28.108  1.00  0.00    -0.200 F 
ATOM    135  F   UNL A   1      33.393  33.342  27.424  1.00  0.00    -0.200 F 
ENDBRANCH 101 125
ENDBRANCH  66  69
ENDBRANCH  56  59
ENDBRANCH  52  55
ENDBRANCH  49  52
ENDBRANCH  46  49
ENDBRANCH   1  46
TORSDOF 17
ENDMDL
MODEL 7
REMARK VINA RESULT:     -11.5      7.187     12.352
REMARK SMILES NS(=O)(=O)c1ccc(N2N=C(C(=O)NCCCCCCNC(=O)c3ccc(-c4c5nc(c(-c6c(F)c(F)c(F)c(F)c6F)c6ccc([nH]6)c(-c6c(F)c(F)c(F)c(F)c6F)c6nc(c(-c7c(F)c(F)c(F)c(F)c7F)c7ccc4[nH]7)C=C6)C=C5)cc3)C[C@H]2c2ccco2)cc1
REMARK SMILES IDX 17 1 16 4 15 7 14 10 12 11 13 12 11 14 9 15 10 16 88 17
REMARK SMILES IDX 87 18 8 22 5 23 6 24 95 25 7 26 94 28 2 32 3 33 4 34 1 35
REMARK SMILES IDX 89 38 90 39 93 40 91 41 92 43 18 46 19 49 20 52 21 55 22 56
REMARK SMILES IDX 23 58 24 59 25 60 86 61 26 62 85 64 27 66 28 69 29 70 79 71
REMARK SMILES IDX 30 72 84 73 78 74 80 75 31 76 83 77 77 79 76 81 32 83 64 86
REMARK SMILES IDX 44 87 63 88 45 89 48 90 62 91 81 92 46 93 47 95 61 97 82 98
REMARK SMILES IDX 49 101 33 103 34 104 42 105 35 106 36 107 40 108 43 109
REMARK SMILES IDX 37 110 38 111 41 112 39 113 65 114 66 115 74 116 67 117
REMARK SMILES IDX 68 118 72 119 75 120 69 121 70 122 73 123 71 124 50 125
REMARK SMILES IDX 51 126 59 127 52 128 53 129 57 130 60 131 54 132 55 133
REMARK SMILES IDX 58 134 56 135
REMARK H PARENT 17 2 17 3 16 5 16 6 15 8 15 9 14 13 88 19 87 20 87 21 6 27
REMARK H PARENT 95 29 7 30 94 31 1 36 1 37 90 42 91 44 92 45 18 47 18 48 19 50
REMARK H PARENT 19 51 20 53 20 54 21 57 25 63 86 65 26 67 85 68 84 78 78 80
REMARK H PARENT 80 82 83 84 77 85 45 94 48 96 81 99 46 100 82 102
REMARK Flexibility Score: inf
ROOT
ATOM      1  C   UNL A   1      38.881  34.945  39.337  1.00  0.00    -0.052 C 
ATOM      2  H   UNL A   1      37.952  35.459  39.476  1.00  0.00     0.027 H 
ATOM      3  H   UNL A   1      39.681  35.591  39.041  1.00  0.00     0.027 H 
ENDROOT
BRANCH   1   4
ATOM      4  C   UNL A   1      38.701  33.934  38.203  1.00  0.00    -0.036 C 
ATOM      5  H   UNL A   1      38.330  34.454  37.344  1.00  0.00     0.028 H 
ATOM      6  H   UNL A   1      39.657  33.486  38.032  1.00  0.00     0.028 H 
BRANCH   4   7
ATOM      7  C   UNL A   1      37.734  32.803  38.534  1.00  0.00     0.018 C 
ATOM      8  H   UNL A   1      37.758  32.619  39.588  1.00  0.00     0.049 H 
ATOM      9  H   UNL A   1      36.752  33.094  38.226  1.00  0.00     0.049 H 
BRANCH   7  10
ATOM     10  N   UNL A   1      38.096  31.588  37.835  1.00  0.00    -0.351 N 
ATOM     11  C   UNL A   1      38.218  31.245  36.512  1.00  0.00     0.267 C 
ATOM     12  O   UNL A   1      38.452  30.069  36.251  1.00  0.00    -0.268 OA
ATOM     13  H   UNL A   1      38.299  30.841  38.444  1.00  0.00     0.163 HD
BRANCH  11  14
ATOM     14  C   UNL A   1      38.131  32.245  35.369  1.00  0.00     0.128 C 
ATOM     15  N   UNL A   1      37.264  33.324  33.754  1.00  0.00    -0.254 N 
ATOM     16  N   UNL A   1      36.986  32.580  34.855  1.00  0.00    -0.171 NA
ATOM     17  C   UNL A   1      38.678  33.672  33.603  1.00  0.00     0.116 C 
ATOM     18  C   UNL A   1      39.324  32.879  34.737  1.00  0.00     0.027 C 
ATOM     19  H   UNL A   1      38.804  34.734  33.647  1.00  0.00     0.064 H 
ATOM     20  H   UNL A   1      40.005  32.145  34.362  1.00  0.00     0.036 H 
ATOM     21  H   UNL A   1      39.910  33.473  35.407  1.00  0.00     0.036 H 
BRANCH  15  22
ATOM     22  C   UNL A   1      36.254  33.982  33.069  1.00  0.00     0.060 A 
ATOM     23  C   UNL A   1      34.124  35.273  31.781  1.00  0.00     0.082 A 
ATOM     24  C   UNL A   1      34.785  34.219  31.143  1.00  0.00    -0.040 A 
ATOM     25  C   UNL A   1      34.547  35.723  33.031  1.00  0.00    -0.040 A 
ATOM     26  C   UNL A   1      35.852  33.584  31.789  1.00  0.00    -0.035 A 
ATOM     27  H   UNL A   1      34.489  33.914  30.202  1.00  0.00     0.064 H 
ATOM     28  C   UNL A   1      35.610  35.078  33.659  1.00  0.00    -0.035 A 
ATOM     29  H   UNL A   1      34.079  36.523  33.483  1.00  0.00     0.064 H 
ATOM     30  H   UNL A   1      36.347  32.812  31.315  1.00  0.00     0.065 H 
ATOM     31  H   UNL A   1      35.930  35.416  34.581  1.00  0.00     0.065 H 
BRANCH  23  32
ATOM     32  S   UNL A   1      32.771  36.076  30.983  1.00  0.00     0.238 S 
ATOM     33  O   UNL A   1      31.720  36.316  31.942  1.00  0.00    -0.207 OA
ATOM     34  O   UNL A   1      32.529  35.454  29.702  1.00  0.00    -0.207 OA
BRANCH  32  35
ATOM     35  N   UNL A   1      33.431  37.582  30.632  1.00  0.00    -0.225 NA
ATOM     36  H   UNL A   1      33.925  37.537  29.740  1.00  0.00     0.137 HD
ATOM     37  H   UNL A   1      34.085  37.847  31.369  1.00  0.00     0.137 HD
ENDBRANCH  32  35
ENDBRANCH  23  32
ENDBRANCH  15  22
BRANCH  17  38
ATOM     38  C   UNL A   1      39.326  33.416  32.273  1.00  0.00     0.128 A 
ATOM     39  C   UNL A   1      39.559  34.224  31.175  1.00  0.00    -0.018 A 
ATOM     40  O   UNL A   1      39.804  32.160  32.019  1.00  0.00    -0.467 OA
ATOM     41  C   UNL A   1      40.175  33.410  30.195  1.00  0.00    -0.023 A 
ATOM     42  H   UNL A   1      39.328  35.225  31.087  1.00  0.00     0.066 H 
ATOM     43  C   UNL A   1      40.319  32.168  30.765  1.00  0.00     0.091 A 
ATOM     44  H   UNL A   1      40.459  33.692  29.244  1.00  0.00     0.066 H 
ATOM     45  H   UNL A   1      40.758  31.355  30.303  1.00  0.00     0.104 H 
ENDBRANCH  17  38
ENDBRANCH  11  14
ENDBRANCH   7  10
ENDBRANCH   4   7
ENDBRANCH   1   4
BRANCH   1  46
ATOM     46  C   UNL A   1      39.295  34.337  40.683  1.00  0.00    -0.052 C 
ATOM     47  H   UNL A   1      39.540  33.308  40.521  1.00  0.00     0.027 H 
ATOM     48  H   UNL A   1      38.463  34.477  41.341  1.00  0.00     0.027 H 
BRANCH  46  49
ATOM     49  C   UNL A   1      40.493  35.010  41.358  1.00  0.00    -0.036 C 
ATOM     50  H   UNL A   1      40.834  34.372  42.147  1.00  0.00     0.028 H 
ATOM     51  H   UNL A   1      40.150  35.961  41.708  1.00  0.00     0.028 H 
BRANCH  49  52
ATOM     52  C   UNL A   1      41.666  35.285  40.427  1.00  0.00     0.018 C 
ATOM     53  H   UNL A   1      41.525  34.734  39.520  1.00  0.00     0.049 H 
ATOM     54  H   UNL A   1      42.564  34.983  40.926  1.00  0.00     0.049 H 
BRANCH  52  55
ATOM     55  N   UNL A   1      41.784  36.697  40.105  1.00  0.00    -0.352 N 
ATOM     56  C   UNL A   1      42.238  37.292  38.957  1.00  0.00     0.251 C 
ATOM     57  H   UNL A   1      41.496  37.317  40.815  1.00  0.00     0.163 HD
ATOM     58  O   UNL A   1      42.474  38.496  38.936  1.00  0.00    -0.269 OA
BRANCH  56  59
ATOM     59  C   UNL A   1      42.459  36.475  37.746  1.00  0.00     0.039 A 
ATOM     60  C   UNL A   1      43.752  36.031  37.460  1.00  0.00    -0.049 A 
ATOM     61  C   UNL A   1      41.399  36.159  36.892  1.00  0.00    -0.049 A 
ATOM     62  C   UNL A   1      43.970  35.223  36.344  1.00  0.00    -0.053 A 
ATOM     63  H   UNL A   1      44.540  36.298  38.070  1.00  0.00     0.063 H 
ATOM     64  C   UNL A   1      41.605  35.287  35.828  1.00  0.00    -0.053 A 
ATOM     65  H   UNL A   1      40.466  36.571  37.050  1.00  0.00     0.063 H 
ATOM     66  C   UNL A   1      42.894  34.817  35.537  1.00  0.00    -0.014 A 
ATOM     67  H   UNL A   1      44.930  34.922  36.108  1.00  0.00     0.063 H 
ATOM     68  H   UNL A   1      40.805  34.985  35.249  1.00  0.00     0.063 H 
BRANCH  66  69
ATOM     69  C   UNL A   1      43.100  33.904  34.384  1.00  0.00     0.031 A 
ATOM     70  C   UNL A   1      43.269  34.461  32.998  1.00  0.00     0.074 A 
ATOM     71  C   UNL A   1      43.082  32.571  34.580  1.00  0.00     0.049 A 
ATOM     72  N   UNL A   1      43.403  33.827  31.861  1.00  0.00    -0.248 NA
ATOM     73  C   UNL A   1      43.257  35.927  32.868  1.00  0.00    -0.034 C 
ATOM     74  C   UNL A   1      42.884  31.910  35.871  1.00  0.00    -0.036 A 
ATOM     75  N   UNL A   1      43.224  31.533  33.694  1.00  0.00    -0.354 N 
ATOM     76  C   UNL A   1      43.482  34.812  30.885  1.00  0.00     0.074 A 
ATOM     77  C   UNL A   1      43.317  36.083  31.555  1.00  0.00    -0.034 C 
ATOM     78  H   UNL A   1      43.213  36.645  33.608  1.00  0.00     0.065 H 
ATOM     79  C   UNL A   1      42.945  30.580  35.697  1.00  0.00    -0.036 A 
ATOM     80  H   UNL A   1      42.724  32.389  36.770  1.00  0.00     0.065 H 
ATOM     81  C   UNL A   1      43.138  30.293  34.279  1.00  0.00     0.049 A 
ATOM     82  H   UNL A   1      43.373  31.664  32.729  1.00  0.00     0.167 HD
ATOM     83  C   UNL A   1      43.696  34.669  29.555  1.00  0.00     0.037 A 
ATOM     84  H   UNL A   1      43.256  36.994  31.072  1.00  0.00     0.065 H 
ATOM     85  H   UNL A   1      42.866  29.874  36.445  1.00  0.00     0.065 H 
ATOM     86  C   UNL A   1      43.198  29.064  33.733  1.00  0.00     0.037 A 
ATOM     87  C   UNL A   1      43.874  33.400  28.898  1.00  0.00     0.049 A 
ATOM     88  C   UNL A   1      43.411  28.933  32.247  1.00  0.00     0.074 A 
ATOM     89  C   UNL A   1      44.150  33.151  27.566  1.00  0.00    -0.036 A 
ATOM     90  N   UNL A   1      43.785  32.166  29.525  1.00  0.00    -0.354 N 
ATOM     91  N   UNL A   1      43.555  29.874  31.344  1.00  0.00    -0.248 NA
ATOM     92  C   UNL A   1      43.477  27.569  31.707  1.00  0.00    -0.034 C 
ATOM     93  C   UNL A   1      44.164  31.766  27.374  1.00  0.00    -0.036 A 
ATOM     94  H   UNL A   1      44.317  33.864  26.838  1.00  0.00     0.065 H 
ATOM     95  C   UNL A   1      43.969  31.150  28.600  1.00  0.00     0.049 A 
ATOM     96  H   UNL A   1      43.615  32.030  30.485  1.00  0.00     0.167 HD
ATOM     97  C   UNL A   1      43.762  29.217  30.139  1.00  0.00     0.074 A 
ATOM     98  C   UNL A   1      43.741  27.798  30.429  1.00  0.00    -0.034 C 
ATOM     99  H   UNL A   1      43.353  26.668  32.194  1.00  0.00     0.065 H 
ATOM    100  H   UNL A   1      44.298  31.283  26.471  1.00  0.00     0.065 H 
ATOM    101  C   UNL A   1      43.953  29.742  28.902  1.00  0.00     0.037 A 
ATOM    102  H   UNL A   1      43.909  27.060  29.727  1.00  0.00     0.065 H 
BRANCH  83 103
ATOM    103  C   UNL A   1      43.748  35.917  28.720  1.00  0.00     0.064 A 
ATOM    104  C   UNL A   1      44.951  36.603  28.487  1.00  0.00     0.173 A 
ATOM    105  C   UNL A   1      42.585  36.415  28.112  1.00  0.00     0.173 A 
ATOM    106  F   UNL A   1      46.091  36.177  29.052  1.00  0.00    -0.203 F 
ATOM    107  C   UNL A   1      44.981  37.756  27.707  1.00  0.00     0.198 A 
ATOM    108  C   UNL A   1      42.626  37.547  27.301  1.00  0.00     0.198 A 
ATOM    109  F   UNL A   1      41.408  35.797  28.294  1.00  0.00    -0.203 F 
ATOM    110  F   UNL A   1      46.132  38.423  27.545  1.00  0.00    -0.200 F 
ATOM    111  C   UNL A   1      43.822  38.221  27.108  1.00  0.00     0.200 A 
ATOM    112  F   UNL A   1      41.505  37.986  26.711  1.00  0.00    -0.200 F 
ATOM    113  F   UNL A   1      43.853  39.326  26.349  1.00  0.00    -0.200 F 
ENDBRANCH  83 103
BRANCH  86 114
ATOM    114  C   UNL A   1      43.070  27.858  34.593  1.00  0.00     0.064 A 
ATOM    115  C   UNL A   1      44.166  27.370  35.320  1.00  0.00     0.173 A 
ATOM    116  C   UNL A   1      41.857  27.162  34.699  1.00  0.00     0.173 A 
ATOM    117  F   UNL A   1      45.353  27.988  35.238  1.00  0.00    -0.203 F 
ATOM    118  C   UNL A   1      44.060  26.218  36.096  1.00  0.00     0.198 A 
ATOM    119  C   UNL A   1      41.744  26.029  35.502  1.00  0.00     0.198 A 
ATOM    120  F   UNL A   1      40.776  27.590  34.031  1.00  0.00    -0.203 F 
ATOM    121  F   UNL A   1      45.138  25.742  36.735  1.00  0.00    -0.200 F 
ATOM    122  C   UNL A   1      42.848  25.552  36.191  1.00  0.00     0.200 A 
ATOM    123  F   UNL A   1      40.565  25.400  35.606  1.00  0.00    -0.200 F 
ATOM    124  F   UNL A   1      42.746  24.445  36.940  1.00  0.00    -0.200 F 
ENDBRANCH  86 114
BRANCH 101 125
ATOM    125  C   UNL A   1      44.199  28.780  27.775  1.00  0.00     0.064 A 
ATOM    126  C   UNL A   1      43.176  28.385  26.900  1.00  0.00     0.173 A 
ATOM    127  C   UNL A   1      45.490  28.279  27.542  1.00  0.00     0.173 A 
ATOM    128  F   UNL A   1      41.922  28.824  27.086  1.00  0.00    -0.203 F 
ATOM    129  C   UNL A   1      43.430  27.500  25.855  1.00  0.00     0.198 A 
ATOM    130  C   UNL A   1      45.747  27.424  26.474  1.00  0.00     0.198 A 
ATOM    131  F   UNL A   1      46.508  28.631  28.342  1.00  0.00    -0.203 F 
ATOM    132  F   UNL A   1      42.425  27.092  25.067  1.00  0.00    -0.200 F 
ATOM    133  C   UNL A   1      44.716  27.028  25.638  1.00  0.00     0.200 A 
ATOM    134  F   UNL A   1      46.994  26.984  26.255  1.00  0.00    -0.200 F 
ATOM    135  F   UNL A   1      44.958  26.185  24.625  1.00  0.00    -0.200 F 
ENDBRANCH 101 125
ENDBRANCH  66  69
ENDBRANCH  56  59
ENDBRANCH  52  55
ENDBRANCH  49  52
ENDBRANCH  46  49
ENDBRANCH   1  46
TORSDOF 17
ENDMDL
MODEL 8
REMARK VINA RESULT:     -11.4      2.070      7.580
REMARK SMILES NS(=O)(=O)c1ccc(N2N=C(C(=O)NCCCCCCNC(=O)c3ccc(-c4c5nc(c(-c6c(F)c(F)c(F)c(F)c6F)c6ccc([nH]6)c(-c6c(F)c(F)c(F)c(F)c6F)c6nc(c(-c7c(F)c(F)c(F)c(F)c7F)c7ccc4[nH]7)C=C6)C=C5)cc3)C[C@H]2c2ccco2)cc1
REMARK SMILES IDX 17 1 16 4 15 7 14 10 12 11 13 12 11 14 9 15 10 16 88 17
REMARK SMILES IDX 87 18 8 22 5 23 6 24 95 25 7 26 94 28 2 32 3 33 4 34 1 35
REMARK SMILES IDX 89 38 90 39 93 40 91 41 92 43 18 46 19 49 20 52 21 55 22 56
REMARK SMILES IDX 23 58 24 59 25 60 86 61 26 62 85 64 27 66 28 69 29 70 79 71
REMARK SMILES IDX 30 72 84 73 78 74 80 75 31 76 83 77 77 79 76 81 32 83 64 86
REMARK SMILES IDX 44 87 63 88 45 89 48 90 62 91 81 92 46 93 47 95 61 97 82 98
REMARK SMILES IDX 49 101 33 103 34 104 42 105 35 106 36 107 40 108 43 109
REMARK SMILES IDX 37 110 38 111 41 112 39 113 65 114 66 115 74 116 67 117
REMARK SMILES IDX 68 118 72 119 75 120 69 121 70 122 73 123 71 124 50 125
REMARK SMILES IDX 51 126 59 127 52 128 53 129 57 130 60 131 54 132 55 133
REMARK SMILES IDX 58 134 56 135
REMARK H PARENT 17 2 17 3 16 5 16 6 15 8 15 9 14 13 88 19 87 20 87 21 6 27
REMARK H PARENT 95 29 7 30 94 31 1 36 1 37 90 42 91 44 92 45 18 47 18 48 19 50
REMARK H PARENT 19 51 20 53 20 54 21 57 25 63 86 65 26 67 85 68 84 78 78 80
REMARK H PARENT 80 82 83 84 77 85 45 94 48 96 81 99 46 100 82 102
REMARK Flexibility Score: inf
ROOT
ATOM      1  C   UNL A   1      34.465  22.581  24.607  1.00  0.00    -0.052 C 
ATOM      2  H   UNL A   1      34.828  22.059  25.468  1.00  0.00     0.027 H 
ATOM      3  H   UNL A   1      33.827  23.405  24.851  1.00  0.00     0.027 H 
ENDROOT
BRANCH   1   4
ATOM      4  C   UNL A   1      33.618  21.610  23.783  1.00  0.00    -0.036 C 
ATOM      5  H   UNL A   1      34.252  21.140  23.059  1.00  0.00     0.028 H 
ATOM      6  H   UNL A   1      33.190  20.910  24.470  1.00  0.00     0.028 H 
BRANCH   4   7
ATOM      7  C   UNL A   1      32.460  22.273  23.047  1.00  0.00     0.018 C 
ATOM      8  H   UNL A   1      31.837  21.515  22.618  1.00  0.00     0.049 H 
ATOM      9  H   UNL A   1      31.905  22.862  23.747  1.00  0.00     0.049 H 
BRANCH   7  10
ATOM     10  N   UNL A   1      32.940  23.141  21.993  1.00  0.00    -0.351 N 
ATOM     11  C   UNL A   1      32.832  24.485  21.736  1.00  0.00     0.267 C 
ATOM     12  O   UNL A   1      33.285  24.896  20.672  1.00  0.00    -0.268 OA
ATOM     13  H   UNL A   1      33.461  22.662  21.309  1.00  0.00     0.163 HD
BRANCH  11  14
ATOM     14  C   UNL A   1      32.231  25.486  22.710  1.00  0.00     0.128 C 
ATOM     15  N   UNL A   1      31.374  27.313  23.384  1.00  0.00    -0.254 N 
ATOM     16  N   UNL A   1      31.615  26.549  22.287  1.00  0.00    -0.171 NA
ATOM     17  C   UNL A   1      31.679  26.655  24.655  1.00  0.00     0.116 C 
ATOM     18  C   UNL A   1      32.326  25.352  24.193  1.00  0.00     0.027 C 
ATOM     19  H   UNL A   1      30.789  26.550  25.240  1.00  0.00     0.064 H 
ATOM     20  H   UNL A   1      33.345  25.285  24.514  1.00  0.00     0.036 H 
ATOM     21  H   UNL A   1      31.862  24.470  24.583  1.00  0.00     0.036 H 
BRANCH  15  22
ATOM     22  C   UNL A   1      30.576  28.444  23.298  1.00  0.00     0.060 A 
ATOM     23  C   UNL A   1      29.016  30.754  23.003  1.00  0.00     0.082 A 
ATOM     24  C   UNL A   1      29.970  30.687  24.022  1.00  0.00    -0.040 A 
ATOM     25  C   UNL A   1      28.795  29.663  22.164  1.00  0.00    -0.040 A 
ATOM     26  C   UNL A   1      30.741  29.529  24.168  1.00  0.00    -0.035 A 
ATOM     27  H   UNL A   1      30.104  31.486  24.662  1.00  0.00     0.064 H 
ATOM     28  C   UNL A   1      29.572  28.518  22.323  1.00  0.00    -0.035 A 
ATOM     29  H   UNL A   1      28.066  29.703  21.436  1.00  0.00     0.064 H 
ATOM     30  H   UNL A   1      31.440  29.474  24.925  1.00  0.00     0.065 H 
ATOM     31  H   UNL A   1      29.404  27.706  21.709  1.00  0.00     0.065 H 
BRANCH  23  32
ATOM     32  S   UNL A   1      28.044  32.213  22.800  1.00  0.00     0.238 S 
ATOM     33  O   UNL A   1      26.996  32.236  23.792  1.00  0.00    -0.207 OA
ATOM     34  O   UNL A   1      27.791  32.433  21.394  1.00  0.00    -0.207 OA
BRANCH  32  35
ATOM     35  N   UNL A   1      29.136  33.410  23.251  1.00  0.00    -0.225 NA
ATOM     36  H   UNL A   1      28.690  34.325  23.170  1.00  0.00     0.137 HD
ATOM     37  H   UNL A   1      29.951  33.375  22.639  1.00  0.00     0.137 HD
ENDBRANCH  32  35
ENDBRANCH  23  32
ENDBRANCH  15  22
BRANCH  17  38
ATOM     38  C   UNL A   1      32.523  27.403  25.647  1.00  0.00     0.128 A 
ATOM     39  C   UNL A   1      32.323  27.752  26.970  1.00  0.00    -0.018 A 
ATOM     40  O   UNL A   1      33.744  27.864  25.239  1.00  0.00    -0.467 OA
ATOM     41  C   UNL A   1      33.461  28.490  27.372  1.00  0.00    -0.023 A 
ATOM     42  H   UNL A   1      31.503  27.519  27.552  1.00  0.00     0.066 H 
ATOM     43  C   UNL A   1      34.304  28.514  26.287  1.00  0.00     0.091 A 
ATOM     44  H   UNL A   1      33.624  28.924  28.294  1.00  0.00     0.066 H 
ATOM     45  H   UNL A   1      35.233  28.964  26.274  1.00  0.00     0.104 H 
ENDBRANCH  17  38
ENDBRANCH  11  14
ENDBRANCH   7  10
ENDBRANCH   4   7
ENDBRANCH   1   4
BRANCH   1  46
ATOM     46  C   UNL A   1      35.669  23.174  23.866  1.00  0.00    -0.052 C 
ATOM     47  H   UNL A   1      35.728  24.215  24.108  1.00  0.00     0.027 H 
ATOM     48  H   UNL A   1      35.501  22.988  22.826  1.00  0.00     0.027 H 
BRANCH  46  49
ATOM     49  C   UNL A   1      37.018  22.533  24.203  1.00  0.00    -0.036 C 
ATOM     50  H   UNL A   1      37.754  22.930  23.535  1.00  0.00     0.028 H 
ATOM     51  H   UNL A   1      36.887  21.476  24.099  1.00  0.00     0.028 H 
BRANCH  49  52
ATOM     52  C   UNL A   1      37.490  22.774  25.631  1.00  0.00     0.018 C 
ATOM     53  H   UNL A   1      36.637  22.814  26.276  1.00  0.00     0.049 H 
ATOM     54  H   UNL A   1      38.031  23.697  25.650  1.00  0.00     0.049 H 
BRANCH  52  55
ATOM     55  N   UNL A   1      38.379  21.722  26.093  1.00  0.00    -0.352 N 
ATOM     56  C   UNL A   1      39.652  21.817  26.594  1.00  0.00     0.251 C 
ATOM     57  H   UNL A   1      38.015  20.808  26.040  1.00  0.00     0.163 HD
ATOM     58  O   UNL A   1      40.338  20.809  26.733  1.00  0.00    -0.269 OA
BRANCH  56  59
ATOM     59  C   UNL A   1      40.203  23.140  26.950  1.00  0.00     0.039 A 
ATOM     60  C   UNL A   1      39.911  24.234  26.134  1.00  0.00    -0.049 A 
ATOM     61  C   UNL A   1      41.012  23.299  28.079  1.00  0.00    -0.049 A 
ATOM     62  C   UNL A   1      40.388  25.499  26.480  1.00  0.00    -0.053 A 
ATOM     63  H   UNL A   1      39.346  24.109  25.280  1.00  0.00     0.063 H 
ATOM     64  C   UNL A   1      41.417  24.571  28.467  1.00  0.00    -0.053 A 
ATOM     65  H   UNL A   1      41.309  22.474  28.623  1.00  0.00     0.063 H 
ATOM     66  C   UNL A   1      41.117  25.684  27.667  1.00  0.00    -0.014 A 
ATOM     67  H   UNL A   1      40.204  26.304  25.860  1.00  0.00     0.063 H 
ATOM     68  H   UNL A   1      41.941  24.698  29.346  1.00  0.00     0.063 H 
BRANCH  66  69
ATOM     69  C   UNL A   1      41.575  27.034  28.083  1.00  0.00     0.031 A 
ATOM     70  C   UNL A   1      43.030  27.401  27.992  1.00  0.00     0.074 A 
ATOM     71  C   UNL A   1      40.688  27.909  28.594  1.00  0.00     0.049 A 
ATOM     72  N   UNL A   1      43.631  28.504  28.358  1.00  0.00    -0.248 NA
ATOM     73  C   UNL A   1      43.937  26.380  27.441  1.00  0.00    -0.034 C 
ATOM     74  C   UNL A   1      39.257  27.654  28.773  1.00  0.00    -0.036 A 
ATOM     75  N   UNL A   1      40.859  29.187  29.064  1.00  0.00    -0.354 N 
ATOM     76  C   UNL A   1      44.980  28.308  28.091  1.00  0.00     0.074 A 
ATOM     77  C   UNL A   1      45.119  26.957  27.592  1.00  0.00    -0.034 C 
ATOM     78  H   UNL A   1      43.710  25.456  27.042  1.00  0.00     0.065 H 
ATOM     79  C   UNL A   1      38.677  28.750  29.287  1.00  0.00    -0.036 A 
ATOM     80  H   UNL A   1      38.773  26.774  28.540  1.00  0.00     0.065 H 
ATOM     81  C   UNL A   1      39.699  29.766  29.518  1.00  0.00     0.049 A 
ATOM     82  H   UNL A   1      41.730  29.645  29.075  1.00  0.00     0.167 HD
ATOM     83  C   UNL A   1      46.005  29.182  28.228  1.00  0.00     0.037 A 
ATOM     84  H   UNL A   1      46.021  26.503  27.381  1.00  0.00     0.065 H 
ATOM     85  H   UNL A   1      37.671  28.856  29.488  1.00  0.00     0.065 H 
ATOM     86  C   UNL A   1      39.485  30.976  30.069  1.00  0.00     0.037 A 
ATOM     87  C   UNL A   1      45.857  30.531  28.712  1.00  0.00     0.049 A 
ATOM     88  C   UNL A   1      40.647  31.921  30.234  1.00  0.00     0.074 A 
ATOM     89  C   UNL A   1      46.822  31.512  28.837  1.00  0.00    -0.036 A 
ATOM     90  N   UNL A   1      44.665  31.083  29.159  1.00  0.00    -0.354 N 
ATOM     91  N   UNL A   1      41.907  31.749  29.912  1.00  0.00    -0.248 NA
ATOM     92  C   UNL A   1      40.355  33.230  30.832  1.00  0.00    -0.034 C 
ATOM     93  C   UNL A   1      46.230  32.638  29.418  1.00  0.00    -0.036 A 
ATOM     94  H   UNL A   1      47.811  31.430  28.550  1.00  0.00     0.065 H 
ATOM     95  C   UNL A   1      44.878  32.383  29.590  1.00  0.00     0.049 A 
ATOM     96  H   UNL A   1      43.796  30.621  29.169  1.00  0.00     0.167 HD
ATOM     97  C   UNL A   1      42.549  32.936  30.236  1.00  0.00     0.074 A 
ATOM     98  C   UNL A   1      41.536  33.826  30.765  1.00  0.00    -0.034 C 
ATOM     99  H   UNL A   1      39.464  33.591  31.205  1.00  0.00     0.065 H 
ATOM    100  H   UNL A   1      46.716  33.511  29.676  1.00  0.00     0.065 H 
ATOM    101  C   UNL A   1      43.860  33.261  30.107  1.00  0.00     0.037 A 
ATOM    102  H   UNL A   1      41.713  34.801  31.053  1.00  0.00     0.065 H 
BRANCH  83 103
ATOM    103  C   UNL A   1      47.380  28.708  27.851  1.00  0.00     0.064 A 
ATOM    104  C   UNL A   1      47.813  28.677  26.516  1.00  0.00     0.173 A 
ATOM    105  C   UNL A   1      48.293  28.315  28.843  1.00  0.00     0.173 A 
ATOM    106  F   UNL A   1      46.978  29.032  25.527  1.00  0.00    -0.203 F 
ATOM    107  C   UNL A   1      49.093  28.239  26.186  1.00  0.00     0.198 A 
ATOM    108  C   UNL A   1      49.585  27.913  28.511  1.00  0.00     0.198 A 
ATOM    109  F   UNL A   1      47.937  28.331  30.136  1.00  0.00    -0.203 F 
ATOM    110  F   UNL A   1      49.462  28.166  24.899  1.00  0.00    -0.200 F 
ATOM    111  C   UNL A   1      49.980  27.867  27.183  1.00  0.00     0.200 A 
ATOM    112  F   UNL A   1      50.446  27.568  29.479  1.00  0.00    -0.200 F 
ATOM    113  F   UNL A   1      51.215  27.454  26.865  1.00  0.00    -0.200 F 
ENDBRANCH  83 103
BRANCH  86 114
ATOM    114  C   UNL A   1      38.115  31.372  30.491  1.00  0.00     0.064 A 
ATOM    115  C   UNL A   1      37.742  31.350  31.843  1.00  0.00     0.173 A 
ATOM    116  C   UNL A   1      37.149  31.769  29.555  1.00  0.00     0.173 A 
ATOM    117  F   UNL A   1      38.623  30.961  32.776  1.00  0.00    -0.203 F 
ATOM    118  C   UNL A   1      36.448  31.683  32.238  1.00  0.00     0.198 A 
ATOM    119  C   UNL A   1      35.865  32.134  29.955  1.00  0.00     0.198 A 
ATOM    120  F   UNL A   1      37.456  31.814  28.250  1.00  0.00    -0.203 F 
ATOM    121  F   UNL A   1      36.102  31.599  33.530  1.00  0.00    -0.200 F 
ATOM    122  C   UNL A   1      35.512  32.080  31.294  1.00  0.00     0.200 A 
ATOM    123  F   UNL A   1      34.971  32.534  29.041  1.00  0.00    -0.200 F 
ATOM    124  F   UNL A   1      34.268  32.402  31.675  1.00  0.00    -0.200 F 
ENDBRANCH  86 114
BRANCH 101 125
ATOM    125  C   UNL A   1      44.269  34.652  30.502  1.00  0.00     0.064 A 
ATOM    126  C   UNL A   1      44.222  35.724  29.599  1.00  0.00     0.173 A 
ATOM    127  C   UNL A   1      44.676  34.922  31.819  1.00  0.00     0.173 A 
ATOM    128  F   UNL A   1      43.853  35.518  28.325  1.00  0.00    -0.203 F 
ATOM    129  C   UNL A   1      44.597  37.007  29.990  1.00  0.00     0.198 A 
ATOM    130  C   UNL A   1      45.015  36.212  32.215  1.00  0.00     0.198 A 
ATOM    131  F   UNL A   1      44.731  33.936  32.726  1.00  0.00    -0.203 F 
ATOM    132  F   UNL A   1      44.598  38.004  29.094  1.00  0.00    -0.200 F 
ATOM    133  C   UNL A   1      44.984  37.251  31.299  1.00  0.00     0.200 A 
ATOM    134  F   UNL A   1      45.370  36.450  33.486  1.00  0.00    -0.200 F 
ATOM    135  F   UNL A   1      45.334  38.489  31.675  1.00  0.00    -0.200 F 
ENDBRANCH 101 125
ENDBRANCH  66  69
ENDBRANCH  56  59
ENDBRANCH  52  55
ENDBRANCH  49  52
ENDBRANCH  46  49
ENDBRANCH   1  46
TORSDOF 17
ENDMDL
MODEL 9
REMARK VINA RESULT:     -11.3      1.986      7.665
REMARK SMILES NS(=O)(=O)c1ccc(N2N=C(C(=O)NCCCCCCNC(=O)c3ccc(-c4c5nc(c(-c6c(F)c(F)c(F)c(F)c6F)c6ccc([nH]6)c(-c6c(F)c(F)c(F)c(F)c6F)c6nc(c(-c7c(F)c(F)c(F)c(F)c7F)c7ccc4[nH]7)C=C6)C=C5)cc3)C[C@H]2c2ccco2)cc1
REMARK SMILES IDX 17 1 16 4 15 7 14 10 12 11 13 12 11 14 9 15 10 16 88 17
REMARK SMILES IDX 87 18 8 22 5 23 6 24 95 25 7 26 94 28 2 32 3 33 4 34 1 35
REMARK SMILES IDX 89 38 90 39 93 40 91 41 92 43 18 46 19 49 20 52 21 55 22 56
REMARK SMILES IDX 23 58 24 59 25 60 86 61 26 62 85 64 27 66 28 69 29 70 79 71
REMARK SMILES IDX 30 72 84 73 78 74 80 75 31 76 83 77 77 79 76 81 32 83 64 86
REMARK SMILES IDX 44 87 63 88 45 89 48 90 62 91 81 92 46 93 47 95 61 97 82 98
REMARK SMILES IDX 49 101 33 103 34 104 42 105 35 106 36 107 40 108 43 109
REMARK SMILES IDX 37 110 38 111 41 112 39 113 65 114 66 115 74 116 67 117
REMARK SMILES IDX 68 118 72 119 75 120 69 121 70 122 73 123 71 124 50 125
REMARK SMILES IDX 51 126 59 127 52 128 53 129 57 130 60 131 54 132 55 133
REMARK SMILES IDX 58 134 56 135
REMARK H PARENT 17 2 17 3 16 5 16 6 15 8 15 9 14 13 88 19 87 20 87 21 6 27
REMARK H PARENT 95 29 7 30 94 31 1 36 1 37 90 42 91 44 92 45 18 47 18 48 19 50
REMARK H PARENT 19 51 20 53 20 54 21 57 25 63 86 65 26 67 85 68 84 78 78 80
REMARK H PARENT 80 82 83 84 77 85 45 94 48 96 81 99 46 100 82 102
REMARK Flexibility Score: inf
ROOT
ATOM      1  C   UNL A   1      36.831  22.220  24.115  1.00  0.00    -0.052 C 
ATOM      2  H   UNL A   1      37.618  22.906  23.881  1.00  0.00     0.027 H 
ATOM      3  H   UNL A   1      36.595  21.557  23.309  1.00  0.00     0.027 H 
ENDROOT
BRANCH   1   4
ATOM      4  C   UNL A   1      35.563  23.027  24.395  1.00  0.00    -0.036 C 
ATOM      5  H   UNL A   1      35.635  23.960  23.874  1.00  0.00     0.028 H 
ATOM      6  H   UNL A   1      34.736  22.434  24.063  1.00  0.00     0.028 H 
BRANCH   4   7
ATOM      7  C   UNL A   1      35.332  23.320  25.873  1.00  0.00     0.018 C 
ATOM      8  H   UNL A   1      35.937  22.660  26.459  1.00  0.00     0.049 H 
ATOM      9  H   UNL A   1      35.595  24.339  26.063  1.00  0.00     0.049 H 
BRANCH   7  10
ATOM     10  N   UNL A   1      33.942  23.129  26.231  1.00  0.00    -0.351 N 
ATOM     11  C   UNL A   1      32.844  23.951  26.277  1.00  0.00     0.267 C 
ATOM     12  O   UNL A   1      31.805  23.483  26.734  1.00  0.00    -0.268 OA
ATOM     13  H   UNL A   1      33.739  22.204  26.501  1.00  0.00     0.163 HD
BRANCH  11  14
ATOM     14  C   UNL A   1      32.834  25.378  25.751  1.00  0.00     0.128 C 
ATOM     15  N   UNL A   1      32.776  27.504  25.815  1.00  0.00    -0.254 N 
ATOM     16  N   UNL A   1      33.036  26.388  26.544  1.00  0.00    -0.171 NA
ATOM     17  C   UNL A   1      32.559  27.255  24.389  1.00  0.00     0.116 C 
ATOM     18  C   UNL A   1      32.565  25.729  24.327  1.00  0.00     0.027 C 
ATOM     19  H   UNL A   1      33.312  27.747  23.809  1.00  0.00     0.064 H 
ATOM     20  H   UNL A   1      31.620  25.347  24.002  1.00  0.00     0.036 H 
ATOM     21  H   UNL A   1      33.273  25.322  23.635  1.00  0.00     0.036 H 
BRANCH  15  22
ATOM     22  C   UNL A   1      33.062  28.763  26.321  1.00  0.00     0.060 A 
ATOM     23  C   UNL A   1      33.669  31.250  27.462  1.00  0.00     0.082 A 
ATOM     24  C   UNL A   1      32.370  30.989  27.018  1.00  0.00    -0.040 A 
ATOM     25  C   UNL A   1      34.680  30.305  27.295  1.00  0.00    -0.040 A 
ATOM     26  C   UNL A   1      32.075  29.748  26.444  1.00  0.00    -0.035 A 
ATOM     27  H   UNL A   1      31.634  31.707  27.113  1.00  0.00     0.064 H 
ATOM     28  C   UNL A   1      34.369  29.074  26.722  1.00  0.00    -0.035 A 
ATOM     29  H   UNL A   1      35.645  30.515  27.591  1.00  0.00     0.064 H 
ATOM     30  H   UNL A   1      31.119  29.557  26.107  1.00  0.00     0.065 H 
ATOM     31  H   UNL A   1      35.117  28.376  26.589  1.00  0.00     0.065 H 
BRANCH  23  32
ATOM     32  S   UNL A   1      34.052  32.807  28.199  1.00  0.00     0.238 S 
ATOM     33  O   UNL A   1      35.185  33.394  27.524  1.00  0.00    -0.207 OA
ATOM     34  O   UNL A   1      33.977  32.692  29.637  1.00  0.00    -0.207 OA
BRANCH  32  35
ATOM     35  N   UNL A   1      32.719  33.729  27.752  1.00  0.00    -0.225 NA
ATOM     36  H   UNL A   1      32.165  33.216  27.066  1.00  0.00     0.137 HD
ATOM     37  H   UNL A   1      33.034  34.608  27.344  1.00  0.00     0.137 HD
ENDBRANCH  32  35
ENDBRANCH  23  32
ENDBRANCH  15  22
BRANCH  17  38
ATOM     38  C   UNL A   1      31.341  27.857  23.749  1.00  0.00     0.128 A 
ATOM     39  C   UNL A   1      30.017  27.460  23.702  1.00  0.00    -0.018 A 
ATOM     40  O   UNL A   1      31.486  29.028  23.057  1.00  0.00    -0.467 OA
ATOM     41  C   UNL A   1      29.335  28.417  22.914  1.00  0.00    -0.023 A 
ATOM     42  H   UNL A   1      29.607  26.629  24.155  1.00  0.00     0.066 H 
ATOM     43  C   UNL A   1      30.270  29.359  22.561  1.00  0.00     0.091 A 
ATOM     44  H   UNL A   1      28.335  28.407  22.655  1.00  0.00     0.066 H 
ATOM     45  H   UNL A   1      30.072  30.202  21.997  1.00  0.00     0.104 H 
ENDBRANCH  17  38
ENDBRANCH  11  14
ENDBRANCH   7  10
ENDBRANCH   4   7
ENDBRANCH   1   4
BRANCH   1  46
ATOM     46  C   UNL A   1      37.301  21.335  25.276  1.00  0.00    -0.052 C 
ATOM     47  H   UNL A   1      36.654  20.484  25.328  1.00  0.00     0.027 H 
ATOM     48  H   UNL A   1      37.266  21.949  26.152  1.00  0.00     0.027 H 
BRANCH  46  49
ATOM     49  C   UNL A   1      38.742  20.830  25.165  1.00  0.00    -0.036 C 
ATOM     50  H   UNL A   1      39.379  21.672  24.993  1.00  0.00     0.028 H 
ATOM     51  H   UNL A   1      38.757  20.124  24.361  1.00  0.00     0.028 H 
BRANCH  49  52
ATOM     52  C   UNL A   1      39.247  20.094  26.400  1.00  0.00     0.018 C 
ATOM     53  H   UNL A   1      38.488  19.417  26.734  1.00  0.00     0.049 H 
ATOM     54  H   UNL A   1      39.470  20.822  27.152  1.00  0.00     0.049 H 
BRANCH  52  55
ATOM     55  N   UNL A   1      40.460  19.343  26.126  1.00  0.00    -0.352 N 
ATOM     56  C   UNL A   1      41.749  19.791  25.995  1.00  0.00     0.251 C 
ATOM     57  H   UNL A   1      40.339  18.371  26.018  1.00  0.00     0.163 HD
ATOM     58  O   UNL A   1      42.619  19.051  25.548  1.00  0.00    -0.269 OA
BRANCH  56  59
ATOM     59  C   UNL A   1      42.086  21.178  26.378  1.00  0.00     0.039 A 
ATOM     60  C   UNL A   1      42.361  21.459  27.718  1.00  0.00    -0.049 A 
ATOM     61  C   UNL A   1      42.119  22.197  25.423  1.00  0.00    -0.049 A 
ATOM     62  C   UNL A   1      42.723  22.754  28.090  1.00  0.00    -0.053 A 
ATOM     63  H   UNL A   1      42.297  20.714  28.429  1.00  0.00     0.063 H 
ATOM     64  C   UNL A   1      42.560  23.466  25.780  1.00  0.00    -0.053 A 
ATOM     65  H   UNL A   1      41.818  22.008  24.454  1.00  0.00     0.063 H 
ATOM     66  C   UNL A   1      42.857  23.761  27.119  1.00  0.00    -0.014 A 
ATOM     67  H   UNL A   1      42.891  22.974  29.084  1.00  0.00     0.063 H 
ATOM     68  H   UNL A   1      42.667  24.196  25.058  1.00  0.00     0.063 H 
BRANCH  66  69
ATOM     69  C   UNL A   1      43.305  25.128  27.489  1.00  0.00     0.031 A 
ATOM     70  C   UNL A   1      44.729  25.548  27.251  1.00  0.00     0.074 A 
ATOM     71  C   UNL A   1      42.442  25.972  28.087  1.00  0.00     0.049 A 
ATOM     72  N   UNL A   1      45.323  26.674  27.556  1.00  0.00    -0.248 NA
ATOM     73  C   UNL A   1      45.612  24.560  26.610  1.00  0.00    -0.034 C 
ATOM     74  C   UNL A   1      41.047  25.665  28.410  1.00  0.00    -0.036 A 
ATOM     75  N   UNL A   1      42.612  27.257  28.539  1.00  0.00    -0.354 N 
ATOM     76  C   UNL A   1      46.644  26.526  27.153  1.00  0.00     0.074 A 
ATOM     77  C   UNL A   1      46.781  25.180  26.642  1.00  0.00    -0.034 C 
ATOM     78  H   UNL A   1      45.380  23.627  26.235  1.00  0.00     0.065 H 
ATOM     79  C   UNL A   1      40.482  26.740  28.981  1.00  0.00    -0.036 A 
ATOM     80  H   UNL A   1      40.575  24.767  28.227  1.00  0.00     0.065 H 
ATOM     81  C   UNL A   1      41.484  27.794  29.109  1.00  0.00     0.049 A 
ATOM     82  H   UNL A   1      43.463  27.747  28.462  1.00  0.00     0.167 HD
ATOM     83  C   UNL A   1      47.644  27.438  27.187  1.00  0.00     0.037 A 
ATOM     84  H   UNL A   1      47.674  24.759  26.340  1.00  0.00     0.065 H 
ATOM     85  H   UNL A   1      39.498  26.810  29.283  1.00  0.00     0.065 H 
ATOM     86  C   UNL A   1      41.283  28.997  29.679  1.00  0.00     0.037 A 
ATOM     87  C   UNL A   1      47.496  28.782  27.684  1.00  0.00     0.049 A 
ATOM     88  C   UNL A   1      42.420  29.984  29.726  1.00  0.00     0.074 A 
ATOM     89  C   UNL A   1      48.433  29.799  27.712  1.00  0.00    -0.036 A 
ATOM     90  N   UNL A   1      46.336  29.291  28.250  1.00  0.00    -0.354 N 
ATOM     91  N   UNL A   1      43.646  29.858  29.279  1.00  0.00    -0.248 NA
ATOM     92  C   UNL A   1      42.141  31.284  30.352  1.00  0.00    -0.034 C 
ATOM     93  C   UNL A   1      47.861  30.903  28.351  1.00  0.00    -0.036 A 
ATOM     94  H   UNL A   1      49.390  29.752  27.326  1.00  0.00     0.065 H 
ATOM     95  C   UNL A   1      46.544  30.600  28.658  1.00  0.00     0.049 A 
ATOM     96  H   UNL A   1      45.491  28.797  28.348  1.00  0.00     0.167 HD
ATOM     97  C   UNL A   1      44.273  31.069  29.538  1.00  0.00     0.074 A 
ATOM     98  C   UNL A   1      43.287  31.922  30.167  1.00  0.00    -0.034 C 
ATOM     99  H   UNL A   1      41.280  31.613  30.814  1.00  0.00     0.065 H 
ATOM    100  H   UNL A   1      48.339  31.794  28.560  1.00  0.00     0.065 H 
ATOM    101  C   UNL A   1      45.551  31.441  29.277  1.00  0.00     0.037 A 
ATOM    102  H   UNL A   1      43.456  32.904  30.437  1.00  0.00     0.065 H 
BRANCH  83 103
ATOM    103  C   UNL A   1      48.991  27.014  26.673  1.00  0.00     0.064 A 
ATOM    104  C   UNL A   1      49.977  26.489  27.523  1.00  0.00     0.173 A 
ATOM    105  C   UNL A   1      49.288  27.098  25.303  1.00  0.00     0.173 A 
ATOM    106  F   UNL A   1      49.750  26.396  28.843  1.00  0.00    -0.203 F 
ATOM    107  C   UNL A   1      51.218  26.096  27.029  1.00  0.00     0.198 A 
ATOM    108  C   UNL A   1      50.517  26.669  24.807  1.00  0.00     0.198 A 
ATOM    109  F   UNL A   1      48.382  27.585  24.442  1.00  0.00    -0.203 F 
ATOM    110  F   UNL A   1      52.161  25.650  27.870  1.00  0.00    -0.200 F 
ATOM    111  C   UNL A   1      51.484  26.178  25.671  1.00  0.00     0.200 A 
ATOM    112  F   UNL A   1      50.766  26.734  23.491  1.00  0.00    -0.200 F 
ATOM    113  F   UNL A   1      52.675  25.791  25.195  1.00  0.00    -0.200 F 
ENDBRANCH  83 103
BRANCH  86 114
ATOM    114  C   UNL A   1      39.949  29.344  30.238  1.00  0.00     0.064 A 
ATOM    115  C   UNL A   1      38.955  29.917  29.432  1.00  0.00     0.173 A 
ATOM    116  C   UNL A   1      39.643  29.121  31.589  1.00  0.00     0.173 A 
ATOM    117  F   UNL A   1      39.204  30.168  28.138  1.00  0.00    -0.203 F 
ATOM    118  C   UNL A   1      37.719  30.280  29.962  1.00  0.00     0.198 A 
ATOM    119  C   UNL A   1      38.394  29.453  32.110  1.00  0.00     0.198 A 
ATOM    120  F   UNL A   1      40.555  28.569  32.403  1.00  0.00    -0.203 F 
ATOM    121  F   UNL A   1      36.807  30.877  29.181  1.00  0.00    -0.200 F 
ATOM    122  C   UNL A   1      37.437  30.042  31.298  1.00  0.00     0.200 A 
ATOM    123  F   UNL A   1      38.121  29.204  33.397  1.00  0.00    -0.200 F 
ATOM    124  F   UNL A   1      36.246  30.388  31.807  1.00  0.00    -0.200 F 
ENDBRANCH  86 114
BRANCH 101 125
ATOM    125  C   UNL A   1      45.947  32.847  29.630  1.00  0.00     0.064 A 
ATOM    126  C   UNL A   1      46.529  33.166  30.866  1.00  0.00     0.173 A 
ATOM    127  C   UNL A   1      45.778  33.884  28.699  1.00  0.00     0.173 A 
ATOM    128  F   UNL A   1      46.700  32.215  31.797  1.00  0.00    -0.203 F 
ATOM    129  C   UNL A   1      46.896  34.475  31.168  1.00  0.00     0.198 A 
ATOM    130  C   UNL A   1      46.181  35.184  28.991  1.00  0.00     0.198 A 
ATOM    131  F   UNL A   1      45.235  33.634  27.498  1.00  0.00    -0.203 F 
ATOM    132  F   UNL A   1      47.398  34.765  32.377  1.00  0.00    -0.200 F 
ATOM    133  C   UNL A   1      46.731  35.480  30.227  1.00  0.00     0.200 A 
ATOM    134  F   UNL A   1      46.038  36.150  28.072  1.00  0.00    -0.200 F 
ATOM    135  F   UNL A   1      47.095  36.736  30.517  1.00  0.00    -0.200 F 
ENDBRANCH 101 125
ENDBRANCH  66  69
ENDBRANCH  56  59
ENDBRANCH  52  55
ENDBRANCH  49  52
ENDBRANCH  46  49
ENDBRANCH   1  46
TORSDOF 17
ENDMDL
MODEL 10
REMARK VINA RESULT:     -11.3      2.028      3.181
REMARK SMILES NS(=O)(=O)c1ccc(N2N=C(C(=O)NCCCCCCNC(=O)c3ccc(-c4c5nc(c(-c6c(F)c(F)c(F)c(F)c6F)c6ccc([nH]6)c(-c6c(F)c(F)c(F)c(F)c6F)c6nc(c(-c7c(F)c(F)c(F)c(F)c7F)c7ccc4[nH]7)C=C6)C=C5)cc3)C[C@H]2c2ccco2)cc1
REMARK SMILES IDX 17 1 16 4 15 7 14 10 12 11 13 12 11 14 9 15 10 16 88 17
REMARK SMILES IDX 87 18 8 22 5 23 6 24 95 25 7 26 94 28 2 32 3 33 4 34 1 35
REMARK SMILES IDX 89 38 90 39 93 40 91 41 92 43 18 46 19 49 20 52 21 55 22 56
REMARK SMILES IDX 23 58 24 59 25 60 86 61 26 62 85 64 27 66 28 69 29 70 79 71
REMARK SMILES IDX 30 72 84 73 78 74 80 75 31 76 83 77 77 79 76 81 32 83 64 86
REMARK SMILES IDX 44 87 63 88 45 89 48 90 62 91 81 92 46 93 47 95 61 97 82 98
REMARK SMILES IDX 49 101 33 103 34 104 42 105 35 106 36 107 40 108 43 109
REMARK SMILES IDX 37 110 38 111 41 112 39 113 65 114 66 115 74 116 67 117
REMARK SMILES IDX 68 118 72 119 75 120 69 121 70 122 73 123 71 124 50 125
REMARK SMILES IDX 51 126 59 127 52 128 53 129 57 130 60 131 54 132 55 133
REMARK SMILES IDX 58 134 56 135
REMARK H PARENT 17 2 17 3 16 5 16 6 15 8 15 9 14 13 88 19 87 20 87 21 6 27
REMARK H PARENT 95 29 7 30 94 31 1 36 1 37 90 42 91 44 92 45 18 47 18 48 19 50
REMARK H PARENT 19 51 20 53 20 54 21 57 25 63 86 65 26 67 85 68 84 78 78 80
REMARK H PARENT 80 82 83 84 77 85 45 94 48 96 81 99 46 100 82 102
REMARK Flexibility Score: inf
ROOT
ATOM      1  C   UNL A   1      36.809  22.176  24.035  1.00  0.00    -0.052 C 
ATOM      2  H   UNL A   1      37.618  22.848  23.836  1.00  0.00     0.027 H 
ATOM      3  H   UNL A   1      36.588  21.527  23.214  1.00  0.00     0.027 H 
ENDROOT
BRANCH   1   4
ATOM      4  C   UNL A   1      35.549  23.007  24.278  1.00  0.00    -0.036 C 
ATOM      5  H   UNL A   1      35.668  23.952  23.788  1.00  0.00     0.028 H 
ATOM      6  H   UNL A   1      34.725  22.445  23.891  1.00  0.00     0.028 H 
BRANCH   4   7
ATOM      7  C   UNL A   1      35.255  23.265  25.751  1.00  0.00     0.018 C 
ATOM      8  H   UNL A   1      35.834  22.590  26.347  1.00  0.00     0.049 H 
ATOM      9  H   UNL A   1      35.510  24.279  25.977  1.00  0.00     0.049 H 
BRANCH   7  10
ATOM     10  N   UNL A   1      33.851  23.066  26.045  1.00  0.00    -0.351 N 
ATOM     11  C   UNL A   1      32.755  23.891  26.081  1.00  0.00     0.267 C 
ATOM     12  O   UNL A   1      31.697  23.410  26.476  1.00  0.00    -0.268 OA
ATOM     13  H   UNL A   1      33.634  22.132  26.268  1.00  0.00     0.163 HD
BRANCH  11  14
ATOM     14  C   UNL A   1      32.771  25.339  25.615  1.00  0.00     0.128 C 
ATOM     15  N   UNL A   1      32.745  27.461  25.767  1.00  0.00    -0.254 N 
ATOM     16  N   UNL A   1      32.981  26.312  26.451  1.00  0.00    -0.171 NA
ATOM     17  C   UNL A   1      32.537  27.275  24.330  1.00  0.00     0.116 C 
ATOM     18  C   UNL A   1      32.521  25.753  24.204  1.00  0.00     0.027 C 
ATOM     19  H   UNL A   1      33.303  27.779  23.777  1.00  0.00     0.064 H 
ATOM     20  H   UNL A   1      31.573  25.400  23.855  1.00  0.00     0.036 H 
ATOM     21  H   UNL A   1      33.229  25.364  23.502  1.00  0.00     0.036 H 
BRANCH  15  22
ATOM     22  C   UNL A   1      33.044  28.693  26.327  1.00  0.00     0.060 A 
ATOM     23  C   UNL A   1      33.648  31.126  27.581  1.00  0.00     0.082 A 
ATOM     24  C   UNL A   1      32.452  30.990  26.872  1.00  0.00    -0.040 A 
ATOM     25  C   UNL A   1      34.569  30.081  27.628  1.00  0.00    -0.040 A 
ATOM     26  C   UNL A   1      32.160  29.775  26.242  1.00  0.00    -0.035 A 
ATOM     27  H   UNL A   1      31.790  31.780  26.812  1.00  0.00     0.064 H 
ATOM     28  C   UNL A   1      34.262  28.878  26.997  1.00  0.00    -0.035 A 
ATOM     29  H   UNL A   1      35.467  30.197  28.124  1.00  0.00     0.064 H 
ATOM     30  H   UNL A   1      31.281  29.675  25.710  1.00  0.00     0.065 H 
ATOM     31  H   UNL A   1      34.946  28.106  27.023  1.00  0.00     0.065 H 
BRANCH  23  32
ATOM     32  S   UNL A   1      34.025  32.649  28.389  1.00  0.00     0.238 S 
ATOM     33  O   UNL A   1      34.372  32.391  29.766  1.00  0.00    -0.207 OA
ATOM     34  O   UNL A   1      33.056  33.651  28.005  1.00  0.00    -0.207 OA
BRANCH  32  35
ATOM     35  N   UNL A   1      35.455  33.093  27.625  1.00  0.00    -0.225 NA
ATOM     36  H   UNL A   1      35.791  32.315  27.056  1.00  0.00     0.137 HD
ATOM     37  H   UNL A   1      36.156  33.329  28.326  1.00  0.00     0.137 HD
ENDBRANCH  32  35
ENDBRANCH  23  32
ENDBRANCH  15  22
BRANCH  17  38
ATOM     38  C   UNL A   1      31.335  27.922  23.705  1.00  0.00     0.128 A 
ATOM     39  C   UNL A   1      29.981  27.646  23.779  1.00  0.00    -0.018 A 
ATOM     40  O   UNL A   1      31.531  29.001  22.888  1.00  0.00    -0.467 OA
ATOM     41  C   UNL A   1      29.331  28.580  22.938  1.00  0.00    -0.023 A 
ATOM     42  H   UNL A   1      29.533  26.904  24.338  1.00  0.00     0.066 H 
ATOM     43  C   UNL A   1      30.317  29.393  22.434  1.00  0.00     0.091 A 
ATOM     44  H   UNL A   1      28.319  28.637  22.741  1.00  0.00     0.066 H 
ATOM     45  H   UNL A   1      30.154  30.191  21.799  1.00  0.00     0.104 H 
ENDBRANCH  17  38
ENDBRANCH  11  14
ENDBRANCH   7  10
ENDBRANCH   4   7
ENDBRANCH   1   4
BRANCH   1  46
ATOM     46  C   UNL A   1      37.219  21.270  25.202  1.00  0.00    -0.052 C 
ATOM     47  H   UNL A   1      36.508  20.473  25.269  1.00  0.00     0.027 H 
ATOM     48  H   UNL A   1      37.240  21.894  26.071  1.00  0.00     0.027 H 
BRANCH  46  49
ATOM     49  C   UNL A   1      38.615  20.652  25.086  1.00  0.00    -0.036 C 
ATOM     50  H   UNL A   1      39.299  21.424  24.801  1.00  0.00     0.028 H 
ATOM     51  H   UNL A   1      38.542  19.870  24.359  1.00  0.00     0.028 H 
BRANCH  49  52
ATOM     52  C   UNL A   1      39.127  20.009  26.368  1.00  0.00     0.018 C 
ATOM     53  H   UNL A   1      38.349  19.402  26.785  1.00  0.00     0.049 H 
ATOM     54  H   UNL A   1      39.407  20.792  27.042  1.00  0.00     0.049 H 
BRANCH  52  55
ATOM     55  N   UNL A   1      40.295  19.179  26.130  1.00  0.00    -0.352 N 
ATOM     56  C   UNL A   1      41.609  19.544  26.002  1.00  0.00     0.251 C 
ATOM     57  H   UNL A   1      40.116  18.213  26.049  1.00  0.00     0.163 HD
ATOM     58  O   UNL A   1      42.438  18.740  25.587  1.00  0.00    -0.269 OA
BRANCH  56  59
ATOM     59  C   UNL A   1      42.026  20.919  26.350  1.00  0.00     0.039 A 
ATOM     60  C   UNL A   1      42.338  21.213  27.679  1.00  0.00    -0.049 A 
ATOM     61  C   UNL A   1      42.097  21.914  25.372  1.00  0.00    -0.049 A 
ATOM     62  C   UNL A   1      42.774  22.495  28.016  1.00  0.00    -0.053 A 
ATOM     63  H   UNL A   1      42.247  20.487  28.407  1.00  0.00     0.063 H 
ATOM     64  C   UNL A   1      42.610  23.166  25.695  1.00  0.00    -0.053 A 
ATOM     65  H   UNL A   1      41.770  21.722  24.412  1.00  0.00     0.063 H 
ATOM     66  C   UNL A   1      42.945  23.473  27.022  1.00  0.00    -0.014 A 
ATOM     67  H   UNL A   1      42.971  22.726  29.003  1.00  0.00     0.063 H 
ATOM     68  H   UNL A   1      42.744  23.873  24.955  1.00  0.00     0.063 H 
BRANCH  66  69
ATOM     69  C   UNL A   1      43.471  24.821  27.355  1.00  0.00     0.031 A 
ATOM     70  C   UNL A   1      42.577  25.845  27.997  1.00  0.00     0.074 A 
ATOM     71  C   UNL A   1      44.738  25.140  27.028  1.00  0.00     0.049 A 
ATOM     72  N   UNL A   1      42.834  27.089  28.311  1.00  0.00    -0.248 NA
ATOM     73  C   UNL A   1      41.200  25.422  28.303  1.00  0.00    -0.034 C 
ATOM     74  C   UNL A   1      45.689  24.247  26.363  1.00  0.00    -0.036 A 
ATOM     75  N   UNL A   1      45.443  26.304  27.204  1.00  0.00    -0.354 N 
ATOM     76  C   UNL A   1      41.655  27.598  28.840  1.00  0.00     0.074 A 
ATOM     77  C   UNL A   1      40.664  26.548  28.747  1.00  0.00    -0.034 C 
ATOM     78  H   UNL A   1      40.768  24.492  28.199  1.00  0.00     0.065 H 
ATOM     79  C   UNL A   1      46.860  24.886  26.212  1.00  0.00    -0.036 A 
ATOM     80  H   UNL A   1      45.491  23.281  26.060  1.00  0.00     0.065 H 
ATOM     81  C   UNL A   1      46.730  26.246  26.725  1.00  0.00     0.049 A 
ATOM     82  H   UNL A   1      45.063  27.105  27.631  1.00  0.00     0.167 HD
ATOM     83  C   UNL A   1      41.427  28.820  29.376  1.00  0.00     0.037 A 
ATOM     84  H   UNL A   1      39.668  26.662  28.995  1.00  0.00     0.065 H 
ATOM     85  H   UNL A   1      47.714  24.481  25.799  1.00  0.00     0.065 H 
ATOM     86  C   UNL A   1      47.692  27.188  26.694  1.00  0.00     0.037 A 
ATOM     87  C   UNL A   1      42.423  29.855  29.479  1.00  0.00     0.049 A 
ATOM     88  C   UNL A   1      47.405  28.548  27.274  1.00  0.00     0.074 A 
ATOM     89  C   UNL A   1      42.309  31.108  30.053  1.00  0.00    -0.036 A 
ATOM     90  N   UNL A   1      43.717  29.758  28.987  1.00  0.00    -0.354 N 
ATOM     91  N   UNL A   1      46.307  28.994  27.835  1.00  0.00    -0.248 NA
ATOM     92  C   UNL A   1      48.494  29.532  27.221  1.00  0.00    -0.034 C 
ATOM     93  C   UNL A   1      43.511  31.793  29.853  1.00  0.00    -0.036 A 
ATOM     94  H   UNL A   1      41.478  31.475  30.546  1.00  0.00     0.065 H 
ATOM     95  C   UNL A   1      44.401  30.942  29.217  1.00  0.00     0.049 A 
ATOM     96  H   UNL A   1      44.094  28.966  28.540  1.00  0.00     0.167 HD
ATOM     97  C   UNL A   1      46.583  30.295  28.232  1.00  0.00     0.074 A 
ATOM     98  C   UNL A   1      47.958  30.561  27.861  1.00  0.00    -0.034 C 
ATOM     99  H   UNL A   1      49.430  29.445  26.798  1.00  0.00     0.065 H 
ATOM    100  H   UNL A   1      43.704  32.768  30.132  1.00  0.00     0.065 H 
ATOM    101  C   UNL A   1      45.772  31.191  28.849  1.00  0.00     0.037 A 
ATOM    102  H   UNL A   1      48.455  31.441  28.068  1.00  0.00     0.065 H 
BRANCH  83 103
ATOM    103  C   UNL A   1      40.045  29.108  29.892  1.00  0.00     0.064 A 
ATOM    104  C   UNL A   1      39.069  29.721  29.091  1.00  0.00     0.173 A 
ATOM    105  C   UNL A   1      39.680  28.732  31.194  1.00  0.00     0.173 A 
ATOM    106  F   UNL A   1      39.367  30.111  27.842  1.00  0.00    -0.203 F 
ATOM    107  C   UNL A   1      37.792  29.976  29.584  1.00  0.00     0.198 A 
ATOM    108  C   UNL A   1      38.390  28.955  31.671  1.00  0.00     0.198 A 
ATOM    109  F   UNL A   1      40.570  28.137  32.003  1.00  0.00    -0.203 F 
ATOM    110  F   UNL A   1      36.895  30.613  28.818  1.00  0.00    -0.200 F 
ATOM    111  C   UNL A   1      37.451  29.586  30.869  1.00  0.00     0.200 A 
ATOM    112  F   UNL A   1      38.058  28.562  32.909  1.00  0.00    -0.200 F 
ATOM    113  F   UNL A   1      36.218  29.823  31.340  1.00  0.00    -0.200 F 
ENDBRANCH  83 103
BRANCH  86 114
ATOM    114  C   UNL A   1      49.023  26.875  26.108  1.00  0.00     0.064 A 
ATOM    115  C   UNL A   1      50.056  26.353  26.900  1.00  0.00     0.173 A 
ATOM    116  C   UNL A   1      49.293  27.101  24.750  1.00  0.00     0.173 A 
ATOM    117  F   UNL A   1      49.854  26.137  28.208  1.00  0.00    -0.203 F 
ATOM    118  C   UNL A   1      51.315  26.096  26.362  1.00  0.00     0.198 A 
ATOM    119  C   UNL A   1      50.543  26.811  24.206  1.00  0.00     0.198 A 
ATOM    120  F   UNL A   1      48.339  27.592  23.946  1.00  0.00    -0.203 F 
ATOM    121  F   UNL A   1      52.301  25.651  27.154  1.00  0.00    -0.200 F 
ATOM    122  C   UNL A   1      51.556  26.320  25.015  1.00  0.00     0.200 A 
ATOM    123  F   UNL A   1      50.765  27.011  22.900  1.00  0.00    -0.200 F 
ATOM    124  F   UNL A   1      52.767  26.069  24.498  1.00  0.00    -0.200 F 
ENDBRANCH  86 114
BRANCH 101 125
ATOM    125  C   UNL A   1      46.360  32.527  29.203  1.00  0.00     0.064 A 
ATOM    126  C   UNL A   1      46.265  33.631  28.343  1.00  0.00     0.173 A 
ATOM    127  C   UNL A   1      46.993  32.714  30.442  1.00  0.00     0.173 A 
ATOM    128  F   UNL A   1      45.682  33.502  27.141  1.00  0.00    -0.203 F 
ATOM    129  C   UNL A   1      46.810  34.863  28.697  1.00  0.00     0.198 A 
ATOM    130  C   UNL A   1      47.504  33.957  30.807  1.00  0.00     0.198 A 
ATOM    131  F   UNL A   1      47.104  31.695  31.307  1.00  0.00    -0.203 F 
ATOM    132  F   UNL A   1      46.757  35.888  27.834  1.00  0.00    -0.200 F 
ATOM    133  C   UNL A   1      47.420  35.027  29.931  1.00  0.00     0.200 A 
ATOM    134  F   UNL A   1      48.076  34.118  32.009  1.00  0.00    -0.200 F 
ATOM    135  F   UNL A   1      47.934  36.216  30.272  1.00  0.00    -0.200 F 
ENDBRANCH 101 125
ENDBRANCH  66  69
ENDBRANCH  56  59
ENDBRANCH  52  55
ENDBRANCH  49  52
ENDBRANCH  46  49
ENDBRANCH   1  46
TORSDOF 17
ENDMDL
