MODEL 1
REMARK VINA RESULT:     -11.8      0.000      0.000
REMARK SMILES [NH3+]Cc1c(-c2ccccc2)c(C(=O)NCCCCCCNC(=O)c2ccc(-c3c4nc(c(-c5c(F)c(F)c(F)c(F)c5F)c5ccc([nH]5)c(-c5c(F)c(F)c(F)c(F)c5F)c5nc(c(-c6c(F)c(F)c(F)c(F)c6F)c6ccc3[nH]6)C=C5)C=C4)cc2)c2ccccn12
REMARK SMILES IDX 17 1 16 4 15 7 14 10 12 11 13 12 11 14 3 15 4 16 92 17 87 18
REMARK SMILES IDX 91 19 88 20 90 21 89 23 2 27 1 30 5 34 6 35 10 36 7 37 9 39
REMARK SMILES IDX 8 41 18 45 19 48 20 51 21 54 22 55 23 57 24 58 25 59 86 60
REMARK SMILES IDX 26 61 85 63 27 65 28 68 29 69 79 70 30 71 84 72 78 73 80 74
REMARK SMILES IDX 31 75 83 76 77 78 76 80 32 82 64 85 44 86 63 87 45 88 48 89
REMARK SMILES IDX 62 90 81 91 46 92 47 94 61 96 82 97 49 100 33 102 34 103
REMARK SMILES IDX 42 104 35 105 36 106 40 107 43 108 37 109 38 110 41 111
REMARK SMILES IDX 39 112 65 113 66 114 74 115 67 116 68 117 72 118 75 119
REMARK SMILES IDX 69 120 70 121 73 122 71 123 50 124 51 125 59 126 52 127
REMARK SMILES IDX 53 128 57 129 60 130 54 131 55 132 58 133 56 134
REMARK H PARENT 17 2 17 3 16 5 16 6 15 8 15 9 14 13 91 22 88 24 90 25 89 26
REMARK H PARENT 2 28 2 29 1 31 1 32 1 33 6 38 10 40 7 42 9 43 8 44 18 46 18 47
REMARK H PARENT 19 49 19 50 20 52 20 53 21 56 25 62 86 64 26 66 85 67 84 77
REMARK H PARENT 78 79 80 81 83 83 77 84 45 93 48 95 81 98 46 99 82 101
REMARK Flexibility Score: inf
ROOT
ATOM      1  C   UNL A   1      33.894  30.769  27.616  1.00  0.00    -0.052 C 
ATOM      2  H   UNL A   1      34.371  31.607  27.151  1.00  0.00     0.027 H 
ATOM      3  H   UNL A   1      33.914  30.769  28.686  1.00  0.00     0.027 H 
ENDROOT
BRANCH   1   4
ATOM      4  C   UNL A   1      34.673  29.514  27.209  1.00  0.00    -0.036 C 
ATOM      5  H   UNL A   1      35.602  29.834  26.786  1.00  0.00     0.028 H 
ATOM      6  H   UNL A   1      34.758  28.939  28.108  1.00  0.00     0.028 H 
BRANCH   4   7
ATOM      7  C   UNL A   1      34.008  28.578  26.204  1.00  0.00     0.018 C 
ATOM      8  H   UNL A   1      34.217  27.571  26.503  1.00  0.00     0.049 H 
ATOM      9  H   UNL A   1      32.967  28.824  26.216  1.00  0.00     0.049 H 
BRANCH   7  10
ATOM     10  N   UNL A   1      34.437  28.733  24.835  1.00  0.00    -0.352 N 
ATOM     11  C   UNL A   1      33.819  28.390  23.650  1.00  0.00     0.254 C 
ATOM     12  O   UNL A   1      34.402  28.736  22.623  1.00  0.00    -0.269 OA
ATOM     13  H   UNL A   1      35.321  29.155  24.728  1.00  0.00     0.163 HD
BRANCH  11  14
ATOM     14  C   UNL A   1      32.588  27.584  23.607  1.00  0.00     0.073 A 
ATOM     15  C   UNL A   1      31.177  25.765  23.876  1.00  0.00     0.086 A 
ATOM     16  C   UNL A   1      32.513  26.175  23.891  1.00  0.00     0.022 A 
ATOM     17  N   UNL A   1      30.429  26.893  23.572  1.00  0.00    -0.314 N 
ATOM     18  C   UNL A   1      31.305  27.920  23.193  1.00  0.00     0.059 A 
ATOM     19  C   UNL A   1      29.041  27.090  23.589  1.00  0.00     0.009 A 
ATOM     20  C   UNL A   1      30.719  29.053  22.543  1.00  0.00    -0.037 A 
ATOM     21  C   UNL A   1      28.507  28.231  23.127  1.00  0.00    -0.045 A 
ATOM     22  H   UNL A   1      28.423  26.351  23.961  1.00  0.00     0.082 H 
ATOM     23  C   UNL A   1      29.385  29.219  22.539  1.00  0.00    -0.059 A 
ATOM     24  H   UNL A   1      31.324  29.744  22.075  1.00  0.00     0.065 H 
ATOM     25  H   UNL A   1      27.492  28.401  23.189  1.00  0.00     0.064 H 
ATOM     26  H   UNL A   1      28.981  30.066  22.109  1.00  0.00     0.062 H 
BRANCH  15  27
ATOM     27  C   UNL A   1      30.653  24.390  24.193  1.00  0.00     0.116 C 
ATOM     28  H   UNL A   1      31.414  23.869  24.736  1.00  0.00     0.099 H 
ATOM     29  H   UNL A   1      29.748  24.549  24.741  1.00  0.00     0.099 H 
BRANCH  27  30
ATOM     30  N   UNL A   1      30.278  23.566  23.056  1.00  0.00    -0.353 N 
ATOM     31  H   UNL A   1      30.444  22.585  23.278  1.00  0.00     0.344 HD
ATOM     32  H   UNL A   1      30.838  23.832  22.246  1.00  0.00     0.344 HD
ATOM     33  H   UNL A   1      29.290  23.705  22.847  1.00  0.00     0.344 HD
ENDBRANCH  27  30
ENDBRANCH  15  27
BRANCH  16  34
ATOM     34  C   UNL A   1      33.602  25.245  24.168  1.00  0.00    -0.016 A 
ATOM     35  C   UNL A   1      34.146  24.451  23.155  1.00  0.00    -0.054 A 
ATOM     36  C   UNL A   1      34.111  25.149  25.471  1.00  0.00    -0.054 A 
ATOM     37  C   UNL A   1      35.196  23.575  23.445  1.00  0.00    -0.062 A 
ATOM     38  H   UNL A   1      33.774  24.512  22.195  1.00  0.00     0.063 H 
ATOM     39  C   UNL A   1      35.164  24.280  25.755  1.00  0.00    -0.062 A 
ATOM     40  H   UNL A   1      33.702  25.724  26.224  1.00  0.00     0.063 H 
ATOM     41  C   UNL A   1      35.706  23.494  24.742  1.00  0.00    -0.062 A 
ATOM     42  H   UNL A   1      35.596  22.987  22.697  1.00  0.00     0.062 H 
ATOM     43  H   UNL A   1      35.542  24.220  26.714  1.00  0.00     0.062 H 
ATOM     44  H   UNL A   1      36.486  22.850  24.949  1.00  0.00     0.062 H 
ENDBRANCH  16  34
ENDBRANCH  11  14
ENDBRANCH   7  10
ENDBRANCH   4   7
ENDBRANCH   1   4
BRANCH   1  45
ATOM     45  C   UNL A   1      32.408  30.826  27.251  1.00  0.00    -0.052 C 
ATOM     46  H   UNL A   1      31.875  30.251  27.979  1.00  0.00     0.027 H 
ATOM     47  H   UNL A   1      32.354  30.451  26.250  1.00  0.00     0.027 H 
BRANCH  45  48
ATOM     48  C   UNL A   1      31.760  32.211  27.191  1.00  0.00    -0.036 C 
ATOM     49  H   UNL A   1      31.309  32.401  28.142  1.00  0.00     0.028 H 
ATOM     50  H   UNL A   1      31.068  32.167  26.376  1.00  0.00     0.028 H 
BRANCH  48  51
ATOM     51  C   UNL A   1      32.689  33.376  26.876  1.00  0.00     0.018 C 
ATOM     52  H   UNL A   1      32.577  33.631  25.843  1.00  0.00     0.049 H 
ATOM     53  H   UNL A   1      33.686  33.060  27.105  1.00  0.00     0.049 H 
BRANCH  51  54
ATOM     54  N   UNL A   1      32.416  34.556  27.675  1.00  0.00    -0.352 N 
ATOM     55  C   UNL A   1      32.996  34.983  28.842  1.00  0.00     0.251 C 
ATOM     56  H   UNL A   1      31.705  35.140  27.325  1.00  0.00     0.163 HD
ATOM     57  O   UNL A   1      32.528  35.948  29.439  1.00  0.00    -0.269 OA
BRANCH  55  58
ATOM     58  C   UNL A   1      34.172  34.278  29.404  1.00  0.00     0.039 A 
ATOM     59  C   UNL A   1      33.961  33.322  30.403  1.00  0.00    -0.049 A 
ATOM     60  C   UNL A   1      35.473  34.578  28.994  1.00  0.00    -0.049 A 
ATOM     61  C   UNL A   1      35.049  32.645  30.961  1.00  0.00    -0.053 A 
ATOM     62  H   UNL A   1      33.004  33.116  30.726  1.00  0.00     0.063 H 
ATOM     63  C   UNL A   1      36.549  33.846  29.492  1.00  0.00    -0.053 A 
ATOM     64  H   UNL A   1      35.637  35.343  28.321  1.00  0.00     0.063 H 
ATOM     65  C   UNL A   1      36.351  32.888  30.497  1.00  0.00    -0.014 A 
ATOM     66  H   UNL A   1      34.893  31.964  31.720  1.00  0.00     0.063 H 
ATOM     67  H   UNL A   1      37.497  34.009  29.119  1.00  0.00     0.063 H 
BRANCH  65  68
ATOM     68  C   UNL A   1      37.515  32.175  31.086  1.00  0.00     0.031 A 
ATOM     69  C   UNL A   1      38.005  32.537  32.462  1.00  0.00     0.074 A 
ATOM     70  C   UNL A   1      38.151  31.225  30.373  1.00  0.00     0.049 A 
ATOM     71  N   UNL A   1      39.016  32.050  33.139  1.00  0.00    -0.248 NA
ATOM     72  C   UNL A   1      37.281  33.610  33.161  1.00  0.00    -0.034 C 
ATOM     73  C   UNL A   1      37.803  30.816  29.012  1.00  0.00    -0.036 A 
ATOM     74  N   UNL A   1      39.225  30.434  30.694  1.00  0.00    -0.354 N 
ATOM     75  C   UNL A   1      39.051  32.763  34.331  1.00  0.00     0.074 A 
ATOM     76  C   UNL A   1      38.006  33.759  34.259  1.00  0.00    -0.034 C 
ATOM     77  H   UNL A   1      36.429  34.116  32.871  1.00  0.00     0.065 H 
ATOM     78  C   UNL A   1      38.628  29.829  28.626  1.00  0.00    -0.036 A 
ATOM     79  H   UNL A   1      37.046  31.221  28.440  1.00  0.00     0.065 H 
ATOM     80  C   UNL A   1      39.583  29.561  29.696  1.00  0.00     0.049 A 
ATOM     81  H   UNL A   1      39.695  30.487  31.557  1.00  0.00     0.167 HD
ATOM     82  C   UNL A   1      39.863  32.585  35.401  1.00  0.00     0.037 A 
ATOM     83  H   UNL A   1      37.846  34.490  34.971  1.00  0.00     0.065 H 
ATOM     84  H   UNL A   1      38.592  29.339  27.718  1.00  0.00     0.065 H 
ATOM     85  C   UNL A   1      40.571  28.646  29.652  1.00  0.00     0.037 A 
ATOM     86  C   UNL A   1      40.889  31.577  35.479  1.00  0.00     0.049 A 
ATOM     87  C   UNL A   1      41.459  28.468  30.854  1.00  0.00     0.074 A 
ATOM     88  C   UNL A   1      41.733  31.281  36.536  1.00  0.00    -0.036 A 
ATOM     89  N   UNL A   1      41.212  30.699  34.453  1.00  0.00    -0.354 N 
ATOM     90  N   UNL A   1      41.440  29.102  32.002  1.00  0.00    -0.248 NA
ATOM     91  C   UNL A   1      42.498  27.434  30.758  1.00  0.00    -0.034 C 
ATOM     92  C   UNL A   1      42.600  30.260  36.132  1.00  0.00    -0.036 A 
ATOM     93  H   UNL A   1      41.723  31.735  37.462  1.00  0.00     0.065 H 
ATOM     94  C   UNL A   1      42.255  29.875  34.845  1.00  0.00     0.049 A 
ATOM     95  H   UNL A   1      40.765  30.667  33.577  1.00  0.00     0.167 HD
ATOM     96  C   UNL A   1      42.438  28.522  32.775  1.00  0.00     0.074 A 
ATOM     97  C   UNL A   1      43.028  27.472  31.972  1.00  0.00    -0.034 C 
ATOM     98  H   UNL A   1      42.749  26.835  29.956  1.00  0.00     0.065 H 
ATOM     99  H   UNL A   1      43.367  29.862  36.695  1.00  0.00     0.065 H 
ATOM    100  C   UNL A   1      42.830  28.830  34.036  1.00  0.00     0.037 A 
ATOM    101  H   UNL A   1      43.769  26.834  32.302  1.00  0.00     0.065 H 
BRANCH  82 102
ATOM    102  C   UNL A   1      39.672  33.500  36.578  1.00  0.00     0.064 A 
ATOM    103  C   UNL A   1      40.308  34.750  36.653  1.00  0.00     0.173 A 
ATOM    104  C   UNL A   1      38.821  33.138  37.633  1.00  0.00     0.173 A 
ATOM    105  F   UNL A   1      41.141  35.143  35.677  1.00  0.00    -0.203 F 
ATOM    106  C   UNL A   1      40.129  35.584  37.753  1.00  0.00     0.198 A 
ATOM    107  C   UNL A   1      38.616  33.990  38.716  1.00  0.00     0.198 A 
ATOM    108  F   UNL A   1      38.183  31.958  37.614  1.00  0.00    -0.203 F 
ATOM    109  F   UNL A   1      40.794  36.744  37.828  1.00  0.00    -0.200 F 
ATOM    110  C   UNL A   1      39.278  35.206  38.781  1.00  0.00     0.200 A 
ATOM    111  F   UNL A   1      37.782  33.629  39.702  1.00  0.00    -0.200 F 
ATOM    112  F   UNL A   1      39.101  36.012  39.837  1.00  0.00    -0.200 F 
ENDBRANCH  82 102
BRANCH  85 113
ATOM    113  C   UNL A   1      40.753  27.804  28.439  1.00  0.00     0.064 A 
ATOM    114  C   UNL A   1      41.565  28.233  27.379  1.00  0.00     0.173 A 
ATOM    115  C   UNL A   1      40.108  26.567  28.304  1.00  0.00     0.173 A 
ATOM    116  F   UNL A   1      42.188  29.420  27.451  1.00  0.00    -0.203 F 
ATOM    117  C   UNL A   1      41.702  27.471  26.220  1.00  0.00     0.198 A 
ATOM    118  C   UNL A   1      40.273  25.789  27.160  1.00  0.00     0.198 A 
ATOM    119  F   UNL A   1      39.325  26.106  29.291  1.00  0.00    -0.203 F 
ATOM    120  F   UNL A   1      42.440  27.932  25.201  1.00  0.00    -0.200 F 
ATOM    121  C   UNL A   1      41.060  26.247  26.114  1.00  0.00     0.200 A 
ATOM    122  F   UNL A   1      39.663  24.599  27.068  1.00  0.00    -0.200 F 
ATOM    123  F   UNL A   1      41.193  25.513  25.001  1.00  0.00    -0.200 F 
ENDBRANCH  85 113
BRANCH 100 124
ATOM    124  C   UNL A   1      43.920  27.989  34.640  1.00  0.00     0.064 A 
ATOM    125  C   UNL A   1      45.271  28.363  34.568  1.00  0.00     0.173 A 
ATOM    126  C   UNL A   1      43.605  26.796  35.308  1.00  0.00     0.173 A 
ATOM    127  F   UNL A   1      45.628  29.487  33.931  1.00  0.00    -0.203 F 
ATOM    128  C   UNL A   1      46.267  27.551  35.105  1.00  0.00     0.198 A 
ATOM    129  C   UNL A   1      44.601  26.006  35.876  1.00  0.00     0.198 A 
ATOM    130  F   UNL A   1      42.328  26.397  35.415  1.00  0.00    -0.203 F 
ATOM    131  F   UNL A   1      47.556  27.893  34.963  1.00  0.00    -0.200 F 
ATOM    132  C   UNL A   1      45.932  26.377  35.762  1.00  0.00     0.200 A 
ATOM    133  F   UNL A   1      44.272  24.881  36.526  1.00  0.00    -0.200 F 
ATOM    134  F   UNL A   1      46.893  25.597  36.276  1.00  0.00    -0.200 F 
ENDBRANCH 100 124
ENDBRANCH  65  68
ENDBRANCH  55  58
ENDBRANCH  51  54
ENDBRANCH  48  51
ENDBRANCH  45  48
ENDBRANCH   1  45
TORSDOF 16
ENDMDL
MODEL 2
REMARK VINA RESULT:     -11.8      0.396      1.615
REMARK SMILES [NH3+]Cc1c(-c2ccccc2)c(C(=O)NCCCCCCNC(=O)c2ccc(-c3c4nc(c(-c5c(F)c(F)c(F)c(F)c5F)c5ccc([nH]5)c(-c5c(F)c(F)c(F)c(F)c5F)c5nc(c(-c6c(F)c(F)c(F)c(F)c6F)c6ccc3[nH]6)C=C5)C=C4)cc2)c2ccccn12
REMARK SMILES IDX 17 1 16 4 15 7 14 10 12 11 13 12 11 14 3 15 4 16 92 17 87 18
REMARK SMILES IDX 91 19 88 20 90 21 89 23 2 27 1 30 5 34 6 35 10 36 7 37 9 39
REMARK SMILES IDX 8 41 18 45 19 48 20 51 21 54 22 55 23 57 24 58 25 59 86 60
REMARK SMILES IDX 26 61 85 63 27 65 28 68 29 69 79 70 30 71 84 72 78 73 80 74
REMARK SMILES IDX 31 75 83 76 77 78 76 80 32 82 64 85 44 86 63 87 45 88 48 89
REMARK SMILES IDX 62 90 81 91 46 92 47 94 61 96 82 97 49 100 33 102 34 103
REMARK SMILES IDX 42 104 35 105 36 106 40 107 43 108 37 109 38 110 41 111
REMARK SMILES IDX 39 112 65 113 66 114 74 115 67 116 68 117 72 118 75 119
REMARK SMILES IDX 69 120 70 121 73 122 71 123 50 124 51 125 59 126 52 127
REMARK SMILES IDX 53 128 57 129 60 130 54 131 55 132 58 133 56 134
REMARK H PARENT 17 2 17 3 16 5 16 6 15 8 15 9 14 13 91 22 88 24 90 25 89 26
REMARK H PARENT 2 28 2 29 1 31 1 32 1 33 6 38 10 40 7 42 9 43 8 44 18 46 18 47
REMARK H PARENT 19 49 19 50 20 52 20 53 21 56 25 62 86 64 26 66 85 67 84 77
REMARK H PARENT 78 79 80 81 83 83 77 84 45 93 48 95 81 98 46 99 82 101
REMARK Flexibility Score: inf
ROOT
ATOM      1  C   UNL A   1      33.911  30.622  27.553  1.00  0.00    -0.052 C 
ATOM      2  H   UNL A   1      34.372  31.469  27.088  1.00  0.00     0.027 H 
ATOM      3  H   UNL A   1      33.953  30.609  28.622  1.00  0.00     0.027 H 
ENDROOT
BRANCH   1   4
ATOM      4  C   UNL A   1      34.689  29.377  27.115  1.00  0.00    -0.036 C 
ATOM      5  H   UNL A   1      35.581  29.710  26.626  1.00  0.00     0.028 H 
ATOM      6  H   UNL A   1      34.846  28.819  28.015  1.00  0.00     0.028 H 
BRANCH   4   7
ATOM      7  C   UNL A   1      33.981  28.410  26.170  1.00  0.00     0.018 C 
ATOM      8  H   UNL A   1      34.199  27.414  26.495  1.00  0.00     0.049 H 
ATOM      9  H   UNL A   1      32.942  28.661  26.217  1.00  0.00     0.049 H 
BRANCH   7  10
ATOM     10  N   UNL A   1      34.354  28.517  24.780  1.00  0.00    -0.352 N 
ATOM     11  C   UNL A   1      33.725  28.064  23.639  1.00  0.00     0.254 C 
ATOM     12  O   UNL A   1      34.249  28.391  22.574  1.00  0.00    -0.269 OA
ATOM     13  H   UNL A   1      35.201  28.994  24.619  1.00  0.00     0.163 HD
BRANCH  11  14
ATOM     14  C   UNL A   1      32.556  27.172  23.684  1.00  0.00     0.073 A 
ATOM     15  C   UNL A   1      31.301  25.257  24.052  1.00  0.00     0.086 A 
ATOM     16  C   UNL A   1      32.602  25.762  23.971  1.00  0.00     0.022 A 
ATOM     17  N   UNL A   1      30.455  26.327  23.804  1.00  0.00    -0.314 N 
ATOM     18  C   UNL A   1      31.224  27.413  23.364  1.00  0.00     0.059 A 
ATOM     19  C   UNL A   1      29.060  26.424  23.922  1.00  0.00     0.009 A 
ATOM     20  C   UNL A   1      30.514  28.498  22.760  1.00  0.00    -0.037 A 
ATOM     21  C   UNL A   1      28.414  27.522  23.501  1.00  0.00    -0.045 A 
ATOM     22  H   UNL A   1      28.526  25.644  24.337  1.00  0.00     0.082 H 
ATOM     23  C   UNL A   1      29.174  28.569  22.852  1.00  0.00    -0.059 A 
ATOM     24  H   UNL A   1      31.031  29.230  22.250  1.00  0.00     0.065 H 
ATOM     25  H   UNL A   1      27.396  27.619  23.637  1.00  0.00     0.064 H 
ATOM     26  H   UNL A   1      28.680  29.383  22.454  1.00  0.00     0.062 H 
BRANCH  15  27
ATOM     27  C   UNL A   1      30.902  23.849  24.404  1.00  0.00     0.116 C 
ATOM     28  H   UNL A   1      30.075  23.580  23.780  1.00  0.00     0.099 H 
ATOM     29  H   UNL A   1      31.781  23.258  24.254  1.00  0.00     0.099 H 
BRANCH  27  30
ATOM     30  N   UNL A   1      30.509  23.617  25.784  1.00  0.00    -0.353 N 
ATOM     31  H   UNL A   1      30.373  22.618  25.934  1.00  0.00     0.344 HD
ATOM     32  H   UNL A   1      29.639  24.113  25.977  1.00  0.00     0.344 HD
ATOM     33  H   UNL A   1      31.240  23.959  26.407  1.00  0.00     0.344 HD
ENDBRANCH  27  30
ENDBRANCH  15  27
BRANCH  16  34
ATOM     34  C   UNL A   1      33.772  24.914  24.166  1.00  0.00    -0.016 A 
ATOM     35  C   UNL A   1      34.289  24.147  23.120  1.00  0.00    -0.054 A 
ATOM     36  C   UNL A   1      34.388  24.869  25.425  1.00  0.00    -0.054 A 
ATOM     37  C   UNL A   1      35.417  23.350  23.331  1.00  0.00    -0.062 A 
ATOM     38  H   UNL A   1      33.839  24.169  22.192  1.00  0.00     0.063 H 
ATOM     39  C   UNL A   1      35.519  24.080  25.631  1.00  0.00    -0.062 A 
ATOM     40  H   UNL A   1      34.000  25.425  26.205  1.00  0.00     0.063 H 
ATOM     41  C   UNL A   1      36.033  23.321  24.584  1.00  0.00    -0.062 A 
ATOM     42  H   UNL A   1      35.798  22.781  22.558  1.00  0.00     0.062 H 
ATOM     43  H   UNL A   1      35.974  24.059  26.558  1.00  0.00     0.062 H 
ATOM     44  H   UNL A   1      36.870  22.735  24.733  1.00  0.00     0.062 H 
ENDBRANCH  16  34
ENDBRANCH  11  14
ENDBRANCH   7  10
ENDBRANCH   4   7
ENDBRANCH   1   4
BRANCH   1  45
ATOM     45  C   UNL A   1      32.417  30.673  27.220  1.00  0.00    -0.052 C 
ATOM     46  H   UNL A   1      31.899  30.117  27.973  1.00  0.00     0.027 H 
ATOM     47  H   UNL A   1      32.340  30.273  26.230  1.00  0.00     0.027 H 
BRANCH  45  48
ATOM     48  C   UNL A   1      31.770  32.057  27.139  1.00  0.00    -0.036 C 
ATOM     49  H   UNL A   1      31.302  32.253  28.081  1.00  0.00     0.028 H 
ATOM     50  H   UNL A   1      31.093  32.008  26.312  1.00  0.00     0.028 H 
BRANCH  48  51
ATOM     51  C   UNL A   1      32.705  33.221  26.834  1.00  0.00     0.018 C 
ATOM     52  H   UNL A   1      32.606  33.474  25.799  1.00  0.00     0.049 H 
ATOM     53  H   UNL A   1      33.698  32.904  27.076  1.00  0.00     0.049 H 
BRANCH  51  54
ATOM     54  N   UNL A   1      32.424  34.402  27.628  1.00  0.00    -0.352 N 
ATOM     55  C   UNL A   1      33.005  34.841  28.790  1.00  0.00     0.251 C 
ATOM     56  H   UNL A   1      31.705  34.977  27.278  1.00  0.00     0.163 HD
ATOM     57  O   UNL A   1      32.531  35.804  29.384  1.00  0.00    -0.269 OA
BRANCH  55  58
ATOM     58  C   UNL A   1      34.191  34.151  29.350  1.00  0.00     0.039 A 
ATOM     59  C   UNL A   1      33.988  33.124  30.278  1.00  0.00    -0.049 A 
ATOM     60  C   UNL A   1      35.491  34.531  29.008  1.00  0.00    -0.049 A 
ATOM     61  C   UNL A   1      35.084  32.459  30.832  1.00  0.00    -0.053 A 
ATOM     62  H   UNL A   1      33.030  32.858  30.552  1.00  0.00     0.063 H 
ATOM     63  C   UNL A   1      36.580  33.814  29.498  1.00  0.00    -0.053 A 
ATOM     64  H   UNL A   1      35.645  35.344  28.391  1.00  0.00     0.063 H 
ATOM     65  C   UNL A   1      36.391  32.785  30.433  1.00  0.00    -0.014 A 
ATOM     66  H   UNL A   1      34.933  31.724  31.541  1.00  0.00     0.063 H 
ATOM     67  H   UNL A   1      37.533  34.040  29.172  1.00  0.00     0.063 H 
BRANCH  65  68
ATOM     68  C   UNL A   1      37.563  32.085  31.019  1.00  0.00     0.031 A 
ATOM     69  C   UNL A   1      38.048  32.446  32.398  1.00  0.00     0.074 A 
ATOM     70  C   UNL A   1      38.213  31.148  30.301  1.00  0.00     0.049 A 
ATOM     71  N   UNL A   1      39.064  31.969  33.073  1.00  0.00    -0.248 NA
ATOM     72  C   UNL A   1      37.308  33.505  33.102  1.00  0.00    -0.034 C 
ATOM     73  C   UNL A   1      37.872  30.742  28.937  1.00  0.00    -0.036 A 
ATOM     74  N   UNL A   1      39.297  30.370  30.618  1.00  0.00    -0.354 N 
ATOM     75  C   UNL A   1      39.089  32.675  34.269  1.00  0.00     0.074 A 
ATOM     76  C   UNL A   1      38.030  33.657  34.202  1.00  0.00    -0.034 C 
ATOM     77  H   UNL A   1      36.449  34.001  32.815  1.00  0.00     0.065 H 
ATOM     78  C   UNL A   1      38.710  29.769  28.546  1.00  0.00    -0.036 A 
ATOM     79  H   UNL A   1      37.109  31.140  28.367  1.00  0.00     0.065 H 
ATOM     80  C   UNL A   1      39.668  29.507  29.615  1.00  0.00     0.049 A 
ATOM     81  H   UNL A   1      39.766  30.424  31.482  1.00  0.00     0.167 HD
ATOM     82  C   UNL A   1      39.902  32.501  35.339  1.00  0.00     0.037 A 
ATOM     83  H   UNL A   1      37.859  34.381  34.917  1.00  0.00     0.065 H 
ATOM     84  H   UNL A   1      38.682  29.284  27.636  1.00  0.00     0.065 H 
ATOM     85  C   UNL A   1      40.668  28.606  29.567  1.00  0.00     0.037 A 
ATOM     86  C   UNL A   1      40.942  31.508  35.411  1.00  0.00     0.049 A 
ATOM     87  C   UNL A   1      41.558  28.433  30.769  1.00  0.00     0.074 A 
ATOM     88  C   UNL A   1      41.789  31.217  36.467  1.00  0.00    -0.036 A 
ATOM     89  N   UNL A   1      41.277  30.640  34.381  1.00  0.00    -0.354 N 
ATOM     90  N   UNL A   1      41.529  29.061  31.920  1.00  0.00    -0.248 NA
ATOM     91  C   UNL A   1      42.612  27.415  30.668  1.00  0.00    -0.034 C 
ATOM     92  C   UNL A   1      42.670  30.211  36.058  1.00  0.00    -0.036 A 
ATOM     93  H   UNL A   1      41.772  31.666  37.396  1.00  0.00     0.065 H 
ATOM     94  C   UNL A   1      42.332  29.829  34.769  1.00  0.00     0.049 A 
ATOM     95  H   UNL A   1      40.832  30.607  33.503  1.00  0.00     0.167 HD
ATOM     96  C   UNL A   1      42.534  28.491  32.691  1.00  0.00     0.074 A 
ATOM     97  C   UNL A   1      43.139  27.453  31.882  1.00  0.00    -0.034 C 
ATOM     98  H   UNL A   1      42.871  26.824  29.863  1.00  0.00     0.065 H 
ATOM     99  H   UNL A   1      43.442  29.820  36.620  1.00  0.00     0.065 H 
ATOM    100  C   UNL A   1      42.921  28.796  33.954  1.00  0.00     0.037 A 
ATOM    101  H   UNL A   1      43.889  26.823  32.209  1.00  0.00     0.065 H 
BRANCH  82 102
ATOM    102  C   UNL A   1      39.697  33.408  36.520  1.00  0.00     0.064 A 
ATOM    103  C   UNL A   1      40.361  34.641  36.630  1.00  0.00     0.173 A 
ATOM    104  C   UNL A   1      38.807  33.053  37.545  1.00  0.00     0.173 A 
ATOM    105  F   UNL A   1      41.232  35.024  35.685  1.00  0.00    -0.203 F 
ATOM    106  C   UNL A   1      40.169  35.465  37.735  1.00  0.00     0.198 A 
ATOM    107  C   UNL A   1      38.590  33.897  38.632  1.00  0.00     0.198 A 
ATOM    108  F   UNL A   1      38.141  31.890  37.491  1.00  0.00    -0.203 F 
ATOM    109  F   UNL A   1      40.858  36.608  37.844  1.00  0.00    -0.200 F 
ATOM    110  C   UNL A   1      39.277  35.096  38.732  1.00  0.00     0.200 A 
ATOM    111  F   UNL A   1      37.718  33.545  39.587  1.00  0.00    -0.200 F 
ATOM    112  F   UNL A   1      39.089  35.894  39.793  1.00  0.00    -0.200 F 
ENDBRANCH  82 102
BRANCH  85 113
ATOM    113  C   UNL A   1      40.863  27.775  28.349  1.00  0.00     0.064 A 
ATOM    114  C   UNL A   1      40.231  26.530  28.217  1.00  0.00     0.173 A 
ATOM    115  C   UNL A   1      41.697  28.195  27.304  1.00  0.00     0.173 A 
ATOM    116  F   UNL A   1      39.439  26.074  29.200  1.00  0.00    -0.203 F 
ATOM    117  C   UNL A   1      40.448  25.725  27.100  1.00  0.00     0.198 A 
ATOM    118  C   UNL A   1      41.887  27.405  26.172  1.00  0.00     0.198 A 
ATOM    119  F   UNL A   1      42.322  29.380  27.376  1.00  0.00    -0.203 F 
ATOM    120  F   UNL A   1      39.875  24.516  27.027  1.00  0.00    -0.200 F 
ATOM    121  C   UNL A   1      41.272  26.166  26.075  1.00  0.00     0.200 A 
ATOM    122  F   UNL A   1      42.671  27.841  25.176  1.00  0.00    -0.200 F 
ATOM    123  F   UNL A   1      41.479  25.393  25.001  1.00  0.00    -0.200 F 
ENDBRANCH  85 113
BRANCH 100 124
ATOM    124  C   UNL A   1      44.023  27.967  34.554  1.00  0.00     0.064 A 
ATOM    125  C   UNL A   1      43.762  26.767  35.232  1.00  0.00     0.173 A 
ATOM    126  C   UNL A   1      45.360  28.377  34.438  1.00  0.00     0.173 A 
ATOM    127  F   UNL A   1      42.502  26.335  35.381  1.00  0.00    -0.203 F 
ATOM    128  C   UNL A   1      44.795  26.031  35.808  1.00  0.00     0.198 A 
ATOM    129  C   UNL A   1      46.393  27.620  34.984  1.00  0.00     0.198 A 
ATOM    130  F   UNL A   1      45.667  29.512  33.791  1.00  0.00    -0.203 F 
ATOM    131  F   UNL A   1      44.515  24.924  36.511  1.00  0.00    -0.200 F 
ATOM    132  C   UNL A   1      46.109  26.455  35.681  1.00  0.00     0.200 A 
ATOM    133  F   UNL A   1      47.663  28.023  34.843  1.00  0.00    -0.200 F 
ATOM    134  F   UNL A   1      47.101  25.747  36.237  1.00  0.00    -0.200 F 
ENDBRANCH 100 124
ENDBRANCH  65  68
ENDBRANCH  55  58
ENDBRANCH  51  54
ENDBRANCH  48  51
ENDBRANCH  45  48
ENDBRANCH   1  45
TORSDOF 16
ENDMDL
MODEL 3
REMARK VINA RESULT:     -11.8      1.420      3.066
REMARK SMILES [NH3+]Cc1c(-c2ccccc2)c(C(=O)NCCCCCCNC(=O)c2ccc(-c3c4nc(c(-c5c(F)c(F)c(F)c(F)c5F)c5ccc([nH]5)c(-c5c(F)c(F)c(F)c(F)c5F)c5nc(c(-c6c(F)c(F)c(F)c(F)c6F)c6ccc3[nH]6)C=C5)C=C4)cc2)c2ccccn12
REMARK SMILES IDX 17 1 16 4 15 7 14 10 12 11 13 12 11 14 3 15 4 16 92 17 87 18
REMARK SMILES IDX 91 19 88 20 90 21 89 23 2 27 1 30 5 34 6 35 10 36 7 37 9 39
REMARK SMILES IDX 8 41 18 45 19 48 20 51 21 54 22 55 23 57 24 58 25 59 86 60
REMARK SMILES IDX 26 61 85 63 27 65 28 68 29 69 79 70 30 71 84 72 78 73 80 74
REMARK SMILES IDX 31 75 83 76 77 78 76 80 32 82 64 85 44 86 63 87 45 88 48 89
REMARK SMILES IDX 62 90 81 91 46 92 47 94 61 96 82 97 49 100 33 102 34 103
REMARK SMILES IDX 42 104 35 105 36 106 40 107 43 108 37 109 38 110 41 111
REMARK SMILES IDX 39 112 65 113 66 114 74 115 67 116 68 117 72 118 75 119
REMARK SMILES IDX 69 120 70 121 73 122 71 123 50 124 51 125 59 126 52 127
REMARK SMILES IDX 53 128 57 129 60 130 54 131 55 132 58 133 56 134
REMARK H PARENT 17 2 17 3 16 5 16 6 15 8 15 9 14 13 91 22 88 24 90 25 89 26
REMARK H PARENT 2 28 2 29 1 31 1 32 1 33 6 38 10 40 7 42 9 43 8 44 18 46 18 47
REMARK H PARENT 19 49 19 50 20 52 20 53 21 56 25 62 86 64 26 66 85 67 84 77
REMARK H PARENT 78 79 80 81 83 83 77 84 45 93 48 95 81 98 46 99 82 101
REMARK Flexibility Score: inf
ROOT
ATOM      1  C   UNL A   1      32.343  29.982  26.236  1.00  0.00    -0.052 C 
ATOM      2  H   UNL A   1      32.659  29.498  25.335  1.00  0.00     0.027 H 
ATOM      3  H   UNL A   1      33.078  30.605  26.701  1.00  0.00     0.027 H 
ENDROOT
BRANCH   1   4
ATOM      4  C   UNL A   1      32.049  28.887  27.266  1.00  0.00    -0.036 C 
ATOM      5  H   UNL A   1      32.777  28.975  28.046  1.00  0.00     0.028 H 
ATOM      6  H   UNL A   1      31.037  29.059  27.569  1.00  0.00     0.028 H 
BRANCH   4   7
ATOM      7  C   UNL A   1      32.074  27.443  26.775  1.00  0.00     0.018 C 
ATOM      8  H   UNL A   1      32.310  27.455  25.731  1.00  0.00     0.049 H 
ATOM      9  H   UNL A   1      32.803  26.940  27.376  1.00  0.00     0.049 H 
BRANCH   7  10
ATOM     10  N   UNL A   1      30.843  26.709  26.944  1.00  0.00    -0.352 N 
ATOM     11  C   UNL A   1      30.295  25.682  26.204  1.00  0.00     0.254 C 
ATOM     12  O   UNL A   1      29.260  25.191  26.655  1.00  0.00    -0.269 OA
ATOM     13  H   UNL A   1      30.303  26.989  27.719  1.00  0.00     0.163 HD
BRANCH  11  14
ATOM     14  C   UNL A   1      30.853  25.257  24.910  1.00  0.00     0.073 A 
ATOM     15  C   UNL A   1      31.495  25.361  22.685  1.00  0.00     0.086 A 
ATOM     16  C   UNL A   1      30.747  25.997  23.680  1.00  0.00     0.022 A 
ATOM     17  N   UNL A   1      32.046  24.234  23.276  1.00  0.00    -0.314 N 
ATOM     18  C   UNL A   1      31.469  24.066  24.543  1.00  0.00     0.059 A 
ATOM     19  C   UNL A   1      33.005  23.334  22.788  1.00  0.00     0.009 A 
ATOM     20  C   UNL A   1      31.669  22.797  25.173  1.00  0.00    -0.037 A 
ATOM     21  C   UNL A   1      33.308  22.221  23.473  1.00  0.00    -0.045 A 
ATOM     22  H   UNL A   1      33.484  23.530  21.895  1.00  0.00     0.082 H 
ATOM     23  C   UNL A   1      32.570  21.928  24.683  1.00  0.00    -0.059 A 
ATOM     24  H   UNL A   1      31.118  22.548  26.008  1.00  0.00     0.065 H 
ATOM     25  H   UNL A   1      34.052  21.586  23.145  1.00  0.00     0.064 H 
ATOM     26  H   UNL A   1      32.737  21.038  25.177  1.00  0.00     0.062 H 
BRANCH  15  27
ATOM     27  C   UNL A   1      31.711  25.842  21.275  1.00  0.00     0.116 C 
ATOM     28  H   UNL A   1      31.690  24.987  20.633  1.00  0.00     0.099 H 
ATOM     29  H   UNL A   1      30.930  26.551  21.094  1.00  0.00     0.099 H 
BRANCH  27  30
ATOM     30  N   UNL A   1      32.951  26.556  21.021  1.00  0.00    -0.353 N 
ATOM     31  H   UNL A   1      32.869  27.511  21.368  1.00  0.00     0.344 HD
ATOM     32  H   UNL A   1      33.134  26.572  20.018  1.00  0.00     0.344 HD
ATOM     33  H   UNL A   1      33.718  26.085  21.500  1.00  0.00     0.344 HD
ENDBRANCH  27  30
ENDBRANCH  15  27
BRANCH  16  34
ATOM     34  C   UNL A   1      30.006  27.226  23.422  1.00  0.00    -0.016 A 
ATOM     35  C   UNL A   1      30.670  28.424  23.151  1.00  0.00    -0.054 A 
ATOM     36  C   UNL A   1      28.604  27.203  23.446  1.00  0.00    -0.054 A 
ATOM     37  C   UNL A   1      29.936  29.586  22.898  1.00  0.00    -0.062 A 
ATOM     38  H   UNL A   1      31.701  28.452  23.138  1.00  0.00     0.063 H 
ATOM     39  C   UNL A   1      27.874  28.361  23.184  1.00  0.00    -0.062 A 
ATOM     40  H   UNL A   1      28.110  26.321  23.660  1.00  0.00     0.063 H 
ATOM     41  C   UNL A   1      28.540  29.553  22.911  1.00  0.00    -0.062 A 
ATOM     42  H   UNL A   1      30.427  30.472  22.701  1.00  0.00     0.062 H 
ATOM     43  H   UNL A   1      26.842  28.336  23.193  1.00  0.00     0.062 H 
ATOM     44  H   UNL A   1      28.002  30.413  22.716  1.00  0.00     0.062 H 
ENDBRANCH  16  34
ENDBRANCH  11  14
ENDBRANCH   7  10
ENDBRANCH   4   7
ENDBRANCH   1   4
BRANCH   1  45
ATOM     45  C   UNL A   1      31.199  30.931  25.870  1.00  0.00    -0.052 C 
ATOM     46  H   UNL A   1      30.283  30.455  26.149  1.00  0.00     0.027 H 
ATOM     47  H   UNL A   1      31.313  31.113  24.822  1.00  0.00     0.027 H 
BRANCH  45  48
ATOM     48  C   UNL A   1      31.214  32.319  26.516  1.00  0.00    -0.036 C 
ATOM     49  H   UNL A   1      30.458  32.334  27.272  1.00  0.00     0.028 H 
ATOM     50  H   UNL A   1      31.050  33.009  25.715  1.00  0.00     0.028 H 
BRANCH  48  51
ATOM     51  C   UNL A   1      32.526  32.747  27.161  1.00  0.00     0.018 C 
ATOM     52  H   UNL A   1      33.308  32.650  26.438  1.00  0.00     0.049 H 
ATOM     53  H   UNL A   1      32.685  32.115  28.010  1.00  0.00     0.049 H 
BRANCH  51  54
ATOM     54  N   UNL A   1      32.507  34.117  27.639  1.00  0.00    -0.352 N 
ATOM     55  C   UNL A   1      33.278  34.727  28.595  1.00  0.00     0.251 C 
ATOM     56  H   UNL A   1      31.837  34.697  27.212  1.00  0.00     0.163 HD
ATOM     57  O   UNL A   1      33.015  35.870  28.954  1.00  0.00    -0.269 OA
BRANCH  55  58
ATOM     58  C   UNL A   1      34.417  34.011  29.217  1.00  0.00     0.039 A 
ATOM     59  C   UNL A   1      35.716  34.389  28.860  1.00  0.00    -0.049 A 
ATOM     60  C   UNL A   1      34.222  32.952  30.107  1.00  0.00    -0.049 A 
ATOM     61  C   UNL A   1      36.813  33.729  29.420  1.00  0.00    -0.053 A 
ATOM     62  H   UNL A   1      35.864  35.154  28.184  1.00  0.00     0.063 H 
ATOM     63  C   UNL A   1      35.315  32.349  30.726  1.00  0.00    -0.053 A 
ATOM     64  H   UNL A   1      33.267  32.615  30.304  1.00  0.00     0.063 H 
ATOM     65  C   UNL A   1      36.623  32.715  30.373  1.00  0.00    -0.014 A 
ATOM     66  H   UNL A   1      37.769  33.987  29.130  1.00  0.00     0.063 H 
ATOM     67  H   UNL A   1      35.162  31.630  31.449  1.00  0.00     0.063 H 
BRANCH  65  68
ATOM     68  C   UNL A   1      37.782  32.006  30.973  1.00  0.00     0.031 A 
ATOM     69  C   UNL A   1      38.235  32.342  32.368  1.00  0.00     0.074 A 
ATOM     70  C   UNL A   1      38.449  31.082  30.253  1.00  0.00     0.049 A 
ATOM     71  N   UNL A   1      39.236  31.854  33.057  1.00  0.00    -0.248 NA
ATOM     72  C   UNL A   1      37.479  33.389  33.074  1.00  0.00    -0.034 C 
ATOM     73  C   UNL A   1      38.138  30.699  28.875  1.00  0.00    -0.036 A 
ATOM     74  N   UNL A   1      39.526  30.298  30.581  1.00  0.00    -0.354 N 
ATOM     75  C   UNL A   1      39.234  32.539  34.266  1.00  0.00     0.074 A 
ATOM     76  C   UNL A   1      38.177  33.522  34.192  1.00  0.00    -0.034 C 
ATOM     77  H   UNL A   1      36.627  33.889  32.776  1.00  0.00     0.065 H 
ATOM     78  C   UNL A   1      38.986  29.733  28.486  1.00  0.00    -0.036 A 
ATOM     79  H   UNL A   1      37.389  31.107  28.295  1.00  0.00     0.065 H 
ATOM     80  C   UNL A   1      39.920  29.453  29.572  1.00  0.00     0.049 A 
ATOM     81  H   UNL A   1      39.975  30.337  31.456  1.00  0.00     0.167 HD
ATOM     82  C   UNL A   1      40.023  32.347  35.351  1.00  0.00     0.037 A 
ATOM     83  H   UNL A   1      37.989  34.233  34.916  1.00  0.00     0.065 H 
ATOM     84  H   UNL A   1      38.978  29.264  27.567  1.00  0.00     0.065 H 
ATOM     85  C   UNL A   1      40.921  28.553  29.531  1.00  0.00     0.037 A 
ATOM     86  C   UNL A   1      41.062  31.352  35.429  1.00  0.00     0.049 A 
ATOM     87  C   UNL A   1      41.784  28.360  30.749  1.00  0.00     0.074 A 
ATOM     88  C   UNL A   1      41.885  31.044  36.498  1.00  0.00    -0.036 A 
ATOM     89  N   UNL A   1      41.421  30.503  34.391  1.00  0.00    -0.354 N 
ATOM     90  N   UNL A   1      41.729  28.967  31.910  1.00  0.00    -0.248 NA
ATOM     91  C   UNL A   1      42.840  27.343  30.654  1.00  0.00    -0.034 C 
ATOM     92  C   UNL A   1      42.776  30.045  36.092  1.00  0.00    -0.036 A 
ATOM     93  H   UNL A   1      41.847  31.476  37.435  1.00  0.00     0.065 H 
ATOM     94  C   UNL A   1      42.467  29.685  34.789  1.00  0.00     0.049 A 
ATOM     95  H   UNL A   1      40.995  30.485  33.504  1.00  0.00     0.167 HD
ATOM     96  C   UNL A   1      42.717  28.383  32.693  1.00  0.00     0.074 A 
ATOM     97  C   UNL A   1      43.340  27.361  31.880  1.00  0.00    -0.034 C 
ATOM     98  H   UNL A   1      43.118  26.766  29.844  1.00  0.00     0.065 H 
ATOM     99  H   UNL A   1      43.535  29.644  36.664  1.00  0.00     0.065 H 
ATOM    100  C   UNL A   1      43.075  28.667  33.970  1.00  0.00     0.037 A 
ATOM    101  H   UNL A   1      44.083  26.725  32.213  1.00  0.00     0.065 H 
BRANCH  82 102
ATOM    102  C   UNL A   1      39.791  33.232  36.543  1.00  0.00     0.064 A 
ATOM    103  C   UNL A   1      40.493  34.437  36.717  1.00  0.00     0.173 A 
ATOM    104  C   UNL A   1      38.837  32.888  37.512  1.00  0.00     0.173 A 
ATOM    105  F   UNL A   1      41.425  34.810  35.826  1.00  0.00    -0.203 F 
ATOM    106  C   UNL A   1      40.274  35.242  37.832  1.00  0.00     0.198 A 
ATOM    107  C   UNL A   1      38.596  33.713  38.608  1.00  0.00     0.198 A 
ATOM    108  F   UNL A   1      38.133  31.752  37.396  1.00  0.00    -0.203 F 
ATOM    109  F   UNL A   1      40.999  36.355  38.003  1.00  0.00    -0.200 F 
ATOM    110  C   UNL A   1      39.321  34.883  38.773  1.00  0.00     0.200 A 
ATOM    111  F   UNL A   1      37.664  33.373  39.509  1.00  0.00    -0.200 F 
ATOM    112  F   UNL A   1      39.107  35.663  39.842  1.00  0.00    -0.200 F 
ENDBRANCH  82 102
BRANCH  85 113
ATOM    113  C   UNL A   1      41.144  27.743  28.303  1.00  0.00     0.064 A 
ATOM    114  C   UNL A   1      40.509  26.505  28.131  1.00  0.00     0.173 A 
ATOM    115  C   UNL A   1      42.008  28.177  27.288  1.00  0.00     0.173 A 
ATOM    116  F   UNL A   1      39.689  26.035  29.084  1.00  0.00    -0.203 F 
ATOM    117  C   UNL A   1      40.751  25.719  27.006  1.00  0.00     0.198 A 
ATOM    118  C   UNL A   1      42.223  27.407  26.147  1.00  0.00     0.198 A 
ATOM    119  F   UNL A   1      42.636  29.357  27.399  1.00  0.00    -0.203 F 
ATOM    120  F   UNL A   1      40.173  24.516  26.895  1.00  0.00    -0.200 F 
ATOM    121  C   UNL A   1      41.604  26.174  26.012  1.00  0.00     0.200 A 
ATOM    122  F   UNL A   1      43.036  27.857  25.181  1.00  0.00    -0.200 F 
ATOM    123  F   UNL A   1      41.835  25.420  24.929  1.00  0.00    -0.200 F 
ENDBRANCH  85 113
BRANCH 100 124
ATOM    124  C   UNL A   1      44.163  27.828  34.580  1.00  0.00     0.064 A 
ATOM    125  C   UNL A   1      45.511  28.212  34.531  1.00  0.00     0.173 A 
ATOM    126  C   UNL A   1      43.847  26.625  35.230  1.00  0.00     0.173 A 
ATOM    127  F   UNL A   1      45.870  29.346  33.912  1.00  0.00    -0.203 F 
ATOM    128  C   UNL A   1      46.506  27.401  35.073  1.00  0.00     0.198 A 
ATOM    129  C   UNL A   1      44.841  25.836  35.803  1.00  0.00     0.198 A 
ATOM    130  F   UNL A   1      42.573  26.215  35.315  1.00  0.00    -0.203 F 
ATOM    131  F   UNL A   1      47.794  27.755  34.954  1.00  0.00    -0.200 F 
ATOM    132  C   UNL A   1      46.171  26.218  35.712  1.00  0.00     0.200 A 
ATOM    133  F   UNL A   1      44.512  24.702  36.436  1.00  0.00    -0.200 F 
ATOM    134  F   UNL A   1      47.130  25.439  36.232  1.00  0.00    -0.200 F 
ENDBRANCH 100 124
ENDBRANCH  65  68
ENDBRANCH  55  58
ENDBRANCH  51  54
ENDBRANCH  48  51
ENDBRANCH  45  48
ENDBRANCH   1  45
TORSDOF 16
ENDMDL
MODEL 4
REMARK VINA RESULT:     -11.6      1.370      7.793
REMARK SMILES [NH3+]Cc1c(-c2ccccc2)c(C(=O)NCCCCCCNC(=O)c2ccc(-c3c4nc(c(-c5c(F)c(F)c(F)c(F)c5F)c5ccc([nH]5)c(-c5c(F)c(F)c(F)c(F)c5F)c5nc(c(-c6c(F)c(F)c(F)c(F)c6F)c6ccc3[nH]6)C=C5)C=C4)cc2)c2ccccn12
REMARK SMILES IDX 17 1 16 4 15 7 14 10 12 11 13 12 11 14 3 15 4 16 92 17 87 18
REMARK SMILES IDX 91 19 88 20 90 21 89 23 2 27 1 30 5 34 6 35 10 36 7 37 9 39
REMARK SMILES IDX 8 41 18 45 19 48 20 51 21 54 22 55 23 57 24 58 25 59 86 60
REMARK SMILES IDX 26 61 85 63 27 65 28 68 29 69 79 70 30 71 84 72 78 73 80 74
REMARK SMILES IDX 31 75 83 76 77 78 76 80 32 82 64 85 44 86 63 87 45 88 48 89
REMARK SMILES IDX 62 90 81 91 46 92 47 94 61 96 82 97 49 100 33 102 34 103
REMARK SMILES IDX 42 104 35 105 36 106 40 107 43 108 37 109 38 110 41 111
REMARK SMILES IDX 39 112 65 113 66 114 74 115 67 116 68 117 72 118 75 119
REMARK SMILES IDX 69 120 70 121 73 122 71 123 50 124 51 125 59 126 52 127
REMARK SMILES IDX 53 128 57 129 60 130 54 131 55 132 58 133 56 134
REMARK H PARENT 17 2 17 3 16 5 16 6 15 8 15 9 14 13 91 22 88 24 90 25 89 26
REMARK H PARENT 2 28 2 29 1 31 1 32 1 33 6 38 10 40 7 42 9 43 8 44 18 46 18 47
REMARK H PARENT 19 49 19 50 20 52 20 53 21 56 25 62 86 64 26 66 85 67 84 77
REMARK H PARENT 78 79 80 81 83 83 77 84 45 93 48 95 81 98 46 99 82 101
REMARK Flexibility Score: inf
ROOT
ATOM      1  C   UNL A   1      31.820  29.872  26.801  1.00  0.00    -0.052 C 
ATOM      2  H   UNL A   1      32.467  30.399  27.472  1.00  0.00     0.027 H 
ATOM      3  H   UNL A   1      30.990  29.378  27.261  1.00  0.00     0.027 H 
ENDROOT
BRANCH   1   4
ATOM      4  C   UNL A   1      32.640  28.747  26.161  1.00  0.00    -0.036 C 
ATOM      5  H   UNL A   1      32.252  28.585  25.177  1.00  0.00     0.028 H 
ATOM      6  H   UNL A   1      33.653  29.089  26.199  1.00  0.00     0.028 H 
BRANCH   4   7
ATOM      7  C   UNL A   1      32.651  27.400  26.877  1.00  0.00     0.018 C 
ATOM      8  H   UNL A   1      33.379  26.778  26.399  1.00  0.00     0.049 H 
ATOM      9  H   UNL A   1      32.873  27.613  27.902  1.00  0.00     0.049 H 
BRANCH   7  10
ATOM     10  N   UNL A   1      31.394  26.690  26.882  1.00  0.00    -0.352 N 
ATOM     11  C   UNL A   1      30.909  25.707  26.044  1.00  0.00     0.254 C 
ATOM     12  O   UNL A   1      29.821  25.224  26.360  1.00  0.00    -0.269 OA
ATOM     13  H   UNL A   1      30.778  26.952  27.605  1.00  0.00     0.163 HD
BRANCH  11  14
ATOM     14  C   UNL A   1      31.596  25.319  24.802  1.00  0.00     0.073 A 
ATOM     15  C   UNL A   1      32.413  25.468  22.638  1.00  0.00     0.086 A 
ATOM     16  C   UNL A   1      31.549  26.055  23.566  1.00  0.00     0.022 A 
ATOM     17  N   UNL A   1      32.978  24.373  23.274  1.00  0.00    -0.314 N 
ATOM     18  C   UNL A   1      32.310  24.167  24.489  1.00  0.00     0.059 A 
ATOM     19  C   UNL A   1      34.026  23.533  22.869  1.00  0.00     0.009 A 
ATOM     20  C   UNL A   1      32.531  22.911  25.136  1.00  0.00    -0.037 A 
ATOM     21  C   UNL A   1      34.336  22.437  23.579  1.00  0.00    -0.045 A 
ATOM     22  H   UNL A   1      34.565  23.759  22.018  1.00  0.00     0.082 H 
ATOM     23  C   UNL A   1      33.519  22.098  24.723  1.00  0.00    -0.059 A 
ATOM     24  H   UNL A   1      31.928  22.627  25.923  1.00  0.00     0.065 H 
ATOM     25  H   UNL A   1      35.141  21.848  23.315  1.00  0.00     0.064 H 
ATOM     26  H   UNL A   1      33.697  21.217  25.232  1.00  0.00     0.062 H 
BRANCH  15  27
ATOM     27  C   UNL A   1      32.716  25.965  21.250  1.00  0.00     0.116 C 
ATOM     28  H   UNL A   1      32.741  27.034  21.285  1.00  0.00     0.099 H 
ATOM     29  H   UNL A   1      33.646  25.509  20.981  1.00  0.00     0.099 H 
BRANCH  27  30
ATOM     30  N   UNL A   1      31.779  25.578  20.209  1.00  0.00    -0.353 N 
ATOM     31  H   UNL A   1      31.690  24.562  20.193  1.00  0.00     0.344 HD
ATOM     32  H   UNL A   1      32.120  25.905  19.305  1.00  0.00     0.344 HD
ATOM     33  H   UNL A   1      30.868  25.996  20.399  1.00  0.00     0.344 HD
ENDBRANCH  27  30
ENDBRANCH  15  27
BRANCH  16  34
ATOM     34  C   UNL A   1      30.761  27.239  23.245  1.00  0.00    -0.016 A 
ATOM     35  C   UNL A   1      29.377  27.255  23.432  1.00  0.00    -0.054 A 
ATOM     36  C   UNL A   1      31.404  28.379  22.742  1.00  0.00    -0.054 A 
ATOM     37  C   UNL A   1      28.645  28.406  23.125  1.00  0.00    -0.062 A 
ATOM     38  H   UNL A   1      28.895  26.419  23.797  1.00  0.00     0.063 H 
ATOM     39  C   UNL A   1      30.673  29.529  22.445  1.00  0.00    -0.062 A 
ATOM     40  H   UNL A   1      32.425  28.366  22.589  1.00  0.00     0.063 H 
ATOM     41  C   UNL A   1      29.294  29.542  22.637  1.00  0.00    -0.062 A 
ATOM     42  H   UNL A   1      27.622  28.417  23.261  1.00  0.00     0.062 H 
ATOM     43  H   UNL A   1      31.153  30.369  22.084  1.00  0.00     0.062 H 
ATOM     44  H   UNL A   1      28.750  30.392  22.418  1.00  0.00     0.062 H 
ENDBRANCH  16  34
ENDBRANCH  11  14
ENDBRANCH   7  10
ENDBRANCH   4   7
ENDBRANCH   1   4
BRANCH   1  45
ATOM     45  C   UNL A   1      31.191  30.906  25.863  1.00  0.00    -0.052 C 
ATOM     46  H   UNL A   1      30.186  30.596  25.669  1.00  0.00     0.027 H 
ATOM     47  H   UNL A   1      31.831  30.930  25.006  1.00  0.00     0.027 H 
BRANCH  45  48
ATOM     48  C   UNL A   1      31.140  32.354  26.359  1.00  0.00    -0.036 C 
ATOM     49  H   UNL A   1      30.270  32.457  26.972  1.00  0.00     0.028 H 
ATOM     50  H   UNL A   1      31.133  32.958  25.476  1.00  0.00     0.028 H 
BRANCH  48  51
ATOM     51  C   UNL A   1      32.339  32.830  27.170  1.00  0.00     0.018 C 
ATOM     52  H   UNL A   1      33.214  32.754  26.559  1.00  0.00     0.049 H 
ATOM     53  H   UNL A   1      32.402  32.210  28.040  1.00  0.00     0.049 H 
BRANCH  51  54
ATOM     54  N   UNL A   1      32.211  34.202  27.625  1.00  0.00    -0.352 N 
ATOM     55  C   UNL A   1      32.908  34.876  28.595  1.00  0.00     0.251 C 
ATOM     56  H   UNL A   1      31.518  34.729  27.167  1.00  0.00     0.163 HD
ATOM     57  O   UNL A   1      32.556  36.004  28.926  1.00  0.00    -0.269 OA
BRANCH  55  58
ATOM     58  C   UNL A   1      34.072  34.249  29.264  1.00  0.00     0.039 A 
ATOM     59  C   UNL A   1      33.836  33.381  30.336  1.00  0.00    -0.049 A 
ATOM     60  C   UNL A   1      35.384  34.538  28.880  1.00  0.00    -0.049 A 
ATOM     61  C   UNL A   1      34.911  32.780  30.995  1.00  0.00    -0.053 A 
ATOM     62  H   UNL A   1      32.870  33.185  30.638  1.00  0.00     0.063 H 
ATOM     63  C   UNL A   1      36.450  33.875  29.484  1.00  0.00    -0.053 A 
ATOM     64  H   UNL A   1      35.562  35.243  28.148  1.00  0.00     0.063 H 
ATOM     65  C   UNL A   1      36.228  33.007  30.563  1.00  0.00    -0.014 A 
ATOM     66  H   UNL A   1      34.736  32.166  31.806  1.00  0.00     0.063 H 
ATOM     67  H   UNL A   1      37.410  34.025  29.136  1.00  0.00     0.063 H 
BRANCH  65  68
ATOM     68  C   UNL A   1      37.378  32.374  31.259  1.00  0.00     0.031 A 
ATOM     69  C   UNL A   1      38.152  31.270  30.591  1.00  0.00     0.074 A 
ATOM     70  C   UNL A   1      37.708  32.769  32.505  1.00  0.00     0.049 A 
ATOM     71  N   UNL A   1      39.169  30.577  31.041  1.00  0.00    -0.248 NA
ATOM     72  C   UNL A   1      37.705  30.870  29.247  1.00  0.00    -0.034 C 
ATOM     73  C   UNL A   1      37.009  33.796  33.278  1.00  0.00    -0.036 A 
ATOM     74  N   UNL A   1      38.715  32.353  33.338  1.00  0.00    -0.354 N 
ATOM     75  C   UNL A   1      39.473  29.659  30.043  1.00  0.00     0.074 A 
ATOM     76  C   UNL A   1      38.494  29.836  28.994  1.00  0.00    -0.034 C 
ATOM     77  H   UNL A   1      36.970  31.286  28.655  1.00  0.00     0.065 H 
ATOM     78  C   UNL A   1      37.626  33.950  34.461  1.00  0.00    -0.036 A 
ATOM     79  H   UNL A   1      36.175  34.317  32.966  1.00  0.00     0.065 H 
ATOM     80  C   UNL A   1      38.740  33.012  34.543  1.00  0.00     0.049 A 
ATOM     81  H   UNL A   1      39.359  31.649  33.096  1.00  0.00     0.167 HD
ATOM     82  C   UNL A   1      40.492  28.768  29.993  1.00  0.00     0.037 A 
ATOM     83  H   UNL A   1      38.420  29.236  28.158  1.00  0.00     0.065 H 
ATOM     84  H   UNL A   1      37.356  34.624  35.194  1.00  0.00     0.065 H 
ATOM     85  C   UNL A   1      39.571  32.873  35.594  1.00  0.00     0.037 A 
ATOM     86  C   UNL A   1      41.479  28.609  31.031  1.00  0.00     0.049 A 
ATOM     87  C   UNL A   1      40.696  31.876  35.514  1.00  0.00     0.074 A 
ATOM     88  C   UNL A   1      42.579  27.771  31.056  1.00  0.00    -0.036 A 
ATOM     89  N   UNL A   1      41.481  29.307  32.231  1.00  0.00    -0.354 N 
ATOM     90  N   UNL A   1      41.014  31.060  34.537  1.00  0.00    -0.248 NA
ATOM     91  C   UNL A   1      41.587  31.792  36.678  1.00  0.00    -0.034 C 
ATOM     92  C   UNL A   1      43.217  27.922  32.292  1.00  0.00    -0.036 A 
ATOM     93  H   UNL A   1      42.878  27.142  30.294  1.00  0.00     0.065 H 
ATOM     94  C   UNL A   1      42.552  28.902  33.012  1.00  0.00     0.049 A 
ATOM     95  H   UNL A   1      40.819  29.988  32.489  1.00  0.00     0.167 HD
ATOM     96  C   UNL A   1      42.158  30.393  34.954  1.00  0.00     0.074 A 
ATOM     97  C   UNL A   1      42.489  30.915  36.263  1.00  0.00    -0.034 C 
ATOM     98  H   UNL A   1      41.527  32.287  37.582  1.00  0.00     0.065 H 
ATOM     99  H   UNL A   1      44.043  27.394  32.613  1.00  0.00     0.065 H 
ATOM    100  C   UNL A   1      42.872  29.435  34.312  1.00  0.00     0.037 A 
ATOM    101  H   UNL A   1      43.323  30.639  36.806  1.00  0.00     0.065 H 
BRANCH  82 102
ATOM    102  C   UNL A   1      40.593  27.897  28.773  1.00  0.00     0.064 A 
ATOM    103  C   UNL A   1      39.916  26.669  28.684  1.00  0.00     0.173 A 
ATOM    104  C   UNL A   1      41.354  28.303  27.667  1.00  0.00     0.173 A 
ATOM    105  F   UNL A   1      39.183  26.226  29.716  1.00  0.00    -0.203 F 
ATOM    106  C   UNL A   1      40.027  25.867  27.551  1.00  0.00     0.198 A 
ATOM    107  C   UNL A   1      41.434  27.515  26.520  1.00  0.00     0.198 A 
ATOM    108  F   UNL A   1      42.018  29.468  27.693  1.00  0.00    -0.203 F 
ATOM    109  F   UNL A   1      39.419  24.674  27.515  1.00  0.00    -0.200 F 
ATOM    110  C   UNL A   1      40.779  26.294  26.467  1.00  0.00     0.200 A 
ATOM    111  F   UNL A   1      42.150  27.936  25.469  1.00  0.00    -0.200 F 
ATOM    112  F   UNL A   1      40.880  25.525  25.374  1.00  0.00    -0.200 F 
ENDBRANCH  82 102
BRANCH  85 113
ATOM    113  C   UNL A   1      39.392  33.722  36.803  1.00  0.00     0.064 A 
ATOM    114  C   UNL A   1      39.947  35.008  36.870  1.00  0.00     0.173 A 
ATOM    115  C   UNL A   1      38.681  33.261  37.920  1.00  0.00     0.173 A 
ATOM    116  F   UNL A   1      40.654  35.487  35.835  1.00  0.00    -0.203 F 
ATOM    117  C   UNL A   1      39.822  35.789  38.017  1.00  0.00     0.198 A 
ATOM    118  C   UNL A   1      38.527  34.056  39.054  1.00  0.00     0.198 A 
ATOM    119  F   UNL A   1      38.124  32.041  37.906  1.00  0.00    -0.203 F 
ATOM    120  F   UNL A   1      40.410  36.991  38.074  1.00  0.00    -0.200 F 
ATOM    121  C   UNL A   1      39.108  35.314  39.107  1.00  0.00     0.200 A 
ATOM    122  F   UNL A   1      37.823  33.600  40.099  1.00  0.00    -0.200 F 
ATOM    123  F   UNL A   1      38.986  36.065  40.209  1.00  0.00    -0.200 F 
ENDBRANCH  85 113
BRANCH 100 124
ATOM    124  C   UNL A   1      44.108  28.924  34.999  1.00  0.00     0.064 A 
ATOM    125  C   UNL A   1      44.077  27.805  35.845  1.00  0.00     0.173 A 
ATOM    126  C   UNL A   1      45.342  29.561  34.800  1.00  0.00     0.173 A 
ATOM    127  F   UNL A   1      42.921  27.166  36.080  1.00  0.00    -0.203 F 
ATOM    128  C   UNL A   1      45.228  27.369  36.498  1.00  0.00     0.198 A 
ATOM    129  C   UNL A   1      46.497  29.100  35.425  1.00  0.00     0.198 A 
ATOM    130  F   UNL A   1      45.431  30.629  33.993  1.00  0.00    -0.203 F 
ATOM    131  F   UNL A   1      45.160  26.340  37.355  1.00  0.00    -0.200 F 
ATOM    132  C   UNL A   1      46.437  28.013  36.284  1.00  0.00     0.200 A 
ATOM    133  F   UNL A   1      47.668  29.713  35.203  1.00  0.00    -0.200 F 
ATOM    134  F   UNL A   1      47.542  27.593  36.915  1.00  0.00    -0.200 F 
ENDBRANCH 100 124
ENDBRANCH  65  68
ENDBRANCH  55  58
ENDBRANCH  51  54
ENDBRANCH  48  51
ENDBRANCH  45  48
ENDBRANCH   1  45
TORSDOF 16
ENDMDL
MODEL 5
REMARK VINA RESULT:     -11.6      1.282      3.164
REMARK SMILES [NH3+]Cc1c(-c2ccccc2)c(C(=O)NCCCCCCNC(=O)c2ccc(-c3c4nc(c(-c5c(F)c(F)c(F)c(F)c5F)c5ccc([nH]5)c(-c5c(F)c(F)c(F)c(F)c5F)c5nc(c(-c6c(F)c(F)c(F)c(F)c6F)c6ccc3[nH]6)C=C5)C=C4)cc2)c2ccccn12
REMARK SMILES IDX 17 1 16 4 15 7 14 10 12 11 13 12 11 14 3 15 4 16 92 17 87 18
REMARK SMILES IDX 91 19 88 20 90 21 89 23 2 27 1 30 5 34 6 35 10 36 7 37 9 39
REMARK SMILES IDX 8 41 18 45 19 48 20 51 21 54 22 55 23 57 24 58 25 59 86 60
REMARK SMILES IDX 26 61 85 63 27 65 28 68 29 69 79 70 30 71 84 72 78 73 80 74
REMARK SMILES IDX 31 75 83 76 77 78 76 80 32 82 64 85 44 86 63 87 45 88 48 89
REMARK SMILES IDX 62 90 81 91 46 92 47 94 61 96 82 97 49 100 33 102 34 103
REMARK SMILES IDX 42 104 35 105 36 106 40 107 43 108 37 109 38 110 41 111
REMARK SMILES IDX 39 112 65 113 66 114 74 115 67 116 68 117 72 118 75 119
REMARK SMILES IDX 69 120 70 121 73 122 71 123 50 124 51 125 59 126 52 127
REMARK SMILES IDX 53 128 57 129 60 130 54 131 55 132 58 133 56 134
REMARK H PARENT 17 2 17 3 16 5 16 6 15 8 15 9 14 13 91 22 88 24 90 25 89 26
REMARK H PARENT 2 28 2 29 1 31 1 32 1 33 6 38 10 40 7 42 9 43 8 44 18 46 18 47
REMARK H PARENT 19 49 19 50 20 52 20 53 21 56 25 62 86 64 26 66 85 67 84 77
REMARK H PARENT 78 79 80 81 83 83 77 84 45 93 48 95 81 98 46 99 82 101
REMARK Flexibility Score: inf
ROOT
ATOM      1  C   UNL A   1      32.405  30.037  26.126  1.00  0.00    -0.052 C 
ATOM      2  H   UNL A   1      32.646  29.503  25.230  1.00  0.00     0.027 H 
ATOM      3  H   UNL A   1      33.170  30.691  26.488  1.00  0.00     0.027 H 
ENDROOT
BRANCH   1   4
ATOM      4  C   UNL A   1      32.216  29.003  27.240  1.00  0.00    -0.036 C 
ATOM      5  H   UNL A   1      32.913  29.236  28.018  1.00  0.00     0.028 H 
ATOM      6  H   UNL A   1      31.185  29.080  27.517  1.00  0.00     0.028 H 
BRANCH   4   7
ATOM      7  C   UNL A   1      32.415  27.536  26.870  1.00  0.00     0.018 C 
ATOM      8  H   UNL A   1      32.789  27.497  25.867  1.00  0.00     0.049 H 
ATOM      9  H   UNL A   1      33.091  27.138  27.597  1.00  0.00     0.049 H 
BRANCH   7  10
ATOM     10  N   UNL A   1      31.231  26.714  26.935  1.00  0.00    -0.352 N 
ATOM     11  C   UNL A   1      30.816  25.663  26.143  1.00  0.00     0.254 C 
ATOM     12  O   UNL A   1      29.788  25.092  26.507  1.00  0.00    -0.269 OA
ATOM     13  H   UNL A   1      30.615  26.941  27.670  1.00  0.00     0.163 HD
BRANCH  11  14
ATOM     14  C   UNL A   1      31.500  25.300  24.892  1.00  0.00     0.073 A 
ATOM     15  C   UNL A   1      32.272  25.474  22.713  1.00  0.00     0.086 A 
ATOM     16  C   UNL A   1      31.397  26.026  23.653  1.00  0.00     0.022 A 
ATOM     17  N   UNL A   1      32.900  24.411  23.345  1.00  0.00    -0.314 N 
ATOM     18  C   UNL A   1      32.263  24.182  24.573  1.00  0.00     0.059 A 
ATOM     19  C   UNL A   1      33.980  23.620  22.927  1.00  0.00     0.009 A 
ATOM     20  C   UNL A   1      32.555  22.942  25.223  1.00  0.00    -0.037 A 
ATOM     21  C   UNL A   1      34.354  22.545  23.638  1.00  0.00    -0.045 A 
ATOM     22  H   UNL A   1      34.493  23.867  22.066  1.00  0.00     0.082 H 
ATOM     23  C   UNL A   1      33.574  22.174  24.798  1.00  0.00    -0.059 A 
ATOM     24  H   UNL A   1      31.980  22.634  26.022  1.00  0.00     0.065 H 
ATOM     25  H   UNL A   1      35.181  21.994  23.363  1.00  0.00     0.064 H 
ATOM     26  H   UNL A   1      33.802  21.307  25.308  1.00  0.00     0.062 H 
BRANCH  15  27
ATOM     27  C   UNL A   1      32.528  25.976  21.317  1.00  0.00     0.116 C 
ATOM     28  H   UNL A   1      31.799  26.730  21.103  1.00  0.00     0.099 H 
ATOM     29  H   UNL A   1      33.539  26.326  21.320  1.00  0.00     0.099 H 
BRANCH  27  30
ATOM     30  N   UNL A   1      32.464  24.986  20.255  1.00  0.00    -0.353 N 
ATOM     31  H   UNL A   1      32.868  24.110  20.584  1.00  0.00     0.344 HD
ATOM     32  H   UNL A   1      32.987  25.321  19.446  1.00  0.00     0.344 HD
ATOM     33  H   UNL A   1      31.491  24.834  19.991  1.00  0.00     0.344 HD
ENDBRANCH  27  30
ENDBRANCH  15  27
BRANCH  16  34
ATOM     34  C   UNL A   1      30.548  27.168  23.339  1.00  0.00    -0.016 A 
ATOM     35  C   UNL A   1      29.158  27.089  23.462  1.00  0.00    -0.054 A 
ATOM     36  C   UNL A   1      31.136  28.366  22.906  1.00  0.00    -0.054 A 
ATOM     37  C   UNL A   1      28.368  28.202  23.163  1.00  0.00    -0.062 A 
ATOM     38  H   UNL A   1      28.717  26.210  23.773  1.00  0.00     0.063 H 
ATOM     39  C   UNL A   1      30.345  29.477  22.618  1.00  0.00    -0.062 A 
ATOM     40  H   UNL A   1      32.161  28.424  22.801  1.00  0.00     0.063 H 
ATOM     41  C   UNL A   1      28.961  29.395  22.746  1.00  0.00    -0.062 A 
ATOM     42  H   UNL A   1      27.341  28.142  23.252  1.00  0.00     0.062 H 
ATOM     43  H   UNL A   1      30.784  30.359  22.310  1.00  0.00     0.062 H 
ATOM     44  H   UNL A   1      28.373  30.216  22.533  1.00  0.00     0.062 H 
ENDBRANCH  16  34
ENDBRANCH  11  14
ENDBRANCH   7  10
ENDBRANCH   4   7
ENDBRANCH   1   4
BRANCH   1  45
ATOM     45  C   UNL A   1      31.222  30.955  25.809  1.00  0.00    -0.052 C 
ATOM     46  H   UNL A   1      30.328  30.439  26.091  1.00  0.00     0.027 H 
ATOM     47  H   UNL A   1      31.309  31.170  24.764  1.00  0.00     0.027 H 
BRANCH  45  48
ATOM     48  C   UNL A   1      31.201  32.324  26.494  1.00  0.00    -0.036 C 
ATOM     49  H   UNL A   1      30.430  32.305  27.235  1.00  0.00     0.028 H 
ATOM     50  H   UNL A   1      31.042  33.033  25.709  1.00  0.00     0.028 H 
BRANCH  48  51
ATOM     51  C   UNL A   1      32.492  32.754  27.177  1.00  0.00     0.018 C 
ATOM     52  H   UNL A   1      33.301  32.628  26.488  1.00  0.00     0.049 H 
ATOM     53  H   UNL A   1      32.610  32.145  28.049  1.00  0.00     0.049 H 
BRANCH  51  54
ATOM     54  N   UNL A   1      32.472  34.137  27.617  1.00  0.00    -0.352 N 
ATOM     55  C   UNL A   1      33.264  34.782  28.532  1.00  0.00     0.251 C 
ATOM     56  H   UNL A   1      31.784  34.698  27.193  1.00  0.00     0.163 HD
ATOM     57  O   UNL A   1      32.999  35.932  28.866  1.00  0.00    -0.269 OA
BRANCH  55  58
ATOM     58  C   UNL A   1      34.429  34.096  29.141  1.00  0.00     0.039 A 
ATOM     59  C   UNL A   1      34.192  33.033  30.018  1.00  0.00    -0.049 A 
ATOM     60  C   UNL A   1      35.739  34.513  28.893  1.00  0.00    -0.049 A 
ATOM     61  C   UNL A   1      35.267  32.370  30.617  1.00  0.00    -0.053 A 
ATOM     62  H   UNL A   1      33.225  32.738  30.223  1.00  0.00     0.063 H 
ATOM     63  C   UNL A   1      36.811  33.801  29.425  1.00  0.00    -0.053 A 
ATOM     64  H   UNL A   1      35.912  35.351  28.316  1.00  0.00     0.063 H 
ATOM     65  C   UNL A   1      36.587  32.736  30.311  1.00  0.00    -0.014 A 
ATOM     66  H   UNL A   1      35.088  31.608  31.289  1.00  0.00     0.063 H 
ATOM     67  H   UNL A   1      37.777  34.058  29.167  1.00  0.00     0.063 H 
BRANCH  65  68
ATOM     68  C   UNL A   1      37.737  32.039  30.944  1.00  0.00     0.031 A 
ATOM     69  C   UNL A   1      38.173  32.411  32.336  1.00  0.00     0.074 A 
ATOM     70  C   UNL A   1      38.410  31.095  30.257  1.00  0.00     0.049 A 
ATOM     71  N   UNL A   1      39.163  31.938  33.051  1.00  0.00    -0.248 NA
ATOM     72  C   UNL A   1      37.411  33.477  33.005  1.00  0.00    -0.034 C 
ATOM     73  C   UNL A   1      38.117  30.678  28.886  1.00  0.00    -0.036 A 
ATOM     74  N   UNL A   1      39.481  30.318  30.620  1.00  0.00    -0.354 N 
ATOM     75  C   UNL A   1      39.147  32.654  34.241  1.00  0.00     0.074 A 
ATOM     76  C   UNL A   1      38.094  33.638  34.128  1.00  0.00    -0.034 C 
ATOM     77  H   UNL A   1      36.564  33.972  32.683  1.00  0.00     0.065 H 
ATOM     78  C   UNL A   1      38.966  29.700  28.533  1.00  0.00    -0.036 A 
ATOM     79  H   UNL A   1      37.376  31.072  28.286  1.00  0.00     0.065 H 
ATOM     80  C   UNL A   1      39.885  29.446  29.638  1.00  0.00     0.049 A 
ATOM     81  H   UNL A   1      39.918  30.378  31.499  1.00  0.00     0.167 HD
ATOM     82  C   UNL A   1      39.922  32.488  35.341  1.00  0.00     0.037 A 
ATOM     83  H   UNL A   1      37.899  34.368  34.831  1.00  0.00     0.065 H 
ATOM     84  H   UNL A   1      38.969  29.207  27.627  1.00  0.00     0.065 H 
ATOM     85  C   UNL A   1      40.885  28.543  29.633  1.00  0.00     0.037 A 
ATOM     86  C   UNL A   1      40.956  31.493  35.458  1.00  0.00     0.049 A 
ATOM     87  C   UNL A   1      41.731  28.379  30.868  1.00  0.00     0.074 A 
ATOM     88  C   UNL A   1      41.764  31.211  36.546  1.00  0.00    -0.036 A 
ATOM     89  N   UNL A   1      41.326  30.616  34.448  1.00  0.00    -0.354 N 
ATOM     90  N   UNL A   1      41.662  29.016  32.012  1.00  0.00    -0.248 NA
ATOM     91  C   UNL A   1      42.785  27.357  30.812  1.00  0.00    -0.034 C 
ATOM     92  C   UNL A   1      42.658  30.199  36.177  1.00  0.00    -0.036 A 
ATOM     93  H   UNL A   1      41.715  31.667  37.470  1.00  0.00     0.065 H 
ATOM     94  C   UNL A   1      42.365  29.807  34.880  1.00  0.00     0.049 A 
ATOM     95  H   UNL A   1      40.912  30.576  33.556  1.00  0.00     0.167 HD
ATOM     96  C   UNL A   1      42.638  28.450  32.822  1.00  0.00     0.074 A 
ATOM     97  C   UNL A   1      43.270  27.405  32.044  1.00  0.00    -0.034 C 
ATOM     98  H   UNL A   1      43.072  26.759  30.022  1.00  0.00     0.065 H 
ATOM     99  H   UNL A   1      43.409  29.811  36.770  1.00  0.00     0.065 H 
ATOM    100  C   UNL A   1      42.981  28.766  34.096  1.00  0.00     0.037 A 
ATOM    101  H   UNL A   1      44.006  26.777  32.403  1.00  0.00     0.065 H 
BRANCH  82 102
ATOM    102  C   UNL A   1      39.677  33.405  36.506  1.00  0.00     0.064 A 
ATOM    103  C   UNL A   1      38.805  33.056  37.551  1.00  0.00     0.173 A 
ATOM    104  C   UNL A   1      40.341  34.638  36.596  1.00  0.00     0.173 A 
ATOM    105  F   UNL A   1      38.135  31.895  37.511  1.00  0.00    -0.203 F 
ATOM    106  C   UNL A   1      38.581  33.920  38.619  1.00  0.00     0.198 A 
ATOM    107  C   UNL A   1      40.142  35.484  37.684  1.00  0.00     0.198 A 
ATOM    108  F   UNL A   1      41.190  35.022  35.630  1.00  0.00    -0.203 F 
ATOM    109  F   UNL A   1      37.699  33.589  39.572  1.00  0.00    -0.200 F 
ATOM    110  C   UNL A   1      39.255  35.130  38.689  1.00  0.00     0.200 A 
ATOM    111  F   UNL A   1      40.804  36.647  37.757  1.00  0.00    -0.200 F 
ATOM    112  F   UNL A   1      39.043  35.958  39.721  1.00  0.00    -0.200 F 
ENDBRANCH  82 102
BRANCH  85 113
ATOM    113  C   UNL A   1      41.121  27.700  28.430  1.00  0.00     0.064 A 
ATOM    114  C   UNL A   1      42.004  28.114  27.422  1.00  0.00     0.173 A 
ATOM    115  C   UNL A   1      40.459  26.478  28.253  1.00  0.00     0.173 A 
ATOM    116  F   UNL A   1      42.647  29.287  27.535  1.00  0.00    -0.203 F 
ATOM    117  C   UNL A   1      42.194  27.351  26.271  1.00  0.00     0.198 A 
ATOM    118  C   UNL A   1      40.675  25.699  27.117  1.00  0.00     0.198 A 
ATOM    119  F   UNL A   1      39.608  26.031  29.189  1.00  0.00    -0.203 F 
ATOM    120  F   UNL A   1      43.001  27.799  25.300  1.00  0.00    -0.200 F 
ATOM    121  C   UNL A   1      41.533  26.142  26.122  1.00  0.00     0.200 A 
ATOM    122  F   UNL A   1      40.046  24.523  26.984  1.00  0.00    -0.200 F 
ATOM    123  F   UNL A   1      41.716  25.408  25.016  1.00  0.00    -0.200 F 
ENDBRANCH  85 113
BRANCH 100 124
ATOM    124  C   UNL A   1      44.058  27.940  34.741  1.00  0.00     0.064 A 
ATOM    125  C   UNL A   1      43.771  26.750  35.425  1.00  0.00     0.173 A 
ATOM    126  C   UNL A   1      45.400  28.344  34.664  1.00  0.00     0.173 A 
ATOM    127  F   UNL A   1      42.504  26.325  35.539  1.00  0.00    -0.203 F 
ATOM    128  C   UNL A   1      44.781  26.018  36.045  1.00  0.00     0.198 A 
ATOM    129  C   UNL A   1      46.412  27.590  35.253  1.00  0.00     0.198 A 
ATOM    130  F   UNL A   1      45.733  29.469  34.013  1.00  0.00    -0.203 F 
ATOM    131  F   UNL A   1      44.474  24.921  36.752  1.00  0.00    -0.200 F 
ATOM    132  C   UNL A   1      46.100  26.435  35.954  1.00  0.00     0.200 A 
ATOM    133  F   UNL A   1      47.688  27.986  35.149  1.00  0.00    -0.200 F 
ATOM    134  F   UNL A   1      47.071  25.730  36.552  1.00  0.00    -0.200 F 
ENDBRANCH 100 124
ENDBRANCH  65  68
ENDBRANCH  55  58
ENDBRANCH  51  54
ENDBRANCH  48  51
ENDBRANCH  45  48
ENDBRANCH   1  45
TORSDOF 16
ENDMDL
MODEL 6
REMARK VINA RESULT:     -11.6      5.366      9.646
REMARK SMILES [NH3+]Cc1c(-c2ccccc2)c(C(=O)NCCCCCCNC(=O)c2ccc(-c3c4nc(c(-c5c(F)c(F)c(F)c(F)c5F)c5ccc([nH]5)c(-c5c(F)c(F)c(F)c(F)c5F)c5nc(c(-c6c(F)c(F)c(F)c(F)c6F)c6ccc3[nH]6)C=C5)C=C4)cc2)c2ccccn12
REMARK SMILES IDX 17 1 16 4 15 7 14 10 12 11 13 12 11 14 3 15 4 16 92 17 87 18
REMARK SMILES IDX 91 19 88 20 90 21 89 23 2 27 1 30 5 34 6 35 10 36 7 37 9 39
REMARK SMILES IDX 8 41 18 45 19 48 20 51 21 54 22 55 23 57 24 58 25 59 86 60
REMARK SMILES IDX 26 61 85 63 27 65 28 68 29 69 79 70 30 71 84 72 78 73 80 74
REMARK SMILES IDX 31 75 83 76 77 78 76 80 32 82 64 85 44 86 63 87 45 88 48 89
REMARK SMILES IDX 62 90 81 91 46 92 47 94 61 96 82 97 49 100 33 102 34 103
REMARK SMILES IDX 42 104 35 105 36 106 40 107 43 108 37 109 38 110 41 111
REMARK SMILES IDX 39 112 65 113 66 114 74 115 67 116 68 117 72 118 75 119
REMARK SMILES IDX 69 120 70 121 73 122 71 123 50 124 51 125 59 126 52 127
REMARK SMILES IDX 53 128 57 129 60 130 54 131 55 132 58 133 56 134
REMARK H PARENT 17 2 17 3 16 5 16 6 15 8 15 9 14 13 91 22 88 24 90 25 89 26
REMARK H PARENT 2 28 2 29 1 31 1 32 1 33 6 38 10 40 7 42 9 43 8 44 18 46 18 47
REMARK H PARENT 19 49 19 50 20 52 20 53 21 56 25 62 86 64 26 66 85 67 84 77
REMARK H PARENT 78 79 80 81 83 83 77 84 45 93 48 95 81 98 46 99 82 101
REMARK Flexibility Score: inf
ROOT
ATOM      1  C   UNL A   1      37.400  21.654  24.314  1.00  0.00    -0.052 C 
ATOM      2  H   UNL A   1      38.254  21.915  24.904  1.00  0.00     0.027 H 
ATOM      3  H   UNL A   1      37.574  21.593  23.261  1.00  0.00     0.027 H 
ENDROOT
BRANCH   1   4
ATOM      4  C   UNL A   1      36.370  22.777  24.476  1.00  0.00    -0.036 C 
ATOM      5  H   UNL A   1      36.436  23.401  23.609  1.00  0.00     0.028 H 
ATOM      6  H   UNL A   1      35.433  22.275  24.604  1.00  0.00     0.028 H 
BRANCH   4   7
ATOM      7  C   UNL A   1      36.506  23.676  25.701  1.00  0.00     0.018 C 
ATOM      8  H   UNL A   1      37.531  23.660  26.009  1.00  0.00     0.049 H 
ATOM      9  H   UNL A   1      36.162  24.642  25.397  1.00  0.00     0.049 H 
BRANCH   7  10
ATOM     10  N   UNL A   1      35.695  23.304  26.836  1.00  0.00    -0.352 N 
ATOM     11  C   UNL A   1      34.399  22.837  26.905  1.00  0.00     0.254 C 
ATOM     12  O   UNL A   1      34.005  22.517  28.027  1.00  0.00    -0.269 OA
ATOM     13  H   UNL A   1      36.143  23.401  27.708  1.00  0.00     0.163 HD
BRANCH  11  14
ATOM     14  C   UNL A   1      33.508  22.806  25.734  1.00  0.00     0.073 A 
ATOM     15  C   UNL A   1      32.179  23.578  23.999  1.00  0.00     0.086 A 
ATOM     16  C   UNL A   1      32.841  23.951  25.172  1.00  0.00     0.022 A 
ATOM     17  N   UNL A   1      32.412  22.220  23.838  1.00  0.00    -0.314 N 
ATOM     18  C   UNL A   1      33.019  21.729  25.002  1.00  0.00     0.059 A 
ATOM     19  C   UNL A   1      32.125  21.375  22.755  1.00  0.00     0.009 A 
ATOM     20  C   UNL A   1      33.050  20.307  25.157  1.00  0.00    -0.037 A 
ATOM     21  C   UNL A   1      32.315  20.051  22.854  1.00  0.00    -0.045 A 
ATOM     22  H   UNL A   1      31.766  21.776  21.874  1.00  0.00     0.082 H 
ATOM     23  C   UNL A   1      32.745  19.504  24.123  1.00  0.00    -0.059 A 
ATOM     24  H   UNL A   1      33.307  19.896  26.067  1.00  0.00     0.065 H 
ATOM     25  H   UNL A   1      32.157  19.434  22.043  1.00  0.00     0.064 H 
ATOM     26  H   UNL A   1      32.820  18.481  24.236  1.00  0.00     0.062 H 
BRANCH  15  27
ATOM     27  C   UNL A   1      31.421  24.484  23.066  1.00  0.00     0.116 C 
ATOM     28  H   UNL A   1      31.681  25.493  23.309  1.00  0.00     0.099 H 
ATOM     29  H   UNL A   1      31.705  24.179  22.080  1.00  0.00     0.099 H 
BRANCH  27  30
ATOM     30  N   UNL A   1      29.973  24.380  23.103  1.00  0.00    -0.353 N 
ATOM     31  H   UNL A   1      29.698  23.409  22.950  1.00  0.00     0.344 HD
ATOM     32  H   UNL A   1      29.571  24.967  22.373  1.00  0.00     0.344 HD
ATOM     33  H   UNL A   1      29.633  24.689  24.013  1.00  0.00     0.344 HD
ENDBRANCH  27  30
ENDBRANCH  15  27
BRANCH  16  34
ATOM     34  C   UNL A   1      32.810  25.319  25.674  1.00  0.00    -0.016 A 
ATOM     35  C   UNL A   1      31.719  25.794  26.406  1.00  0.00    -0.054 A 
ATOM     36  C   UNL A   1      33.894  26.171  25.418  1.00  0.00    -0.054 A 
ATOM     37  C   UNL A   1      31.719  27.108  26.883  1.00  0.00    -0.062 A 
ATOM     38  H   UNL A   1      30.915  25.176  26.594  1.00  0.00     0.063 H 
ATOM     39  C   UNL A   1      33.895  27.479  25.903  1.00  0.00    -0.062 A 
ATOM     40  H   UNL A   1      34.696  25.828  24.865  1.00  0.00     0.063 H 
ATOM     41  C   UNL A   1      32.807  27.946  26.636  1.00  0.00    -0.062 A 
ATOM     42  H   UNL A   1      30.912  27.459  27.422  1.00  0.00     0.062 H 
ATOM     43  H   UNL A   1      34.700  28.098  25.720  1.00  0.00     0.062 H 
ATOM     44  H   UNL A   1      32.805  28.914  26.996  1.00  0.00     0.062 H 
ENDBRANCH  16  34
ENDBRANCH  11  14
ENDBRANCH   7  10
ENDBRANCH   4   7
ENDBRANCH   1   4
BRANCH   1  45
ATOM     45  C   UNL A   1      36.973  20.242  24.725  1.00  0.00    -0.052 C 
ATOM     46  H   UNL A   1      36.439  19.814  23.903  1.00  0.00     0.027 H 
ATOM     47  H   UNL A   1      36.398  20.374  25.618  1.00  0.00     0.027 H 
BRANCH  45  48
ATOM     48  C   UNL A   1      38.086  19.265  25.112  1.00  0.00    -0.036 C 
ATOM     49  H   UNL A   1      38.431  18.794  24.216  1.00  0.00     0.028 H 
ATOM     50  H   UNL A   1      37.644  18.596  25.821  1.00  0.00     0.028 H 
BRANCH  48  51
ATOM     51  C   UNL A   1      39.294  19.867  25.817  1.00  0.00     0.018 C 
ATOM     52  H   UNL A   1      39.017  20.108  26.822  1.00  0.00     0.049 H 
ATOM     53  H   UNL A   1      39.588  20.734  25.264  1.00  0.00     0.049 H 
BRANCH  51  54
ATOM     54  N   UNL A   1      40.437  18.972  25.855  1.00  0.00    -0.352 N 
ATOM     55  C   UNL A   1      41.761  19.245  26.086  1.00  0.00     0.251 C 
ATOM     56  H   UNL A   1      40.229  18.025  25.690  1.00  0.00     0.163 HD
ATOM     57  O   UNL A   1      42.600  18.362  25.942  1.00  0.00    -0.269 OA
BRANCH  55  58
ATOM     58  C   UNL A   1      42.195  20.604  26.488  1.00  0.00     0.039 A 
ATOM     59  C   UNL A   1      42.571  21.506  25.488  1.00  0.00    -0.049 A 
ATOM     60  C   UNL A   1      42.277  20.981  27.831  1.00  0.00    -0.049 A 
ATOM     61  C   UNL A   1      42.994  22.793  25.833  1.00  0.00    -0.053 A 
ATOM     62  H   UNL A   1      42.535  21.223  24.497  1.00  0.00     0.063 H 
ATOM     63  C   UNL A   1      42.620  22.288  28.169  1.00  0.00    -0.053 A 
ATOM     64  H   UNL A   1      42.084  20.290  28.572  1.00  0.00     0.063 H 
ATOM     65  C   UNL A   1      43.004  23.202  27.176  1.00  0.00    -0.014 A 
ATOM     66  H   UNL A   1      43.301  23.445  25.095  1.00  0.00     0.063 H 
ATOM     67  H   UNL A   1      42.592  22.587  29.156  1.00  0.00     0.063 H 
BRANCH  65  68
ATOM     68  C   UNL A   1      43.454  24.566  27.553  1.00  0.00     0.031 A 
ATOM     69  C   UNL A   1      42.445  25.624  27.911  1.00  0.00     0.074 A 
ATOM     70  C   UNL A   1      44.768  24.866  27.544  1.00  0.00     0.049 A 
ATOM     71  N   UNL A   1      42.635  26.876  28.244  1.00  0.00    -0.248 NA
ATOM     72  C   UNL A   1      41.028  25.229  27.861  1.00  0.00    -0.034 C 
ATOM     73  C   UNL A   1      45.842  23.944  27.171  1.00  0.00    -0.036 A 
ATOM     74  N   UNL A   1      45.423  26.031  27.856  1.00  0.00    -0.354 N 
ATOM     75  C   UNL A   1      41.369  27.416  28.431  1.00  0.00     0.074 A 
ATOM     76  C   UNL A   1      40.416  26.377  28.110  1.00  0.00    -0.034 C 
ATOM     77  H   UNL A   1      40.618  24.300  27.679  1.00  0.00     0.065 H 
ATOM     78  C   UNL A   1      47.023  24.569  27.305  1.00  0.00    -0.036 A 
ATOM     79  H   UNL A   1      45.712  22.971  26.856  1.00  0.00     0.065 H 
ATOM     80  C   UNL A   1      46.788  25.943  27.738  1.00  0.00     0.049 A 
ATOM     81  H   UNL A   1      44.958  26.852  28.137  1.00  0.00     0.167 HD
ATOM     82  C   UNL A   1      41.030  28.656  28.858  1.00  0.00     0.037 A 
ATOM     83  H   UNL A   1      39.393  26.511  28.081  1.00  0.00     0.065 H 
ATOM     84  H   UNL A   1      47.948  24.146  27.130  1.00  0.00     0.065 H 
ATOM     85  C   UNL A   1      47.743  26.869  27.956  1.00  0.00     0.037 A 
ATOM     86  C   UNL A   1      41.982  29.682  29.197  1.00  0.00     0.049 A 
ATOM     87  C   UNL A   1      47.340  28.240  28.430  1.00  0.00     0.074 A 
ATOM     88  C   UNL A   1      41.744  30.955  29.686  1.00  0.00    -0.036 A 
ATOM     89  N   UNL A   1      43.359  29.551  29.080  1.00  0.00    -0.354 N 
ATOM     90  N   UNL A   1      46.142  28.717  28.668  1.00  0.00    -0.248 NA
ATOM     91  C   UNL A   1      48.426  29.196  28.680  1.00  0.00    -0.034 C 
ATOM     92  C   UNL A   1      42.973  31.612  29.816  1.00  0.00    -0.036 A 
ATOM     93  H   UNL A   1      40.819  31.351  29.916  1.00  0.00     0.065 H 
ATOM     94  C   UNL A   1      43.981  30.727  29.468  1.00  0.00     0.049 A 
ATOM     95  H   UNL A   1      43.824  28.742  28.767  1.00  0.00     0.167 HD
ATOM     96  C   UNL A   1      46.332  30.014  29.127  1.00  0.00     0.074 A 
ATOM     97  C   UNL A   1      47.762  30.239  29.154  1.00  0.00    -0.034 C 
ATOM     98  H   UNL A   1      49.441  29.083  28.528  1.00  0.00     0.065 H 
ATOM     99  H   UNL A   1      43.105  32.590  30.118  1.00  0.00     0.065 H 
ATOM    100  C   UNL A   1      45.407  30.935  29.495  1.00  0.00     0.037 A 
ATOM    101  H   UNL A   1      48.208  31.104  29.497  1.00  0.00     0.065 H 
BRANCH  82 102
ATOM    102  C   UNL A   1      39.566  28.971  28.984  1.00  0.00     0.064 A 
ATOM    103  C   UNL A   1      38.893  28.879  30.214  1.00  0.00     0.173 A 
ATOM    104  C   UNL A   1      38.829  29.395  27.868  1.00  0.00     0.173 A 
ATOM    105  F   UNL A   1      39.546  28.467  31.311  1.00  0.00    -0.203 F 
ATOM    106  C   UNL A   1      37.534  29.164  30.313  1.00  0.00     0.198 A 
ATOM    107  C   UNL A   1      37.477  29.714  27.978  1.00  0.00     0.198 A 
ATOM    108  F   UNL A   1      39.420  29.507  26.669  1.00  0.00    -0.203 F 
ATOM    109  F   UNL A   1      36.903  29.012  31.485  1.00  0.00    -0.200 F 
ATOM    110  C   UNL A   1      36.828  29.589  29.197  1.00  0.00     0.200 A 
ATOM    111  F   UNL A   1      36.801  30.138  26.901  1.00  0.00    -0.200 F 
ATOM    112  F   UNL A   1      35.522  29.870  29.295  1.00  0.00    -0.200 F 
ENDBRANCH  82 102
BRANCH  85 113
ATOM    113  C   UNL A   1      49.176  26.522  27.760  1.00  0.00     0.064 A 
ATOM    114  C   UNL A   1      50.011  26.260  28.855  1.00  0.00     0.173 A 
ATOM    115  C   UNL A   1      49.744  26.463  26.480  1.00  0.00     0.173 A 
ATOM    116  F   UNL A   1      49.520  26.324  30.102  1.00  0.00    -0.203 F 
ATOM    117  C   UNL A   1      51.366  25.981  28.680  1.00  0.00     0.198 A 
ATOM    118  C   UNL A   1      51.091  26.150  26.303  1.00  0.00     0.198 A 
ATOM    119  F   UNL A   1      48.989  26.698  25.396  1.00  0.00    -0.203 F 
ATOM    120  F   UNL A   1      52.151  25.790  29.748  1.00  0.00    -0.200 F 
ATOM    121  C   UNL A   1      51.903  25.921  27.403  1.00  0.00     0.200 A 
ATOM    122  F   UNL A   1      51.603  26.078  25.067  1.00  0.00    -0.200 F 
ATOM    123  F   UNL A   1      53.204  25.652  27.235  1.00  0.00    -0.200 F 
ENDBRANCH  85 113
BRANCH 100 124
ATOM    124  C   UNL A   1      45.918  32.256  30.000  1.00  0.00     0.064 A 
ATOM    125  C   UNL A   1      46.150  33.340  29.141  1.00  0.00     0.173 A 
ATOM    126  C   UNL A   1      46.170  32.439  31.369  1.00  0.00     0.173 A 
ATOM    127  F   UNL A   1      45.938  33.215  27.823  1.00  0.00    -0.203 F 
ATOM    128  C   UNL A   1      46.656  34.543  29.627  1.00  0.00     0.198 A 
ATOM    129  C   UNL A   1      46.640  33.656  31.856  1.00  0.00     0.198 A 
ATOM    130  F   UNL A   1      45.955  31.439  32.237  1.00  0.00    -0.203 F 
ATOM    131  F   UNL A   1      46.936  35.542  28.777  1.00  0.00    -0.200 F 
ATOM    132  C   UNL A   1      46.896  34.702  30.982  1.00  0.00     0.200 A 
ATOM    133  F   UNL A   1      46.854  33.812  33.169  1.00  0.00    -0.200 F 
ATOM    134  F   UNL A   1      47.384  35.860  31.448  1.00  0.00    -0.200 F 
ENDBRANCH 100 124
ENDBRANCH  65  68
ENDBRANCH  55  58
ENDBRANCH  51  54
ENDBRANCH  48  51
ENDBRANCH  45  48
ENDBRANCH   1  45
TORSDOF 16
ENDMDL
MODEL 7
REMARK VINA RESULT:     -11.5      5.435      9.581
REMARK SMILES [NH3+]Cc1c(-c2ccccc2)c(C(=O)NCCCCCCNC(=O)c2ccc(-c3c4nc(c(-c5c(F)c(F)c(F)c(F)c5F)c5ccc([nH]5)c(-c5c(F)c(F)c(F)c(F)c5F)c5nc(c(-c6c(F)c(F)c(F)c(F)c6F)c6ccc3[nH]6)C=C5)C=C4)cc2)c2ccccn12
REMARK SMILES IDX 17 1 16 4 15 7 14 10 12 11 13 12 11 14 3 15 4 16 92 17 87 18
REMARK SMILES IDX 91 19 88 20 90 21 89 23 2 27 1 30 5 34 6 35 10 36 7 37 9 39
REMARK SMILES IDX 8 41 18 45 19 48 20 51 21 54 22 55 23 57 24 58 25 59 86 60
REMARK SMILES IDX 26 61 85 63 27 65 28 68 29 69 79 70 30 71 84 72 78 73 80 74
REMARK SMILES IDX 31 75 83 76 77 78 76 80 32 82 64 85 44 86 63 87 45 88 48 89
REMARK SMILES IDX 62 90 81 91 46 92 47 94 61 96 82 97 49 100 33 102 34 103
REMARK SMILES IDX 42 104 35 105 36 106 40 107 43 108 37 109 38 110 41 111
REMARK SMILES IDX 39 112 65 113 66 114 74 115 67 116 68 117 72 118 75 119
REMARK SMILES IDX 69 120 70 121 73 122 71 123 50 124 51 125 59 126 52 127
REMARK SMILES IDX 53 128 57 129 60 130 54 131 55 132 58 133 56 134
REMARK H PARENT 17 2 17 3 16 5 16 6 15 8 15 9 14 13 91 22 88 24 90 25 89 26
REMARK H PARENT 2 28 2 29 1 31 1 32 1 33 6 38 10 40 7 42 9 43 8 44 18 46 18 47
REMARK H PARENT 19 49 19 50 20 52 20 53 21 56 25 62 86 64 26 66 85 67 84 77
REMARK H PARENT 78 79 80 81 83 83 77 84 45 93 48 95 81 98 46 99 82 101
REMARK Flexibility Score: inf
ROOT
ATOM      1  C   UNL A   1      37.028  21.734  24.022  1.00  0.00    -0.052 C 
ATOM      2  H   UNL A   1      38.036  22.002  24.264  1.00  0.00     0.027 H 
ATOM      3  H   UNL A   1      36.847  21.530  22.987  1.00  0.00     0.027 H 
ENDROOT
BRANCH   1   4
ATOM      4  C   UNL A   1      36.141  22.940  24.345  1.00  0.00    -0.036 C 
ATOM      5  H   UNL A   1      36.225  23.629  23.530  1.00  0.00     0.028 H 
ATOM      6  H   UNL A   1      35.163  22.530  24.493  1.00  0.00     0.028 H 
BRANCH   4   7
ATOM      7  C   UNL A   1      36.447  23.706  25.628  1.00  0.00     0.018 C 
ATOM      8  H   UNL A   1      37.478  23.549  25.867  1.00  0.00     0.049 H 
ATOM      9  H   UNL A   1      36.202  24.728  25.427  1.00  0.00     0.049 H 
BRANCH   7  10
ATOM     10  N   UNL A   1      35.661  23.328  26.778  1.00  0.00    -0.352 N 
ATOM     11  C   UNL A   1      34.361  22.876  26.874  1.00  0.00     0.254 C 
ATOM     12  O   UNL A   1      33.992  22.544  28.001  1.00  0.00    -0.269 OA
ATOM     13  H   UNL A   1      36.132  23.406  27.640  1.00  0.00     0.163 HD
BRANCH  11  14
ATOM     14  C   UNL A   1      33.440  22.873  25.727  1.00  0.00     0.073 A 
ATOM     15  C   UNL A   1      32.071  23.688  24.043  1.00  0.00     0.086 A 
ATOM     16  C   UNL A   1      32.766  24.034  25.205  1.00  0.00     0.022 A 
ATOM     17  N   UNL A   1      32.290  22.333  23.849  1.00  0.00    -0.314 N 
ATOM     18  C   UNL A   1      32.924  21.815  24.987  1.00  0.00     0.059 A 
ATOM     19  C   UNL A   1      31.970  21.511  22.758  1.00  0.00     0.009 A 
ATOM     20  C   UNL A   1      32.950  20.390  25.113  1.00  0.00    -0.037 A 
ATOM     21  C   UNL A   1      32.153  20.184  22.826  1.00  0.00    -0.045 A 
ATOM     22  H   UNL A   1      31.590  21.931  21.894  1.00  0.00     0.082 H 
ATOM     23  C   UNL A   1      32.613  19.609  24.071  1.00  0.00    -0.059 A 
ATOM     24  H   UNL A   1      33.227  19.959  26.008  1.00  0.00     0.065 H 
ATOM     25  H   UNL A   1      31.970  19.584  22.006  1.00  0.00     0.064 H 
ATOM     26  H   UNL A   1      32.683  18.584  24.162  1.00  0.00     0.062 H 
BRANCH  15  27
ATOM     27  C   UNL A   1      31.295  24.617  23.148  1.00  0.00     0.116 C 
ATOM     28  H   UNL A   1      31.788  25.567  23.158  1.00  0.00     0.099 H 
ATOM     29  H   UNL A   1      31.275  24.140  22.190  1.00  0.00     0.099 H 
BRANCH  27  30
ATOM     30  N   UNL A   1      29.903  24.838  23.501  1.00  0.00    -0.353 N 
ATOM     31  H   UNL A   1      29.338  24.063  23.153  1.00  0.00     0.344 HD
ATOM     32  H   UNL A   1      29.580  25.710  23.082  1.00  0.00     0.344 HD
ATOM     33  H   UNL A   1      29.815  24.895  24.515  1.00  0.00     0.344 HD
ENDBRANCH  27  30
ENDBRANCH  15  27
BRANCH  16  34
ATOM     34  C   UNL A   1      32.757  25.392  25.735  1.00  0.00    -0.016 A 
ATOM     35  C   UNL A   1      33.819  26.267  25.490  1.00  0.00    -0.054 A 
ATOM     36  C   UNL A   1      31.666  25.826  26.500  1.00  0.00    -0.054 A 
ATOM     37  C   UNL A   1      33.782  27.567  26.002  1.00  0.00    -0.062 A 
ATOM     38  H   UNL A   1      34.628  25.954  24.933  1.00  0.00     0.063 H 
ATOM     39  C   UNL A   1      31.628  27.127  27.001  1.00  0.00    -0.062 A 
ATOM     40  H   UNL A   1      30.886  25.178  26.694  1.00  0.00     0.063 H 
ATOM     41  C   UNL A   1      32.686  27.997  26.752  1.00  0.00    -0.062 A 
ATOM     42  H   UNL A   1      34.567  28.212  25.823  1.00  0.00     0.062 H 
ATOM     43  H   UNL A   1      30.817  27.445  27.556  1.00  0.00     0.062 H 
ATOM     44  H   UNL A   1      32.660  28.961  27.122  1.00  0.00     0.062 H 
ENDBRANCH  16  34
ENDBRANCH  11  14
ENDBRANCH   7  10
ENDBRANCH   4   7
ENDBRANCH   1   4
BRANCH   1  45
ATOM     45  C   UNL A   1      36.719  20.418  24.741  1.00  0.00    -0.052 C 
ATOM     46  H   UNL A   1      36.003  19.887  24.149  1.00  0.00     0.027 H 
ATOM     47  H   UNL A   1      36.376  20.707  25.713  1.00  0.00     0.027 H 
BRANCH  45  48
ATOM     48  C   UNL A   1      37.895  19.474  25.001  1.00  0.00    -0.036 C 
ATOM     49  H   UNL A   1      38.255  19.133  24.053  1.00  0.00     0.028 H 
ATOM     50  H   UNL A   1      37.507  18.701  25.630  1.00  0.00     0.028 H 
BRANCH  48  51
ATOM     51  C   UNL A   1      39.076  20.064  25.761  1.00  0.00     0.018 C 
ATOM     52  H   UNL A   1      38.742  20.359  26.734  1.00  0.00     0.049 H 
ATOM     53  H   UNL A   1      39.438  20.896  25.193  1.00  0.00     0.049 H 
BRANCH  51  54
ATOM     54  N   UNL A   1      40.179  19.133  25.915  1.00  0.00    -0.352 N 
ATOM     55  C   UNL A   1      41.512  19.375  26.126  1.00  0.00     0.251 C 
ATOM     56  H   UNL A   1      39.932  18.183  25.859  1.00  0.00     0.163 HD
ATOM     57  O   UNL A   1      42.313  18.447  26.095  1.00  0.00    -0.269 OA
BRANCH  55  58
ATOM     58  C   UNL A   1      42.002  20.752  26.372  1.00  0.00     0.039 A 
ATOM     59  C   UNL A   1      42.246  21.146  27.692  1.00  0.00    -0.049 A 
ATOM     60  C   UNL A   1      42.178  21.666  25.330  1.00  0.00    -0.049 A 
ATOM     61  C   UNL A   1      42.698  22.441  27.960  1.00  0.00    -0.053 A 
ATOM     62  H   UNL A   1      42.093  20.482  28.466  1.00  0.00     0.063 H 
ATOM     63  C   UNL A   1      42.707  22.929  25.591  1.00  0.00    -0.053 A 
ATOM     64  H   UNL A   1      41.916  21.406  24.367  1.00  0.00     0.063 H 
ATOM     65  C   UNL A   1      42.952  23.338  26.910  1.00  0.00    -0.014 A 
ATOM     66  H   UNL A   1      42.846  22.739  28.937  1.00  0.00     0.063 H 
ATOM     67  H   UNL A   1      42.920  23.567  24.809  1.00  0.00     0.063 H 
BRANCH  65  68
ATOM     68  C   UNL A   1      43.431  24.717  27.186  1.00  0.00     0.031 A 
ATOM     69  C   UNL A   1      42.488  25.746  27.751  1.00  0.00     0.074 A 
ATOM     70  C   UNL A   1      44.703  25.055  26.899  1.00  0.00     0.049 A 
ATOM     71  N   UNL A   1      42.708  27.006  28.037  1.00  0.00    -0.248 NA
ATOM     72  C   UNL A   1      41.106  25.309  28.001  1.00  0.00    -0.034 C 
ATOM     73  C   UNL A   1      45.700  24.164  26.306  1.00  0.00    -0.036 A 
ATOM     74  N   UNL A   1      45.374  26.241  27.066  1.00  0.00    -0.354 N 
ATOM     75  C   UNL A   1      41.494  27.508  28.489  1.00  0.00     0.074 A 
ATOM     76  C   UNL A   1      40.526  26.440  28.376  1.00  0.00    -0.034 C 
ATOM     77  H   UNL A   1      40.694  24.368  27.909  1.00  0.00     0.065 H 
ATOM     78  C   UNL A   1      46.864  24.824  26.187  1.00  0.00    -0.036 A 
ATOM     79  H   UNL A   1      45.536  23.185  26.024  1.00  0.00     0.065 H 
ATOM     80  C   UNL A   1      46.685  26.193  26.661  1.00  0.00     0.049 A 
ATOM     81  H   UNL A   1      44.955  27.049  27.441  1.00  0.00     0.167 HD
ATOM     82  C   UNL A   1      41.216  28.740  28.980  1.00  0.00     0.037 A 
ATOM     83  H   UNL A   1      39.517  26.544  28.564  1.00  0.00     0.065 H 
ATOM     84  H   UNL A   1      47.743  24.428  25.819  1.00  0.00     0.065 H 
ATOM     85  C   UNL A   1      47.636  27.147  26.673  1.00  0.00     0.037 A 
ATOM     86  C   UNL A   1      42.188  29.796  29.111  1.00  0.00     0.049 A 
ATOM     87  C   UNL A   1      47.302  28.508  27.224  1.00  0.00     0.074 A 
ATOM     88  C   UNL A   1      42.021  31.063  29.641  1.00  0.00    -0.036 A 
ATOM     89  N   UNL A   1      43.512  29.704  28.705  1.00  0.00    -0.354 N 
ATOM     90  N   UNL A   1      46.168  28.951  27.711  1.00  0.00    -0.248 NA
ATOM     91  C   UNL A   1      48.388  29.497  27.239  1.00  0.00    -0.034 C 
ATOM     92  C   UNL A   1      43.229  31.757  29.508  1.00  0.00    -0.036 A 
ATOM     93  H   UNL A   1      41.154  31.433  30.062  1.00  0.00     0.065 H 
ATOM     94  C   UNL A   1      44.167  30.900  28.954  1.00  0.00     0.049 A 
ATOM     95  H   UNL A   1      43.924  28.908  28.299  1.00  0.00     0.167 HD
ATOM     96  C   UNL A   1      46.412  30.255  28.121  1.00  0.00     0.074 A 
ATOM     97  C   UNL A   1      47.808  30.523  27.844  1.00  0.00    -0.034 C 
ATOM     98  H   UNL A   1      49.350  29.413  26.876  1.00  0.00     0.065 H 
ATOM     99  H   UNL A   1      43.393  32.739  29.776  1.00  0.00     0.065 H 
ATOM    100  C   UNL A   1      45.559  31.151  28.677  1.00  0.00     0.037 A 
ATOM    101  H   UNL A   1      48.291  31.402  28.087  1.00  0.00     0.065 H 
BRANCH  82 102
ATOM    102  C   UNL A   1      39.804  29.012  29.414  1.00  0.00     0.064 A 
ATOM    103  C   UNL A   1      38.827  29.466  28.511  1.00  0.00     0.173 A 
ATOM    104  C   UNL A   1      39.411  28.793  30.743  1.00  0.00     0.173 A 
ATOM    105  F   UNL A   1      39.150  29.703  27.231  1.00  0.00    -0.203 F 
ATOM    106  C   UNL A   1      37.525  29.723  28.930  1.00  0.00     0.198 A 
ATOM    107  C   UNL A   1      38.098  29.017  31.151  1.00  0.00     0.198 A 
ATOM    108  F   UNL A   1      40.299  28.355  31.648  1.00  0.00    -0.203 F 
ATOM    109  F   UNL A   1      36.628  30.211  28.063  1.00  0.00    -0.200 F 
ATOM    110  C   UNL A   1      37.159  29.491  30.248  1.00  0.00     0.200 A 
ATOM    111  F   UNL A   1      37.742  28.780  32.421  1.00  0.00    -0.200 F 
ATOM    112  F   UNL A   1      35.903  29.733  30.648  1.00  0.00    -0.200 F 
ENDBRANCH  82 102
BRANCH  85 113
ATOM    113  C   UNL A   1      49.005  26.841  26.177  1.00  0.00     0.064 A 
ATOM    114  C   UNL A   1      49.343  27.032  24.830  1.00  0.00     0.173 A 
ATOM    115  C   UNL A   1      49.995  26.335  27.031  1.00  0.00     0.173 A 
ATOM    116  F   UNL A   1      48.424  27.494  23.968  1.00  0.00    -0.203 F 
ATOM    117  C   UNL A   1      50.609  26.703  24.350  1.00  0.00     0.198 A 
ATOM    118  C   UNL A   1      51.272  26.038  26.557  1.00  0.00     0.198 A 
ATOM    119  F   UNL A   1      49.727  26.140  28.331  1.00  0.00    -0.203 F 
ATOM    120  F   UNL A   1      50.886  26.844  23.046  1.00  0.00    -0.200 F 
ATOM    121  C   UNL A   1      51.575  26.211  25.215  1.00  0.00     0.200 A 
ATOM    122  F   UNL A   1      52.206  25.578  27.400  1.00  0.00    -0.200 F 
ATOM    123  F   UNL A   1      52.792  25.896  24.754  1.00  0.00    -0.200 F 
ENDBRANCH  85 113
BRANCH 100 124
ATOM    124  C   UNL A   1      46.126  32.488  29.065  1.00  0.00     0.064 A 
ATOM    125  C   UNL A   1      46.692  32.716  30.328  1.00  0.00     0.173 A 
ATOM    126  C   UNL A   1      46.110  33.554  28.152  1.00  0.00     0.173 A 
ATOM    127  F   UNL A   1      46.721  31.735  31.242  1.00  0.00    -0.203 F 
ATOM    128  C   UNL A   1      47.181  33.973  30.678  1.00  0.00     0.198 A 
ATOM    129  C   UNL A   1      46.634  34.798  28.492  1.00  0.00     0.198 A 
ATOM    130  F   UNL A   1      45.591  33.389  26.926  1.00  0.00    -0.203 F 
ATOM    131  F   UNL A   1      47.653  34.185  31.915  1.00  0.00    -0.200 F 
ATOM    132  C   UNL A   1      47.156  35.010  29.760  1.00  0.00     0.200 A 
ATOM    133  F   UNL A   1      46.625  35.795  27.597  1.00  0.00    -0.200 F 
ATOM    134  F   UNL A   1      47.625  36.219  30.098  1.00  0.00    -0.200 F 
ENDBRANCH 100 124
ENDBRANCH  65  68
ENDBRANCH  55  58
ENDBRANCH  51  54
ENDBRANCH  48  51
ENDBRANCH  45  48
ENDBRANCH   1  45
TORSDOF 16
ENDMDL
MODEL 8
REMARK VINA RESULT:     -11.5      5.767     10.117
REMARK SMILES [NH3+]Cc1c(-c2ccccc2)c(C(=O)NCCCCCCNC(=O)c2ccc(-c3c4nc(c(-c5c(F)c(F)c(F)c(F)c5F)c5ccc([nH]5)c(-c5c(F)c(F)c(F)c(F)c5F)c5nc(c(-c6c(F)c(F)c(F)c(F)c6F)c6ccc3[nH]6)C=C5)C=C4)cc2)c2ccccn12
REMARK SMILES IDX 17 1 16 4 15 7 14 10 12 11 13 12 11 14 3 15 4 16 92 17 87 18
REMARK SMILES IDX 91 19 88 20 90 21 89 23 2 27 1 30 5 34 6 35 10 36 7 37 9 39
REMARK SMILES IDX 8 41 18 45 19 48 20 51 21 54 22 55 23 57 24 58 25 59 86 60
REMARK SMILES IDX 26 61 85 63 27 65 28 68 29 69 79 70 30 71 84 72 78 73 80 74
REMARK SMILES IDX 31 75 83 76 77 78 76 80 32 82 64 85 44 86 63 87 45 88 48 89
REMARK SMILES IDX 62 90 81 91 46 92 47 94 61 96 82 97 49 100 33 102 34 103
REMARK SMILES IDX 42 104 35 105 36 106 40 107 43 108 37 109 38 110 41 111
REMARK SMILES IDX 39 112 65 113 66 114 74 115 67 116 68 117 72 118 75 119
REMARK SMILES IDX 69 120 70 121 73 122 71 123 50 124 51 125 59 126 52 127
REMARK SMILES IDX 53 128 57 129 60 130 54 131 55 132 58 133 56 134
REMARK H PARENT 17 2 17 3 16 5 16 6 15 8 15 9 14 13 91 22 88 24 90 25 89 26
REMARK H PARENT 2 28 2 29 1 31 1 32 1 33 6 38 10 40 7 42 9 43 8 44 18 46 18 47
REMARK H PARENT 19 49 19 50 20 52 20 53 21 56 25 62 86 64 26 66 85 67 84 77
REMARK H PARENT 78 79 80 81 83 83 77 84 45 93 48 95 81 98 46 99 82 101
REMARK Flexibility Score: inf
ROOT
ATOM      1  C   UNL A   1      39.609  23.387  26.228  1.00  0.00    -0.052 C 
ATOM      2  H   UNL A   1      40.411  24.090  26.315  1.00  0.00     0.027 H 
ATOM      3  H   UNL A   1      39.410  23.041  25.235  1.00  0.00     0.027 H 
ENDROOT
BRANCH   1   4
ATOM      4  C   UNL A   1      38.323  24.101  26.658  1.00  0.00    -0.036 C 
ATOM      5  H   UNL A   1      38.181  23.908  27.701  1.00  0.00     0.028 H 
ATOM      6  H   UNL A   1      38.480  25.128  26.404  1.00  0.00     0.028 H 
BRANCH   4   7
ATOM      7  C   UNL A   1      37.036  23.709  25.939  1.00  0.00     0.018 C 
ATOM      8  H   UNL A   1      36.644  22.835  26.417  1.00  0.00     0.049 H 
ATOM      9  H   UNL A   1      36.391  24.561  26.004  1.00  0.00     0.049 H 
BRANCH   7  10
ATOM     10  N   UNL A   1      37.174  23.422  24.532  1.00  0.00    -0.352 N 
ATOM     11  C   UNL A   1      36.240  23.037  23.592  1.00  0.00     0.254 C 
ATOM     12  O   UNL A   1      36.649  22.953  22.434  1.00  0.00    -0.269 OA
ATOM     13  H   UNL A   1      38.090  23.516  24.183  1.00  0.00     0.163 HD
BRANCH  11  14
ATOM     14  C   UNL A   1      34.864  22.661  23.956  1.00  0.00     0.073 A 
ATOM     15  C   UNL A   1      32.579  22.858  24.293  1.00  0.00     0.086 A 
ATOM     16  C   UNL A   1      33.754  23.574  24.046  1.00  0.00     0.022 A 
ATOM     17  N   UNL A   1      32.948  21.524  24.374  1.00  0.00    -0.314 N 
ATOM     18  C   UNL A   1      34.348  21.447  24.395  1.00  0.00     0.059 A 
ATOM     19  C   UNL A   1      32.155  20.368  24.441  1.00  0.00     0.009 A 
ATOM     20  C   UNL A   1      34.914  20.194  24.790  1.00  0.00    -0.037 A 
ATOM     21  C   UNL A   1      32.715  19.167  24.650  1.00  0.00    -0.045 A 
ATOM     22  H   UNL A   1      31.131  20.442  24.329  1.00  0.00     0.082 H 
ATOM     23  C   UNL A   1      34.141  19.098  24.881  1.00  0.00    -0.059 A 
ATOM     24  H   UNL A   1      35.920  20.133  25.008  1.00  0.00     0.065 H 
ATOM     25  H   UNL A   1      32.141  18.310  24.645  1.00  0.00     0.064 H 
ATOM     26  H   UNL A   1      34.574  18.191  25.120  1.00  0.00     0.062 H 
BRANCH  15  27
ATOM     27  C   UNL A   1      31.185  23.420  24.386  1.00  0.00     0.116 C 
ATOM     28  H   UNL A   1      30.584  22.713  24.918  1.00  0.00     0.099 H 
ATOM     29  H   UNL A   1      31.292  24.366  24.874  1.00  0.00     0.099 H 
BRANCH  27  30
ATOM     30  N   UNL A   1      30.521  23.705  23.126  1.00  0.00    -0.353 N 
ATOM     31  H   UNL A   1      30.745  22.975  22.451  1.00  0.00     0.344 HD
ATOM     32  H   UNL A   1      30.839  24.607  22.771  1.00  0.00     0.344 HD
ATOM     33  H   UNL A   1      29.513  23.735  23.273  1.00  0.00     0.344 HD
ENDBRANCH  27  30
ENDBRANCH  15  27
BRANCH  16  34
ATOM     34  C   UNL A   1      33.760  25.025  23.909  1.00  0.00    -0.016 A 
ATOM     35  C   UNL A   1      33.894  25.853  25.026  1.00  0.00    -0.054 A 
ATOM     36  C   UNL A   1      33.628  25.598  22.636  1.00  0.00    -0.054 A 
ATOM     37  C   UNL A   1      33.906  27.242  24.867  1.00  0.00    -0.062 A 
ATOM     38  H   UNL A   1      33.986  25.441  25.967  1.00  0.00     0.063 H 
ATOM     39  C   UNL A   1      33.649  26.983  22.479  1.00  0.00    -0.062 A 
ATOM     40  H   UNL A   1      33.514  24.989  21.810  1.00  0.00     0.063 H 
ATOM     41  C   UNL A   1      33.788  27.805  23.595  1.00  0.00    -0.062 A 
ATOM     42  H   UNL A   1      34.003  27.854  25.692  1.00  0.00     0.062 H 
ATOM     43  H   UNL A   1      33.562  27.399  21.538  1.00  0.00     0.062 H 
ATOM     44  H   UNL A   1      33.803  28.831  23.481  1.00  0.00     0.062 H 
ENDBRANCH  16  34
ENDBRANCH  11  14
ENDBRANCH   7  10
ENDBRANCH   4   7
ENDBRANCH   1   4
BRANCH   1  45
ATOM     45  C   UNL A   1      40.012  22.132  27.007  1.00  0.00    -0.052 C 
ATOM     46  H   UNL A   1      39.314  22.011  27.808  1.00  0.00     0.027 H 
ATOM     47  H   UNL A   1      41.023  22.307  27.311  1.00  0.00     0.027 H 
BRANCH  45  48
ATOM     48  C   UNL A   1      40.055  20.815  26.229  1.00  0.00    -0.036 C 
ATOM     49  H   UNL A   1      40.541  21.003  25.296  1.00  0.00     0.028 H 
ATOM     50  H   UNL A   1      39.035  20.503  26.140  1.00  0.00     0.028 H 
BRANCH  48  51
ATOM     51  C   UNL A   1      40.778  19.657  26.905  1.00  0.00     0.018 C 
ATOM     52  H   UNL A   1      40.059  18.903  27.151  1.00  0.00     0.049 H 
ATOM     53  H   UNL A   1      41.262  20.048  27.775  1.00  0.00     0.049 H 
BRANCH  51  54
ATOM     54  N   UNL A   1      41.805  19.060  26.071  1.00  0.00    -0.352 N 
ATOM     55  C   UNL A   1      42.899  19.634  25.476  1.00  0.00     0.251 C 
ATOM     56  H   UNL A   1      41.699  18.096  25.906  1.00  0.00     0.163 HD
ATOM     57  O   UNL A   1      43.580  18.981  24.692  1.00  0.00    -0.269 OA
BRANCH  55  58
ATOM     58  C   UNL A   1      43.259  21.044  25.754  1.00  0.00     0.039 A 
ATOM     59  C   UNL A   1      43.637  21.391  27.055  1.00  0.00    -0.049 A 
ATOM     60  C   UNL A   1      43.185  22.030  24.767  1.00  0.00    -0.049 A 
ATOM     61  C   UNL A   1      43.973  22.714  27.355  1.00  0.00    -0.053 A 
ATOM     62  H   UNL A   1      43.669  20.671  27.793  1.00  0.00     0.063 H 
ATOM     63  C   UNL A   1      43.598  23.331  25.046  1.00  0.00    -0.053 A 
ATOM     64  H   UNL A   1      42.823  21.793  23.830  1.00  0.00     0.063 H 
ATOM     65  C   UNL A   1      43.975  23.693  26.348  1.00  0.00    -0.014 A 
ATOM     66  H   UNL A   1      44.220  22.973  28.323  1.00  0.00     0.063 H 
ATOM     67  H   UNL A   1      43.627  24.033  24.291  1.00  0.00     0.063 H 
BRANCH  65  68
ATOM     68  C   UNL A   1      44.328  25.102  26.657  1.00  0.00     0.031 A 
ATOM     69  C   UNL A   1      43.285  26.041  27.202  1.00  0.00     0.074 A 
ATOM     70  C   UNL A   1      45.577  25.549  26.417  1.00  0.00     0.049 A 
ATOM     71  N   UNL A   1      43.390  27.310  27.512  1.00  0.00    -0.248 NA
ATOM     72  C   UNL A   1      41.937  25.487  27.400  1.00  0.00    -0.034 C 
ATOM     73  C   UNL A   1      46.664  24.753  25.847  1.00  0.00    -0.036 A 
ATOM     74  N   UNL A   1      46.140  26.783  26.622  1.00  0.00    -0.354 N 
ATOM     75  C   UNL A   1      42.124  27.703  27.928  1.00  0.00     0.074 A 
ATOM     76  C   UNL A   1      41.253  26.560  27.769  1.00  0.00    -0.034 C 
ATOM     77  H   UNL A   1      41.608  24.516  27.282  1.00  0.00     0.065 H 
ATOM     78  C   UNL A   1      47.771  25.509  25.776  1.00  0.00    -0.036 A 
ATOM     79  H   UNL A   1      46.591  23.768  25.548  1.00  0.00     0.065 H 
ATOM     80  C   UNL A   1      47.464  26.850  26.261  1.00  0.00     0.049 A 
ATOM     81  H   UNL A   1      45.644  27.548  26.992  1.00  0.00     0.167 HD
ATOM     82  C   UNL A   1      41.728  28.900  28.425  1.00  0.00     0.037 A 
ATOM     83  H   UNL A   1      40.233  26.578  27.924  1.00  0.00     0.065 H 
ATOM     84  H   UNL A   1      48.692  25.192  25.434  1.00  0.00     0.065 H 
ATOM     85  C   UNL A   1      48.331  27.880  26.318  1.00  0.00     0.037 A 
ATOM     86  C   UNL A   1      42.604  30.031  28.601  1.00  0.00     0.049 A 
ATOM     87  C   UNL A   1      47.867  29.200  26.874  1.00  0.00     0.074 A 
ATOM     88  C   UNL A   1      42.314  31.272  29.141  1.00  0.00    -0.036 A 
ATOM     89  N   UNL A   1      43.943  30.055  28.240  1.00  0.00    -0.354 N 
ATOM     90  N   UNL A   1      46.684  29.540  27.327  1.00  0.00    -0.248 NA
ATOM     91  C   UNL A   1      48.865  30.275  26.938  1.00  0.00    -0.034 C 
ATOM     92  C   UNL A   1      43.464  32.065  29.058  1.00  0.00    -0.036 A 
ATOM     93  H   UNL A   1      41.407  31.562  29.538  1.00  0.00     0.065 H 
ATOM     94  C   UNL A   1      44.488  31.298  28.525  1.00  0.00     0.049 A 
ATOM     95  H   UNL A   1      44.434  29.302  27.838  1.00  0.00     0.167 HD
ATOM     96  C   UNL A   1      46.805  30.853  27.761  1.00  0.00     0.074 A 
ATOM     97  C   UNL A   1      48.182  31.240  27.536  1.00  0.00    -0.034 C 
ATOM     98  H   UNL A   1      49.843  30.277  26.607  1.00  0.00     0.065 H 
ATOM     99  H   UNL A   1      43.537  33.054  29.344  1.00  0.00     0.065 H 
ATOM    100  C   UNL A   1      45.863  31.667  28.300  1.00  0.00     0.037 A 
ATOM    101  H   UNL A   1      48.582  32.153  27.806  1.00  0.00     0.065 H 
BRANCH  82 102
ATOM    102  C   UNL A   1      40.284  29.048  28.813  1.00  0.00     0.064 A 
ATOM    103  C   UNL A   1      39.863  28.938  30.149  1.00  0.00     0.173 A 
ATOM    104  C   UNL A   1      39.310  29.328  27.844  1.00  0.00     0.173 A 
ATOM    105  F   UNL A   1      40.751  28.659  31.115  1.00  0.00    -0.203 F 
ATOM    106  C   UNL A   1      38.520  29.067  30.493  1.00  0.00     0.198 A 
ATOM    107  C   UNL A   1      37.972  29.492  28.196  1.00  0.00     0.198 A 
ATOM    108  F   UNL A   1      39.654  29.449  26.553  1.00  0.00    -0.203 F 
ATOM    109  F   UNL A   1      38.137  28.899  31.765  1.00  0.00    -0.200 F 
ATOM    110  C   UNL A   1      37.576  29.352  29.517  1.00  0.00     0.200 A 
ATOM    111  F   UNL A   1      37.063  29.781  27.254  1.00  0.00    -0.200 F 
ATOM    112  F   UNL A   1      36.285  29.482  29.850  1.00  0.00    -0.200 F 
ENDBRANCH  82 102
BRANCH  85 113
ATOM    113  C   UNL A   1      49.736  27.696  25.865  1.00  0.00     0.064 A 
ATOM    114  C   UNL A   1      50.778  27.541  26.791  1.00  0.00     0.173 A 
ATOM    115  C   UNL A   1      50.070  27.691  24.504  1.00  0.00     0.173 A 
ATOM    116  F   UNL A   1      50.513  27.560  28.106  1.00  0.00    -0.203 F 
ATOM    117  C   UNL A   1      52.102  27.416  26.373  1.00  0.00     0.198 A 
ATOM    118  C   UNL A   1      51.389  27.532  24.086  1.00  0.00     0.198 A 
ATOM    119  F   UNL A   1      49.111  27.829  23.575  1.00  0.00    -0.203 F 
ATOM    120  F   UNL A   1      53.082  27.326  27.282  1.00  0.00    -0.200 F 
ATOM    121  C   UNL A   1      52.406  27.407  25.021  1.00  0.00     0.200 A 
ATOM    122  F   UNL A   1      51.677  27.507  22.777  1.00  0.00    -0.200 F 
ATOM    123  F   UNL A   1      53.678  27.285  24.619  1.00  0.00    -0.200 F 
ENDBRANCH  85 113
BRANCH 100 124
ATOM    124  C   UNL A   1      46.303  33.040  28.723  1.00  0.00     0.064 A 
ATOM    125  C   UNL A   1      46.803  33.296  30.009  1.00  0.00     0.173 A 
ATOM    126  C   UNL A   1      46.232  34.114  27.823  1.00  0.00     0.173 A 
ATOM    127  F   UNL A   1      46.880  32.308  30.912  1.00  0.00    -0.203 F 
ATOM    128  C   UNL A   1      47.173  34.583  30.390  1.00  0.00     0.198 A 
ATOM    129  C   UNL A   1      46.639  35.393  28.196  1.00  0.00     0.198 A 
ATOM    130  F   UNL A   1      45.772  33.924  26.577  1.00  0.00    -0.203 F 
ATOM    131  F   UNL A   1      47.582  34.816  31.646  1.00  0.00    -0.200 F 
ATOM    132  C   UNL A   1      47.096  35.629  29.484  1.00  0.00     0.200 A 
ATOM    133  F   UNL A   1      46.579  36.398  27.312  1.00  0.00    -0.200 F 
ATOM    134  F   UNL A   1      47.452  36.867  29.853  1.00  0.00    -0.200 F 
ENDBRANCH 100 124
ENDBRANCH  65  68
ENDBRANCH  55  58
ENDBRANCH  51  54
ENDBRANCH  48  51
ENDBRANCH  45  48
ENDBRANCH   1  45
TORSDOF 16
ENDMDL
MODEL 9
REMARK VINA RESULT:     -11.4      5.609     10.948
REMARK SMILES [NH3+]Cc1c(-c2ccccc2)c(C(=O)NCCCCCCNC(=O)c2ccc(-c3c4nc(c(-c5c(F)c(F)c(F)c(F)c5F)c5ccc([nH]5)c(-c5c(F)c(F)c(F)c(F)c5F)c5nc(c(-c6c(F)c(F)c(F)c(F)c6F)c6ccc3[nH]6)C=C5)C=C4)cc2)c2ccccn12
REMARK SMILES IDX 17 1 16 4 15 7 14 10 12 11 13 12 11 14 3 15 4 16 92 17 87 18
REMARK SMILES IDX 91 19 88 20 90 21 89 23 2 27 1 30 5 34 6 35 10 36 7 37 9 39
REMARK SMILES IDX 8 41 18 45 19 48 20 51 21 54 22 55 23 57 24 58 25 59 86 60
REMARK SMILES IDX 26 61 85 63 27 65 28 68 29 69 79 70 30 71 84 72 78 73 80 74
REMARK SMILES IDX 31 75 83 76 77 78 76 80 32 82 64 85 44 86 63 87 45 88 48 89
REMARK SMILES IDX 62 90 81 91 46 92 47 94 61 96 82 97 49 100 33 102 34 103
REMARK SMILES IDX 42 104 35 105 36 106 40 107 43 108 37 109 38 110 41 111
REMARK SMILES IDX 39 112 65 113 66 114 74 115 67 116 68 117 72 118 75 119
REMARK SMILES IDX 69 120 70 121 73 122 71 123 50 124 51 125 59 126 52 127
REMARK SMILES IDX 53 128 57 129 60 130 54 131 55 132 58 133 56 134
REMARK H PARENT 17 2 17 3 16 5 16 6 15 8 15 9 14 13 91 22 88 24 90 25 89 26
REMARK H PARENT 2 28 2 29 1 31 1 32 1 33 6 38 10 40 7 42 9 43 8 44 18 46 18 47
REMARK H PARENT 19 49 19 50 20 52 20 53 21 56 25 62 86 64 26 66 85 67 84 77
REMARK H PARENT 78 79 80 81 83 83 77 84 45 93 48 95 81 98 46 99 82 101
REMARK Flexibility Score: inf
ROOT
ATOM      1  C   UNL A   1      39.707  23.316  26.271  1.00  0.00    -0.052 C 
ATOM      2  H   UNL A   1      40.524  23.966  26.508  1.00  0.00     0.027 H 
ATOM      3  H   UNL A   1      39.636  23.030  25.242  1.00  0.00     0.027 H 
ENDROOT
BRANCH   1   4
ATOM      4  C   UNL A   1      38.412  24.083  26.554  1.00  0.00    -0.036 C 
ATOM      5  H   UNL A   1      38.255  24.069  27.613  1.00  0.00     0.028 H 
ATOM      6  H   UNL A   1      38.568  25.053  26.131  1.00  0.00     0.028 H 
BRANCH   4   7
ATOM      7  C   UNL A   1      37.138  23.565  25.894  1.00  0.00     0.018 C 
ATOM      8  H   UNL A   1      36.874  22.641  26.366  1.00  0.00     0.049 H 
ATOM      9  H   UNL A   1      36.407  24.336  26.019  1.00  0.00     0.049 H 
BRANCH   7  10
ATOM     10  N   UNL A   1      37.228  23.329  24.473  1.00  0.00    -0.352 N 
ATOM     11  C   UNL A   1      36.256  23.007  23.548  1.00  0.00     0.254 C 
ATOM     12  O   UNL A   1      36.629  22.957  22.376  1.00  0.00    -0.269 OA
ATOM     13  H   UNL A   1      38.136  23.411  24.101  1.00  0.00     0.163 HD
BRANCH  11  14
ATOM     14  C   UNL A   1      34.881  22.657  23.937  1.00  0.00     0.073 A 
ATOM     15  C   UNL A   1      32.603  22.888  24.297  1.00  0.00     0.086 A 
ATOM     16  C   UNL A   1      33.782  23.584  24.018  1.00  0.00     0.022 A 
ATOM     17  N   UNL A   1      32.957  21.552  24.407  1.00  0.00    -0.314 N 
ATOM     18  C   UNL A   1      34.356  21.460  24.412  1.00  0.00     0.059 A 
ATOM     19  C   UNL A   1      32.152  20.408  24.513  1.00  0.00     0.009 A 
ATOM     20  C   UNL A   1      34.913  20.211  24.833  1.00  0.00    -0.037 A 
ATOM     21  C   UNL A   1      32.701  19.206  24.744  1.00  0.00    -0.045 A 
ATOM     22  H   UNL A   1      31.128  20.491  24.411  1.00  0.00     0.082 H 
ATOM     23  C   UNL A   1      34.130  19.126  24.960  1.00  0.00    -0.059 A 
ATOM     24  H   UNL A   1      35.921  20.143  25.039  1.00  0.00     0.065 H 
ATOM     25  H   UNL A   1      32.118  18.356  24.768  1.00  0.00     0.064 H 
ATOM     26  H   UNL A   1      34.554  18.221  25.216  1.00  0.00     0.062 H 
BRANCH  15  27
ATOM     27  C   UNL A   1      31.217  23.468  24.393  1.00  0.00     0.116 C 
ATOM     28  H   UNL A   1      30.620  22.793  24.971  1.00  0.00     0.099 H 
ATOM     29  H   UNL A   1      31.342  24.435  24.833  1.00  0.00     0.099 H 
BRANCH  27  30
ATOM     30  N   UNL A   1      30.528  23.701  23.135  1.00  0.00    -0.353 N 
ATOM     31  H   UNL A   1      31.009  23.202  22.387  1.00  0.00     0.344 HD
ATOM     32  H   UNL A   1      30.522  24.700  22.931  1.00  0.00     0.344 HD
ATOM     33  H   UNL A   1      29.568  23.364  23.206  1.00  0.00     0.344 HD
ENDBRANCH  27  30
ENDBRANCH  15  27
BRANCH  16  34
ATOM     34  C   UNL A   1      33.803  25.031  23.845  1.00  0.00    -0.016 A 
ATOM     35  C   UNL A   1      34.001  25.884  24.934  1.00  0.00    -0.054 A 
ATOM     36  C   UNL A   1      33.620  25.575  22.566  1.00  0.00    -0.054 A 
ATOM     37  C   UNL A   1      34.025  27.268  24.739  1.00  0.00    -0.062 A 
ATOM     38  H   UNL A   1      34.130  25.493  25.879  1.00  0.00     0.063 H 
ATOM     39  C   UNL A   1      33.654  26.955  22.373  1.00  0.00    -0.062 A 
ATOM     40  H   UNL A   1      33.460  24.948  21.761  1.00  0.00     0.063 H 
ATOM     41  C   UNL A   1      33.856  27.801  23.461  1.00  0.00    -0.062 A 
ATOM     42  H   UNL A   1      34.170  27.898  25.544  1.00  0.00     0.062 H 
ATOM     43  H   UNL A   1      33.529  27.350  21.427  1.00  0.00     0.062 H 
ATOM     44  H   UNL A   1      33.882  28.824  23.321  1.00  0.00     0.062 H 
ENDBRANCH  16  34
ENDBRANCH  11  14
ENDBRANCH   7  10
ENDBRANCH   4   7
ENDBRANCH   1   4
BRANCH   1  45
ATOM     45  C   UNL A   1      39.930  22.004  27.028  1.00  0.00    -0.052 C 
ATOM     46  H   UNL A   1      39.113  21.881  27.707  1.00  0.00     0.027 H 
ATOM     47  H   UNL A   1      40.890  22.109  27.490  1.00  0.00     0.027 H 
BRANCH  45  48
ATOM     48  C   UNL A   1      40.032  20.727  26.191  1.00  0.00    -0.036 C 
ATOM     49  H   UNL A   1      40.509  20.979  25.268  1.00  0.00     0.028 H 
ATOM     50  H   UNL A   1      39.027  20.373  26.086  1.00  0.00     0.028 H 
BRANCH  48  51
ATOM     51  C   UNL A   1      40.807  19.573  26.815  1.00  0.00     0.018 C 
ATOM     52  H   UNL A   1      40.128  18.767  27.000  1.00  0.00     0.049 H 
ATOM     53  H   UNL A   1      41.251  19.938  27.717  1.00  0.00     0.049 H 
BRANCH  51  54
ATOM     54  N   UNL A   1      41.882  19.085  25.971  1.00  0.00    -0.352 N 
ATOM     55  C   UNL A   1      42.951  19.755  25.431  1.00  0.00     0.251 C 
ATOM     56  H   UNL A   1      41.837  18.127  25.752  1.00  0.00     0.163 HD
ATOM     57  O   UNL A   1      43.684  19.188  24.628  1.00  0.00    -0.269 OA
BRANCH  55  58
ATOM     58  C   UNL A   1      43.220  21.166  25.794  1.00  0.00     0.039 A 
ATOM     59  C   UNL A   1      43.571  21.459  27.116  1.00  0.00    -0.049 A 
ATOM     60  C   UNL A   1      43.089  22.202  24.865  1.00  0.00    -0.049 A 
ATOM     61  C   UNL A   1      43.823  22.780  27.495  1.00  0.00    -0.053 A 
ATOM     62  H   UNL A   1      43.645  20.700  27.811  1.00  0.00     0.063 H 
ATOM     63  C   UNL A   1      43.419  23.507  25.223  1.00  0.00    -0.053 A 
ATOM     64  H   UNL A   1      42.746  21.998  23.914  1.00  0.00     0.063 H 
ATOM     65  C   UNL A   1      43.768  23.814  26.547  1.00  0.00    -0.014 A 
ATOM     66  H   UNL A   1      44.050  22.997  28.478  1.00  0.00     0.063 H 
ATOM     67  H   UNL A   1      43.407  24.253  24.510  1.00  0.00     0.063 H 
BRANCH  65  68
ATOM     68  C   UNL A   1      44.031  25.223  26.939  1.00  0.00     0.031 A 
ATOM     69  C   UNL A   1      45.403  25.815  26.756  1.00  0.00     0.074 A 
ATOM     70  C   UNL A   1      43.047  25.961  27.491  1.00  0.00     0.049 A 
ATOM     71  N   UNL A   1      45.837  27.014  27.057  1.00  0.00    -0.248 NA
ATOM     72  C   UNL A   1      46.432  24.933  26.183  1.00  0.00    -0.034 C 
ATOM     73  C   UNL A   1      41.690  25.489  27.764  1.00  0.00    -0.036 A 
ATOM     74  N   UNL A   1      43.040  27.264  27.921  1.00  0.00    -0.354 N 
ATOM     75  C   UNL A   1      47.185  27.023  26.721  1.00  0.00     0.074 A 
ATOM     76  C   UNL A   1      47.514  25.694  26.256  1.00  0.00    -0.034 C 
ATOM     77  H   UNL A   1      46.336  23.972  25.818  1.00  0.00     0.065 H 
ATOM     78  C   UNL A   1      40.972  26.496  28.287  1.00  0.00    -0.036 A 
ATOM     79  H   UNL A   1      41.340  24.535  27.584  1.00  0.00     0.065 H 
ATOM     80  C   UNL A   1      41.827  27.672  28.419  1.00  0.00     0.049 A 
ATOM     81  H   UNL A   1      43.829  27.851  27.877  1.00  0.00     0.167 HD
ATOM     82  C   UNL A   1      48.064  28.053  26.768  1.00  0.00     0.037 A 
ATOM     83  H   UNL A   1      48.466  25.379  26.012  1.00  0.00     0.065 H 
ATOM     84  H   UNL A   1      39.976  26.447  28.554  1.00  0.00     0.065 H 
ATOM     85  C   UNL A   1      41.448  28.862  28.924  1.00  0.00     0.037 A 
ATOM     86  C   UNL A   1      47.728  29.382  27.211  1.00  0.00     0.049 A 
ATOM     87  C   UNL A   1      42.444  29.991  28.965  1.00  0.00     0.074 A 
ATOM     88  C   UNL A   1      48.531  30.509  27.251  1.00  0.00    -0.036 A 
ATOM     89  N   UNL A   1      46.484  29.762  27.694  1.00  0.00    -0.354 N 
ATOM     90  N   UNL A   1      43.697  30.006  28.581  1.00  0.00    -0.248 NA
ATOM     91  C   UNL A   1      41.964  31.273  29.498  1.00  0.00    -0.034 C 
ATOM     92  C   UNL A   1      47.789  31.556  27.807  1.00  0.00    -0.036 A 
ATOM     93  H   UNL A   1      49.509  30.566  26.927  1.00  0.00     0.065 H 
ATOM     94  C   UNL A   1      46.503  31.100  28.053  1.00  0.00     0.049 A 
ATOM     95  H   UNL A   1      45.702  29.168  27.770  1.00  0.00     0.167 HD
ATOM     96  C   UNL A   1      44.145  31.304  28.794  1.00  0.00     0.074 A 
ATOM     97  C   UNL A   1      43.022  32.050  29.320  1.00  0.00    -0.034 C 
ATOM     98  H   UNL A   1      41.044  31.507  29.903  1.00  0.00     0.065 H 
ATOM     99  H   UNL A   1      48.139  32.508  28.001  1.00  0.00     0.065 H 
ATOM    100  C   UNL A   1      45.375  31.831  28.572  1.00  0.00     0.037 A 
ATOM    101  H   UNL A   1      43.042  33.060  29.531  1.00  0.00     0.065 H 
BRANCH  82 102
ATOM    102  C   UNL A   1      49.475  27.783  26.326  1.00  0.00     0.064 A 
ATOM    103  C   UNL A   1      50.518  27.607  27.250  1.00  0.00     0.173 A 
ATOM    104  C   UNL A   1      49.787  27.672  24.963  1.00  0.00     0.173 A 
ATOM    105  F   UNL A   1      50.279  27.713  28.566  1.00  0.00    -0.203 F 
ATOM    106  C   UNL A   1      51.822  27.367  26.826  1.00  0.00     0.198 A 
ATOM    107  C   UNL A   1      51.086  27.397  24.542  1.00  0.00     0.198 A 
ATOM    108  F   UNL A   1      48.830  27.826  24.035  1.00  0.00    -0.203 F 
ATOM    109  F   UNL A   1      52.809  27.262  27.726  1.00  0.00    -0.200 F 
ATOM    110  C   UNL A   1      52.104  27.255  25.472  1.00  0.00     0.200 A 
ATOM    111  F   UNL A   1      51.354  27.275  23.235  1.00  0.00    -0.200 F 
ATOM    112  F   UNL A   1      53.359  27.018  25.066  1.00  0.00    -0.200 F 
ENDBRANCH  82 102
BRANCH  85 113
ATOM    113  C   UNL A   1      40.053  29.059  29.402  1.00  0.00     0.064 A 
ATOM    114  C   UNL A   1      39.714  28.841  30.745  1.00  0.00     0.173 A 
ATOM    115  C   UNL A   1      39.030  29.449  28.527  1.00  0.00     0.173 A 
ATOM    116  F   UNL A   1      40.654  28.446  31.617  1.00  0.00    -0.203 F 
ATOM    117  C   UNL A   1      38.399  28.978  31.188  1.00  0.00     0.198 A 
ATOM    118  C   UNL A   1      37.722  29.619  28.978  1.00  0.00     0.198 A 
ATOM    119  F   UNL A   1      39.301  29.677  27.233  1.00  0.00    -0.203 F 
ATOM    120  F   UNL A   1      38.094  28.709  32.465  1.00  0.00    -0.200 F 
ATOM    121  C   UNL A   1      37.405  29.372  30.305  1.00  0.00     0.200 A 
ATOM    122  F   UNL A   1      36.767  30.015  28.125  1.00  0.00    -0.200 F 
ATOM    123  F   UNL A   1      36.143  29.505  30.732  1.00  0.00    -0.200 F 
ENDBRANCH  85 113
BRANCH 100 124
ATOM    124  C   UNL A   1      45.554  33.297  28.856  1.00  0.00     0.064 A 
ATOM    125  C   UNL A   1      45.290  34.278  27.888  1.00  0.00     0.173 A 
ATOM    126  C   UNL A   1      45.987  33.724  30.121  1.00  0.00     0.173 A 
ATOM    127  F   UNL A   1      44.886  33.924  26.660  1.00  0.00    -0.203 F 
ATOM    128  C   UNL A   1      45.495  35.628  28.163  1.00  0.00     0.198 A 
ATOM    129  C   UNL A   1      46.155  35.077  30.403  1.00  0.00     0.198 A 
ATOM    130  F   UNL A   1      46.243  32.829  31.087  1.00  0.00    -0.203 F 
ATOM    131  F   UNL A   1      45.304  36.542  27.201  1.00  0.00    -0.200 F 
ATOM    132  C   UNL A   1      45.922  36.027  29.420  1.00  0.00     0.200 A 
ATOM    133  F   UNL A   1      46.550  35.461  31.625  1.00  0.00    -0.200 F 
ATOM    134  F   UNL A   1      46.120  37.326  29.682  1.00  0.00    -0.200 F 
ENDBRANCH 100 124
ENDBRANCH  65  68
ENDBRANCH  55  58
ENDBRANCH  51  54
ENDBRANCH  48  51
ENDBRANCH  45  48
ENDBRANCH   1  45
TORSDOF 16
ENDMDL
MODEL 10
REMARK VINA RESULT:     -11.4      1.309      7.731
REMARK SMILES [NH3+]Cc1c(-c2ccccc2)c(C(=O)NCCCCCCNC(=O)c2ccc(-c3c4nc(c(-c5c(F)c(F)c(F)c(F)c5F)c5ccc([nH]5)c(-c5c(F)c(F)c(F)c(F)c5F)c5nc(c(-c6c(F)c(F)c(F)c(F)c6F)c6ccc3[nH]6)C=C5)C=C4)cc2)c2ccccn12
REMARK SMILES IDX 17 1 16 4 15 7 14 10 12 11 13 12 11 14 3 15 4 16 92 17 87 18
REMARK SMILES IDX 91 19 88 20 90 21 89 23 2 27 1 30 5 34 6 35 10 36 7 37 9 39
REMARK SMILES IDX 8 41 18 45 19 48 20 51 21 54 22 55 23 57 24 58 25 59 86 60
REMARK SMILES IDX 26 61 85 63 27 65 28 68 29 69 79 70 30 71 84 72 78 73 80 74
REMARK SMILES IDX 31 75 83 76 77 78 76 80 32 82 64 85 44 86 63 87 45 88 48 89
REMARK SMILES IDX 62 90 81 91 46 92 47 94 61 96 82 97 49 100 33 102 34 103
REMARK SMILES IDX 42 104 35 105 36 106 40 107 43 108 37 109 38 110 41 111
REMARK SMILES IDX 39 112 65 113 66 114 74 115 67 116 68 117 72 118 75 119
REMARK SMILES IDX 69 120 70 121 73 122 71 123 50 124 51 125 59 126 52 127
REMARK SMILES IDX 53 128 57 129 60 130 54 131 55 132 58 133 56 134
REMARK H PARENT 17 2 17 3 16 5 16 6 15 8 15 9 14 13 91 22 88 24 90 25 89 26
REMARK H PARENT 2 28 2 29 1 31 1 32 1 33 6 38 10 40 7 42 9 43 8 44 18 46 18 47
REMARK H PARENT 19 49 19 50 20 52 20 53 21 56 25 62 86 64 26 66 85 67 84 77
REMARK H PARENT 78 79 80 81 83 83 77 84 45 93 48 95 81 98 46 99 82 101
REMARK Flexibility Score: inf
ROOT
ATOM      1  C   UNL A   1      32.681  30.214  25.759  1.00  0.00    -0.052 C 
ATOM      2  H   UNL A   1      32.587  30.375  24.705  1.00  0.00     0.027 H 
ATOM      3  H   UNL A   1      33.483  30.742  26.231  1.00  0.00     0.027 H 
ENDROOT
BRANCH   1   4
ATOM      4  C   UNL A   1      33.011  28.733  25.970  1.00  0.00    -0.036 C 
ATOM      5  H   UNL A   1      32.534  28.182  25.186  1.00  0.00     0.028 H 
ATOM      6  H   UNL A   1      34.080  28.686  25.971  1.00  0.00     0.028 H 
BRANCH   4   7
ATOM      7  C   UNL A   1      32.587  28.107  27.295  1.00  0.00     0.018 C 
ATOM      8  H   UNL A   1      33.361  27.437  27.606  1.00  0.00     0.049 H 
ATOM      9  H   UNL A   1      32.427  28.923  27.968  1.00  0.00     0.049 H 
BRANCH   7  10
ATOM     10  N   UNL A   1      31.346  27.370  27.263  1.00  0.00    -0.352 N 
ATOM     11  C   UNL A   1      30.904  26.383  26.406  1.00  0.00     0.254 C 
ATOM     12  O   UNL A   1      29.820  25.874  26.691  1.00  0.00    -0.269 OA
ATOM     13  H   UNL A   1      30.708  27.612  27.973  1.00  0.00     0.163 HD
BRANCH  11  14
ATOM     14  C   UNL A   1      31.630  26.021  25.178  1.00  0.00     0.073 A 
ATOM     15  C   UNL A   1      32.347  26.114  22.976  1.00  0.00     0.086 A 
ATOM     16  C   UNL A   1      31.400  26.601  23.880  1.00  0.00     0.022 A 
ATOM     17  N   UNL A   1      33.146  25.232  23.688  1.00  0.00    -0.314 N 
ATOM     18  C   UNL A   1      32.564  25.018  24.946  1.00  0.00     0.059 A 
ATOM     19  C   UNL A   1      34.339  24.592  23.320  1.00  0.00     0.009 A 
ATOM     20  C   UNL A   1      33.060  23.908  25.700  1.00  0.00    -0.037 A 
ATOM     21  C   UNL A   1      34.889  23.664  24.118  1.00  0.00    -0.045 A 
ATOM     22  H   UNL A   1      34.798  24.837  22.429  1.00  0.00     0.082 H 
ATOM     23  C   UNL A   1      34.189  23.281  25.324  1.00  0.00    -0.059 A 
ATOM     24  H   UNL A   1      32.549  23.587  26.536  1.00  0.00     0.065 H 
ATOM     25  H   UNL A   1      35.794  23.231  23.876  1.00  0.00     0.064 H 
ATOM     26  H   UNL A   1      34.561  22.514  25.906  1.00  0.00     0.062 H 
BRANCH  15  27
ATOM     27  C   UNL A   1      32.507  26.517  21.534  1.00  0.00     0.116 C 
ATOM     28  H   UNL A   1      31.980  27.438  21.394  1.00  0.00     0.099 H 
ATOM     29  H   UNL A   1      33.562  26.582  21.371  1.00  0.00     0.099 H 
BRANCH  27  30
ATOM     30  N   UNL A   1      32.018  25.573  20.544  1.00  0.00    -0.353 N 
ATOM     31  H   UNL A   1      31.591  24.777  21.016  1.00  0.00     0.344 HD
ATOM     32  H   UNL A   1      32.797  25.251  19.969  1.00  0.00     0.344 HD
ATOM     33  H   UNL A   1      31.325  26.030  19.952  1.00  0.00     0.344 HD
ENDBRANCH  27  30
ENDBRANCH  15  27
BRANCH  16  34
ATOM     34  C   UNL A   1      30.372  27.555  23.482  1.00  0.00    -0.016 A 
ATOM     35  C   UNL A   1      29.019  27.205  23.499  1.00  0.00    -0.054 A 
ATOM     36  C   UNL A   1      30.748  28.843  23.076  1.00  0.00    -0.054 A 
ATOM     37  C   UNL A   1      28.053  28.142  23.121  1.00  0.00    -0.062 A 
ATOM     38  H   UNL A   1      28.734  26.258  23.790  1.00  0.00     0.063 H 
ATOM     39  C   UNL A   1      29.781  29.778  22.708  1.00  0.00    -0.062 A 
ATOM     40  H   UNL A   1      31.747  29.101  23.049  1.00  0.00     0.063 H 
ATOM     41  C   UNL A   1      28.434  29.427  22.731  1.00  0.00    -0.062 A 
ATOM     42  H   UNL A   1      27.054  27.883  23.132  1.00  0.00     0.062 H 
ATOM     43  H   UNL A   1      30.063  30.729  22.421  1.00  0.00     0.062 H 
ATOM     44  H   UNL A   1      27.715  30.117  22.459  1.00  0.00     0.062 H 
ENDBRANCH  16  34
ENDBRANCH  11  14
ENDBRANCH   7  10
ENDBRANCH   4   7
ENDBRANCH   1   4
BRANCH   1  45
ATOM     45  C   UNL A   1      31.411  30.754  26.421  1.00  0.00    -0.052 C 
ATOM     46  H   UNL A   1      31.320  30.283  27.377  1.00  0.00     0.027 H 
ATOM     47  H   UNL A   1      30.623  30.534  25.731  1.00  0.00     0.027 H 
BRANCH  45  48
ATOM     48  C   UNL A   1      31.332  32.267  26.642  1.00  0.00    -0.036 C 
ATOM     49  H   UNL A   1      30.598  32.448  27.398  1.00  0.00     0.028 H 
ATOM     50  H   UNL A   1      31.092  32.683  25.686  1.00  0.00     0.028 H 
BRANCH  48  51
ATOM     51  C   UNL A   1      32.622  32.952  27.073  1.00  0.00     0.018 C 
ATOM     52  H   UNL A   1      33.263  33.039  26.220  1.00  0.00     0.049 H 
ATOM     53  H   UNL A   1      33.060  32.352  27.843  1.00  0.00     0.049 H 
BRANCH  51  54
ATOM     54  N   UNL A   1      32.408  34.277  27.626  1.00  0.00    -0.352 N 
ATOM     55  C   UNL A   1      33.004  34.890  28.699  1.00  0.00     0.251 C 
ATOM     56  H   UNL A   1      31.731  34.818  27.160  1.00  0.00     0.163 HD
ATOM     57  O   UNL A   1      32.585  35.973  29.092  1.00  0.00    -0.269 OA
BRANCH  55  58
ATOM     58  C   UNL A   1      34.138  34.247  29.403  1.00  0.00     0.039 A 
ATOM     59  C   UNL A   1      35.435  34.493  28.941  1.00  0.00    -0.049 A 
ATOM     60  C   UNL A   1      33.937  33.376  30.477  1.00  0.00    -0.049 A 
ATOM     61  C   UNL A   1      36.526  33.895  29.576  1.00  0.00    -0.053 A 
ATOM     62  H   UNL A   1      35.586  35.116  28.133  1.00  0.00     0.063 H 
ATOM     63  C   UNL A   1      35.030  32.846  31.160  1.00  0.00    -0.053 A 
ATOM     64  H   UNL A   1      32.978  33.125  30.764  1.00  0.00     0.063 H 
ATOM     65  C   UNL A   1      36.335  33.081  30.704  1.00  0.00    -0.014 A 
ATOM     66  H   UNL A   1      37.479  34.053  29.213  1.00  0.00     0.063 H 
ATOM     67  H   UNL A   1      34.878  32.276  32.007  1.00  0.00     0.063 H 
BRANCH  65  68
ATOM     68  C   UNL A   1      37.489  32.439  31.385  1.00  0.00     0.031 A 
ATOM     69  C   UNL A   1      38.233  31.315  30.714  1.00  0.00     0.074 A 
ATOM     70  C   UNL A   1      37.849  32.842  32.619  1.00  0.00     0.049 A 
ATOM     71  N   UNL A   1      39.248  30.613  31.152  1.00  0.00    -0.248 NA
ATOM     72  C   UNL A   1      37.755  30.908  29.384  1.00  0.00    -0.034 C 
ATOM     73  C   UNL A   1      37.181  33.887  33.395  1.00  0.00    -0.036 A 
ATOM     74  N   UNL A   1      38.866  32.419  33.437  1.00  0.00    -0.354 N 
ATOM     75  C   UNL A   1      39.519  29.679  30.159  1.00  0.00     0.074 A 
ATOM     76  C   UNL A   1      38.522  29.859  29.127  1.00  0.00    -0.034 C 
ATOM     77  H   UNL A   1      37.014  31.328  28.801  1.00  0.00     0.065 H 
ATOM     78  C   UNL A   1      37.823  34.046  34.563  1.00  0.00    -0.036 A 
ATOM     79  H   UNL A   1      36.349  34.418  33.092  1.00  0.00     0.065 H 
ATOM     80  C   UNL A   1      38.925  33.091  34.634  1.00  0.00     0.049 A 
ATOM     81  H   UNL A   1      39.495  31.703  33.191  1.00  0.00     0.167 HD
ATOM     82  C   UNL A   1      40.524  28.772  30.099  1.00  0.00     0.037 A 
ATOM     83  H   UNL A   1      38.424  29.251  28.299  1.00  0.00     0.065 H 
ATOM     84  H   UNL A   1      37.577  34.732  35.294  1.00  0.00     0.065 H 
ATOM     85  C   UNL A   1      39.773  32.952  35.671  1.00  0.00     0.037 A 
ATOM     86  C   UNL A   1      41.528  28.610  31.120  1.00  0.00     0.049 A 
ATOM     87  C   UNL A   1      40.882  31.937  35.580  1.00  0.00     0.074 A 
ATOM     88  C   UNL A   1      42.616  27.755  31.133  1.00  0.00    -0.036 A 
ATOM     89  N   UNL A   1      41.564  29.321  32.311  1.00  0.00    -0.354 N 
ATOM     90  N   UNL A   1      41.168  31.106  34.606  1.00  0.00    -0.248 NA
ATOM     91  C   UNL A   1      41.794  31.852  36.728  1.00  0.00    -0.034 C 
ATOM     92  C   UNL A   1      43.281  27.911  32.355  1.00  0.00    -0.036 A 
ATOM     93  H   UNL A   1      42.891  27.114  30.373  1.00  0.00     0.065 H 
ATOM     94  C   UNL A   1      42.644  28.908  33.076  1.00  0.00     0.049 A 
ATOM     95  H   UNL A   1      40.917  30.014  32.575  1.00  0.00     0.167 HD
ATOM     96  C   UNL A   1      42.310  30.426  35.009  1.00  0.00     0.074 A 
ATOM     97  C   UNL A   1      42.675  30.958  36.306  1.00  0.00    -0.034 C 
ATOM     98  H   UNL A   1      41.758  32.358  37.627  1.00  0.00     0.065 H 
ATOM     99  H   UNL A   1      44.105  27.373  32.666  1.00  0.00     0.065 H 
ATOM    100  C   UNL A   1      42.997  29.450  34.364  1.00  0.00     0.037 A 
ATOM    101  H   UNL A   1      43.514  30.675  36.835  1.00  0.00     0.065 H 
BRANCH  82 102
ATOM    102  C   UNL A   1      40.588  27.886  28.888  1.00  0.00     0.064 A 
ATOM    103  C   UNL A   1      41.385  28.208  27.777  1.00  0.00     0.173 A 
ATOM    104  C   UNL A   1      39.864  26.685  28.844  1.00  0.00     0.173 A 
ATOM    105  F   UNL A   1      42.090  29.349  27.761  1.00  0.00    -0.203 F 
ATOM    106  C   UNL A   1      41.426  27.381  26.657  1.00  0.00     0.198 A 
ATOM    107  C   UNL A   1      39.935  25.843  27.736  1.00  0.00     0.198 A 
ATOM    108  F   UNL A   1      39.089  26.323  29.878  1.00  0.00    -0.203 F 
ATOM    109  F   UNL A   1      42.149  27.741  25.588  1.00  0.00    -0.200 F 
ATOM    110  C   UNL A   1      40.707  26.195  26.641  1.00  0.00     0.200 A 
ATOM    111  F   UNL A   1      39.250  24.690  27.728  1.00  0.00    -0.200 F 
ATOM    112  F   UNL A   1      40.752  25.398  25.565  1.00  0.00    -0.200 F 
ENDBRANCH  82 102
BRANCH  85 113
ATOM    113  C   UNL A   1      39.630  33.816  36.873  1.00  0.00     0.064 A 
ATOM    114  C   UNL A   1      38.881  33.393  37.980  1.00  0.00     0.173 A 
ATOM    115  C   UNL A   1      40.219  35.087  36.934  1.00  0.00     0.173 A 
ATOM    116  F   UNL A   1      38.279  32.194  37.963  1.00  0.00    -0.203 F 
ATOM    117  C   UNL A   1      38.704  34.218  39.090  1.00  0.00     0.198 A 
ATOM    118  C   UNL A   1      40.070  35.897  38.057  1.00  0.00     0.198 A 
ATOM    119  F   UNL A   1      40.952  35.538  35.905  1.00  0.00    -0.203 F 
ATOM    120  F   UNL A   1      37.937  33.810  40.109  1.00  0.00    -0.200 F 
ATOM    121  C   UNL A   1      39.303  35.468  39.129  1.00  0.00     0.200 A 
ATOM    122  F   UNL A   1      40.664  37.098  38.098  1.00  0.00    -0.200 F 
ATOM    123  F   UNL A   1      39.134  36.260  40.196  1.00  0.00    -0.200 F 
ENDBRANCH  85 113
BRANCH 100 124
ATOM    124  C   UNL A   1      44.238  28.928  35.033  1.00  0.00     0.064 A 
ATOM    125  C   UNL A   1      45.495  29.517  34.828  1.00  0.00     0.173 A 
ATOM    126  C   UNL A   1      44.164  27.827  35.900  1.00  0.00     0.173 A 
ATOM    127  F   UNL A   1      45.624  30.563  33.999  1.00  0.00    -0.203 F 
ATOM    128  C   UNL A   1      46.637  28.995  35.432  1.00  0.00     0.198 A 
ATOM    129  C   UNL A   1      45.302  27.332  36.532  1.00  0.00     0.198 A 
ATOM    130  F   UNL A   1      42.985  27.233  36.141  1.00  0.00    -0.203 F 
ATOM    131  F   UNL A   1      47.836  29.531  35.166  1.00  0.00    -0.200 F 
ATOM    132  C   UNL A   1      46.539  27.908  36.286  1.00  0.00     0.200 A 
ATOM    133  F   UNL A   1      45.202  26.292  37.371  1.00  0.00    -0.200 F 
ATOM    134  F   UNL A   1      47.639  27.407  36.865  1.00  0.00    -0.200 F 
ENDBRANCH 100 124
ENDBRANCH  65  68
ENDBRANCH  55  58
ENDBRANCH  51  54
ENDBRANCH  48  51
ENDBRANCH  45  48
ENDBRANCH   1  45
TORSDOF 16
ENDMDL
