MODEL 1
REMARK VINA RESULT:     -12.3      0.000      0.000
REMARK SMILES Cc1c(C)c2c(c(C)c1O)CC[C@@](C)(C(=O)NCCCCCCNC(=O)c1ccc(-c3c4nc(c(-c5c(F)c(F)c(F)c(F)c5F)c5ccc([nH]5)c(-c5c(F)c(F)c(F)c(F)c5F)c5nc(c(-c6c(F)c(F)c(F)c(F)c6F)c6ccc3[nH]6)C=C5)C=C4)cc1)O2
REMARK SMILES IDX 21 1 20 4 19 7 18 10 17 13 15 14 16 15 13 17 2 18 3 19 9 20
REMARK SMILES IDX 5 21 7 22 6 23 90 24 11 25 12 26 1 31 4 35 10 39 8 41 14 45
REMARK SMILES IDX 22 49 23 52 24 55 25 56 26 58 27 59 28 60 89 61 29 62 88 64
REMARK SMILES IDX 30 66 31 69 32 70 82 71 33 72 87 73 81 74 83 75 34 76 86 77
REMARK SMILES IDX 80 79 79 81 35 83 67 86 47 87 66 88 48 89 51 90 65 91 84 92
REMARK SMILES IDX 49 93 50 95 64 97 85 98 52 101 36 103 37 104 45 105 38 106
REMARK SMILES IDX 39 107 43 108 46 109 40 110 41 111 44 112 42 113 68 114
REMARK SMILES IDX 69 115 77 116 70 117 71 118 75 119 78 120 72 121 73 122
REMARK SMILES IDX 76 123 74 124 53 125 54 126 62 127 55 128 56 129 60 130
REMARK SMILES IDX 63 131 57 132 58 133 61 134 59 135
REMARK H PARENT 21 2 21 3 20 5 20 6 19 8 19 9 18 11 18 12 17 16 11 27 11 28
REMARK H PARENT 12 29 12 30 1 32 1 33 1 34 4 36 4 37 4 38 10 40 8 42 8 43 8 44
REMARK H PARENT 14 46 14 47 14 48 22 50 22 51 23 53 23 54 24 57 28 63 89 65
REMARK H PARENT 29 67 88 68 87 78 81 80 83 82 86 84 80 85 48 94 51 96 84 99
REMARK H PARENT 49 100 85 102
REMARK Flexibility Score: inf
ROOT
ATOM      1  C   UNL A   1      31.410  30.726  26.395  1.00  0.00    -0.052 C 
ATOM      2  H   UNL A   1      31.178  30.323  27.359  1.00  0.00     0.027 H 
ATOM      3  H   UNL A   1      30.682  30.486  25.648  1.00  0.00     0.027 H 
ENDROOT
BRANCH   1   4
ATOM      4  C   UNL A   1      32.729  30.103  25.925  1.00  0.00    -0.052 C 
ATOM      5  H   UNL A   1      33.435  30.893  25.772  1.00  0.00     0.027 H 
ATOM      6  H   UNL A   1      33.027  29.414  26.687  1.00  0.00     0.027 H 
BRANCH   4   7
ATOM      7  C   UNL A   1      32.629  29.297  24.628  1.00  0.00    -0.036 C 
ATOM      8  H   UNL A   1      31.663  28.838  24.589  1.00  0.00     0.028 H 
ATOM      9  H   UNL A   1      32.787  29.980  23.821  1.00  0.00     0.028 H 
BRANCH   7  10
ATOM     10  C   UNL A   1      33.688  28.204  24.505  1.00  0.00     0.017 C 
ATOM     11  H   UNL A   1      34.654  28.638  24.652  1.00  0.00     0.049 H 
ATOM     12  H   UNL A   1      33.490  27.458  25.245  1.00  0.00     0.049 H 
BRANCH  10  13
ATOM     13  N   UNL A   1      33.646  27.572  23.197  1.00  0.00    -0.353 N 
ATOM     14  C   UNL A   1      33.521  26.257  22.832  1.00  0.00     0.263 C 
ATOM     15  O   UNL A   1      33.557  26.016  21.623  1.00  0.00    -0.270 OA
ATOM     16  H   UNL A   1      33.723  28.198  22.441  1.00  0.00     0.163 HD
BRANCH  14  17
ATOM     17  C   UNL A   1      33.315  25.151  23.904  1.00  0.00     0.184 C 
ATOM     18  C   UNL A   1      32.747  20.399  24.364  1.00  0.00    -0.002 A 
ATOM     19  C   UNL A   1      32.771  21.556  23.547  1.00  0.00    -0.002 A 
ATOM     20  C   UNL A   1      33.168  20.504  25.705  1.00  0.00     0.122 A 
ATOM     21  C   UNL A   1      33.270  22.761  24.075  1.00  0.00     0.127 A 
ATOM     22  C   UNL A   1      33.682  21.698  26.232  1.00  0.00    -0.002 A 
ATOM     23  C   UNL A   1      33.766  22.826  25.393  1.00  0.00     0.001 A 
ATOM     24  O   UNL A   1      33.235  23.865  23.247  1.00  0.00    -0.477 OA
ATOM     25  C   UNL A   1      34.339  24.111  25.923  1.00  0.00    -0.019 C 
ATOM     26  C   UNL A   1      34.555  25.099  24.801  1.00  0.00     0.000 C 
ATOM     27  H   UNL A   1      35.276  23.909  26.400  1.00  0.00     0.032 H 
ATOM     28  H   UNL A   1      33.650  24.532  26.625  1.00  0.00     0.032 H 
ATOM     29  H   UNL A   1      35.401  24.795  24.220  1.00  0.00     0.032 H 
ATOM     30  H   UNL A   1      34.730  26.069  25.216  1.00  0.00     0.032 H 
BRANCH  18  31
ATOM     31  C   UNL A   1      32.221  19.096  23.818  1.00  0.00    -0.036 C 
ATOM     32  H   UNL A   1      33.030  18.529  23.406  1.00  0.00     0.028 H 
ATOM     33  H   UNL A   1      31.500  19.295  23.054  1.00  0.00     0.028 H 
ATOM     34  H   UNL A   1      31.761  18.538  24.608  1.00  0.00     0.028 H 
ENDBRANCH  18  31
BRANCH  19  35
ATOM     35  C   UNL A   1      32.266  21.504  22.125  1.00  0.00    -0.036 C 
ATOM     36  H   UNL A   1      32.550  20.574  21.680  1.00  0.00     0.028 H 
ATOM     37  H   UNL A   1      32.690  22.312  21.566  1.00  0.00     0.028 H 
ATOM     38  H   UNL A   1      31.199  21.589  22.122  1.00  0.00     0.028 H 
ENDBRANCH  19  35
BRANCH  20  39
ATOM     39  O   UNL A   1      33.089  19.439  26.565  1.00  0.00    -0.507 OA
ATOM     40  H   UNL A   1      33.736  19.329  27.234  1.00  0.00     0.293 HD
ENDBRANCH  20  39
BRANCH  22  41
ATOM     41  C   UNL A   1      34.125  21.791  27.671  1.00  0.00    -0.036 C 
ATOM     42  H   UNL A   1      34.605  22.734  27.836  1.00  0.00     0.028 H 
ATOM     43  H   UNL A   1      34.812  20.999  27.884  1.00  0.00     0.028 H 
ATOM     44  H   UNL A   1      33.274  21.708  28.313  1.00  0.00     0.028 H 
ENDBRANCH  22  41
BRANCH  17  45
ATOM     45  C   UNL A   1      31.938  25.398  24.558  1.00  0.00    -0.016 C 
ATOM     46  H   UNL A   1      31.223  24.714  24.152  1.00  0.00     0.028 H 
ATOM     47  H   UNL A   1      31.624  26.402  24.359  1.00  0.00     0.028 H 
ATOM     48  H   UNL A   1      32.013  25.252  25.615  1.00  0.00     0.028 H 
ENDBRANCH  17  45
ENDBRANCH  14  17
ENDBRANCH  10  13
ENDBRANCH   7  10
ENDBRANCH   4   7
ENDBRANCH   1   4
BRANCH   1  49
ATOM     49  C   UNL A   1      31.423  32.252  26.508  1.00  0.00    -0.036 C 
ATOM     50  H   UNL A   1      30.543  32.557  27.034  1.00  0.00     0.028 H 
ATOM     51  H   UNL A   1      31.461  32.634  25.509  1.00  0.00     0.028 H 
BRANCH  49  52
ATOM     52  C   UNL A   1      32.636  32.815  27.237  1.00  0.00     0.018 C 
ATOM     53  H   UNL A   1      33.487  32.755  26.591  1.00  0.00     0.049 H 
ATOM     54  H   UNL A   1      32.786  32.237  28.126  1.00  0.00     0.049 H 
BRANCH  52  55
ATOM     55  N   UNL A   1      32.438  34.201  27.628  1.00  0.00    -0.352 N 
ATOM     56  C   UNL A   1      33.026  34.907  28.644  1.00  0.00     0.251 C 
ATOM     57  H   UNL A   1      31.790  34.705  27.084  1.00  0.00     0.163 HD
ATOM     58  O   UNL A   1      32.591  36.008  28.974  1.00  0.00    -0.269 OA
BRANCH  56  59
ATOM     59  C   UNL A   1      34.181  34.328  29.359  1.00  0.00     0.039 A 
ATOM     60  C   UNL A   1      33.956  33.592  30.523  1.00  0.00    -0.049 A 
ATOM     61  C   UNL A   1      35.480  34.511  28.875  1.00  0.00    -0.049 A 
ATOM     62  C   UNL A   1      35.034  32.994  31.177  1.00  0.00    -0.053 A 
ATOM     63  H   UNL A   1      33.000  33.491  30.899  1.00  0.00     0.063 H 
ATOM     64  C   UNL A   1      36.542  33.849  29.481  1.00  0.00    -0.053 A 
ATOM     65  H   UNL A   1      35.650  35.136  28.072  1.00  0.00     0.063 H 
ATOM     66  C   UNL A   1      36.329  33.094  30.644  1.00  0.00    -0.014 A 
ATOM     67  H   UNL A   1      34.878  32.475  32.055  1.00  0.00     0.063 H 
ATOM     68  H   UNL A   1      37.487  33.913  29.074  1.00  0.00     0.063 H 
BRANCH  66  69
ATOM     69  C   UNL A   1      37.480  32.433  31.305  1.00  0.00     0.031 A 
ATOM     70  C   UNL A   1      38.212  31.322  30.609  1.00  0.00     0.074 A 
ATOM     71  C   UNL A   1      37.838  32.807  32.548  1.00  0.00     0.049 A 
ATOM     72  N   UNL A   1      39.222  30.605  31.031  1.00  0.00    -0.248 NA
ATOM     73  C   UNL A   1      37.729  30.951  29.270  1.00  0.00    -0.034 C 
ATOM     74  C   UNL A   1      37.179  33.847  33.337  1.00  0.00    -0.036 A 
ATOM     75  N   UNL A   1      38.844  32.354  33.364  1.00  0.00    -0.354 N 
ATOM     76  C   UNL A   1      39.491  29.702  30.013  1.00  0.00     0.074 A 
ATOM     77  C   UNL A   1      38.497  29.911  28.984  1.00  0.00    -0.034 C 
ATOM     78  H   UNL A   1      36.985  31.386  28.702  1.00  0.00     0.065 H 
ATOM     79  C   UNL A   1      37.820  33.980  34.509  1.00  0.00    -0.036 A 
ATOM     80  H   UNL A   1      36.354  34.391  33.041  1.00  0.00     0.065 H 
ATOM     81  C   UNL A   1      38.909  33.008  34.569  1.00  0.00     0.049 A 
ATOM     82  H   UNL A   1      39.461  31.630  33.110  1.00  0.00     0.167 HD
ATOM     83  C   UNL A   1      40.499  28.800  29.930  1.00  0.00     0.037 A 
ATOM     84  H   UNL A   1      38.399  29.327  28.138  1.00  0.00     0.065 H 
ATOM     85  H   UNL A   1      37.581  34.659  35.248  1.00  0.00     0.065 H 
ATOM     86  C   UNL A   1      39.752  32.843  35.607  1.00  0.00     0.037 A 
ATOM     87  C   UNL A   1      41.491  28.607  30.954  1.00  0.00     0.049 A 
ATOM     88  C   UNL A   1      40.841  31.810  35.510  1.00  0.00     0.074 A 
ATOM     89  C   UNL A   1      42.580  27.753  30.947  1.00  0.00    -0.036 A 
ATOM     90  N   UNL A   1      41.512  29.273  32.171  1.00  0.00    -0.354 N 
ATOM     91  N   UNL A   1      41.128  31.004  34.517  1.00  0.00    -0.248 NA
ATOM     92  C   UNL A   1      41.725  31.666  36.676  1.00  0.00    -0.034 C 
ATOM     93  C   UNL A   1      43.224  27.859  32.183  1.00  0.00    -0.036 A 
ATOM     94  H   UNL A   1      42.867  27.144  30.164  1.00  0.00     0.065 H 
ATOM     95  C   UNL A   1      42.575  28.823  32.938  1.00  0.00     0.049 A 
ATOM     96  H   UNL A   1      40.867  29.962  32.449  1.00  0.00     0.167 HD
ATOM     97  C   UNL A   1      42.233  30.271  34.927  1.00  0.00     0.074 A 
ATOM     98  C   UNL A   1      42.576  30.741  36.253  1.00  0.00    -0.034 C 
ATOM     99  H   UNL A   1      41.692  32.157  37.583  1.00  0.00     0.065 H 
ATOM    100  H   UNL A   1      44.044  27.310  32.483  1.00  0.00     0.065 H 
ATOM    101  C   UNL A   1      42.901  29.296  34.261  1.00  0.00     0.037 A 
ATOM    102  H   UNL A   1      43.381  30.398  36.801  1.00  0.00     0.065 H 
BRANCH  83 103
ATOM    103  C   UNL A   1      40.575  27.957  28.689  1.00  0.00     0.064 A 
ATOM    104  C   UNL A   1      41.325  28.358  27.572  1.00  0.00     0.173 A 
ATOM    105  C   UNL A   1      39.915  26.721  28.624  1.00  0.00     0.173 A 
ATOM    106  F   UNL A   1      41.966  29.538  27.577  1.00  0.00    -0.203 F 
ATOM    107  C   UNL A   1      41.386  27.569  26.427  1.00  0.00     0.198 A 
ATOM    108  C   UNL A   1      40.007  25.918  27.490  1.00  0.00     0.198 A 
ATOM    109  F   UNL A   1      39.187  26.286  29.664  1.00  0.00    -0.203 F 
ATOM    110  F   UNL A   1      42.063  28.001  25.353  1.00  0.00    -0.200 F 
ATOM    111  C   UNL A   1      40.734  26.347  26.390  1.00  0.00     0.200 A 
ATOM    112  F   UNL A   1      39.389  24.729  27.461  1.00  0.00    -0.200 F 
ATOM    113  F   UNL A   1      40.799  25.584  25.289  1.00  0.00    -0.200 F 
ENDBRANCH  83 103
BRANCH  86 114
ATOM    114  C   UNL A   1      39.615  33.718  36.801  1.00  0.00     0.064 A 
ATOM    115  C   UNL A   1      40.212  34.985  36.832  1.00  0.00     0.173 A 
ATOM    116  C   UNL A   1      38.836  33.335  37.903  1.00  0.00     0.173 A 
ATOM    117  F   UNL A   1      40.981  35.388  35.809  1.00  0.00    -0.203 F 
ATOM    118  C   UNL A   1      40.032  35.839  37.918  1.00  0.00     0.198 A 
ATOM    119  C   UNL A   1      38.635  34.200  38.977  1.00  0.00     0.198 A 
ATOM    120  F   UNL A   1      38.239  32.135  37.919  1.00  0.00    -0.203 F 
ATOM    121  F   UNL A   1      40.628  37.039  37.931  1.00  0.00    -0.200 F 
ATOM    122  C   UNL A   1      39.234  35.451  38.984  1.00  0.00     0.200 A 
ATOM    123  F   UNL A   1      37.849  33.827  39.996  1.00  0.00    -0.200 F 
ATOM    124  F   UNL A   1      39.041  36.282  40.017  1.00  0.00    -0.200 F 
ENDBRANCH  86 114
BRANCH 101 125
ATOM    125  C   UNL A   1      44.078  28.664  34.948  1.00  0.00     0.064 A 
ATOM    126  C   UNL A   1      45.363  29.219  34.859  1.00  0.00     0.173 A 
ATOM    127  C   UNL A   1      43.903  27.541  35.774  1.00  0.00     0.173 A 
ATOM    128  F   UNL A   1      45.586  30.284  34.075  1.00  0.00    -0.203 F 
ATOM    129  C   UNL A   1      46.431  28.666  35.563  1.00  0.00     0.198 A 
ATOM    130  C   UNL A   1      44.966  27.012  36.499  1.00  0.00     0.198 A 
ATOM    131  F   UNL A   1      42.692  26.977  35.900  1.00  0.00    -0.203 F 
ATOM    132  F   UNL A   1      47.657  29.193  35.437  1.00  0.00    -0.200 F 
ATOM    133  C   UNL A   1      46.230  27.572  36.390  1.00  0.00     0.200 A 
ATOM    134  F   UNL A   1      44.764  25.967  37.314  1.00  0.00    -0.200 F 
ATOM    135  F   UNL A   1      47.254  27.056  37.084  1.00  0.00    -0.200 F 
ENDBRANCH 101 125
ENDBRANCH  66  69
ENDBRANCH  56  59
ENDBRANCH  52  55
ENDBRANCH  49  52
ENDBRANCH   1  49
TORSDOF 18
ENDMDL
MODEL 2
REMARK VINA RESULT:     -12.2      0.196      1.137
REMARK SMILES Cc1c(C)c2c(c(C)c1O)CC[C@@](C)(C(=O)NCCCCCCNC(=O)c1ccc(-c3c4nc(c(-c5c(F)c(F)c(F)c(F)c5F)c5ccc([nH]5)c(-c5c(F)c(F)c(F)c(F)c5F)c5nc(c(-c6c(F)c(F)c(F)c(F)c6F)c6ccc3[nH]6)C=C5)C=C4)cc1)O2
REMARK SMILES IDX 21 1 20 4 19 7 18 10 17 13 15 14 16 15 13 17 2 18 3 19 9 20
REMARK SMILES IDX 5 21 7 22 6 23 90 24 11 25 12 26 1 31 4 35 10 39 8 41 14 45
REMARK SMILES IDX 22 49 23 52 24 55 25 56 26 58 27 59 28 60 89 61 29 62 88 64
REMARK SMILES IDX 30 66 31 69 32 70 82 71 33 72 87 73 81 74 83 75 34 76 86 77
REMARK SMILES IDX 80 79 79 81 35 83 67 86 47 87 66 88 48 89 51 90 65 91 84 92
REMARK SMILES IDX 49 93 50 95 64 97 85 98 52 101 36 103 37 104 45 105 38 106
REMARK SMILES IDX 39 107 43 108 46 109 40 110 41 111 44 112 42 113 68 114
REMARK SMILES IDX 69 115 77 116 70 117 71 118 75 119 78 120 72 121 73 122
REMARK SMILES IDX 76 123 74 124 53 125 54 126 62 127 55 128 56 129 60 130
REMARK SMILES IDX 63 131 57 132 58 133 61 134 59 135
REMARK H PARENT 21 2 21 3 20 5 20 6 19 8 19 9 18 11 18 12 17 16 11 27 11 28
REMARK H PARENT 12 29 12 30 1 32 1 33 1 34 4 36 4 37 4 38 10 40 8 42 8 43 8 44
REMARK H PARENT 14 46 14 47 14 48 22 50 22 51 23 53 23 54 24 57 28 63 89 65
REMARK H PARENT 29 67 88 68 87 78 81 80 83 82 86 84 80 85 48 94 51 96 84 99
REMARK H PARENT 49 100 85 102
REMARK Flexibility Score: inf
ROOT
ATOM      1  C   UNL A   1      31.436  30.547  26.267  1.00  0.00    -0.052 C 
ATOM      2  H   UNL A   1      31.281  30.060  27.207  1.00  0.00     0.027 H 
ATOM      3  H   UNL A   1      30.670  30.338  25.550  1.00  0.00     0.027 H 
ENDROOT
BRANCH   1   4
ATOM      4  C   UNL A   1      32.743  30.016  25.666  1.00  0.00    -0.052 C 
ATOM      5  H   UNL A   1      33.321  30.853  25.335  1.00  0.00     0.027 H 
ATOM      6  H   UNL A   1      33.222  29.450  26.437  1.00  0.00     0.027 H 
BRANCH   4   7
ATOM      7  C   UNL A   1      32.561  29.065  24.481  1.00  0.00    -0.036 C 
ATOM      8  H   UNL A   1      31.702  28.453  24.667  1.00  0.00     0.028 H 
ATOM      9  H   UNL A   1      32.447  29.671  23.607  1.00  0.00     0.028 H 
BRANCH   7  10
ATOM     10  C   UNL A   1      33.761  28.151  24.240  1.00  0.00     0.017 C 
ATOM     11  H   UNL A   1      34.654  28.739  24.258  1.00  0.00     0.049 H 
ATOM     12  H   UNL A   1      33.779  27.409  25.011  1.00  0.00     0.049 H 
BRANCH  10  13
ATOM     13  N   UNL A   1      33.663  27.476  22.958  1.00  0.00    -0.353 N 
ATOM     14  C   UNL A   1      33.494  26.153  22.644  1.00  0.00     0.263 C 
ATOM     15  O   UNL A   1      33.487  25.870  21.443  1.00  0.00    -0.270 OA
ATOM     16  H   UNL A   1      33.732  28.074  22.178  1.00  0.00     0.163 HD
BRANCH  14  17
ATOM     17  C   UNL A   1      33.295  25.091  23.760  1.00  0.00     0.184 C 
ATOM     18  C   UNL A   1      32.740  20.359  24.411  1.00  0.00    -0.002 A 
ATOM     19  C   UNL A   1      32.759  21.483  23.549  1.00  0.00    -0.002 A 
ATOM     20  C   UNL A   1      33.165  20.519  25.745  1.00  0.00     0.122 A 
ATOM     21  C   UNL A   1      33.257  22.709  24.026  1.00  0.00     0.127 A 
ATOM     22  C   UNL A   1      33.678  21.734  26.222  1.00  0.00    -0.002 A 
ATOM     23  C   UNL A   1      33.757  22.827  25.339  1.00  0.00     0.001 A 
ATOM     24  O   UNL A   1      33.216  23.779  23.155  1.00  0.00    -0.477 OA
ATOM     25  C   UNL A   1      34.329  24.134  25.815  1.00  0.00    -0.019 C 
ATOM     26  C   UNL A   1      34.539  25.077  24.654  1.00  0.00     0.000 C 
ATOM     27  H   UNL A   1      35.268  23.953  26.295  1.00  0.00     0.032 H 
ATOM     28  H   UNL A   1      33.641  24.581  26.502  1.00  0.00     0.032 H 
ATOM     29  H   UNL A   1      35.383  24.752  24.081  1.00  0.00     0.032 H 
ATOM     30  H   UNL A   1      34.713  26.063  25.028  1.00  0.00     0.032 H 
BRANCH  18  31
ATOM     31  C   UNL A   1      32.215  19.034  23.919  1.00  0.00    -0.036 C 
ATOM     32  H   UNL A   1      31.206  18.905  24.251  1.00  0.00     0.028 H 
ATOM     33  H   UNL A   1      32.822  18.244  24.307  1.00  0.00     0.028 H 
ATOM     34  H   UNL A   1      32.244  19.014  22.849  1.00  0.00     0.028 H 
ENDBRANCH  18  31
BRANCH  19  35
ATOM     35  C   UNL A   1      32.249  21.373  22.132  1.00  0.00    -0.036 C 
ATOM     36  H   UNL A   1      33.044  21.059  21.489  1.00  0.00     0.028 H 
ATOM     37  H   UNL A   1      31.883  22.325  21.808  1.00  0.00     0.028 H 
ATOM     38  H   UNL A   1      31.455  20.655  22.093  1.00  0.00     0.028 H 
ENDBRANCH  19  35
BRANCH  20  39
ATOM     39  O   UNL A   1      33.092  19.489  26.648  1.00  0.00    -0.507 OA
ATOM     40  H   UNL A   1      33.498  19.573  27.488  1.00  0.00     0.293 HD
ENDBRANCH  20  39
BRANCH  22  41
ATOM     41  C   UNL A   1      34.127  21.886  27.655  1.00  0.00    -0.036 C 
ATOM     42  H   UNL A   1      34.142  20.926  28.127  1.00  0.00     0.028 H 
ATOM     43  H   UNL A   1      33.446  22.528  28.175  1.00  0.00     0.028 H 
ATOM     44  H   UNL A   1      35.107  22.311  27.679  1.00  0.00     0.028 H 
ENDBRANCH  22  41
BRANCH  17  45
ATOM     45  C   UNL A   1      31.920  25.361  24.408  1.00  0.00    -0.016 C 
ATOM     46  H   UNL A   1      31.748  26.415  24.454  1.00  0.00     0.028 H 
ATOM     47  H   UNL A   1      31.906  24.953  25.397  1.00  0.00     0.028 H 
ATOM     48  H   UNL A   1      31.153  24.899  23.822  1.00  0.00     0.028 H 
ENDBRANCH  17  45
ENDBRANCH  14  17
ENDBRANCH  10  13
ENDBRANCH   7  10
ENDBRANCH   4   7
ENDBRANCH   1   4
BRANCH   1  49
ATOM     49  C   UNL A   1      31.404  32.059  26.502  1.00  0.00    -0.036 C 
ATOM     50  H   UNL A   1      30.522  32.292  27.062  1.00  0.00     0.028 H 
ATOM     51  H   UNL A   1      31.417  32.521  25.537  1.00  0.00     0.028 H 
BRANCH  49  52
ATOM     52  C   UNL A   1      32.609  32.599  27.262  1.00  0.00     0.018 C 
ATOM     53  H   UNL A   1      33.483  32.478  26.656  1.00  0.00     0.049 H 
ATOM     54  H   UNL A   1      32.697  32.052  28.178  1.00  0.00     0.049 H 
BRANCH  52  55
ATOM     55  N   UNL A   1      32.456  34.007  27.590  1.00  0.00    -0.352 N 
ATOM     56  C   UNL A   1      33.083  34.743  28.560  1.00  0.00     0.251 C 
ATOM     57  H   UNL A   1      31.810  34.502  27.035  1.00  0.00     0.163 HD
ATOM     58  O   UNL A   1      32.684  35.869  28.845  1.00  0.00    -0.269 OA
BRANCH  56  59
ATOM     59  C   UNL A   1      34.237  34.167  29.278  1.00  0.00     0.039 A 
ATOM     60  C   UNL A   1      34.005  33.291  30.339  1.00  0.00    -0.049 A 
ATOM     61  C   UNL A   1      35.544  34.492  28.899  1.00  0.00    -0.049 A 
ATOM     62  C   UNL A   1      35.087  32.698  30.990  1.00  0.00    -0.053 A 
ATOM     63  H   UNL A   1      33.041  33.083  30.640  1.00  0.00     0.063 H 
ATOM     64  C   UNL A   1      36.617  33.840  29.495  1.00  0.00    -0.053 A 
ATOM     65  H   UNL A   1      35.710  35.214  28.181  1.00  0.00     0.063 H 
ATOM     66  C   UNL A   1      36.399  32.946  30.553  1.00  0.00    -0.014 A 
ATOM     67  H   UNL A   1      34.923  32.074  31.795  1.00  0.00     0.063 H 
ATOM     68  H   UNL A   1      37.576  34.014  29.157  1.00  0.00     0.063 H 
BRANCH  66  69
ATOM     69  C   UNL A   1      37.558  32.294  31.209  1.00  0.00     0.031 A 
ATOM     70  C   UNL A   1      38.290  31.183  30.514  1.00  0.00     0.074 A 
ATOM     71  C   UNL A   1      37.924  32.677  32.448  1.00  0.00     0.049 A 
ATOM     72  N   UNL A   1      39.307  30.474  30.932  1.00  0.00    -0.248 NA
ATOM     73  C   UNL A   1      37.799  30.802  29.181  1.00  0.00    -0.034 C 
ATOM     74  C   UNL A   1      37.266  33.718  33.235  1.00  0.00    -0.036 A 
ATOM     75  N   UNL A   1      38.938  32.234  33.258  1.00  0.00    -0.354 N 
ATOM     76  C   UNL A   1      39.573  29.566  29.917  1.00  0.00     0.074 A 
ATOM     77  C   UNL A   1      38.569  29.764  28.895  1.00  0.00    -0.034 C 
ATOM     78  H   UNL A   1      37.048  31.230  28.616  1.00  0.00     0.065 H 
ATOM     79  C   UNL A   1      37.915  33.861  34.401  1.00  0.00    -0.036 A 
ATOM     80  H   UNL A   1      36.435  34.256  32.942  1.00  0.00     0.065 H 
ATOM     81  C   UNL A   1      39.009  32.895  34.459  1.00  0.00     0.049 A 
ATOM     82  H   UNL A   1      39.557  31.512  33.003  1.00  0.00     0.167 HD
ATOM     83  C   UNL A   1      40.584  28.668  29.831  1.00  0.00     0.037 A 
ATOM     84  H   UNL A   1      38.468  29.175  28.053  1.00  0.00     0.065 H 
ATOM     85  H   UNL A   1      37.679  34.543  35.139  1.00  0.00     0.065 H 
ATOM     86  C   UNL A   1      39.861  32.740  35.491  1.00  0.00     0.037 A 
ATOM     87  C   UNL A   1      41.585  28.486  30.848  1.00  0.00     0.049 A 
ATOM     88  C   UNL A   1      40.955  31.712  35.392  1.00  0.00     0.074 A 
ATOM     89  C   UNL A   1      42.678  27.638  30.838  1.00  0.00    -0.036 A 
ATOM     90  N   UNL A   1      41.612  29.159  32.061  1.00  0.00    -0.354 N 
ATOM     91  N   UNL A   1      41.238  30.901  34.401  1.00  0.00    -0.248 NA
ATOM     92  C   UNL A   1      41.848  31.579  36.551  1.00  0.00    -0.034 C 
ATOM     93  C   UNL A   1      43.332  27.753  32.068  1.00  0.00    -0.036 A 
ATOM     94  H   UNL A   1      42.962  27.025  30.056  1.00  0.00     0.065 H 
ATOM     95  C   UNL A   1      42.683  28.719  32.823  1.00  0.00     0.049 A 
ATOM     96  H   UNL A   1      40.966  29.846  32.341  1.00  0.00     0.167 HD
ATOM     97  C   UNL A   1      42.350  30.176  34.806  1.00  0.00     0.074 A 
ATOM     98  C   UNL A   1      42.700  30.656  36.127  1.00  0.00    -0.034 C 
ATOM     99  H   UNL A   1      41.819  32.075  37.455  1.00  0.00     0.065 H 
ATOM    100  H   UNL A   1      44.157  27.210  32.365  1.00  0.00     0.065 H 
ATOM    101  C   UNL A   1      43.018  29.201  34.141  1.00  0.00     0.037 A 
ATOM    102  H   UNL A   1      43.511  30.320  36.671  1.00  0.00     0.065 H 
BRANCH  83 103
ATOM    103  C   UNL A   1      40.655  27.819  28.594  1.00  0.00     0.064 A 
ATOM    104  C   UNL A   1      39.991  26.585  28.510  1.00  0.00     0.173 A 
ATOM    105  C   UNL A   1      41.369  28.255  27.468  1.00  0.00     0.173 A 
ATOM    106  F   UNL A   1      39.304  26.114  29.563  1.00  0.00    -0.203 F 
ATOM    107  C   UNL A   1      40.067  25.806  27.359  1.00  0.00     0.198 A 
ATOM    108  C   UNL A   1      41.413  27.490  26.306  1.00  0.00     0.198 A 
ATOM    109  F   UNL A   1      42.018  29.429  27.492  1.00  0.00    -0.203 F 
ATOM    110  F   UNL A   1      39.471  24.605  27.324  1.00  0.00    -0.200 F 
ATOM    111  C   UNL A   1      40.771  26.262  26.255  1.00  0.00     0.200 A 
ATOM    112  F   UNL A   1      42.080  27.940  25.235  1.00  0.00    -0.200 F 
ATOM    113  F   UNL A   1      40.836  25.515  25.145  1.00  0.00    -0.200 F 
ENDBRANCH  83 103
BRANCH  86 114
ATOM    114  C   UNL A   1      39.729  33.621  36.681  1.00  0.00     0.064 A 
ATOM    115  C   UNL A   1      40.414  34.841  36.747  1.00  0.00     0.173 A 
ATOM    116  C   UNL A   1      38.871  33.294  37.741  1.00  0.00     0.173 A 
ATOM    117  F   UNL A   1      41.259  35.189  35.766  1.00  0.00    -0.203 F 
ATOM    118  C   UNL A   1      40.242  35.705  37.828  1.00  0.00     0.198 A 
ATOM    119  C   UNL A   1      38.680  34.170  38.808  1.00  0.00     0.198 A 
ATOM    120  F   UNL A   1      38.188  32.140  37.722  1.00  0.00    -0.203 F 
ATOM    121  F   UNL A   1      40.923  36.858  37.875  1.00  0.00    -0.200 F 
ATOM    122  C   UNL A   1      39.367  35.374  38.851  1.00  0.00     0.200 A 
ATOM    123  F   UNL A   1      37.819  33.854  39.785  1.00  0.00    -0.200 F 
ATOM    124  F   UNL A   1      39.184  36.216  39.877  1.00  0.00    -0.200 F 
ENDBRANCH  86 114
BRANCH 101 125
ATOM    125  C   UNL A   1      44.203  28.579  34.822  1.00  0.00     0.064 A 
ATOM    126  C   UNL A   1      45.481  29.150  34.735  1.00  0.00     0.173 A 
ATOM    127  C   UNL A   1      44.042  27.448  35.641  1.00  0.00     0.173 A 
ATOM    128  F   UNL A   1      45.690  30.222  33.958  1.00  0.00    -0.203 F 
ATOM    129  C   UNL A   1      46.557  28.605  35.434  1.00  0.00     0.198 A 
ATOM    130  C   UNL A   1      45.112  26.928  36.361  1.00  0.00     0.198 A 
ATOM    131  F   UNL A   1      42.838  26.869  35.764  1.00  0.00    -0.203 F 
ATOM    132  F   UNL A   1      47.776  29.148  35.310  1.00  0.00    -0.200 F 
ATOM    133  C   UNL A   1      46.369  27.503  36.255  1.00  0.00     0.200 A 
ATOM    134  F   UNL A   1      44.924  25.875  37.170  1.00  0.00    -0.200 F 
ATOM    135  F   UNL A   1      47.401  26.996  36.943  1.00  0.00    -0.200 F 
ENDBRANCH 101 125
ENDBRANCH  66  69
ENDBRANCH  56  59
ENDBRANCH  52  55
ENDBRANCH  49  52
ENDBRANCH   1  49
TORSDOF 18
ENDMDL
MODEL 3
REMARK VINA RESULT:     -12.2      5.413     10.975
REMARK SMILES Cc1c(C)c2c(c(C)c1O)CC[C@@](C)(C(=O)NCCCCCCNC(=O)c1ccc(-c3c4nc(c(-c5c(F)c(F)c(F)c(F)c5F)c5ccc([nH]5)c(-c5c(F)c(F)c(F)c(F)c5F)c5nc(c(-c6c(F)c(F)c(F)c(F)c6F)c6ccc3[nH]6)C=C5)C=C4)cc1)O2
REMARK SMILES IDX 21 1 20 4 19 7 18 10 17 13 15 14 16 15 13 17 2 18 3 19 9 20
REMARK SMILES IDX 5 21 7 22 6 23 90 24 11 25 12 26 1 31 4 35 10 39 8 41 14 45
REMARK SMILES IDX 22 49 23 52 24 55 25 56 26 58 27 59 28 60 89 61 29 62 88 64
REMARK SMILES IDX 30 66 31 69 32 70 82 71 33 72 87 73 81 74 83 75 34 76 86 77
REMARK SMILES IDX 80 79 79 81 35 83 67 86 47 87 66 88 48 89 51 90 65 91 84 92
REMARK SMILES IDX 49 93 50 95 64 97 85 98 52 101 36 103 37 104 45 105 38 106
REMARK SMILES IDX 39 107 43 108 46 109 40 110 41 111 44 112 42 113 68 114
REMARK SMILES IDX 69 115 77 116 70 117 71 118 75 119 78 120 72 121 73 122
REMARK SMILES IDX 76 123 74 124 53 125 54 126 62 127 55 128 56 129 60 130
REMARK SMILES IDX 63 131 57 132 58 133 61 134 59 135
REMARK H PARENT 21 2 21 3 20 5 20 6 19 8 19 9 18 11 18 12 17 16 11 27 11 28
REMARK H PARENT 12 29 12 30 1 32 1 33 1 34 4 36 4 37 4 38 10 40 8 42 8 43 8 44
REMARK H PARENT 14 46 14 47 14 48 22 50 22 51 23 53 23 54 24 57 28 63 89 65
REMARK H PARENT 29 67 88 68 87 78 81 80 83 82 86 84 80 85 48 94 51 96 84 99
REMARK H PARENT 49 100 85 102
REMARK Flexibility Score: inf
ROOT
ATOM      1  C   UNL A   1      36.556  20.059  25.001  1.00  0.00    -0.052 C 
ATOM      2  H   UNL A   1      35.978  19.835  24.129  1.00  0.00     0.027 H 
ATOM      3  H   UNL A   1      36.373  19.389  25.815  1.00  0.00     0.027 H 
ENDROOT
BRANCH   1   4
ATOM      4  C   UNL A   1      36.155  21.454  25.493  1.00  0.00    -0.052 C 
ATOM      5  H   UNL A   1      36.880  21.776  26.210  1.00  0.00     0.027 H 
ATOM      6  H   UNL A   1      36.112  22.080  24.626  1.00  0.00     0.027 H 
BRANCH   4   7
ATOM      7  C   UNL A   1      34.773  21.527  26.147  1.00  0.00    -0.036 C 
ATOM      8  H   UNL A   1      34.036  21.284  25.410  1.00  0.00     0.028 H 
ATOM      9  H   UNL A   1      34.776  20.835  26.963  1.00  0.00     0.028 H 
BRANCH   7  10
ATOM     10  C   UNL A   1      34.443  22.901  26.726  1.00  0.00     0.017 C 
ATOM     11  H   UNL A   1      35.060  23.075  27.582  1.00  0.00     0.049 H 
ATOM     12  H   UNL A   1      34.625  23.637  25.971  1.00  0.00     0.049 H 
BRANCH  10  13
ATOM     13  N   UNL A   1      33.048  22.987  27.122  1.00  0.00    -0.353 N 
ATOM     14  C   UNL A   1      32.036  23.804  26.691  1.00  0.00     0.263 C 
ATOM     15  O   UNL A   1      30.944  23.668  27.251  1.00  0.00    -0.270 OA
ATOM     16  H   UNL A   1      32.784  22.348  27.823  1.00  0.00     0.163 HD
BRANCH  14  17
ATOM     17  C   UNL A   1      32.268  24.817  25.537  1.00  0.00     0.184 C 
ATOM     18  C   UNL A   1      30.024  28.229  23.000  1.00  0.00    -0.002 A 
ATOM     19  C   UNL A   1      29.969  27.139  23.903  1.00  0.00    -0.002 A 
ATOM     20  C   UNL A   1      31.281  28.762  22.651  1.00  0.00     0.122 A 
ATOM     21  C   UNL A   1      31.162  26.658  24.474  1.00  0.00     0.127 A 
ATOM     22  C   UNL A   1      32.471  28.298  23.230  1.00  0.00    -0.002 A 
ATOM     23  C   UNL A   1      32.402  27.260  24.179  1.00  0.00     0.001 A 
ATOM     24  O   UNL A   1      31.053  25.571  25.318  1.00  0.00    -0.477 OA
ATOM     25  C   UNL A   1      33.659  26.762  24.836  1.00  0.00    -0.019 C 
ATOM     26  C   UNL A   1      33.329  25.830  25.979  1.00  0.00     0.000 C 
ATOM     27  H   UNL A   1      34.214  27.596  25.212  1.00  0.00     0.032 H 
ATOM     28  H   UNL A   1      34.238  26.228  24.113  1.00  0.00     0.032 H 
ATOM     29  H   UNL A   1      32.953  26.400  26.803  1.00  0.00     0.032 H 
ATOM     30  H   UNL A   1      34.213  25.307  26.273  1.00  0.00     0.032 H 
BRANCH  18  31
ATOM     31  C   UNL A   1      28.758  28.764  22.379  1.00  0.00    -0.036 C 
ATOM     32  H   UNL A   1      28.612  29.779  22.685  1.00  0.00     0.028 H 
ATOM     33  H   UNL A   1      27.927  28.172  22.699  1.00  0.00     0.028 H 
ATOM     34  H   UNL A   1      28.838  28.721  21.312  1.00  0.00     0.028 H 
ENDBRANCH  18  31
BRANCH  19  35
ATOM     35  C   UNL A   1      28.649  26.495  24.251  1.00  0.00    -0.036 C 
ATOM     36  H   UNL A   1      28.792  25.792  25.044  1.00  0.00     0.028 H 
ATOM     37  H   UNL A   1      28.261  25.988  23.392  1.00  0.00     0.028 H 
ATOM     38  H   UNL A   1      27.956  27.249  24.563  1.00  0.00     0.028 H 
ENDBRANCH  19  35
BRANCH  20  39
ATOM     39  O   UNL A   1      31.402  29.761  21.720  1.00  0.00    -0.507 OA
ATOM     40  H   UNL A   1      30.764  30.447  21.685  1.00  0.00     0.293 HD
ENDBRANCH  20  39
BRANCH  22  41
ATOM     41  C   UNL A   1      33.809  28.879  22.843  1.00  0.00    -0.036 C 
ATOM     42  H   UNL A   1      33.930  29.835  23.309  1.00  0.00     0.028 H 
ATOM     43  H   UNL A   1      33.853  28.993  21.779  1.00  0.00     0.028 H 
ATOM     44  H   UNL A   1      34.589  28.224  23.165  1.00  0.00     0.028 H 
ENDBRANCH  22  41
BRANCH  17  45
ATOM     45  C   UNL A   1      32.516  23.998  24.252  1.00  0.00    -0.016 C 
ATOM     46  H   UNL A   1      33.281  24.468  23.671  1.00  0.00     0.028 H 
ATOM     47  H   UNL A   1      31.613  23.949  23.680  1.00  0.00     0.028 H 
ATOM     48  H   UNL A   1      32.825  23.008  24.515  1.00  0.00     0.028 H 
ENDBRANCH  17  45
ENDBRANCH  14  17
ENDBRANCH  10  13
ENDBRANCH   7  10
ENDBRANCH   4   7
ENDBRANCH   1   4
BRANCH   1  49
ATOM     49  C   UNL A   1      38.036  19.904  24.642  1.00  0.00    -0.036 C 
ATOM     50  H   UNL A   1      38.248  20.542  23.809  1.00  0.00     0.028 H 
ATOM     51  H   UNL A   1      38.192  18.869  24.420  1.00  0.00     0.028 H 
BRANCH  49  52
ATOM     52  C   UNL A   1      38.994  20.258  25.772  1.00  0.00     0.018 C 
ATOM     53  H   UNL A   1      38.438  20.346  26.682  1.00  0.00     0.049 H 
ATOM     54  H   UNL A   1      39.473  21.183  25.524  1.00  0.00     0.049 H 
BRANCH  52  55
ATOM     55  N   UNL A   1      40.025  19.248  25.946  1.00  0.00    -0.352 N 
ATOM     56  C   UNL A   1      41.373  19.408  26.126  1.00  0.00     0.251 C 
ATOM     57  H   UNL A   1      39.708  18.316  25.934  1.00  0.00     0.163 HD
ATOM     58  O   UNL A   1      42.133  18.447  26.043  1.00  0.00    -0.269 OA
BRANCH  56  59
ATOM     59  C   UNL A   1      41.915  20.753  26.404  1.00  0.00     0.039 A 
ATOM     60  C   UNL A   1      42.192  21.605  25.334  1.00  0.00    -0.049 A 
ATOM     61  C   UNL A   1      42.145  21.168  27.720  1.00  0.00    -0.049 A 
ATOM     62  C   UNL A   1      42.653  22.898  25.587  1.00  0.00    -0.053 A 
ATOM     63  H   UNL A   1      42.057  21.283  24.364  1.00  0.00     0.063 H 
ATOM     64  C   UNL A   1      42.527  22.480  27.973  1.00  0.00    -0.053 A 
ATOM     65  H   UNL A   1      42.032  20.502  28.500  1.00  0.00     0.063 H 
ATOM     66  C   UNL A   1      42.795  23.353  26.908  1.00  0.00    -0.014 A 
ATOM     67  H   UNL A   1      42.889  23.522  24.800  1.00  0.00     0.063 H 
ATOM     68  H   UNL A   1      42.612  22.812  28.945  1.00  0.00     0.063 H 
BRANCH  66  69
ATOM     69  C   UNL A   1      43.247  24.736  27.194  1.00  0.00     0.031 A 
ATOM     70  C   UNL A   1      42.282  25.745  27.745  1.00  0.00     0.074 A 
ATOM     71  C   UNL A   1      44.516  25.092  26.918  1.00  0.00     0.049 A 
ATOM     72  N   UNL A   1      42.478  27.006  28.036  1.00  0.00    -0.248 NA
ATOM     73  C   UNL A   1      40.905  25.282  27.980  1.00  0.00    -0.034 C 
ATOM     74  C   UNL A   1      45.532  24.209  26.347  1.00  0.00    -0.036 A 
ATOM     75  N   UNL A   1      45.166  26.290  27.082  1.00  0.00    -0.354 N 
ATOM     76  C   UNL A   1      41.254  27.482  28.483  1.00  0.00     0.074 A 
ATOM     77  C   UNL A   1      40.304  26.399  28.359  1.00  0.00    -0.034 C 
ATOM     78  H   UNL A   1      40.510  24.334  27.874  1.00  0.00     0.065 H 
ATOM     79  C   UNL A   1      46.688  24.884  26.242  1.00  0.00    -0.036 A 
ATOM     80  H   UNL A   1      45.385  23.227  26.069  1.00  0.00     0.065 H 
ATOM     81  C   UNL A   1      46.484  26.255  26.700  1.00  0.00     0.049 A 
ATOM     82  H   UNL A   1      44.729  27.096  27.439  1.00  0.00     0.167 HD
ATOM     83  C   UNL A   1      40.957  28.706  28.982  1.00  0.00     0.037 A 
ATOM     84  H   UNL A   1      39.292  26.485  28.544  1.00  0.00     0.065 H 
ATOM     85  H   UNL A   1      47.578  24.495  25.892  1.00  0.00     0.065 H 
ATOM     86  C   UNL A   1      47.423  27.221  26.719  1.00  0.00     0.037 A 
ATOM     87  C   UNL A   1      41.911  29.775  29.113  1.00  0.00     0.049 A 
ATOM     88  C   UNL A   1      47.063  28.584  27.243  1.00  0.00     0.074 A 
ATOM     89  C   UNL A   1      41.724  31.036  29.650  1.00  0.00    -0.036 A 
ATOM     90  N   UNL A   1      43.233  29.710  28.696  1.00  0.00    -0.354 N 
ATOM     91  N   UNL A   1      45.919  29.008  27.724  1.00  0.00    -0.248 NA
ATOM     92  C   UNL A   1      48.123  29.602  27.230  1.00  0.00    -0.034 C 
ATOM     93  C   UNL A   1      42.914  31.754  29.502  1.00  0.00    -0.036 A 
ATOM     94  H   UNL A   1      40.854  31.386  30.084  1.00  0.00     0.065 H 
ATOM     95  C   UNL A   1      43.864  30.921  28.931  1.00  0.00     0.049 A 
ATOM     96  H   UNL A   1      43.660  28.921  28.291  1.00  0.00     0.167 HD
ATOM     97  C   UNL A   1      46.124  30.332  28.088  1.00  0.00     0.074 A 
ATOM     98  C   UNL A   1      47.508  30.636  27.788  1.00  0.00    -0.034 C 
ATOM     99  H   UNL A   1      49.091  29.529  26.881  1.00  0.00     0.065 H 
ATOM    100  H   UNL A   1      43.060  32.739  29.773  1.00  0.00     0.065 H 
ATOM    101  C   UNL A   1      45.242  31.214  28.621  1.00  0.00     0.037 A 
ATOM    102  H   UNL A   1      47.959  31.544  27.983  1.00  0.00     0.065 H 
BRANCH  83 103
ATOM    103  C   UNL A   1      39.542  28.950  29.425  1.00  0.00     0.064 A 
ATOM    104  C   UNL A   1      39.134  28.712  30.747  1.00  0.00     0.173 A 
ATOM    105  C   UNL A   1      38.590  29.454  28.527  1.00  0.00     0.173 A 
ATOM    106  F   UNL A   1      40.002  28.219  31.644  1.00  0.00    -0.203 F 
ATOM    107  C   UNL A   1      37.819  28.940  31.144  1.00  0.00     0.198 A 
ATOM    108  C   UNL A   1      37.285  29.714  28.936  1.00  0.00     0.198 A 
ATOM    109  F   UNL A   1      38.927  29.703  27.252  1.00  0.00    -0.203 F 
ATOM    110  F   UNL A   1      37.440  28.652  32.398  1.00  0.00    -0.200 F 
ATOM    111  C   UNL A   1      36.898  29.448  30.241  1.00  0.00     0.200 A 
ATOM    112  F   UNL A   1      36.399  30.219  28.067  1.00  0.00    -0.200 F 
ATOM    113  F   UNL A   1      35.635  29.674  30.627  1.00  0.00    -0.200 F 
ENDBRANCH  83 103
BRANCH  86 114
ATOM    114  C   UNL A   1      48.802  26.902  26.267  1.00  0.00     0.064 A 
ATOM    115  C   UNL A   1      49.753  26.403  27.167  1.00  0.00     0.173 A 
ATOM    116  C   UNL A   1      49.179  27.029  24.922  1.00  0.00     0.173 A 
ATOM    117  F   UNL A   1      49.445  26.281  28.467  1.00  0.00    -0.203 F 
ATOM    118  C   UNL A   1      51.027  26.037  26.738  1.00  0.00     0.198 A 
ATOM    119  C   UNL A   1      50.445  26.637  24.490  1.00  0.00     0.198 A 
ATOM    120  F   UNL A   1      48.303  27.496  24.020  1.00  0.00    -0.203 F 
ATOM    121  F   UNL A   1      51.923  25.578  27.623  1.00  0.00    -0.200 F 
ATOM    122  C   UNL A   1      51.368  26.143  25.398  1.00  0.00     0.200 A 
ATOM    123  F   UNL A   1      50.762  26.725  23.191  1.00  0.00    -0.200 F 
ATOM    124  F   UNL A   1      52.585  25.767  24.982  1.00  0.00    -0.200 F 
ENDBRANCH  86 114
BRANCH 101 125
ATOM    125  C   UNL A   1      45.738  32.599  28.923  1.00  0.00     0.064 A 
ATOM    126  C   UNL A   1      45.577  33.651  28.010  1.00  0.00     0.173 A 
ATOM    127  C   UNL A   1      46.301  32.896  30.175  1.00  0.00     0.173 A 
ATOM    128  F   UNL A   1      45.055  33.417  26.797  1.00  0.00    -0.203 F 
ATOM    129  C   UNL A   1      45.973  34.946  28.334  1.00  0.00     0.198 A 
ATOM    130  C   UNL A   1      46.666  34.197  30.506  1.00  0.00     0.198 A 
ATOM    131  F   UNL A   1      46.469  31.927  31.088  1.00  0.00    -0.203 F 
ATOM    132  F   UNL A   1      45.840  35.930  27.433  1.00  0.00    -0.200 F 
ATOM    133  C   UNL A   1      46.505  35.221  29.585  1.00  0.00     0.200 A 
ATOM    134  F   UNL A   1      47.162  34.464  31.723  1.00  0.00    -0.200 F 
ATOM    135  F   UNL A   1      46.864  36.472  29.902  1.00  0.00    -0.200 F 
ENDBRANCH 101 125
ENDBRANCH  66  69
ENDBRANCH  56  59
ENDBRANCH  52  55
ENDBRANCH  49  52
ENDBRANCH   1  49
TORSDOF 18
ENDMDL
MODEL 4
REMARK VINA RESULT:     -12.2      0.703      7.388
REMARK SMILES Cc1c(C)c2c(c(C)c1O)CC[C@@](C)(C(=O)NCCCCCCNC(=O)c1ccc(-c3c4nc(c(-c5c(F)c(F)c(F)c(F)c5F)c5ccc([nH]5)c(-c5c(F)c(F)c(F)c(F)c5F)c5nc(c(-c6c(F)c(F)c(F)c(F)c6F)c6ccc3[nH]6)C=C5)C=C4)cc1)O2
REMARK SMILES IDX 21 1 20 4 19 7 18 10 17 13 15 14 16 15 13 17 2 18 3 19 9 20
REMARK SMILES IDX 5 21 7 22 6 23 90 24 11 25 12 26 1 31 4 35 10 39 8 41 14 45
REMARK SMILES IDX 22 49 23 52 24 55 25 56 26 58 27 59 28 60 89 61 29 62 88 64
REMARK SMILES IDX 30 66 31 69 32 70 82 71 33 72 87 73 81 74 83 75 34 76 86 77
REMARK SMILES IDX 80 79 79 81 35 83 67 86 47 87 66 88 48 89 51 90 65 91 84 92
REMARK SMILES IDX 49 93 50 95 64 97 85 98 52 101 36 103 37 104 45 105 38 106
REMARK SMILES IDX 39 107 43 108 46 109 40 110 41 111 44 112 42 113 68 114
REMARK SMILES IDX 69 115 77 116 70 117 71 118 75 119 78 120 72 121 73 122
REMARK SMILES IDX 76 123 74 124 53 125 54 126 62 127 55 128 56 129 60 130
REMARK SMILES IDX 63 131 57 132 58 133 61 134 59 135
REMARK H PARENT 21 2 21 3 20 5 20 6 19 8 19 9 18 11 18 12 17 16 11 27 11 28
REMARK H PARENT 12 29 12 30 1 32 1 33 1 34 4 36 4 37 4 38 10 40 8 42 8 43 8 44
REMARK H PARENT 14 46 14 47 14 48 22 50 22 51 23 53 23 54 24 57 28 63 89 65
REMARK H PARENT 29 67 88 68 87 78 81 80 83 82 86 84 80 85 48 94 51 96 84 99
REMARK H PARENT 49 100 85 102
REMARK Flexibility Score: inf
ROOT
ATOM      1  C   UNL A   1      31.501  30.456  25.761  1.00  0.00    -0.052 C 
ATOM      2  H   UNL A   1      30.832  29.752  26.212  1.00  0.00     0.027 H 
ATOM      3  H   UNL A   1      31.295  30.633  24.726  1.00  0.00     0.027 H 
ENDROOT
BRANCH   1   4
ATOM      4  C   UNL A   1      32.917  29.874  25.825  1.00  0.00    -0.052 C 
ATOM      5  H   UNL A   1      33.601  30.680  25.995  1.00  0.00     0.027 H 
ATOM      6  H   UNL A   1      32.913  29.152  26.615  1.00  0.00     0.027 H 
BRANCH   4   7
ATOM      7  C   UNL A   1      33.361  29.132  24.563  1.00  0.00    -0.036 C 
ATOM      8  H   UNL A   1      33.760  29.846  23.873  1.00  0.00     0.028 H 
ATOM      9  H   UNL A   1      34.088  28.407  24.865  1.00  0.00     0.028 H 
BRANCH   7  10
ATOM     10  C   UNL A   1      32.231  28.372  23.872  1.00  0.00     0.017 C 
ATOM     11  H   UNL A   1      31.815  27.666  24.560  1.00  0.00     0.049 H 
ATOM     12  H   UNL A   1      31.491  29.079  23.561  1.00  0.00     0.049 H 
BRANCH  10  13
ATOM     13  N   UNL A   1      32.709  27.664  22.698  1.00  0.00    -0.353 N 
ATOM     14  C   UNL A   1      33.085  26.358  22.520  1.00  0.00     0.263 C 
ATOM     15  O   UNL A   1      33.492  26.051  21.397  1.00  0.00    -0.270 OA
ATOM     16  H   UNL A   1      32.777  28.220  21.887  1.00  0.00     0.163 HD
BRANCH  14  17
ATOM     17  C   UNL A   1      32.968  25.333  23.681  1.00  0.00     0.184 C 
ATOM     18  C   UNL A   1      32.817  20.604  24.541  1.00  0.00    -0.002 A 
ATOM     19  C   UNL A   1      32.747  21.686  23.629  1.00  0.00    -0.002 A 
ATOM     20  C   UNL A   1      33.213  20.859  25.870  1.00  0.00     0.122 A 
ATOM     21  C   UNL A   1      33.132  22.971  24.055  1.00  0.00     0.127 A 
ATOM     22  C   UNL A   1      33.614  22.134  26.294  1.00  0.00    -0.002 A 
ATOM     23  C   UNL A   1      33.607  23.190  25.363  1.00  0.00     0.001 A 
ATOM     24  O   UNL A   1      33.008  23.993  23.136  1.00  0.00    -0.477 OA
ATOM     25  C   UNL A   1      34.059  24.561  25.784  1.00  0.00    -0.019 C 
ATOM     26  C   UNL A   1      34.199  25.467  24.583  1.00  0.00     0.000 C 
ATOM     27  H   UNL A   1      35.005  24.484  26.278  1.00  0.00     0.032 H 
ATOM     28  H   UNL A   1      33.329  24.977  26.446  1.00  0.00     0.032 H 
ATOM     29  H   UNL A   1      35.074  25.191  24.031  1.00  0.00     0.032 H 
ATOM     30  H   UNL A   1      34.283  26.480  24.914  1.00  0.00     0.032 H 
BRANCH  18  31
ATOM     31  C   UNL A   1      32.414  19.218  24.106  1.00  0.00    -0.036 C 
ATOM     32  H   UNL A   1      32.551  19.122  23.049  1.00  0.00     0.028 H 
ATOM     33  H   UNL A   1      31.385  19.054  24.348  1.00  0.00     0.028 H 
ATOM     34  H   UNL A   1      33.020  18.495  24.612  1.00  0.00     0.028 H 
ENDBRANCH  18  31
BRANCH  19  35
ATOM     35  C   UNL A   1      32.263  21.470  22.215  1.00  0.00    -0.036 C 
ATOM     36  H   UNL A   1      32.994  21.837  21.527  1.00  0.00     0.028 H 
ATOM     37  H   UNL A   1      31.340  21.993  22.070  1.00  0.00     0.028 H 
ATOM     38  H   UNL A   1      32.109  20.423  22.048  1.00  0.00     0.028 H 
ENDBRANCH  19  35
BRANCH  20  39
ATOM     39  O   UNL A   1      33.220  19.867  26.817  1.00  0.00    -0.507 OA
ATOM     40  H   UNL A   1      33.356  20.082  27.718  1.00  0.00     0.293 HD
ENDBRANCH  20  39
BRANCH  22  41
ATOM     41  C   UNL A   1      34.033  22.387  27.722  1.00  0.00    -0.036 C 
ATOM     42  H   UNL A   1      34.268  21.457  28.195  1.00  0.00     0.028 H 
ATOM     43  H   UNL A   1      33.233  22.864  28.249  1.00  0.00     0.028 H 
ATOM     44  H   UNL A   1      34.895  23.021  27.734  1.00  0.00     0.028 H 
ENDBRANCH  22  41
BRANCH  17  45
ATOM     45  C   UNL A   1      31.568  25.511  24.308  1.00  0.00    -0.016 C 
ATOM     46  H   UNL A   1      31.115  24.552  24.448  1.00  0.00     0.028 H 
ATOM     47  H   UNL A   1      30.957  26.101  23.657  1.00  0.00     0.028 H 
ATOM     48  H   UNL A   1      31.660  26.003  25.253  1.00  0.00     0.028 H 
ENDBRANCH  17  45
ENDBRANCH  14  17
ENDBRANCH  10  13
ENDBRANCH   7  10
ENDBRANCH   4   7
ENDBRANCH   1   4
BRANCH   1  49
ATOM     49  C   UNL A   1      31.324  31.801  26.470  1.00  0.00    -0.036 C 
ATOM     50  H   UNL A   1      30.623  31.670  27.268  1.00  0.00     0.028 H 
ATOM     51  H   UNL A   1      30.986  32.496  25.731  1.00  0.00     0.028 H 
BRANCH  49  52
ATOM     52  C   UNL A   1      32.610  32.374  27.053  1.00  0.00     0.018 C 
ATOM     53  H   UNL A   1      33.386  32.296  26.320  1.00  0.00     0.049 H 
ATOM     54  H   UNL A   1      32.854  31.815  27.933  1.00  0.00     0.049 H 
BRANCH  52  55
ATOM     55  N   UNL A   1      32.459  33.769  27.431  1.00  0.00    -0.352 N 
ATOM     56  C   UNL A   1      33.104  34.476  28.412  1.00  0.00     0.251 C 
ATOM     57  H   UNL A   1      31.799  34.280  26.907  1.00  0.00     0.163 HD
ATOM     58  O   UNL A   1      32.706  35.590  28.743  1.00  0.00    -0.269 OA
BRANCH  56  59
ATOM     59  C   UNL A   1      34.274  33.880  29.086  1.00  0.00     0.039 A 
ATOM     60  C   UNL A   1      34.070  32.899  30.056  1.00  0.00    -0.049 A 
ATOM     61  C   UNL A   1      35.570  34.293  28.756  1.00  0.00    -0.049 A 
ATOM     62  C   UNL A   1      35.170  32.290  30.661  1.00  0.00    -0.053 A 
ATOM     63  H   UNL A   1      33.113  32.624  30.325  1.00  0.00     0.063 H 
ATOM     64  C   UNL A   1      36.664  33.631  29.300  1.00  0.00    -0.053 A 
ATOM     65  H   UNL A   1      35.712  35.086  28.111  1.00  0.00     0.063 H 
ATOM     66  C   UNL A   1      36.474  32.632  30.266  1.00  0.00    -0.014 A 
ATOM     67  H   UNL A   1      35.026  31.586  31.401  1.00  0.00     0.063 H 
ATOM     68  H   UNL A   1      37.618  33.875  28.992  1.00  0.00     0.063 H 
BRANCH  66  69
ATOM     69  C   UNL A   1      37.654  31.968  30.871  1.00  0.00     0.031 A 
ATOM     70  C   UNL A   1      38.103  32.345  32.253  1.00  0.00     0.074 A 
ATOM     71  C   UNL A   1      38.341  31.054  30.160  1.00  0.00     0.049 A 
ATOM     72  N   UNL A   1      39.122  31.898  32.942  1.00  0.00    -0.248 NA
ATOM     73  C   UNL A   1      37.318  33.380  32.943  1.00  0.00    -0.034 C 
ATOM     74  C   UNL A   1      38.020  30.634  28.797  1.00  0.00    -0.036 A 
ATOM     75  N   UNL A   1      39.450  30.315  30.487  1.00  0.00    -0.354 N 
ATOM     76  C   UNL A   1      39.099  32.598  34.141  1.00  0.00     0.074 A 
ATOM     77  C   UNL A   1      38.011  33.547  34.058  1.00  0.00    -0.034 C 
ATOM     78  H   UNL A   1      36.454  33.854  32.637  1.00  0.00     0.065 H 
ATOM     79  C   UNL A   1      38.890  29.685  28.415  1.00  0.00    -0.036 A 
ATOM     80  H   UNL A   1      37.251  31.007  28.220  1.00  0.00     0.065 H 
ATOM     81  C   UNL A   1      39.851  29.459  29.491  1.00  0.00     0.049 A 
ATOM     82  H   UNL A   1      39.914  30.391  31.352  1.00  0.00     0.167 HD
ATOM     83  C   UNL A   1      39.894  32.438  35.225  1.00  0.00     0.037 A 
ATOM     84  H   UNL A   1      37.803  34.261  34.775  1.00  0.00     0.065 H 
ATOM     85  H   UNL A   1      38.881  29.194  27.507  1.00  0.00     0.065 H 
ATOM     86  C   UNL A   1      40.879  28.589  29.451  1.00  0.00     0.037 A 
ATOM     87  C   UNL A   1      40.966  31.482  35.303  1.00  0.00     0.049 A 
ATOM     88  C   UNL A   1      41.773  28.453  30.653  1.00  0.00     0.074 A 
ATOM     89  C   UNL A   1      41.800  31.208  36.373  1.00  0.00    -0.036 A 
ATOM     90  N   UNL A   1      41.357  30.646  34.267  1.00  0.00    -0.354 N 
ATOM     91  N   UNL A   1      41.706  29.073  31.806  1.00  0.00    -0.248 NA
ATOM     92  C   UNL A   1      42.885  27.497  30.549  1.00  0.00    -0.034 C 
ATOM     93  C   UNL A   1      42.733  30.252  35.965  1.00  0.00    -0.036 A 
ATOM     94  H   UNL A   1      41.743  31.638  37.310  1.00  0.00     0.065 H 
ATOM     95  C   UNL A   1      42.444  29.881  34.660  1.00  0.00     0.049 A 
ATOM     96  H   UNL A   1      40.927  30.603  33.383  1.00  0.00     0.167 HD
ATOM     97  C   UNL A   1      42.749  28.572  32.572  1.00  0.00     0.074 A 
ATOM     98  C   UNL A   1      43.425  27.583  31.758  1.00  0.00    -0.034 C 
ATOM     99  H   UNL A   1      43.168  26.913  29.748  1.00  0.00     0.065 H 
ATOM    100  H   UNL A   1      43.508  29.884  36.537  1.00  0.00     0.065 H 
ATOM    101  C   UNL A   1      43.112  28.904  33.836  1.00  0.00     0.037 A 
ATOM    102  H   UNL A   1      44.227  27.017  32.077  1.00  0.00     0.065 H 
BRANCH  83 103
ATOM    103  C   UNL A   1      39.630  33.318  36.414  1.00  0.00     0.064 A 
ATOM    104  C   UNL A   1      38.761  32.923  37.443  1.00  0.00     0.173 A 
ATOM    105  C   UNL A   1      40.275  34.557  36.543  1.00  0.00     0.173 A 
ATOM    106  F   UNL A   1      38.109  31.753  37.365  1.00  0.00    -0.203 F 
ATOM    107  C   UNL A   1      38.523  33.749  38.539  1.00  0.00     0.198 A 
ATOM    108  C   UNL A   1      40.062  35.365  37.656  1.00  0.00     0.198 A 
ATOM    109  F   UNL A   1      41.120  34.983  35.591  1.00  0.00    -0.203 F 
ATOM    110  F   UNL A   1      37.645  33.374  39.480  1.00  0.00    -0.200 F 
ATOM    111  C   UNL A   1      39.179  34.965  38.648  1.00  0.00     0.200 A 
ATOM    112  F   UNL A   1      40.709  36.533  37.769  1.00  0.00    -0.200 F 
ATOM    113  F   UNL A   1      38.955  35.755  39.707  1.00  0.00    -0.200 F 
ENDBRANCH  83 103
BRANCH  86 114
ATOM    114  C   UNL A   1      41.074  27.750  28.240  1.00  0.00     0.064 A 
ATOM    115  C   UNL A   1      41.859  28.205  27.173  1.00  0.00     0.173 A 
ATOM    116  C   UNL A   1      40.536  26.458  28.150  1.00  0.00     0.173 A 
ATOM    117  F   UNL A   1      42.381  29.441  27.204  1.00  0.00    -0.203 F 
ATOM    118  C   UNL A   1      42.103  27.398  26.063  1.00  0.00     0.198 A 
ATOM    119  C   UNL A   1      40.802  25.642  27.053  1.00  0.00     0.198 A 
ATOM    120  F   UNL A   1      39.782  25.974  29.148  1.00  0.00    -0.203 F 
ATOM    121  F   UNL A   1      42.844  27.864  25.048  1.00  0.00    -0.200 F 
ATOM    122  C   UNL A   1      41.585  26.113  26.009  1.00  0.00     0.200 A 
ATOM    123  F   UNL A   1      40.314  24.395  27.015  1.00  0.00    -0.200 F 
ATOM    124  F   UNL A   1      41.841  25.329  24.954  1.00  0.00    -0.200 F 
ENDBRANCH  86 114
BRANCH 101 125
ATOM    125  C   UNL A   1      44.294  28.194  34.431  1.00  0.00     0.064 A 
ATOM    126  C   UNL A   1      44.157  26.959  35.082  1.00  0.00     0.173 A 
ATOM    127  C   UNL A   1      45.590  28.711  34.272  1.00  0.00     0.173 A 
ATOM    128  F   UNL A   1      42.940  26.427  35.270  1.00  0.00    -0.203 F 
ATOM    129  C   UNL A   1      45.271  26.275  35.562  1.00  0.00     0.198 A 
ATOM    130  C   UNL A   1      46.703  28.009  34.724  1.00  0.00     0.198 A 
ATOM    131  F   UNL A   1      45.778  29.885  33.648  1.00  0.00    -0.203 F 
ATOM    132  F   UNL A   1      45.113  25.113  36.211  1.00  0.00    -0.200 F 
ATOM    133  C   UNL A   1      46.543  26.794  35.372  1.00  0.00     0.200 A 
ATOM    134  F   UNL A   1      47.933  28.504  34.522  1.00  0.00    -0.200 F 
ATOM    135  F   UNL A   1      47.615  26.123  35.815  1.00  0.00    -0.200 F 
ENDBRANCH 101 125
ENDBRANCH  66  69
ENDBRANCH  56  59
ENDBRANCH  52  55
ENDBRANCH  49  52
ENDBRANCH   1  49
TORSDOF 18
ENDMDL
MODEL 5
REMARK VINA RESULT:     -12.2      5.322      9.718
REMARK SMILES Cc1c(C)c2c(c(C)c1O)CC[C@@](C)(C(=O)NCCCCCCNC(=O)c1ccc(-c3c4nc(c(-c5c(F)c(F)c(F)c(F)c5F)c5ccc([nH]5)c(-c5c(F)c(F)c(F)c(F)c5F)c5nc(c(-c6c(F)c(F)c(F)c(F)c6F)c6ccc3[nH]6)C=C5)C=C4)cc1)O2
REMARK SMILES IDX 21 1 20 4 19 7 18 10 17 13 15 14 16 15 13 17 2 18 3 19 9 20
REMARK SMILES IDX 5 21 7 22 6 23 90 24 11 25 12 26 1 31 4 35 10 39 8 41 14 45
REMARK SMILES IDX 22 49 23 52 24 55 25 56 26 58 27 59 28 60 89 61 29 62 88 64
REMARK SMILES IDX 30 66 31 69 32 70 82 71 33 72 87 73 81 74 83 75 34 76 86 77
REMARK SMILES IDX 80 79 79 81 35 83 67 86 47 87 66 88 48 89 51 90 65 91 84 92
REMARK SMILES IDX 49 93 50 95 64 97 85 98 52 101 36 103 37 104 45 105 38 106
REMARK SMILES IDX 39 107 43 108 46 109 40 110 41 111 44 112 42 113 68 114
REMARK SMILES IDX 69 115 77 116 70 117 71 118 75 119 78 120 72 121 73 122
REMARK SMILES IDX 76 123 74 124 53 125 54 126 62 127 55 128 56 129 60 130
REMARK SMILES IDX 63 131 57 132 58 133 61 134 59 135
REMARK H PARENT 21 2 21 3 20 5 20 6 19 8 19 9 18 11 18 12 17 16 11 27 11 28
REMARK H PARENT 12 29 12 30 1 32 1 33 1 34 4 36 4 37 4 38 10 40 8 42 8 43 8 44
REMARK H PARENT 14 46 14 47 14 48 22 50 22 51 23 53 23 54 24 57 28 63 89 65
REMARK H PARENT 29 67 88 68 87 78 81 80 83 82 86 84 80 85 48 94 51 96 84 99
REMARK H PARENT 49 100 85 102
REMARK Flexibility Score: inf
ROOT
ATOM      1  C   UNL A   1      36.817  20.632  24.649  1.00  0.00    -0.052 C 
ATOM      2  H   UNL A   1      37.144  21.186  23.793  1.00  0.00     0.027 H 
ATOM      3  H   UNL A   1      35.919  20.076  24.477  1.00  0.00     0.027 H 
ENDROOT
BRANCH   1   4
ATOM      4  C   UNL A   1      36.497  21.629  25.768  1.00  0.00    -0.052 C 
ATOM      5  H   UNL A   1      37.042  21.337  26.641  1.00  0.00     0.027 H 
ATOM      6  H   UNL A   1      36.776  22.595  25.401  1.00  0.00     0.027 H 
BRANCH   4   7
ATOM      7  C   UNL A   1      35.015  21.719  26.139  1.00  0.00    -0.036 C 
ATOM      8  H   UNL A   1      34.434  21.571  25.252  1.00  0.00     0.028 H 
ATOM      9  H   UNL A   1      34.830  20.967  26.877  1.00  0.00     0.028 H 
BRANCH   7  10
ATOM     10  C   UNL A   1      34.620  23.059  26.756  1.00  0.00     0.017 C 
ATOM     11  H   UNL A   1      35.215  23.229  27.628  1.00  0.00     0.049 H 
ATOM     12  H   UNL A   1      34.783  23.826  26.029  1.00  0.00     0.049 H 
BRANCH  10  13
ATOM     13  N   UNL A   1      33.217  23.075  27.131  1.00  0.00    -0.353 N 
ATOM     14  C   UNL A   1      32.172  23.844  26.688  1.00  0.00     0.263 C 
ATOM     15  O   UNL A   1      31.080  23.653  27.230  1.00  0.00    -0.270 OA
ATOM     16  H   UNL A   1      32.973  22.421  27.826  1.00  0.00     0.163 HD
BRANCH  14  17
ATOM     17  C   UNL A   1      32.372  24.872  25.541  1.00  0.00     0.184 C 
ATOM     18  C   UNL A   1      30.036  28.264  23.060  1.00  0.00    -0.002 A 
ATOM     19  C   UNL A   1      30.012  27.164  23.953  1.00  0.00    -0.002 A 
ATOM     20  C   UNL A   1      31.278  28.823  22.703  1.00  0.00     0.122 A 
ATOM     21  C   UNL A   1      31.219  26.701  24.507  1.00  0.00     0.127 A 
ATOM     22  C   UNL A   1      32.483  28.377  23.265  1.00  0.00    -0.002 A 
ATOM     23  C   UNL A   1      32.444  27.329  24.204  1.00  0.00     0.001 A 
ATOM     24  O   UNL A   1      31.141  25.605  25.341  1.00  0.00    -0.477 OA
ATOM     25  C   UNL A   1      33.718  26.849  24.844  1.00  0.00    -0.019 C 
ATOM     26  C   UNL A   1      33.418  25.902  25.980  1.00  0.00     0.000 C 
ATOM     27  H   UNL A   1      34.261  27.691  25.221  1.00  0.00     0.032 H 
ATOM     28  H   UNL A   1      34.299  26.333  24.108  1.00  0.00     0.032 H 
ATOM     29  H   UNL A   1      33.041  26.456  26.814  1.00  0.00     0.032 H 
ATOM     30  H   UNL A   1      34.316  25.393  26.260  1.00  0.00     0.032 H 
BRANCH  18  31
ATOM     31  C   UNL A   1      28.753  28.780  22.458  1.00  0.00    -0.036 C 
ATOM     32  H   UNL A   1      27.931  28.191  22.811  1.00  0.00     0.028 H 
ATOM     33  H   UNL A   1      28.807  28.713  21.392  1.00  0.00     0.028 H 
ATOM     34  H   UNL A   1      28.609  29.801  22.746  1.00  0.00     0.028 H 
ENDBRANCH  18  31
BRANCH  19  35
ATOM     35  C   UNL A   1      28.708  26.491  24.310  1.00  0.00    -0.036 C 
ATOM     36  H   UNL A   1      28.405  26.795  25.289  1.00  0.00     0.028 H 
ATOM     37  H   UNL A   1      28.836  25.429  24.289  1.00  0.00     0.028 H 
ATOM     38  H   UNL A   1      27.956  26.773  23.601  1.00  0.00     0.028 H 
ENDBRANCH  19  35
BRANCH  20  39
ATOM     39  O   UNL A   1      31.370  29.834  21.780  1.00  0.00    -0.507 OA
ATOM     40  H   UNL A   1      30.628  30.054  21.253  1.00  0.00     0.293 HD
ENDBRANCH  20  39
BRANCH  22  41
ATOM     41  C   UNL A   1      33.805  28.988  22.868  1.00  0.00    -0.036 C 
ATOM     42  H   UNL A   1      33.841  30.005  23.199  1.00  0.00     0.028 H 
ATOM     43  H   UNL A   1      33.908  28.955  21.803  1.00  0.00     0.028 H 
ATOM     44  H   UNL A   1      34.602  28.438  23.321  1.00  0.00     0.028 H 
ENDBRANCH  22  41
BRANCH  17  45
ATOM     45  C   UNL A   1      32.622  24.070  24.246  1.00  0.00    -0.016 C 
ATOM     46  H   UNL A   1      32.899  23.067  24.495  1.00  0.00     0.028 H 
ATOM     47  H   UNL A   1      33.411  24.529  23.687  1.00  0.00     0.028 H 
ATOM     48  H   UNL A   1      31.729  24.058  23.656  1.00  0.00     0.028 H 
ENDBRANCH  17  45
ENDBRANCH  14  17
ENDBRANCH  10  13
ENDBRANCH   7  10
ENDBRANCH   4   7
ENDBRANCH   1   4
BRANCH   1  49
ATOM     49  C   UNL A   1      37.898  19.605  24.992  1.00  0.00    -0.036 C 
ATOM     50  H   UNL A   1      38.249  19.170  24.080  1.00  0.00     0.028 H 
ATOM     51  H   UNL A   1      37.446  18.888  25.646  1.00  0.00     0.028 H 
BRANCH  49  52
ATOM     52  C   UNL A   1      39.094  20.182  25.738  1.00  0.00     0.018 C 
ATOM     53  H   UNL A   1      38.775  20.505  26.707  1.00  0.00     0.049 H 
ATOM     54  H   UNL A   1      39.478  21.002  25.167  1.00  0.00     0.049 H 
BRANCH  52  55
ATOM     55  N   UNL A   1      40.159  19.204  25.895  1.00  0.00    -0.352 N 
ATOM     56  C   UNL A   1      41.499  19.407  26.095  1.00  0.00     0.251 C 
ATOM     57  H   UNL A   1      39.875  18.262  25.854  1.00  0.00     0.163 HD
ATOM     58  O   UNL A   1      42.293  18.475  25.994  1.00  0.00    -0.269 OA
BRANCH  56  59
ATOM     59  C   UNL A   1      41.989  20.762  26.416  1.00  0.00     0.039 A 
ATOM     60  C   UNL A   1      42.245  21.653  25.374  1.00  0.00    -0.049 A 
ATOM     61  C   UNL A   1      42.193  21.147  27.746  1.00  0.00    -0.049 A 
ATOM     62  C   UNL A   1      42.657  22.954  25.667  1.00  0.00    -0.053 A 
ATOM     63  H   UNL A   1      42.131  21.354  24.393  1.00  0.00     0.063 H 
ATOM     64  C   UNL A   1      42.525  22.464  28.039  1.00  0.00    -0.053 A 
ATOM     65  H   UNL A   1      42.097  20.455  28.505  1.00  0.00     0.063 H 
ATOM     66  C   UNL A   1      42.771  23.376  27.002  1.00  0.00    -0.014 A 
ATOM     67  H   UNL A   1      42.877  23.608  24.901  1.00  0.00     0.063 H 
ATOM     68  H   UNL A   1      42.589  22.771  29.021  1.00  0.00     0.063 H 
BRANCH  66  69
ATOM     69  C   UNL A   1      43.170  24.765  27.331  1.00  0.00     0.031 A 
ATOM     70  C   UNL A   1      44.579  25.221  27.087  1.00  0.00     0.074 A 
ATOM     71  C   UNL A   1      42.273  25.602  27.886  1.00  0.00     0.049 A 
ATOM     72  N   UNL A   1      45.127  26.385  27.331  1.00  0.00    -0.248 NA
ATOM     73  C   UNL A   1      45.504  24.231  26.515  1.00  0.00    -0.034 C 
ATOM     74  C   UNL A   1      40.887  25.260  28.203  1.00  0.00    -0.036 A 
ATOM     75  N   UNL A   1      42.394  26.911  28.281  1.00  0.00    -0.354 N 
ATOM     76  C   UNL A   1      46.454  26.263  26.944  1.00  0.00     0.074 A 
ATOM     77  C   UNL A   1      46.649  24.895  26.517  1.00  0.00    -0.034 C 
ATOM     78  H   UNL A   1      45.311  23.268  26.196  1.00  0.00     0.065 H 
ATOM     79  C   UNL A   1      40.274  26.342  28.710  1.00  0.00    -0.036 A 
ATOM     80  H   UNL A   1      40.450  24.337  28.061  1.00  0.00     0.065 H 
ATOM     81  C   UNL A   1      41.234  27.440  28.789  1.00  0.00     0.049 A 
ATOM     82  H   UNL A   1      43.233  27.422  28.206  1.00  0.00     0.167 HD
ATOM     83  C   UNL A   1      47.415  27.217  26.918  1.00  0.00     0.037 A 
ATOM     84  H   UNL A   1      47.560  24.491  26.249  1.00  0.00     0.065 H 
ATOM     85  H   UNL A   1      39.284  26.390  28.997  1.00  0.00     0.065 H 
ATOM     86  C   UNL A   1      40.973  28.673  29.266  1.00  0.00     0.037 A 
ATOM     87  C   UNL A   1      47.209  28.579  27.334  1.00  0.00     0.049 A 
ATOM     88  C   UNL A   1      42.065  29.707  29.262  1.00  0.00     0.074 A 
ATOM     89  C   UNL A   1      48.104  29.634  27.302  1.00  0.00    -0.036 A 
ATOM     90  N   UNL A   1      46.026  29.073  27.864  1.00  0.00    -0.354 N 
ATOM     91  N   UNL A   1      43.301  29.602  28.835  1.00  0.00    -0.248 NA
ATOM     92  C   UNL A   1      41.728  31.031  29.803  1.00  0.00    -0.034 C 
ATOM     93  C   UNL A   1      47.482  30.750  27.868  1.00  0.00    -0.036 A 
ATOM     94  H   UNL A   1      49.065  29.601  26.925  1.00  0.00     0.065 H 
ATOM     95  C   UNL A   1      46.178  30.410  28.196  1.00  0.00     0.049 A 
ATOM     96  H   UNL A   1      45.200  28.552  27.987  1.00  0.00     0.167 HD
ATOM     97  C   UNL A   1      43.883  30.845  29.037  1.00  0.00     0.074 A 
ATOM     98  C   UNL A   1      42.859  31.696  29.610  1.00  0.00    -0.034 C 
ATOM     99  H   UNL A   1      40.844  31.357  30.222  1.00  0.00     0.065 H 
ATOM    100  H   UNL A   1      47.920  31.672  28.018  1.00  0.00     0.065 H 
ATOM    101  C   UNL A   1      45.152  31.244  28.772  1.00  0.00     0.037 A 
ATOM    102  H   UNL A   1      42.994  32.693  29.839  1.00  0.00     0.065 H 
BRANCH  83 103
ATOM    103  C   UNL A   1      48.776  26.817  26.421  1.00  0.00     0.064 A 
ATOM    104  C   UNL A   1      49.146  26.983  25.077  1.00  0.00     0.173 A 
ATOM    105  C   UNL A   1      49.731  26.289  27.302  1.00  0.00     0.173 A 
ATOM    106  F   UNL A   1      48.267  27.472  24.189  1.00  0.00    -0.203 F 
ATOM    107  C   UNL A   1      50.409  26.606  24.629  1.00  0.00     0.198 A 
ATOM    108  C   UNL A   1      51.005  25.945  26.858  1.00  0.00     0.198 A 
ATOM    109  F   UNL A   1      49.432  26.112  28.599  1.00  0.00    -0.203 F 
ATOM    110  F   UNL A   1      50.719  26.722  23.330  1.00  0.00    -0.200 F 
ATOM    111  C   UNL A   1      51.340  26.095  25.520  1.00  0.00     0.200 A 
ATOM    112  F   UNL A   1      51.909  25.467  27.723  1.00  0.00    -0.200 F 
ATOM    113  F   UNL A   1      52.558  25.740  25.089  1.00  0.00    -0.200 F 
ENDBRANCH  83 103
BRANCH  86 114
ATOM    114  C   UNL A   1      39.601  28.994  29.738  1.00  0.00     0.064 A 
ATOM    115  C   UNL A   1      38.636  29.486  28.850  1.00  0.00     0.173 A 
ATOM    116  C   UNL A   1      39.210  28.758  31.064  1.00  0.00     0.173 A 
ATOM    117  F   UNL A   1      38.967  29.745  27.576  1.00  0.00    -0.203 F 
ATOM    118  C   UNL A   1      37.328  29.725  29.268  1.00  0.00     0.198 A 
ATOM    119  C   UNL A   1      37.895  28.972  31.475  1.00  0.00     0.198 A 
ATOM    120  F   UNL A   1      40.095  28.282  31.951  1.00  0.00    -0.203 F 
ATOM    121  F   UNL A   1      36.428  30.211  28.403  1.00  0.00    -0.200 F 
ATOM    122  C   UNL A   1      36.956  29.456  30.577  1.00  0.00     0.200 A 
ATOM    123  F   UNL A   1      37.537  28.694  32.735  1.00  0.00    -0.200 F 
ATOM    124  F   UNL A   1      35.693  29.663  30.972  1.00  0.00    -0.200 F 
ENDBRANCH  86 114
BRANCH 101 125
ATOM    125  C   UNL A   1      45.518  32.665  29.092  1.00  0.00     0.064 A 
ATOM    126  C   UNL A   1      46.127  33.009  30.307  1.00  0.00     0.173 A 
ATOM    127  C   UNL A   1      45.336  33.679  28.138  1.00  0.00     0.173 A 
ATOM    128  F   UNL A   1      46.313  32.080  31.256  1.00  0.00    -0.203 F 
ATOM    129  C   UNL A   1      46.530  34.319  30.560  1.00  0.00     0.198 A 
ATOM    130  C   UNL A   1      45.769  34.979  28.381  1.00  0.00     0.198 A 
ATOM    131  F   UNL A   1      44.765  33.401  26.955  1.00  0.00    -0.203 F 
ATOM    132  F   UNL A   1      47.080  34.632  31.741  1.00  0.00    -0.200 F 
ATOM    133  C   UNL A   1      46.362  35.299  29.593  1.00  0.00     0.200 A 
ATOM    134  F   UNL A   1      45.623  35.920  27.437  1.00  0.00    -0.200 F 
ATOM    135  F   UNL A   1      46.771  36.553  29.829  1.00  0.00    -0.200 F 
ENDBRANCH 101 125
ENDBRANCH  66  69
ENDBRANCH  56  59
ENDBRANCH  52  55
ENDBRANCH  49  52
ENDBRANCH   1  49
TORSDOF 18
ENDMDL
MODEL 6
REMARK VINA RESULT:     -12.1      0.740      7.306
REMARK SMILES Cc1c(C)c2c(c(C)c1O)CC[C@@](C)(C(=O)NCCCCCCNC(=O)c1ccc(-c3c4nc(c(-c5c(F)c(F)c(F)c(F)c5F)c5ccc([nH]5)c(-c5c(F)c(F)c(F)c(F)c5F)c5nc(c(-c6c(F)c(F)c(F)c(F)c6F)c6ccc3[nH]6)C=C5)C=C4)cc1)O2
REMARK SMILES IDX 21 1 20 4 19 7 18 10 17 13 15 14 16 15 13 17 2 18 3 19 9 20
REMARK SMILES IDX 5 21 7 22 6 23 90 24 11 25 12 26 1 31 4 35 10 39 8 41 14 45
REMARK SMILES IDX 22 49 23 52 24 55 25 56 26 58 27 59 28 60 89 61 29 62 88 64
REMARK SMILES IDX 30 66 31 69 32 70 82 71 33 72 87 73 81 74 83 75 34 76 86 77
REMARK SMILES IDX 80 79 79 81 35 83 67 86 47 87 66 88 48 89 51 90 65 91 84 92
REMARK SMILES IDX 49 93 50 95 64 97 85 98 52 101 36 103 37 104 45 105 38 106
REMARK SMILES IDX 39 107 43 108 46 109 40 110 41 111 44 112 42 113 68 114
REMARK SMILES IDX 69 115 77 116 70 117 71 118 75 119 78 120 72 121 73 122
REMARK SMILES IDX 76 123 74 124 53 125 54 126 62 127 55 128 56 129 60 130
REMARK SMILES IDX 63 131 57 132 58 133 61 134 59 135
REMARK H PARENT 21 2 21 3 20 5 20 6 19 8 19 9 18 11 18 12 17 16 11 27 11 28
REMARK H PARENT 12 29 12 30 1 32 1 33 1 34 4 36 4 37 4 38 10 40 8 42 8 43 8 44
REMARK H PARENT 14 46 14 47 14 48 22 50 22 51 23 53 23 54 24 57 28 63 89 65
REMARK H PARENT 29 67 88 68 87 78 81 80 83 82 86 84 80 85 48 94 51 96 84 99
REMARK H PARENT 49 100 85 102
REMARK Flexibility Score: inf
ROOT
ATOM      1  C   UNL A   1      31.538  30.453  25.611  1.00  0.00    -0.052 C 
ATOM      2  H   UNL A   1      30.761  29.753  25.843  1.00  0.00     0.027 H 
ATOM      3  H   UNL A   1      31.470  30.847  24.619  1.00  0.00     0.027 H 
ENDROOT
BRANCH   1   4
ATOM      4  C   UNL A   1      32.880  29.717  25.691  1.00  0.00    -0.052 C 
ATOM      5  H   UNL A   1      33.642  30.437  25.908  1.00  0.00     0.027 H 
ATOM      6  H   UNL A   1      32.773  28.974  26.454  1.00  0.00     0.027 H 
BRANCH   4   7
ATOM      7  C   UNL A   1      33.278  28.973  24.415  1.00  0.00    -0.036 C 
ATOM      8  H   UNL A   1      33.745  29.669  23.749  1.00  0.00     0.028 H 
ATOM      9  H   UNL A   1      33.937  28.182  24.705  1.00  0.00     0.028 H 
BRANCH   7  10
ATOM     10  C   UNL A   1      32.098  28.329  23.690  1.00  0.00     0.017 C 
ATOM     11  H   UNL A   1      31.605  27.656  24.358  1.00  0.00     0.049 H 
ATOM     12  H   UNL A   1      31.434  29.105  23.373  1.00  0.00     0.049 H 
BRANCH  10  13
ATOM     13  N   UNL A   1      32.536  27.595  22.516  1.00  0.00    -0.353 N 
ATOM     14  C   UNL A   1      32.913  26.287  22.356  1.00  0.00     0.263 C 
ATOM     15  O   UNL A   1      33.278  25.953  21.225  1.00  0.00    -0.270 OA
ATOM     16  H   UNL A   1      32.569  28.130  21.690  1.00  0.00     0.163 HD
BRANCH  14  17
ATOM     17  C   UNL A   1      32.846  25.290  23.546  1.00  0.00     0.184 C 
ATOM     18  C   UNL A   1      32.797  20.584  24.529  1.00  0.00    -0.002 A 
ATOM     19  C   UNL A   1      32.683  21.641  23.592  1.00  0.00    -0.002 A 
ATOM     20  C   UNL A   1      33.227  20.878  25.838  1.00  0.00     0.122 A 
ATOM     21  C   UNL A   1      33.059  22.941  23.974  1.00  0.00     0.127 A 
ATOM     22  C   UNL A   1      33.620  22.170  26.219  1.00  0.00    -0.002 A 
ATOM     23  C   UNL A   1      33.569  23.201  25.262  1.00  0.00     0.001 A 
ATOM     24  O   UNL A   1      32.892  23.938  23.033  1.00  0.00    -0.477 OA
ATOM     25  C   UNL A   1      34.010  24.590  25.634  1.00  0.00    -0.019 C 
ATOM     26  C   UNL A   1      34.100  25.466  24.407  1.00  0.00     0.000 C 
ATOM     27  H   UNL A   1      34.972  24.540  26.102  1.00  0.00     0.032 H 
ATOM     28  H   UNL A   1      33.293  25.011  26.306  1.00  0.00     0.032 H 
ATOM     29  H   UNL A   1      34.963  25.190  23.837  1.00  0.00     0.032 H 
ATOM     30  H   UNL A   1      34.177  26.489  24.710  1.00  0.00     0.032 H 
BRANCH  18  31
ATOM     31  C   UNL A   1      32.403  19.181  24.141  1.00  0.00    -0.036 C 
ATOM     32  H   UNL A   1      33.234  18.693  23.675  1.00  0.00     0.028 H 
ATOM     33  H   UNL A   1      31.582  19.217  23.458  1.00  0.00     0.028 H 
ATOM     34  H   UNL A   1      32.116  18.636  25.017  1.00  0.00     0.028 H 
ENDBRANCH  18  31
BRANCH  19  35
ATOM     35  C   UNL A   1      32.161  21.380  22.199  1.00  0.00    -0.036 C 
ATOM     36  H   UNL A   1      31.898  22.307  21.737  1.00  0.00     0.028 H 
ATOM     37  H   UNL A   1      31.297  20.750  22.254  1.00  0.00     0.028 H 
ATOM     38  H   UNL A   1      32.919  20.895  21.620  1.00  0.00     0.028 H 
ENDBRANCH  19  35
BRANCH  20  39
ATOM     39  O   UNL A   1      33.278  19.912  26.810  1.00  0.00    -0.507 OA
ATOM     40  H   UNL A   1      33.383  19.013  26.569  1.00  0.00     0.293 HD
ENDBRANCH  20  39
BRANCH  22  41
ATOM     41  C   UNL A   1      34.076  22.467  27.626  1.00  0.00    -0.036 C 
ATOM     42  H   UNL A   1      33.251  22.359  28.299  1.00  0.00     0.028 H 
ATOM     43  H   UNL A   1      34.448  23.469  27.676  1.00  0.00     0.028 H 
ATOM     44  H   UNL A   1      34.852  21.784  27.901  1.00  0.00     0.028 H 
ENDBRANCH  22  41
BRANCH  17  45
ATOM     45  C   UNL A   1      31.462  25.462  24.209  1.00  0.00    -0.016 C 
ATOM     46  H   UNL A   1      31.526  26.196  24.984  1.00  0.00     0.028 H 
ATOM     47  H   UNL A   1      31.147  24.528  24.627  1.00  0.00     0.028 H 
ATOM     48  H   UNL A   1      30.752  25.781  23.475  1.00  0.00     0.028 H 
ENDBRANCH  17  45
ENDBRANCH  14  17
ENDBRANCH  10  13
ENDBRANCH   7  10
ENDBRANCH   4   7
ENDBRANCH   1   4
BRANCH   1  49
ATOM     49  C   UNL A   1      31.400  31.647  26.558  1.00  0.00    -0.036 C 
ATOM     50  H   UNL A   1      30.965  31.302  27.473  1.00  0.00     0.028 H 
ATOM     51  H   UNL A   1      30.791  32.369  26.056  1.00  0.00     0.028 H 
BRANCH  49  52
ATOM     52  C   UNL A   1      32.717  32.339  26.886  1.00  0.00     0.018 C 
ATOM     53  H   UNL A   1      33.330  32.350  26.009  1.00  0.00     0.049 H 
ATOM     54  H   UNL A   1      33.189  31.797  27.679  1.00  0.00     0.049 H 
BRANCH  52  55
ATOM     55  N   UNL A   1      32.514  33.707  27.334  1.00  0.00    -0.352 N 
ATOM     56  C   UNL A   1      33.105  34.376  28.373  1.00  0.00     0.251 C 
ATOM     57  H   UNL A   1      31.857  34.228  26.816  1.00  0.00     0.163 HD
ATOM     58  O   UNL A   1      32.666  35.459  28.750  1.00  0.00    -0.269 OA
BRANCH  56  59
ATOM     59  C   UNL A   1      34.270  33.776  29.054  1.00  0.00     0.039 A 
ATOM     60  C   UNL A   1      34.058  32.776  30.004  1.00  0.00    -0.049 A 
ATOM     61  C   UNL A   1      35.567  34.203  28.751  1.00  0.00    -0.049 A 
ATOM     62  C   UNL A   1      35.153  32.164  30.614  1.00  0.00    -0.053 A 
ATOM     63  H   UNL A   1      33.098  32.490  30.253  1.00  0.00     0.063 H 
ATOM     64  C   UNL A   1      36.658  33.539  29.299  1.00  0.00    -0.053 A 
ATOM     65  H   UNL A   1      35.713  35.008  28.123  1.00  0.00     0.063 H 
ATOM     66  C   UNL A   1      36.460  32.521  30.244  1.00  0.00    -0.014 A 
ATOM     67  H   UNL A   1      35.002  31.445  31.339  1.00  0.00     0.063 H 
ATOM     68  H   UNL A   1      37.614  33.794  29.010  1.00  0.00     0.063 H 
BRANCH  66  69
ATOM     69  C   UNL A   1      37.635  31.853  30.855  1.00  0.00     0.031 A 
ATOM     70  C   UNL A   1      38.079  32.229  32.239  1.00  0.00     0.074 A 
ATOM     71  C   UNL A   1      38.324  30.938  30.147  1.00  0.00     0.049 A 
ATOM     72  N   UNL A   1      39.093  31.780  32.933  1.00  0.00    -0.248 NA
ATOM     73  C   UNL A   1      37.293  33.266  32.925  1.00  0.00    -0.034 C 
ATOM     74  C   UNL A   1      38.008  30.519  28.782  1.00  0.00    -0.036 A 
ATOM     75  N   UNL A   1      39.429  30.196  30.479  1.00  0.00    -0.354 N 
ATOM     76  C   UNL A   1      39.065  32.479  34.132  1.00  0.00     0.074 A 
ATOM     77  C   UNL A   1      37.981  33.432  34.044  1.00  0.00    -0.034 C 
ATOM     78  H   UNL A   1      36.431  33.743  32.615  1.00  0.00     0.065 H 
ATOM     79  C   UNL A   1      38.877  29.568  28.405  1.00  0.00    -0.036 A 
ATOM     80  H   UNL A   1      37.242  30.894  28.202  1.00  0.00     0.065 H 
ATOM     81  C   UNL A   1      39.833  29.339  29.485  1.00  0.00     0.049 A 
ATOM     82  H   UNL A   1      39.888  30.271  31.346  1.00  0.00     0.167 HD
ATOM     83  C   UNL A   1      39.855  32.317  35.221  1.00  0.00     0.037 A 
ATOM     84  H   UNL A   1      37.771  34.145  34.760  1.00  0.00     0.065 H 
ATOM     85  H   UNL A   1      38.871  29.077  27.497  1.00  0.00     0.065 H 
ATOM     86  C   UNL A   1      40.859  28.467  29.450  1.00  0.00     0.037 A 
ATOM     87  C   UNL A   1      40.925  31.358  35.304  1.00  0.00     0.049 A 
ATOM     88  C   UNL A   1      41.747  28.329  30.656  1.00  0.00     0.074 A 
ATOM     89  C   UNL A   1      41.753  31.083  36.377  1.00  0.00    -0.036 A 
ATOM     90  N   UNL A   1      41.318  30.522  34.269  1.00  0.00    -0.354 N 
ATOM     91  N   UNL A   1      41.675  28.949  31.809  1.00  0.00    -0.248 NA
ATOM     92  C   UNL A   1      42.856  27.370  30.558  1.00  0.00    -0.034 C 
ATOM     93  C   UNL A   1      42.685  30.123  35.973  1.00  0.00    -0.036 A 
ATOM     94  H   UNL A   1      41.692  31.512  37.314  1.00  0.00     0.065 H 
ATOM     95  C   UNL A   1      42.401  29.754  34.667  1.00  0.00     0.049 A 
ATOM     96  H   UNL A   1      40.893  30.480  33.382  1.00  0.00     0.167 HD
ATOM     97  C   UNL A   1      42.713  28.444  32.580  1.00  0.00     0.074 A 
ATOM     98  C   UNL A   1      43.390  27.454  31.769  1.00  0.00    -0.034 C 
ATOM     99  H   UNL A   1      43.142  26.785  29.758  1.00  0.00     0.065 H 
ATOM    100  H   UNL A   1      43.457  29.753  36.550  1.00  0.00     0.065 H 
ATOM    101  C   UNL A   1      43.071  28.775  33.846  1.00  0.00     0.037 A 
ATOM    102  H   UNL A   1      44.189  26.885  32.092  1.00  0.00     0.065 H 
BRANCH  83 103
ATOM    103  C   UNL A   1      39.587  33.198  36.408  1.00  0.00     0.064 A 
ATOM    104  C   UNL A   1      38.700  32.812  37.425  1.00  0.00     0.173 A 
ATOM    105  C   UNL A   1      40.247  34.428  36.548  1.00  0.00     0.173 A 
ATOM    106  F   UNL A   1      38.034  31.650  37.335  1.00  0.00    -0.203 F 
ATOM    107  C   UNL A   1      38.459  33.638  38.519  1.00  0.00     0.198 A 
ATOM    108  C   UNL A   1      40.030  35.236  37.661  1.00  0.00     0.198 A 
ATOM    109  F   UNL A   1      41.109  34.845  35.608  1.00  0.00    -0.203 F 
ATOM    110  F   UNL A   1      37.565  33.272  39.448  1.00  0.00    -0.200 F 
ATOM    111  C   UNL A   1      39.130  34.845  38.640  1.00  0.00     0.200 A 
ATOM    112  F   UNL A   1      40.691  36.395  37.785  1.00  0.00    -0.200 F 
ATOM    113  F   UNL A   1      38.903  35.635  39.698  1.00  0.00    -0.200 F 
ENDBRANCH  83 103
BRANCH  86 114
ATOM    114  C   UNL A   1      41.057  27.628  28.239  1.00  0.00     0.064 A 
ATOM    115  C   UNL A   1      41.864  28.073  27.185  1.00  0.00     0.173 A 
ATOM    116  C   UNL A   1      40.500  26.344  28.140  1.00  0.00     0.173 A 
ATOM    117  F   UNL A   1      42.404  29.300  27.226  1.00  0.00    -0.203 F 
ATOM    118  C   UNL A   1      42.111  27.264  26.077  1.00  0.00     0.198 A 
ATOM    119  C   UNL A   1      40.769  25.527  27.044  1.00  0.00     0.198 A 
ATOM    120  F   UNL A   1      39.725  25.870  29.126  1.00  0.00    -0.203 F 
ATOM    121  F   UNL A   1      42.873  27.721  25.073  1.00  0.00    -0.200 F 
ATOM    122  C   UNL A   1      41.574  25.988  26.013  1.00  0.00     0.200 A 
ATOM    123  F   UNL A   1      40.262  24.287  26.996  1.00  0.00    -0.200 F 
ATOM    124  F   UNL A   1      41.832  25.202  24.959  1.00  0.00    -0.200 F 
ENDBRANCH  86 114
BRANCH 101 125
ATOM    125  C   UNL A   1      44.248  28.062  34.447  1.00  0.00     0.064 A 
ATOM    126  C   UNL A   1      45.538  28.612  34.404  1.00  0.00     0.173 A 
ATOM    127  C   UNL A   1      44.070  26.857  35.147  1.00  0.00     0.173 A 
ATOM    128  F   UNL A   1      45.763  29.754  33.738  1.00  0.00    -0.203 F 
ATOM    129  C   UNL A   1      46.608  27.976  35.031  1.00  0.00     0.198 A 
ATOM    130  C   UNL A   1      45.135  26.243  35.799  1.00  0.00     0.198 A 
ATOM    131  F   UNL A   1      42.855  26.294  35.225  1.00  0.00    -0.203 F 
ATOM    132  F   UNL A   1      47.837  28.503  34.949  1.00  0.00    -0.200 F 
ATOM    133  C   UNL A   1      46.403  26.800  35.737  1.00  0.00     0.200 A 
ATOM    134  F   UNL A   1      44.932  25.117  36.497  1.00  0.00    -0.200 F 
ATOM    135  F   UNL A   1      47.430  26.203  36.359  1.00  0.00    -0.200 F 
ENDBRANCH 101 125
ENDBRANCH  66  69
ENDBRANCH  56  59
ENDBRANCH  52  55
ENDBRANCH  49  52
ENDBRANCH   1  49
TORSDOF 18
ENDMDL
MODEL 7
REMARK VINA RESULT:     -12.0      0.380      1.632
REMARK SMILES Cc1c(C)c2c(c(C)c1O)CC[C@@](C)(C(=O)NCCCCCCNC(=O)c1ccc(-c3c4nc(c(-c5c(F)c(F)c(F)c(F)c5F)c5ccc([nH]5)c(-c5c(F)c(F)c(F)c(F)c5F)c5nc(c(-c6c(F)c(F)c(F)c(F)c6F)c6ccc3[nH]6)C=C5)C=C4)cc1)O2
REMARK SMILES IDX 21 1 20 4 19 7 18 10 17 13 15 14 16 15 13 17 2 18 3 19 9 20
REMARK SMILES IDX 5 21 7 22 6 23 90 24 11 25 12 26 1 31 4 35 10 39 8 41 14 45
REMARK SMILES IDX 22 49 23 52 24 55 25 56 26 58 27 59 28 60 89 61 29 62 88 64
REMARK SMILES IDX 30 66 31 69 32 70 82 71 33 72 87 73 81 74 83 75 34 76 86 77
REMARK SMILES IDX 80 79 79 81 35 83 67 86 47 87 66 88 48 89 51 90 65 91 84 92
REMARK SMILES IDX 49 93 50 95 64 97 85 98 52 101 36 103 37 104 45 105 38 106
REMARK SMILES IDX 39 107 43 108 46 109 40 110 41 111 44 112 42 113 68 114
REMARK SMILES IDX 69 115 77 116 70 117 71 118 75 119 78 120 72 121 73 122
REMARK SMILES IDX 76 123 74 124 53 125 54 126 62 127 55 128 56 129 60 130
REMARK SMILES IDX 63 131 57 132 58 133 61 134 59 135
REMARK H PARENT 21 2 21 3 20 5 20 6 19 8 19 9 18 11 18 12 17 16 11 27 11 28
REMARK H PARENT 12 29 12 30 1 32 1 33 1 34 4 36 4 37 4 38 10 40 8 42 8 43 8 44
REMARK H PARENT 14 46 14 47 14 48 22 50 22 51 23 53 23 54 24 57 28 63 89 65
REMARK H PARENT 29 67 88 68 87 78 81 80 83 82 86 84 80 85 48 94 51 96 84 99
REMARK H PARENT 49 100 85 102
REMARK Flexibility Score: inf
ROOT
ATOM      1  C   UNL A   1      31.676  30.639  26.569  1.00  0.00    -0.052 C 
ATOM      2  H   UNL A   1      32.706  30.402  26.736  1.00  0.00     0.027 H 
ATOM      3  H   UNL A   1      31.011  30.135  27.238  1.00  0.00     0.027 H 
ENDROOT
BRANCH   1   4
ATOM      4  C   UNL A   1      31.304  30.170  25.158  1.00  0.00    -0.052 C 
ATOM      5  H   UNL A   1      30.319  30.526  24.938  1.00  0.00     0.027 H 
ATOM      6  H   UNL A   1      32.051  30.563  24.501  1.00  0.00     0.027 H 
BRANCH   4   7
ATOM      7  C   UNL A   1      31.315  28.651  24.966  1.00  0.00    -0.036 C 
ATOM      8  H   UNL A   1      31.051  28.191  25.895  1.00  0.00     0.028 H 
ATOM      9  H   UNL A   1      30.615  28.429  24.188  1.00  0.00     0.028 H 
BRANCH   7  10
ATOM     10  C   UNL A   1      32.668  28.101  24.522  1.00  0.00     0.017 C 
ATOM     11  H   UNL A   1      33.372  28.905  24.475  1.00  0.00     0.049 H 
ATOM     12  H   UNL A   1      32.981  27.364  25.231  1.00  0.00     0.049 H 
BRANCH  10  13
ATOM     13  N   UNL A   1      32.580  27.472  23.216  1.00  0.00    -0.353 N 
ATOM     14  C   UNL A   1      32.548  26.151  22.850  1.00  0.00     0.263 C 
ATOM     15  O   UNL A   1      32.509  25.917  21.638  1.00  0.00    -0.270 OA
ATOM     16  H   UNL A   1      32.538  28.103  22.462  1.00  0.00     0.163 HD
BRANCH  14  17
ATOM     17  C   UNL A   1      32.532  25.029  23.923  1.00  0.00     0.184 C 
ATOM     18  C   UNL A   1      32.710  20.247  24.388  1.00  0.00    -0.002 A 
ATOM     19  C   UNL A   1      32.543  21.393  23.572  1.00  0.00    -0.002 A 
ATOM     20  C   UNL A   1      33.129  20.417  25.723  1.00  0.00     0.122 A 
ATOM     21  C   UNL A   1      32.858  22.661  24.094  1.00  0.00     0.127 A 
ATOM     22  C   UNL A   1      33.461  21.677  26.242  1.00  0.00    -0.002 A 
ATOM     23  C   UNL A   1      33.358  22.803  25.403  1.00  0.00     0.001 A 
ATOM     24  O   UNL A   1      32.641  23.744  23.267  1.00  0.00    -0.477 OA
ATOM     25  C   UNL A   1      33.734  24.162  25.925  1.00  0.00    -0.019 C 
ATOM     26  C   UNL A   1      33.778  25.170  24.802  1.00  0.00     0.000 C 
ATOM     27  H   UNL A   1      34.698  24.107  26.388  1.00  0.00     0.032 H 
ATOM     28  H   UNL A   1      32.999  24.473  26.638  1.00  0.00     0.032 H 
ATOM     29  H   UNL A   1      34.652  24.999  24.207  1.00  0.00     0.032 H 
ATOM     30  H   UNL A   1      33.808  26.156  25.214  1.00  0.00     0.032 H 
BRANCH  18  31
ATOM     31  C   UNL A   1      32.382  18.877  23.849  1.00  0.00    -0.036 C 
ATOM     32  H   UNL A   1      31.326  18.796  23.698  1.00  0.00     0.028 H 
ATOM     33  H   UNL A   1      32.700  18.133  24.548  1.00  0.00     0.028 H 
ATOM     34  H   UNL A   1      32.888  18.731  22.917  1.00  0.00     0.028 H 
ENDBRANCH  18  31
BRANCH  19  35
ATOM     35  C   UNL A   1      32.030  21.260  22.158  1.00  0.00    -0.036 C 
ATOM     36  H   UNL A   1      31.415  22.102  21.921  1.00  0.00     0.028 H 
ATOM     37  H   UNL A   1      31.455  20.362  22.069  1.00  0.00     0.028 H 
ATOM     38  H   UNL A   1      32.859  21.222  21.480  1.00  0.00     0.028 H 
ENDBRANCH  19  35
BRANCH  20  39
ATOM     39  O   UNL A   1      33.229  19.354  26.583  1.00  0.00    -0.507 OA
ATOM     40  H   UNL A   1      33.666  18.572  26.311  1.00  0.00     0.293 HD
ENDBRANCH  20  39
BRANCH  22  41
ATOM     41  C   UNL A   1      33.907  21.840  27.675  1.00  0.00    -0.036 C 
ATOM     42  H   UNL A   1      33.221  21.334  28.322  1.00  0.00     0.028 H 
ATOM     43  H   UNL A   1      33.930  22.881  27.924  1.00  0.00     0.028 H 
ATOM     44  H   UNL A   1      34.884  21.422  27.794  1.00  0.00     0.028 H 
ENDBRANCH  22  41
BRANCH  17  45
ATOM     45  C   UNL A   1      31.143  25.062  24.598  1.00  0.00    -0.016 C 
ATOM     46  H   UNL A   1      31.130  25.821  25.351  1.00  0.00     0.028 H 
ATOM     47  H   UNL A   1      30.941  24.111  25.047  1.00  0.00     0.028 H 
ATOM     48  H   UNL A   1      30.394  25.274  23.864  1.00  0.00     0.028 H 
ENDBRANCH  17  45
ENDBRANCH  14  17
ENDBRANCH  10  13
ENDBRANCH   7  10
ENDBRANCH   4   7
ENDBRANCH   1   4
BRANCH   1  49
ATOM     49  C   UNL A   1      31.486  32.137  26.820  1.00  0.00    -0.036 C 
ATOM     50  H   UNL A   1      30.813  32.256  27.644  1.00  0.00     0.028 H 
ATOM     51  H   UNL A   1      31.107  32.555  25.911  1.00  0.00     0.028 H 
BRANCH  49  52
ATOM     52  C   UNL A   1      32.773  32.885  27.142  1.00  0.00     0.018 C 
ATOM     53  H   UNL A   1      33.378  32.929  26.260  1.00  0.00     0.049 H 
ATOM     54  H   UNL A   1      33.276  32.358  27.927  1.00  0.00     0.049 H 
BRANCH  52  55
ATOM     55  N   UNL A   1      32.513  34.239  27.602  1.00  0.00    -0.352 N 
ATOM     56  C   UNL A   1      33.041  34.906  28.675  1.00  0.00     0.251 C 
ATOM     57  H   UNL A   1      31.865  34.750  27.064  1.00  0.00     0.163 HD
ATOM     58  O   UNL A   1      32.556  35.971  29.049  1.00  0.00    -0.269 OA
BRANCH  56  59
ATOM     59  C   UNL A   1      34.192  34.328  29.396  1.00  0.00     0.039 A 
ATOM     60  C   UNL A   1      33.959  33.557  30.536  1.00  0.00    -0.049 A 
ATOM     61  C   UNL A   1      35.497  34.547  28.942  1.00  0.00    -0.049 A 
ATOM     62  C   UNL A   1      35.035  32.961  31.194  1.00  0.00    -0.053 A 
ATOM     63  H   UNL A   1      32.999  33.429  30.889  1.00  0.00     0.063 H 
ATOM     64  C   UNL A   1      36.559  33.888  29.550  1.00  0.00    -0.053 A 
ATOM     65  H   UNL A   1      35.670  35.196  28.159  1.00  0.00     0.063 H 
ATOM     66  C   UNL A   1      36.338  33.098  30.688  1.00  0.00    -0.014 A 
ATOM     67  H   UNL A   1      34.873  32.416  32.054  1.00  0.00     0.063 H 
ATOM     68  H   UNL A   1      37.510  33.979  29.163  1.00  0.00     0.063 H 
BRANCH  66  69
ATOM     69  C   UNL A   1      37.488  32.439  31.354  1.00  0.00     0.031 A 
ATOM     70  C   UNL A   1      38.220  31.325  30.663  1.00  0.00     0.074 A 
ATOM     71  C   UNL A   1      37.845  32.818  32.595  1.00  0.00     0.049 A 
ATOM     72  N   UNL A   1      39.229  30.609  31.089  1.00  0.00    -0.248 NA
ATOM     73  C   UNL A   1      37.738  30.948  29.325  1.00  0.00    -0.034 C 
ATOM     74  C   UNL A   1      37.186  33.862  33.378  1.00  0.00    -0.036 A 
ATOM     75  N   UNL A   1      38.850  32.369  33.414  1.00  0.00    -0.354 N 
ATOM     76  C   UNL A   1      39.499  29.701  30.075  1.00  0.00     0.074 A 
ATOM     77  C   UNL A   1      38.505  29.906  29.044  1.00  0.00    -0.034 C 
ATOM     78  H   UNL A   1      36.995  31.381  28.755  1.00  0.00     0.065 H 
ATOM     79  C   UNL A   1      37.826  34.000  34.550  1.00  0.00    -0.036 A 
ATOM     80  H   UNL A   1      36.362  34.405  33.079  1.00  0.00     0.065 H 
ATOM     81  C   UNL A   1      38.914  33.028  34.616  1.00  0.00     0.049 A 
ATOM     82  H   UNL A   1      39.467  31.643  33.163  1.00  0.00     0.167 HD
ATOM     83  C   UNL A   1      40.506  28.798  29.997  1.00  0.00     0.037 A 
ATOM     84  H   UNL A   1      38.408  29.318  28.201  1.00  0.00     0.065 H 
ATOM     85  H   UNL A   1      37.587  34.683  35.286  1.00  0.00     0.065 H 
ATOM     86  C   UNL A   1      39.756  32.867  35.655  1.00  0.00     0.037 A 
ATOM     87  C   UNL A   1      41.498  28.609  31.023  1.00  0.00     0.049 A 
ATOM     88  C   UNL A   1      40.845  31.834  35.564  1.00  0.00     0.074 A 
ATOM     89  C   UNL A   1      42.586  27.755  31.021  1.00  0.00    -0.036 A 
ATOM     90  N   UNL A   1      41.518  29.280  32.237  1.00  0.00    -0.354 N 
ATOM     91  N   UNL A   1      41.133  31.023  34.575  1.00  0.00    -0.248 NA
ATOM     92  C   UNL A   1      41.728  31.695  36.731  1.00  0.00    -0.034 C 
ATOM     93  C   UNL A   1      43.229  27.866  32.257  1.00  0.00    -0.036 A 
ATOM     94  H   UNL A   1      42.873  27.142  30.241  1.00  0.00     0.065 H 
ATOM     95  C   UNL A   1      42.580  28.834  33.007  1.00  0.00     0.049 A 
ATOM     96  H   UNL A   1      40.873  29.971  32.511  1.00  0.00     0.167 HD
ATOM     97  C   UNL A   1      42.237  30.291  34.989  1.00  0.00     0.074 A 
ATOM     98  C   UNL A   1      42.579  30.767  36.314  1.00  0.00    -0.034 C 
ATOM     99  H   UNL A   1      41.694  32.189  37.635  1.00  0.00     0.065 H 
ATOM    100  H   UNL A   1      44.049  27.318  32.560  1.00  0.00     0.065 H 
ATOM    101  C   UNL A   1      42.905  29.312  34.328  1.00  0.00     0.037 A 
ATOM    102  H   UNL A   1      43.383  30.426  36.864  1.00  0.00     0.065 H 
BRANCH  83 103
ATOM    103  C   UNL A   1      40.583  27.950  28.760  1.00  0.00     0.064 A 
ATOM    104  C   UNL A   1      39.890  26.733  28.658  1.00  0.00     0.173 A 
ATOM    105  C   UNL A   1      41.333  28.370  27.651  1.00  0.00     0.173 A 
ATOM    106  F   UNL A   1      39.168  26.278  29.693  1.00  0.00    -0.203 F 
ATOM    107  C   UNL A   1      39.972  25.955  27.506  1.00  0.00     0.198 A 
ATOM    108  C   UNL A   1      41.384  27.607  26.488  1.00  0.00     0.198 A 
ATOM    109  F   UNL A   1      42.011  29.527  27.692  1.00  0.00    -0.203 F 
ATOM    110  F   UNL A   1      39.347  24.770  27.455  1.00  0.00    -0.200 F 
ATOM    111  C   UNL A   1      40.711  26.396  26.420  1.00  0.00     0.200 A 
ATOM    112  F   UNL A   1      42.086  28.041  25.433  1.00  0.00    -0.200 F 
ATOM    113  F   UNL A   1      40.782  25.650  25.309  1.00  0.00    -0.200 F 
ENDBRANCH  83 103
BRANCH  86 114
ATOM    114  C   UNL A   1      39.619  33.748  36.845  1.00  0.00     0.064 A 
ATOM    115  C   UNL A   1      40.214  35.016  36.870  1.00  0.00     0.173 A 
ATOM    116  C   UNL A   1      38.842  33.369  37.950  1.00  0.00     0.173 A 
ATOM    117  F   UNL A   1      40.981  35.416  35.844  1.00  0.00    -0.203 F 
ATOM    118  C   UNL A   1      40.033  35.875  37.952  1.00  0.00     0.198 A 
ATOM    119  C   UNL A   1      38.640  34.239  39.020  1.00  0.00     0.198 A 
ATOM    120  F   UNL A   1      38.247  32.167  37.971  1.00  0.00    -0.203 F 
ATOM    121  F   UNL A   1      40.628  37.075  37.958  1.00  0.00    -0.200 F 
ATOM    122  C   UNL A   1      39.237  35.490  39.020  1.00  0.00     0.200 A 
ATOM    123  F   UNL A   1      37.855  33.869  40.040  1.00  0.00    -0.200 F 
ATOM    124  F   UNL A   1      39.043  36.326  40.049  1.00  0.00    -0.200 F 
ENDBRANCH  86 114
BRANCH 101 125
ATOM    125  C   UNL A   1      44.081  28.683  35.019  1.00  0.00     0.064 A 
ATOM    126  C   UNL A   1      43.941  27.523  35.795  1.00  0.00     0.173 A 
ATOM    127  C   UNL A   1      45.376  29.195  34.831  1.00  0.00     0.173 A 
ATOM    128  F   UNL A   1      42.726  27.001  36.014  1.00  0.00    -0.203 F 
ATOM    129  C   UNL A   1      45.052  26.907  36.367  1.00  0.00     0.198 A 
ATOM    130  C   UNL A   1      46.485  28.558  35.378  1.00  0.00     0.198 A 
ATOM    131  F   UNL A   1      45.565  30.298  34.090  1.00  0.00    -0.203 F 
ATOM    132  F   UNL A   1      44.890  25.819  37.133  1.00  0.00    -0.200 F 
ATOM    133  C   UNL A   1      46.322  27.417  36.148  1.00  0.00     0.200 A 
ATOM    134  F   UNL A   1      47.714  29.042  35.148  1.00  0.00    -0.200 F 
ATOM    135  F   UNL A   1      47.391  26.809  36.681  1.00  0.00    -0.200 F 
ENDBRANCH 101 125
ENDBRANCH  66  69
ENDBRANCH  56  59
ENDBRANCH  52  55
ENDBRANCH  49  52
ENDBRANCH   1  49
TORSDOF 18
ENDMDL
MODEL 8
REMARK VINA RESULT:     -12.0      3.471      8.454
REMARK SMILES Cc1c(C)c2c(c(C)c1O)CC[C@@](C)(C(=O)NCCCCCCNC(=O)c1ccc(-c3c4nc(c(-c5c(F)c(F)c(F)c(F)c5F)c5ccc([nH]5)c(-c5c(F)c(F)c(F)c(F)c5F)c5nc(c(-c6c(F)c(F)c(F)c(F)c6F)c6ccc3[nH]6)C=C5)C=C4)cc1)O2
REMARK SMILES IDX 21 1 20 4 19 7 18 10 17 13 15 14 16 15 13 17 2 18 3 19 9 20
REMARK SMILES IDX 5 21 7 22 6 23 90 24 11 25 12 26 1 31 4 35 10 39 8 41 14 45
REMARK SMILES IDX 22 49 23 52 24 55 25 56 26 58 27 59 28 60 89 61 29 62 88 64
REMARK SMILES IDX 30 66 31 69 32 70 82 71 33 72 87 73 81 74 83 75 34 76 86 77
REMARK SMILES IDX 80 79 79 81 35 83 67 86 47 87 66 88 48 89 51 90 65 91 84 92
REMARK SMILES IDX 49 93 50 95 64 97 85 98 52 101 36 103 37 104 45 105 38 106
REMARK SMILES IDX 39 107 43 108 46 109 40 110 41 111 44 112 42 113 68 114
REMARK SMILES IDX 69 115 77 116 70 117 71 118 75 119 78 120 72 121 73 122
REMARK SMILES IDX 76 123 74 124 53 125 54 126 62 127 55 128 56 129 60 130
REMARK SMILES IDX 63 131 57 132 58 133 61 134 59 135
REMARK H PARENT 21 2 21 3 20 5 20 6 19 8 19 9 18 11 18 12 17 16 11 27 11 28
REMARK H PARENT 12 29 12 30 1 32 1 33 1 34 4 36 4 37 4 38 10 40 8 42 8 43 8 44
REMARK H PARENT 14 46 14 47 14 48 22 50 22 51 23 53 23 54 24 57 28 63 89 65
REMARK H PARENT 29 67 88 68 87 78 81 80 83 82 86 84 80 85 48 94 51 96 84 99
REMARK H PARENT 49 100 85 102
REMARK Flexibility Score: inf
ROOT
ATOM      1  C   UNL A   1      32.074  28.080  25.437  1.00  0.00    -0.052 C 
ATOM      2  H   UNL A   1      32.003  27.133  24.943  1.00  0.00     0.027 H 
ATOM      3  H   UNL A   1      31.565  28.106  26.378  1.00  0.00     0.027 H 
ENDROOT
BRANCH   1   4
ATOM      4  C   UNL A   1      31.395  29.130  24.551  1.00  0.00    -0.052 C 
ATOM      5  H   UNL A   1      30.357  29.164  24.810  1.00  0.00     0.027 H 
ATOM      6  H   UNL A   1      31.906  30.053  24.730  1.00  0.00     0.027 H 
BRANCH   4   7
ATOM      7  C   UNL A   1      31.502  28.863  23.048  1.00  0.00    -0.036 C 
ATOM      8  H   UNL A   1      31.017  29.662  22.527  1.00  0.00     0.028 H 
ATOM      9  H   UNL A   1      32.544  28.798  22.814  1.00  0.00     0.028 H 
BRANCH   7  10
ATOM     10  C   UNL A   1      30.862  27.545  22.614  1.00  0.00     0.017 C 
ATOM     11  H   UNL A   1      30.761  26.910  23.468  1.00  0.00     0.049 H 
ATOM     12  H   UNL A   1      29.906  27.761  22.185  1.00  0.00     0.049 H 
BRANCH  10  13
ATOM     13  N   UNL A   1      31.670  26.869  21.614  1.00  0.00    -0.353 N 
ATOM     14  C   UNL A   1      32.420  25.723  21.682  1.00  0.00     0.263 C 
ATOM     15  O   UNL A   1      33.039  25.411  20.661  1.00  0.00    -0.270 OA
ATOM     16  H   UNL A   1      31.683  27.311  20.734  1.00  0.00     0.163 HD
BRANCH  14  17
ATOM     17  C   UNL A   1      32.447  24.867  22.977  1.00  0.00     0.184 C 
ATOM     18  C   UNL A   1      32.753  20.312  24.485  1.00  0.00    -0.002 A 
ATOM     19  C   UNL A   1      32.546  21.244  23.439  1.00  0.00    -0.002 A 
ATOM     20  C   UNL A   1      33.186  20.783  25.741  1.00  0.00     0.122 A 
ATOM     21  C   UNL A   1      32.836  22.603  23.661  1.00  0.00     0.127 A 
ATOM     22  C   UNL A   1      33.493  22.133  25.963  1.00  0.00    -0.002 A 
ATOM     23  C   UNL A   1      33.350  23.043  24.897  1.00  0.00     0.001 A 
ATOM     24  O   UNL A   1      32.580  23.471  22.619  1.00  0.00    -0.477 OA
ATOM     25  C   UNL A   1      33.698  24.492  25.099  1.00  0.00    -0.019 C 
ATOM     26  C   UNL A   1      33.701  25.226  23.779  1.00  0.00     0.000 C 
ATOM     27  H   UNL A   1      34.669  24.562  25.543  1.00  0.00     0.032 H 
ATOM     28  H   UNL A   1      32.965  24.936  25.739  1.00  0.00     0.032 H 
ATOM     29  H   UNL A   1      34.571  24.947  23.220  1.00  0.00     0.032 H 
ATOM     30  H   UNL A   1      33.711  26.279  23.963  1.00  0.00     0.032 H 
BRANCH  18  31
ATOM     31  C   UNL A   1      32.454  18.850  24.269  1.00  0.00    -0.036 C 
ATOM     32  H   UNL A   1      31.406  18.677  24.402  1.00  0.00     0.028 H 
ATOM     33  H   UNL A   1      33.004  18.264  24.974  1.00  0.00     0.028 H 
ATOM     34  H   UNL A   1      32.738  18.571  23.274  1.00  0.00     0.028 H 
ENDBRANCH  18  31
BRANCH  19  35
ATOM     35  C   UNL A   1      32.018  20.791  22.099  1.00  0.00    -0.036 C 
ATOM     36  H   UNL A   1      31.053  20.347  22.227  1.00  0.00     0.028 H 
ATOM     37  H   UNL A   1      32.688  20.072  21.676  1.00  0.00     0.028 H 
ATOM     38  H   UNL A   1      31.939  21.634  21.443  1.00  0.00     0.028 H 
ENDBRANCH  19  35
BRANCH  20  39
ATOM     39  O   UNL A   1      33.324  19.939  26.813  1.00  0.00    -0.507 OA
ATOM     40  H   UNL A   1      32.700  19.964  27.511  1.00  0.00     0.293 HD
ENDBRANCH  20  39
BRANCH  22  41
ATOM     41  C   UNL A   1      33.953  22.619  27.315  1.00  0.00    -0.036 C 
ATOM     42  H   UNL A   1      34.109  23.678  27.279  1.00  0.00     0.028 H 
ATOM     43  H   UNL A   1      34.870  22.132  27.575  1.00  0.00     0.028 H 
ATOM     44  H   UNL A   1      33.209  22.393  28.048  1.00  0.00     0.028 H 
ENDBRANCH  22  41
BRANCH  17  45
ATOM     45  C   UNL A   1      31.067  25.018  23.654  1.00  0.00    -0.016 C 
ATOM     46  H   UNL A   1      31.199  25.318  24.672  1.00  0.00     0.028 H 
ATOM     47  H   UNL A   1      30.549  24.081  23.623  1.00  0.00     0.028 H 
ATOM     48  H   UNL A   1      30.494  25.758  23.135  1.00  0.00     0.028 H 
ENDBRANCH  17  45
ENDBRANCH  14  17
ENDBRANCH  10  13
ENDBRANCH   7  10
ENDBRANCH   4   7
ENDBRANCH   1   4
BRANCH   1  49
ATOM     49  C   UNL A   1      33.550  28.349  25.739  1.00  0.00    -0.036 C 
ATOM     50  H   UNL A   1      33.845  29.230  25.209  1.00  0.00     0.028 H 
ATOM     51  H   UNL A   1      34.090  27.479  25.431  1.00  0.00     0.028 H 
BRANCH  49  52
ATOM     52  C   UNL A   1      33.858  28.554  27.217  1.00  0.00     0.018 C 
ATOM     53  H   UNL A   1      34.853  28.214  27.413  1.00  0.00     0.049 H 
ATOM     54  H   UNL A   1      33.142  27.997  27.786  1.00  0.00     0.049 H 
BRANCH  52  55
ATOM     55  N   UNL A   1      33.753  29.951  27.603  1.00  0.00    -0.352 N 
ATOM     56  C   UNL A   1      34.642  30.727  28.299  1.00  0.00     0.251 C 
ATOM     57  H   UNL A   1      32.925  30.405  27.324  1.00  0.00     0.163 HD
ATOM     58  O   UNL A   1      34.308  31.828  28.728  1.00  0.00    -0.269 OA
BRANCH  56  59
ATOM     59  C   UNL A   1      36.007  30.222  28.549  1.00  0.00     0.039 A 
ATOM     60  C   UNL A   1      36.974  30.365  27.554  1.00  0.00    -0.049 A 
ATOM     61  C   UNL A   1      36.326  29.611  29.767  1.00  0.00    -0.049 A 
ATOM     62  C   UNL A   1      38.281  29.941  27.799  1.00  0.00    -0.053 A 
ATOM     63  H   UNL A   1      36.726  30.781  26.643  1.00  0.00     0.063 H 
ATOM     64  C   UNL A   1      37.644  29.263  30.039  1.00  0.00    -0.053 A 
ATOM     65  H   UNL A   1      35.586  29.420  30.459  1.00  0.00     0.063 H 
ATOM     66  C   UNL A   1      38.630  29.414  29.054  1.00  0.00    -0.014 A 
ATOM     67  H   UNL A   1      38.993  30.015  27.057  1.00  0.00     0.063 H 
ATOM     68  H   UNL A   1      37.896  28.894  30.968  1.00  0.00     0.063 H 
BRANCH  66  69
ATOM     69  C   UNL A   1      40.023  28.995  29.343  1.00  0.00     0.031 A 
ATOM     70  C   UNL A   1      40.918  29.873  30.168  1.00  0.00     0.074 A 
ATOM     71  C   UNL A   1      40.491  27.841  28.830  1.00  0.00     0.049 A 
ATOM     72  N   UNL A   1      42.169  29.694  30.508  1.00  0.00    -0.248 NA
ATOM     73  C   UNL A   1      40.338  31.134  30.656  1.00  0.00    -0.034 C 
ATOM     74  C   UNL A   1      39.726  26.925  27.985  1.00  0.00    -0.036 A 
ATOM     75  N   UNL A   1      41.721  27.245  28.944  1.00  0.00    -0.354 N 
ATOM     76  C   UNL A   1      42.521  30.816  31.244  1.00  0.00     0.074 A 
ATOM     77  C   UNL A   1      41.379  31.702  31.243  1.00  0.00    -0.034 C 
ATOM     78  H   UNL A   1      39.371  31.485  30.564  1.00  0.00     0.065 H 
ATOM     79  C   UNL A   1      40.491  25.863  27.687  1.00  0.00    -0.036 A 
ATOM     80  H   UNL A   1      38.755  27.070  27.669  1.00  0.00     0.065 H 
ATOM     81  C   UNL A   1      41.811  26.043  28.286  1.00  0.00     0.049 A 
ATOM     82  H   UNL A   1      42.467  27.640  29.449  1.00  0.00     0.167 HD
ATOM     83  C   UNL A   1      43.685  31.068  31.891  1.00  0.00     0.037 A 
ATOM     84  H   UNL A   1      41.376  32.652  31.648  1.00  0.00     0.065 H 
ATOM     85  H   UNL A   1      40.194  25.050  27.124  1.00  0.00     0.065 H 
ATOM     86  C   UNL A   1      42.842  25.183  28.178  1.00  0.00     0.037 A 
ATOM     87  C   UNL A   1      44.812  30.175  31.897  1.00  0.00     0.049 A 
ATOM     88  C   UNL A   1      44.138  25.500  28.873  1.00  0.00     0.074 A 
ATOM     89  C   UNL A   1      46.019  30.315  32.559  1.00  0.00    -0.036 A 
ATOM     90  N   UNL A   1      44.875  28.976  31.201  1.00  0.00    -0.354 N 
ATOM     91  N   UNL A   1      44.442  26.533  29.621  1.00  0.00    -0.248 NA
ATOM     92  C   UNL A   1      45.232  24.532  28.712  1.00  0.00    -0.034 C 
ATOM     93  C   UNL A   1      46.833  29.232  32.216  1.00  0.00    -0.036 A 
ATOM     94  H   UNL A   1      46.273  31.087  33.197  1.00  0.00     0.065 H 
ATOM     95  C   UNL A   1      46.113  28.383  31.389  1.00  0.00     0.049 A 
ATOM     96  H   UNL A   1      44.148  28.602  30.653  1.00  0.00     0.167 HD
ATOM     97  C   UNL A   1      45.752  26.333  30.035  1.00  0.00     0.074 A 
ATOM     98  C   UNL A   1      46.179  25.070  29.469  1.00  0.00    -0.034 C 
ATOM     99  H   UNL A   1      45.256  23.663  28.158  1.00  0.00     0.065 H 
ATOM    100  H   UNL A   1      47.807  29.089  32.526  1.00  0.00     0.065 H 
ATOM    101  C   UNL A   1      46.528  27.127  30.814  1.00  0.00     0.037 A 
ATOM    102  H   UNL A   1      47.104  24.643  29.634  1.00  0.00     0.065 H 
BRANCH  83 103
ATOM    103  C   UNL A   1      43.791  32.363  32.646  1.00  0.00     0.064 A 
ATOM    104  C   UNL A   1      44.289  33.528  32.042  1.00  0.00     0.173 A 
ATOM    105  C   UNL A   1      43.364  32.449  33.980  1.00  0.00     0.173 A 
ATOM    106  F   UNL A   1      44.723  33.498  30.772  1.00  0.00    -0.203 F 
ATOM    107  C   UNL A   1      44.385  34.721  32.754  1.00  0.00     0.198 A 
ATOM    108  C   UNL A   1      43.429  33.652  34.678  1.00  0.00     0.198 A 
ATOM    109  F   UNL A   1      42.875  31.367  34.605  1.00  0.00    -0.203 F 
ATOM    110  F   UNL A   1      44.917  35.805  32.172  1.00  0.00    -0.200 F 
ATOM    111  C   UNL A   1      43.948  34.784  34.068  1.00  0.00     0.200 A 
ATOM    112  F   UNL A   1      42.991  33.715  35.942  1.00  0.00    -0.200 F 
ATOM    113  F   UNL A   1      44.033  35.934  34.749  1.00  0.00    -0.200 F 
ENDBRANCH  83 103
BRANCH  86 114
ATOM    114  C   UNL A   1      42.659  23.921  27.415  1.00  0.00     0.064 A 
ATOM    115  C   UNL A   1      43.010  23.844  26.062  1.00  0.00     0.173 A 
ATOM    116  C   UNL A   1      42.191  22.753  28.036  1.00  0.00     0.173 A 
ATOM    117  F   UNL A   1      43.444  24.939  25.419  1.00  0.00    -0.203 F 
ATOM    118  C   UNL A   1      42.905  22.646  25.357  1.00  0.00     0.198 A 
ATOM    119  C   UNL A   1      42.112  21.549  27.338  1.00  0.00     0.198 A 
ATOM    120  F   UNL A   1      41.848  22.773  29.332  1.00  0.00    -0.203 F 
ATOM    121  F   UNL A   1      43.231  22.605  24.058  1.00  0.00    -0.200 F 
ATOM    122  C   UNL A   1      42.468  21.497  25.999  1.00  0.00     0.200 A 
ATOM    123  F   UNL A   1      41.707  20.438  27.968  1.00  0.00    -0.200 F 
ATOM    124  F   UNL A   1      42.392  20.340  25.328  1.00  0.00    -0.200 F 
ENDBRANCH  86 114
BRANCH 101 125
ATOM    125  C   UNL A   1      47.925  26.661  31.111  1.00  0.00     0.064 A 
ATOM    126  C   UNL A   1      48.198  25.806  32.188  1.00  0.00     0.173 A 
ATOM    127  C   UNL A   1      48.987  27.004  30.258  1.00  0.00     0.173 A 
ATOM    128  F   UNL A   1      47.222  25.458  33.039  1.00  0.00    -0.203 F 
ATOM    129  C   UNL A   1      49.486  25.320  32.407  1.00  0.00     0.198 A 
ATOM    130  C   UNL A   1      50.264  26.491  30.462  1.00  0.00     0.198 A 
ATOM    131  F   UNL A   1      48.776  27.812  29.208  1.00  0.00    -0.203 F 
ATOM    132  F   UNL A   1      49.731  24.531  33.462  1.00  0.00    -0.200 F 
ATOM    133  C   UNL A   1      50.514  25.653  31.538  1.00  0.00     0.200 A 
ATOM    134  F   UNL A   1      51.252  26.798  29.608  1.00  0.00    -0.200 F 
ATOM    135  F   UNL A   1      51.746  25.166  31.737  1.00  0.00    -0.200 F 
ENDBRANCH 101 125
ENDBRANCH  66  69
ENDBRANCH  56  59
ENDBRANCH  52  55
ENDBRANCH  49  52
ENDBRANCH   1  49
TORSDOF 18
ENDMDL
MODEL 9
REMARK VINA RESULT:     -12.0      3.785      8.109
REMARK SMILES Cc1c(C)c2c(c(C)c1O)CC[C@@](C)(C(=O)NCCCCCCNC(=O)c1ccc(-c3c4nc(c(-c5c(F)c(F)c(F)c(F)c5F)c5ccc([nH]5)c(-c5c(F)c(F)c(F)c(F)c5F)c5nc(c(-c6c(F)c(F)c(F)c(F)c6F)c6ccc3[nH]6)C=C5)C=C4)cc1)O2
REMARK SMILES IDX 21 1 20 4 19 7 18 10 17 13 15 14 16 15 13 17 2 18 3 19 9 20
REMARK SMILES IDX 5 21 7 22 6 23 90 24 11 25 12 26 1 31 4 35 10 39 8 41 14 45
REMARK SMILES IDX 22 49 23 52 24 55 25 56 26 58 27 59 28 60 89 61 29 62 88 64
REMARK SMILES IDX 30 66 31 69 32 70 82 71 33 72 87 73 81 74 83 75 34 76 86 77
REMARK SMILES IDX 80 79 79 81 35 83 67 86 47 87 66 88 48 89 51 90 65 91 84 92
REMARK SMILES IDX 49 93 50 95 64 97 85 98 52 101 36 103 37 104 45 105 38 106
REMARK SMILES IDX 39 107 43 108 46 109 40 110 41 111 44 112 42 113 68 114
REMARK SMILES IDX 69 115 77 116 70 117 71 118 75 119 78 120 72 121 73 122
REMARK SMILES IDX 76 123 74 124 53 125 54 126 62 127 55 128 56 129 60 130
REMARK SMILES IDX 63 131 57 132 58 133 61 134 59 135
REMARK H PARENT 21 2 21 3 20 5 20 6 19 8 19 9 18 11 18 12 17 16 11 27 11 28
REMARK H PARENT 12 29 12 30 1 32 1 33 1 34 4 36 4 37 4 38 10 40 8 42 8 43 8 44
REMARK H PARENT 14 46 14 47 14 48 22 50 22 51 23 53 23 54 24 57 28 63 89 65
REMARK H PARENT 29 67 88 68 87 78 81 80 83 82 86 84 80 85 48 94 51 96 84 99
REMARK H PARENT 49 100 85 102
REMARK Flexibility Score: inf
ROOT
ATOM      1  C   UNL A   1      35.761  21.860  24.355  1.00  0.00    -0.052 C 
ATOM      2  H   UNL A   1      35.793  21.428  23.376  1.00  0.00     0.027 H 
ATOM      3  H   UNL A   1      36.459  21.420  25.036  1.00  0.00     0.027 H 
ENDROOT
BRANCH   1   4
ATOM      4  C   UNL A   1      34.368  21.607  24.941  1.00  0.00    -0.052 C 
ATOM      5  H   UNL A   1      33.708  22.362  24.570  1.00  0.00     0.027 H 
ATOM      6  H   UNL A   1      34.089  20.618  24.642  1.00  0.00     0.027 H 
BRANCH   4   7
ATOM      7  C   UNL A   1      34.305  21.629  26.470  1.00  0.00    -0.036 C 
ATOM      8  H   UNL A   1      33.606  20.885  26.791  1.00  0.00     0.028 H 
ATOM      9  H   UNL A   1      35.296  21.436  26.828  1.00  0.00     0.028 H 
BRANCH   7  10
ATOM     10  C   UNL A   1      33.876  22.977  27.045  1.00  0.00     0.017 C 
ATOM     11  H   UNL A   1      34.376  23.132  27.978  1.00  0.00     0.049 H 
ATOM     12  H   UNL A   1      34.137  23.740  26.343  1.00  0.00     0.049 H 
BRANCH  10  13
ATOM     13  N   UNL A   1      32.441  23.026  27.263  1.00  0.00    -0.353 N 
ATOM     14  C   UNL A   1      31.468  23.813  26.703  1.00  0.00     0.263 C 
ATOM     15  O   UNL A   1      30.319  23.650  27.123  1.00  0.00    -0.270 OA
ATOM     16  H   UNL A   1      32.108  22.383  27.930  1.00  0.00     0.163 HD
BRANCH  14  17
ATOM     17  C   UNL A   1      31.817  24.828  25.580  1.00  0.00     0.184 C 
ATOM     18  C   UNL A   1      29.887  28.366  22.957  1.00  0.00    -0.002 A 
ATOM     19  C   UNL A   1      29.728  27.269  23.840  1.00  0.00    -0.002 A 
ATOM     20  C   UNL A   1      31.186  28.845  22.694  1.00  0.00     0.122 A 
ATOM     21  C   UNL A   1      30.861  26.729  24.476  1.00  0.00     0.127 A 
ATOM     22  C   UNL A   1      32.316  28.322  23.339  1.00  0.00    -0.002 A 
ATOM     23  C   UNL A   1      32.142  27.278  24.267  1.00  0.00     0.001 A 
ATOM     24  O   UNL A   1      30.652  25.638  25.296  1.00  0.00    -0.477 OA
ATOM     25  C   UNL A   1      33.333  26.716  24.994  1.00  0.00    -0.019 C 
ATOM     26  C   UNL A   1      32.891  25.788  26.100  1.00  0.00     0.000 C 
ATOM     27  H   UNL A   1      33.899  27.521  25.415  1.00  0.00     0.032 H 
ATOM     28  H   UNL A   1      33.932  26.165  24.300  1.00  0.00     0.032 H 
ATOM     29  H   UNL A   1      32.490  26.365  26.908  1.00  0.00     0.032 H 
ATOM     30  H   UNL A   1      33.732  25.223  26.441  1.00  0.00     0.032 H 
BRANCH  18  31
ATOM     31  C   UNL A   1      28.687  28.963  22.267  1.00  0.00    -0.036 C 
ATOM     32  H   UNL A   1      28.175  28.201  21.717  1.00  0.00     0.028 H 
ATOM     33  H   UNL A   1      29.007  29.733  21.597  1.00  0.00     0.028 H 
ATOM     34  H   UNL A   1      28.025  29.380  22.999  1.00  0.00     0.028 H 
ENDBRANCH  18  31
BRANCH  19  35
ATOM     35  C   UNL A   1      28.362  26.680  24.096  1.00  0.00    -0.036 C 
ATOM     36  H   UNL A   1      27.747  26.815  23.232  1.00  0.00     0.028 H 
ATOM     37  H   UNL A   1      27.912  27.172  24.934  1.00  0.00     0.028 H 
ATOM     38  H   UNL A   1      28.457  25.635  24.307  1.00  0.00     0.028 H 
ENDBRANCH  19  35
BRANCH  20  39
ATOM     39  O   UNL A   1      31.408  29.849  21.787  1.00  0.00    -0.507 OA
ATOM     40  H   UNL A   1      30.773  30.027  21.122  1.00  0.00     0.293 HD
ENDBRANCH  20  39
BRANCH  22  41
ATOM     41  C   UNL A   1      33.699  28.848  23.043  1.00  0.00    -0.036 C 
ATOM     42  H   UNL A   1      33.946  28.646  22.022  1.00  0.00     0.028 H 
ATOM     43  H   UNL A   1      34.408  28.365  23.684  1.00  0.00     0.028 H 
ATOM     44  H   UNL A   1      33.724  29.903  23.214  1.00  0.00     0.028 H 
ENDBRANCH  22  41
BRANCH  17  45
ATOM     45  C   UNL A   1      32.108  24.013  24.301  1.00  0.00    -0.016 C 
ATOM     46  H   UNL A   1      32.252  24.680  23.478  1.00  0.00     0.028 H 
ATOM     47  H   UNL A   1      31.282  23.365  24.095  1.00  0.00     0.028 H 
ATOM     48  H   UNL A   1      32.992  23.428  24.445  1.00  0.00     0.028 H 
ENDBRANCH  17  45
ENDBRANCH  14  17
ENDBRANCH  10  13
ENDBRANCH   7  10
ENDBRANCH   4   7
ENDBRANCH   1   4
BRANCH   1  49
ATOM     49  C   UNL A   1      36.150  23.336  24.235  1.00  0.00    -0.036 C 
ATOM     50  H   UNL A   1      35.258  23.923  24.286  1.00  0.00     0.028 H 
ATOM     51  H   UNL A   1      36.665  23.443  23.303  1.00  0.00     0.028 H 
BRANCH  49  52
ATOM     52  C   UNL A   1      37.104  23.820  25.320  1.00  0.00     0.018 C 
ATOM     53  H   UNL A   1      36.550  23.981  26.221  1.00  0.00     0.049 H 
ATOM     54  H   UNL A   1      37.559  24.728  24.981  1.00  0.00     0.049 H 
BRANCH  52  55
ATOM     55  N   UNL A   1      38.161  22.857  25.582  1.00  0.00    -0.352 N 
ATOM     56  C   UNL A   1      39.383  23.050  26.170  1.00  0.00     0.251 C 
ATOM     57  H   UNL A   1      37.969  21.933  25.299  1.00  0.00     0.163 HD
ATOM     58  O   UNL A   1      40.244  22.175  26.123  1.00  0.00    -0.269 OA
BRANCH  56  59
ATOM     59  C   UNL A   1      39.670  24.330  26.847  1.00  0.00     0.039 A 
ATOM     60  C   UNL A   1      39.258  24.504  28.169  1.00  0.00    -0.049 A 
ATOM     61  C   UNL A   1      40.347  25.354  26.174  1.00  0.00    -0.049 A 
ATOM     62  C   UNL A   1      39.571  25.688  28.836  1.00  0.00    -0.053 A 
ATOM     63  H   UNL A   1      38.725  23.762  28.649  1.00  0.00     0.063 H 
ATOM     64  C   UNL A   1      40.728  26.498  26.864  1.00  0.00    -0.053 A 
ATOM     65  H   UNL A   1      40.562  25.258  25.170  1.00  0.00     0.063 H 
ATOM     66  C   UNL A   1      40.333  26.680  28.198  1.00  0.00    -0.014 A 
ATOM     67  H   UNL A   1      39.242  25.835  29.803  1.00  0.00     0.063 H 
ATOM     68  H   UNL A   1      41.302  27.214  26.395  1.00  0.00     0.063 H 
BRANCH  66  69
ATOM     69  C   UNL A   1      40.707  27.928  28.906  1.00  0.00     0.031 A 
ATOM     70  C   UNL A   1      42.110  28.119  29.406  1.00  0.00     0.074 A 
ATOM     71  C   UNL A   1      39.772  28.871  29.133  1.00  0.00     0.049 A 
ATOM     72  N   UNL A   1      42.623  29.125  30.068  1.00  0.00    -0.248 NA
ATOM     73  C   UNL A   1      43.057  27.023  29.150  1.00  0.00    -0.034 C 
ATOM     74  C   UNL A   1      38.371  28.780  28.727  1.00  0.00    -0.036 A 
ATOM     75  N   UNL A   1      39.862  30.088  29.760  1.00  0.00    -0.354 N 
ATOM     76  C   UNL A   1      43.946  28.780  30.306  1.00  0.00     0.074 A 
ATOM     77  C   UNL A   1      44.139  27.446  29.783  1.00  0.00    -0.034 C 
ATOM     78  H   UNL A   1      42.914  26.150  28.617  1.00  0.00     0.065 H 
ATOM     79  C   UNL A   1      37.738  29.910  29.082  1.00  0.00    -0.036 A 
ATOM     80  H   UNL A   1      37.937  27.977  28.246  1.00  0.00     0.065 H 
ATOM     81  C   UNL A   1      38.680  30.786  29.774  1.00  0.00     0.049 A 
ATOM     82  H   UNL A   1      40.695  30.429  30.160  1.00  0.00     0.167 HD
ATOM     83  C   UNL A   1      44.921  29.525  30.881  1.00  0.00     0.037 A 
ATOM     84  H   UNL A   1      45.007  26.897  29.888  1.00  0.00     0.065 H 
ATOM     85  H   UNL A   1      36.746  30.125  28.896  1.00  0.00     0.065 H 
ATOM     86  C   UNL A   1      38.389  31.997  30.288  1.00  0.00     0.037 A 
ATOM     87  C   UNL A   1      44.722  30.857  31.388  1.00  0.00     0.049 A 
ATOM     88  C   UNL A   1      39.477  32.792  30.955  1.00  0.00     0.074 A 
ATOM     89  C   UNL A   1      45.655  31.713  31.946  1.00  0.00    -0.036 A 
ATOM     90  N   UNL A   1      43.505  31.523  31.405  1.00  0.00    -0.354 N 
ATOM     91  N   UNL A   1      40.741  32.486  31.120  1.00  0.00    -0.248 NA
ATOM     92  C   UNL A   1      39.099  34.102  31.506  1.00  0.00    -0.034 C 
ATOM     93  C   UNL A   1      44.991  32.873  32.355  1.00  0.00    -0.036 A 
ATOM     94  H   UNL A   1      46.666  31.527  32.043  1.00  0.00     0.065 H 
ATOM     95  C   UNL A   1      43.656  32.767  31.996  1.00  0.00     0.049 A 
ATOM     96  H   UNL A   1      42.660  31.165  31.050  1.00  0.00     0.167 HD
ATOM     97  C   UNL A   1      41.315  33.567  31.774  1.00  0.00     0.074 A 
ATOM     98  C   UNL A   1      40.263  34.546  31.961  1.00  0.00    -0.034 C 
ATOM     99  H   UNL A   1      38.174  34.555  31.531  1.00  0.00     0.065 H 
ATOM    100  H   UNL A   1      45.422  33.673  32.843  1.00  0.00     0.065 H 
ATOM    101  C   UNL A   1      42.598  33.731  32.182  1.00  0.00     0.037 A 
ATOM    102  H   UNL A   1      40.403  35.472  32.395  1.00  0.00     0.065 H 
BRANCH  83 103
ATOM    103  C   UNL A   1      46.288  28.912  30.989  1.00  0.00     0.064 A 
ATOM    104  C   UNL A   1      47.238  29.048  29.964  1.00  0.00     0.173 A 
ATOM    105  C   UNL A   1      46.666  28.208  32.142  1.00  0.00     0.173 A 
ATOM    106  F   UNL A   1      46.925  29.702  28.835  1.00  0.00    -0.203 F 
ATOM    107  C   UNL A   1      48.501  28.473  30.076  1.00  0.00     0.198 A 
ATOM    108  C   UNL A   1      47.942  27.664  32.265  1.00  0.00     0.198 A 
ATOM    109  F   UNL A   1      45.799  28.051  33.154  1.00  0.00    -0.203 F 
ATOM    110  F   UNL A   1      49.371  28.568  29.059  1.00  0.00    -0.200 F 
ATOM    111  C   UNL A   1      48.855  27.789  31.228  1.00  0.00     0.200 A 
ATOM    112  F   UNL A   1      48.288  27.017  33.386  1.00  0.00    -0.200 F 
ATOM    113  F   UNL A   1      50.074  27.244  31.338  1.00  0.00    -0.200 F 
ENDBRANCH  83 103
BRANCH  86 114
ATOM    114  C   UNL A   1      37.012  32.537  30.138  1.00  0.00     0.064 A 
ATOM    115  C   UNL A   1      36.057  32.351  31.146  1.00  0.00     0.173 A 
ATOM    116  C   UNL A   1      36.643  33.301  29.021  1.00  0.00     0.173 A 
ATOM    117  F   UNL A   1      36.357  31.613  32.225  1.00  0.00    -0.203 F 
ATOM    118  C   UNL A   1      34.785  32.912  31.045  1.00  0.00     0.198 A 
ATOM    119  C   UNL A   1      35.380  33.884  28.933  1.00  0.00     0.198 A 
ATOM    120  F   UNL A   1      37.524  33.513  28.032  1.00  0.00    -0.203 F 
ATOM    121  F   UNL A   1      33.885  32.705  32.015  1.00  0.00    -0.200 F 
ATOM    122  C   UNL A   1      34.452  33.688  29.945  1.00  0.00     0.200 A 
ATOM    123  F   UNL A   1      35.070  34.647  27.877  1.00  0.00    -0.200 F 
ATOM    124  F   UNL A   1      33.238  34.248  29.860  1.00  0.00    -0.200 F 
ENDBRANCH  86 114
BRANCH 101 125
ATOM    125  C   UNL A   1      42.951  35.017  32.873  1.00  0.00     0.064 A 
ATOM    126  C   UNL A   1      43.436  36.123  32.160  1.00  0.00     0.173 A 
ATOM    127  C   UNL A   1      42.719  35.173  34.250  1.00  0.00     0.173 A 
ATOM    128  F   UNL A   1      43.685  36.022  30.846  1.00  0.00    -0.203 F 
ATOM    129  C   UNL A   1      43.688  37.333  32.802  1.00  0.00     0.198 A 
ATOM    130  C   UNL A   1      42.941  36.393  34.880  1.00  0.00     0.198 A 
ATOM    131  F   UNL A   1      42.247  34.148  34.976  1.00  0.00    -0.203 F 
ATOM    132  F   UNL A   1      44.183  38.367  32.106  1.00  0.00    -0.200 F 
ATOM    133  C   UNL A   1      43.429  37.471  34.156  1.00  0.00     0.200 A 
ATOM    134  F   UNL A   1      42.672  36.530  36.186  1.00  0.00    -0.200 F 
ATOM    135  F   UNL A   1      43.650  38.644  34.767  1.00  0.00    -0.200 F 
ENDBRANCH 101 125
ENDBRANCH  66  69
ENDBRANCH  56  59
ENDBRANCH  52  55
ENDBRANCH  49  52
ENDBRANCH   1  49
TORSDOF 18
ENDMDL
MODEL 10
REMARK VINA RESULT:     -12.0      1.762      7.582
REMARK SMILES Cc1c(C)c2c(c(C)c1O)CC[C@@](C)(C(=O)NCCCCCCNC(=O)c1ccc(-c3c4nc(c(-c5c(F)c(F)c(F)c(F)c5F)c5ccc([nH]5)c(-c5c(F)c(F)c(F)c(F)c5F)c5nc(c(-c6c(F)c(F)c(F)c(F)c6F)c6ccc3[nH]6)C=C5)C=C4)cc1)O2
REMARK SMILES IDX 21 1 20 4 19 7 18 10 17 13 15 14 16 15 13 17 2 18 3 19 9 20
REMARK SMILES IDX 5 21 7 22 6 23 90 24 11 25 12 26 1 31 4 35 10 39 8 41 14 45
REMARK SMILES IDX 22 49 23 52 24 55 25 56 26 58 27 59 28 60 89 61 29 62 88 64
REMARK SMILES IDX 30 66 31 69 32 70 82 71 33 72 87 73 81 74 83 75 34 76 86 77
REMARK SMILES IDX 80 79 79 81 35 83 67 86 47 87 66 88 48 89 51 90 65 91 84 92
REMARK SMILES IDX 49 93 50 95 64 97 85 98 52 101 36 103 37 104 45 105 38 106
REMARK SMILES IDX 39 107 43 108 46 109 40 110 41 111 44 112 42 113 68 114
REMARK SMILES IDX 69 115 77 116 70 117 71 118 75 119 78 120 72 121 73 122
REMARK SMILES IDX 76 123 74 124 53 125 54 126 62 127 55 128 56 129 60 130
REMARK SMILES IDX 63 131 57 132 58 133 61 134 59 135
REMARK H PARENT 21 2 21 3 20 5 20 6 19 8 19 9 18 11 18 12 17 16 11 27 11 28
REMARK H PARENT 12 29 12 30 1 32 1 33 1 34 4 36 4 37 4 38 10 40 8 42 8 43 8 44
REMARK H PARENT 14 46 14 47 14 48 22 50 22 51 23 53 23 54 24 57 28 63 89 65
REMARK H PARENT 29 67 88 68 87 78 81 80 83 82 86 84 80 85 48 94 51 96 84 99
REMARK H PARENT 49 100 85 102
REMARK Flexibility Score: inf
ROOT
ATOM      1  C   UNL A   1      31.383  28.003  25.206  1.00  0.00    -0.052 C 
ATOM      2  H   UNL A   1      32.247  27.520  24.799  1.00  0.00     0.027 H 
ATOM      3  H   UNL A   1      30.679  27.322  25.638  1.00  0.00     0.027 H 
ENDROOT
BRANCH   1   4
ATOM      4  C   UNL A   1      30.650  28.709  24.060  1.00  0.00    -0.052 C 
ATOM      5  H   UNL A   1      29.748  28.169  23.859  1.00  0.00     0.027 H 
ATOM      6  H   UNL A   1      30.476  29.714  24.384  1.00  0.00     0.027 H 
BRANCH   4   7
ATOM      7  C   UNL A   1      31.446  28.807  22.757  1.00  0.00    -0.036 C 
ATOM      8  H   UNL A   1      30.828  28.459  21.955  1.00  0.00     0.028 H 
ATOM      9  H   UNL A   1      31.727  29.833  22.637  1.00  0.00     0.028 H 
BRANCH   7  10
ATOM     10  C   UNL A   1      32.734  27.988  22.764  1.00  0.00     0.017 C 
ATOM     11  H   UNL A   1      33.570  28.653  22.703  1.00  0.00     0.049 H 
ATOM     12  H   UNL A   1      32.767  27.420  23.671  1.00  0.00     0.049 H 
BRANCH  10  13
ATOM     13  N   UNL A   1      32.781  27.064  21.645  1.00  0.00    -0.353 N 
ATOM     14  C   UNL A   1      32.835  25.695  21.604  1.00  0.00     0.263 C 
ATOM     15  O   UNL A   1      32.905  25.181  20.484  1.00  0.00    -0.270 OA
ATOM     16  H   UNL A   1      32.774  27.497  20.760  1.00  0.00     0.163 HD
BRANCH  14  17
ATOM     17  C   UNL A   1      32.779  24.858  22.911  1.00  0.00     0.184 C 
ATOM     18  C   UNL A   1      32.794  20.317  24.491  1.00  0.00    -0.002 A 
ATOM     19  C   UNL A   1      32.667  21.243  23.426  1.00  0.00    -0.002 A 
ATOM     20  C   UNL A   1      33.216  20.784  25.752  1.00  0.00     0.122 A 
ATOM     21  C   UNL A   1      33.024  22.588  23.638  1.00  0.00     0.127 A 
ATOM     22  C   UNL A   1      33.590  22.119  25.963  1.00  0.00    -0.002 A 
ATOM     23  C   UNL A   1      33.526  23.018  24.882  1.00  0.00     0.001 A 
ATOM     24  O   UNL A   1      32.845  23.453  22.577  1.00  0.00    -0.477 OA
ATOM     25  C   UNL A   1      33.947  24.449  25.073  1.00  0.00    -0.019 C 
ATOM     26  C   UNL A   1      34.028  25.162  23.744  1.00  0.00     0.000 C 
ATOM     27  H   UNL A   1      34.908  24.474  25.544  1.00  0.00     0.032 H 
ATOM     28  H   UNL A   1      33.222  24.943  25.685  1.00  0.00     0.032 H 
ATOM     29  H   UNL A   1      34.896  24.828  23.215  1.00  0.00     0.032 H 
ATOM     30  H   UNL A   1      34.090  26.216  23.913  1.00  0.00     0.032 H 
BRANCH  18  31
ATOM     31  C   UNL A   1      32.421  18.870  24.286  1.00  0.00    -0.036 C 
ATOM     32  H   UNL A   1      33.220  18.364  23.786  1.00  0.00     0.028 H 
ATOM     33  H   UNL A   1      31.534  18.811  23.692  1.00  0.00     0.028 H 
ATOM     34  H   UNL A   1      32.246  18.409  25.237  1.00  0.00     0.028 H 
ENDBRANCH  18  31
BRANCH  19  35
ATOM     35  C   UNL A   1      32.153  20.799  22.078  1.00  0.00    -0.036 C 
ATOM     36  H   UNL A   1      31.945  21.656  21.474  1.00  0.00     0.028 H 
ATOM     37  H   UNL A   1      31.257  20.228  22.208  1.00  0.00     0.028 H 
ATOM     38  H   UNL A   1      32.894  20.194  21.595  1.00  0.00     0.028 H 
ENDBRANCH  19  35
BRANCH  20  39
ATOM     39  O   UNL A   1      33.278  19.951  26.839  1.00  0.00    -0.507 OA
ATOM     40  H   UNL A   1      33.721  20.228  27.616  1.00  0.00     0.293 HD
ENDBRANCH  20  39
BRANCH  22  41
ATOM     41  C   UNL A   1      34.038  22.600  27.322  1.00  0.00    -0.036 C 
ATOM     42  H   UNL A   1      34.909  22.057  27.623  1.00  0.00     0.028 H 
ATOM     43  H   UNL A   1      33.254  22.440  28.033  1.00  0.00     0.028 H 
ATOM     44  H   UNL A   1      34.267  23.643  27.272  1.00  0.00     0.028 H 
ENDBRANCH  22  41
BRANCH  17  45
ATOM     45  C   UNL A   1      31.391  25.095  23.546  1.00  0.00    -0.016 C 
ATOM     46  H   UNL A   1      30.786  25.672  22.878  1.00  0.00     0.028 H 
ATOM     47  H   UNL A   1      31.505  25.623  24.469  1.00  0.00     0.028 H 
ATOM     48  H   UNL A   1      30.918  24.153  23.731  1.00  0.00     0.028 H 
ENDBRANCH  17  45
ENDBRANCH  14  17
ENDBRANCH  10  13
ENDBRANCH   7  10
ENDBRANCH   4   7
ENDBRANCH   1   4
BRANCH   1  49
ATOM     49  C   UNL A   1      31.842  28.923  26.340  1.00  0.00    -0.036 C 
ATOM     50  H   UNL A   1      32.110  28.314  27.178  1.00  0.00     0.028 H 
ATOM     51  H   UNL A   1      31.026  29.582  26.550  1.00  0.00     0.028 H 
BRANCH  49  52
ATOM     52  C   UNL A   1      33.034  29.803  25.987  1.00  0.00     0.018 C 
ATOM     53  H   UNL A   1      33.206  29.746  24.932  1.00  0.00     0.049 H 
ATOM     54  H   UNL A   1      33.883  29.448  26.535  1.00  0.00     0.049 H 
BRANCH  52  55
ATOM     55  N   UNL A   1      32.810  31.192  26.353  1.00  0.00    -0.352 N 
ATOM     56  C   UNL A   1      33.452  31.955  27.292  1.00  0.00     0.251 C 
ATOM     57  H   UNL A   1      32.096  31.650  25.853  1.00  0.00     0.163 HD
ATOM     58  O   UNL A   1      32.999  33.046  27.626  1.00  0.00    -0.269 OA
BRANCH  56  59
ATOM     59  C   UNL A   1      34.688  31.447  27.920  1.00  0.00     0.039 A 
ATOM     60  C   UNL A   1      35.780  32.305  28.054  1.00  0.00    -0.049 A 
ATOM     61  C   UNL A   1      34.763  30.126  28.375  1.00  0.00    -0.049 A 
ATOM     62  C   UNL A   1      36.935  31.854  28.694  1.00  0.00    -0.053 A 
ATOM     63  H   UNL A   1      35.735  33.267  27.683  1.00  0.00     0.063 H 
ATOM     64  C   UNL A   1      35.882  29.703  29.082  1.00  0.00    -0.053 A 
ATOM     65  H   UNL A   1      33.991  29.469  28.185  1.00  0.00     0.063 H 
ATOM     66  C   UNL A   1      36.982  30.559  29.238  1.00  0.00    -0.014 A 
ATOM     67  H   UNL A   1      37.756  32.473  28.769  1.00  0.00     0.063 H 
ATOM     68  H   UNL A   1      35.903  28.758  29.494  1.00  0.00     0.063 H 
BRANCH  66  69
ATOM     69  C   UNL A   1      38.187  30.077  29.955  1.00  0.00     0.031 A 
ATOM     70  C   UNL A   1      38.470  30.547  31.352  1.00  0.00     0.074 A 
ATOM     71  C   UNL A   1      39.046  29.248  29.331  1.00  0.00     0.049 A 
ATOM     72  N   UNL A   1      39.481  30.260  32.133  1.00  0.00    -0.248 NA
ATOM     73  C   UNL A   1      37.501  31.482  31.944  1.00  0.00    -0.034 C 
ATOM     74  C   UNL A   1      38.894  28.755  27.963  1.00  0.00    -0.036 A 
ATOM     75  N   UNL A   1      40.214  28.676  29.767  1.00  0.00    -0.354 N 
ATOM     76  C   UNL A   1      39.268  30.979  33.300  1.00  0.00     0.074 A 
ATOM     77  C   UNL A   1      38.073  31.770  33.102  1.00  0.00    -0.034 C 
ATOM     78  H   UNL A   1      36.608  31.826  31.556  1.00  0.00     0.065 H 
ATOM     79  C   UNL A   1      39.911  27.924  27.683  1.00  0.00    -0.036 A 
ATOM     80  H   UNL A   1      38.130  29.005  27.317  1.00  0.00     0.065 H 
ATOM     81  C   UNL A   1      40.805  27.858  28.836  1.00  0.00     0.049 A 
ATOM     82  H   UNL A   1      40.592  28.836  30.662  1.00  0.00     0.167 HD
ATOM     83  C   UNL A   1      39.988  30.957  34.448  1.00  0.00     0.037 A 
ATOM     84  H   UNL A   1      37.715  32.466  33.775  1.00  0.00     0.065 H 
ATOM     85  H   UNL A   1      40.040  27.414  26.795  1.00  0.00     0.065 H 
ATOM     86  C   UNL A   1      41.939  27.135  28.905  1.00  0.00     0.037 A 
ATOM     87  C   UNL A   1      41.169  30.158  34.641  1.00  0.00     0.049 A 
ATOM     88  C   UNL A   1      42.745  27.153  30.176  1.00  0.00     0.074 A 
ATOM     89  C   UNL A   1      41.944  30.028  35.780  1.00  0.00    -0.036 A 
ATOM     90  N   UNL A   1      41.750  29.358  33.667  1.00  0.00    -0.354 N 
ATOM     91  N   UNL A   1      42.502  27.786  31.298  1.00  0.00    -0.248 NA
ATOM     92  C   UNL A   1      43.979  26.355  30.191  1.00  0.00    -0.034 C 
ATOM     93  C   UNL A   1      43.026  29.197  35.478  1.00  0.00    -0.036 A 
ATOM     94  H   UNL A   1      41.754  30.468  36.694  1.00  0.00     0.065 H 
ATOM     95  C   UNL A   1      42.894  28.758  34.169  1.00  0.00     0.049 A 
ATOM     96  H   UNL A   1      41.402  29.235  32.755  1.00  0.00     0.167 HD
ATOM     97  C   UNL A   1      43.538  27.451  32.158  1.00  0.00     0.074 A 
ATOM     98  C   UNL A   1      44.404  26.543  31.433  1.00  0.00    -0.034 C 
ATOM     99  H   UNL A   1      44.401  25.795  29.435  1.00  0.00     0.065 H 
ATOM    100  H   UNL A   1      43.795  28.952  36.121  1.00  0.00     0.065 H 
ATOM    101  C   UNL A   1      43.751  27.861  33.434  1.00  0.00     0.037 A 
ATOM    102  H   UNL A   1      45.246  26.100  31.833  1.00  0.00     0.065 H 
BRANCH  83 103
ATOM    103  C   UNL A   1      39.514  31.822  35.581  1.00  0.00     0.064 A 
ATOM    104  C   UNL A   1      39.970  33.140  35.741  1.00  0.00     0.173 A 
ATOM    105  C   UNL A   1      38.571  31.340  36.501  1.00  0.00     0.173 A 
ATOM    106  F   UNL A   1      40.882  33.647  34.897  1.00  0.00    -0.203 F 
ATOM    107  C   UNL A   1      39.525  33.930  36.797  1.00  0.00     0.198 A 
ATOM    108  C   UNL A   1      38.101  32.145  37.535  1.00  0.00     0.198 A 
ATOM    109  F   UNL A   1      38.097  30.089  36.393  1.00  0.00    -0.203 F 
ATOM    110  F   UNL A   1      40.019  35.166  36.961  1.00  0.00    -0.200 F 
ATOM    111  C   UNL A   1      38.586  33.436  37.688  1.00  0.00     0.200 A 
ATOM    112  F   UNL A   1      37.181  31.672  38.386  1.00  0.00    -0.200 F 
ATOM    113  F   UNL A   1      38.152  34.201  38.699  1.00  0.00    -0.200 F 
ENDBRANCH  83 103
BRANCH  86 114
ATOM    114  C   UNL A   1      42.341  26.301  27.743  1.00  0.00     0.064 A 
ATOM    115  C   UNL A   1      43.311  26.753  26.838  1.00  0.00     0.173 A 
ATOM    116  C   UNL A   1      41.815  25.016  27.548  1.00  0.00     0.173 A 
ATOM    117  F   UNL A   1      43.831  27.983  26.972  1.00  0.00    -0.203 F 
ATOM    118  C   UNL A   1      43.743  25.949  25.785  1.00  0.00     0.198 A 
ATOM    119  C   UNL A   1      42.267  24.202  26.511  1.00  0.00     0.198 A 
ATOM    120  F   UNL A   1      40.889  24.534  28.390  1.00  0.00    -0.203 F 
ATOM    121  F   UNL A   1      44.659  26.413  24.924  1.00  0.00    -0.200 F 
ATOM    122  C   UNL A   1      43.230  24.671  25.629  1.00  0.00     0.200 A 
ATOM    123  F   UNL A   1      41.782  22.961  26.376  1.00  0.00    -0.200 F 
ATOM    124  F   UNL A   1      43.664  23.889  24.632  1.00  0.00    -0.200 F 
ENDBRANCH  86 114
BRANCH 101 125
ATOM    125  C   UNL A   1      44.967  27.333  34.141  1.00  0.00     0.064 A 
ATOM    126  C   UNL A   1      44.940  26.115  34.835  1.00  0.00     0.173 A 
ATOM    127  C   UNL A   1      46.194  28.011  34.051  1.00  0.00     0.173 A 
ATOM    128  F   UNL A   1      43.791  25.435  34.960  1.00  0.00    -0.203 F 
ATOM    129  C   UNL A   1      46.094  25.601  35.423  1.00  0.00     0.198 A 
ATOM    130  C   UNL A   1      47.350  27.478  34.612  1.00  0.00     0.198 A 
ATOM    131  F   UNL A   1      46.275  29.177  33.391  1.00  0.00    -0.203 F 
ATOM    132  F   UNL A   1      46.037  24.451  36.110  1.00  0.00    -0.200 F 
ATOM    133  C   UNL A   1      47.299  26.275  35.301  1.00  0.00     0.200 A 
ATOM    134  F   UNL A   1      48.518  28.122  34.475  1.00  0.00    -0.200 F 
ATOM    135  F   UNL A   1      48.412  25.767  35.847  1.00  0.00    -0.200 F 
ENDBRANCH 101 125
ENDBRANCH  66  69
ENDBRANCH  56  59
ENDBRANCH  52  55
ENDBRANCH  49  52
ENDBRANCH   1  49
TORSDOF 18
ENDMDL
