MODEL 1
REMARK VINA RESULT:     -10.8      0.000      0.000
REMARK SMILES CC(=O)Oc1ccccc1C(=O)NCCCCCCNC(=O)c1ccc(-c2c3nc(c(-c4c(F)c(F)c(F)c(F)c4F)c4ccc([nH]4)c(-c4c(F)c(F)c(F)c(F)c4F)c4nc(c(-c5c(F)c(F)c(F)c(F)c5F)c5ccc2[nH]5)C=C4)C=C3)cc1
REMARK SMILES IDX 16 1 15 4 14 7 13 10 11 11 12 12 10 14 5 15 6 16 7 17 9 19
REMARK SMILES IDX 8 20 4 24 2 25 3 26 1 27 17 31 18 34 19 37 20 40 21 41 22 43
REMARK SMILES IDX 23 44 24 45 85 46 25 47 84 49 26 51 27 54 28 55 78 56 29 57
REMARK SMILES IDX 83 58 77 59 79 60 30 61 82 62 76 64 75 66 31 68 63 71 43 72
REMARK SMILES IDX 62 73 44 74 47 75 61 76 80 77 45 78 46 80 60 82 81 83 48 86
REMARK SMILES IDX 32 88 33 89 41 90 34 91 35 92 39 93 42 94 36 95 37 96 40 97
REMARK SMILES IDX 38 98 64 99 65 100 73 101 66 102 67 103 71 104 74 105 68 106
REMARK SMILES IDX 69 107 72 108 70 109 49 110 50 111 58 112 51 113 52 114
REMARK SMILES IDX 56 115 59 116 53 117 54 118 57 119 55 120
REMARK H PARENT 16 2 16 3 15 5 15 6 14 8 14 9 13 13 6 18 7 21 9 22 8 23 1 28
REMARK H PARENT 1 29 1 30 17 32 17 33 18 35 18 36 19 38 19 39 20 42 24 48
REMARK H PARENT 85 50 25 52 84 53 83 63 77 65 79 67 82 69 76 70 44 79 47 81
REMARK H PARENT 80 84 45 85 81 87
REMARK Flexibility Score: inf
ROOT
ATOM      1  C   UNL A   1      32.198  29.822  27.138  1.00  0.00    -0.052 C 
ATOM      2  H   UNL A   1      32.111  30.201  28.136  1.00  0.00     0.027 H 
ATOM      3  H   UNL A   1      31.686  28.903  26.943  1.00  0.00     0.027 H 
ENDROOT
BRANCH   1   4
ATOM      4  C   UNL A   1      33.676  29.491  26.905  1.00  0.00    -0.036 C 
ATOM      5  H   UNL A   1      34.156  30.386  26.568  1.00  0.00     0.028 H 
ATOM      6  H   UNL A   1      34.022  29.111  27.843  1.00  0.00     0.028 H 
BRANCH   4   7
ATOM      7  C   UNL A   1      34.000  28.392  25.897  1.00  0.00     0.018 C 
ATOM      8  H   UNL A   1      34.987  28.035  26.106  1.00  0.00     0.049 H 
ATOM      9  H   UNL A   1      33.237  27.651  26.018  1.00  0.00     0.049 H 
BRANCH   7  10
ATOM     10  N   UNL A   1      33.954  28.783  24.511  1.00  0.00    -0.352 N 
ATOM     11  C   UNL A   1      33.049  28.497  23.515  1.00  0.00     0.255 C 
ATOM     12  O   UNL A   1      33.274  29.015  22.418  1.00  0.00    -0.269 OA
ATOM     13  H   UNL A   1      34.702  29.356  24.227  1.00  0.00     0.163 HD
BRANCH  11  14
ATOM     14  C   UNL A   1      31.877  27.569  23.632  1.00  0.00     0.082 A 
ATOM     15  C   UNL A   1      30.519  27.884  23.770  1.00  0.00     0.143 A 
ATOM     16  C   UNL A   1      29.540  26.881  23.883  1.00  0.00    -0.018 A 
ATOM     17  C   UNL A   1      29.892  25.539  23.803  1.00  0.00    -0.059 A 
ATOM     18  H   UNL A   1      28.552  27.145  24.027  1.00  0.00     0.066 H 
ATOM     19  C   UNL A   1      32.200  26.196  23.533  1.00  0.00    -0.046 A 
ATOM     20  C   UNL A   1      31.224  25.195  23.616  1.00  0.00    -0.061 A 
ATOM     21  H   UNL A   1      29.170  24.805  23.881  1.00  0.00     0.062 H 
ATOM     22  H   UNL A   1      33.185  25.924  23.395  1.00  0.00     0.063 H 
ATOM     23  H   UNL A   1      31.495  24.202  23.539  1.00  0.00     0.062 H 
BRANCH  15  24
ATOM     24  O   UNL A   1      30.032  29.187  23.889  1.00  0.00    -0.426 OA
BRANCH  24  25
ATOM     25  C   UNL A   1      29.440  29.712  22.747  1.00  0.00     0.308 C 
ATOM     26  O   UNL A   1      29.889  29.688  21.612  1.00  0.00    -0.252 OA
BRANCH  25  27
ATOM     27  C   UNL A   1      28.123  30.327  23.132  1.00  0.00     0.034 C 
ATOM     28  H   UNL A   1      28.132  31.369  22.890  1.00  0.00     0.035 H 
ATOM     29  H   UNL A   1      27.968  30.206  24.184  1.00  0.00     0.035 H 
ATOM     30  H   UNL A   1      27.334  29.842  22.597  1.00  0.00     0.035 H 
ENDBRANCH  25  27
ENDBRANCH  24  25
ENDBRANCH  15  24
ENDBRANCH  11  14
ENDBRANCH   7  10
ENDBRANCH   4   7
ENDBRANCH   1   4
BRANCH   1  31
ATOM     31  C   UNL A   1      31.526  30.837  26.208  1.00  0.00    -0.052 C 
ATOM     32  H   UNL A   1      30.550  30.465  25.979  1.00  0.00     0.027 H 
ATOM     33  H   UNL A   1      32.194  30.923  25.375  1.00  0.00     0.027 H 
BRANCH  31  34
ATOM     34  C   UNL A   1      31.360  32.270  26.717  1.00  0.00    -0.036 C 
ATOM     35  H   UNL A   1      30.791  32.226  27.622  1.00  0.00     0.028 H 
ATOM     36  H   UNL A   1      30.892  32.797  25.912  1.00  0.00     0.028 H 
BRANCH  34  37
ATOM     37  C   UNL A   1      32.633  33.056  27.015  1.00  0.00     0.018 C 
ATOM     38  H   UNL A   1      33.161  33.206  26.096  1.00  0.00     0.049 H 
ATOM     39  H   UNL A   1      33.198  32.484  27.720  1.00  0.00     0.049 H 
BRANCH  37  40
ATOM     40  N   UNL A   1      32.385  34.352  27.618  1.00  0.00    -0.352 N 
ATOM     41  C   UNL A   1      32.997  34.979  28.676  1.00  0.00     0.251 C 
ATOM     42  H   UNL A   1      31.659  34.868  27.199  1.00  0.00     0.163 HD
ATOM     43  O   UNL A   1      32.548  36.047  29.083  1.00  0.00    -0.269 OA
BRANCH  41  44
ATOM     44  C   UNL A   1      34.172  34.383  29.360  1.00  0.00     0.039 A 
ATOM     45  C   UNL A   1      33.946  33.552  30.464  1.00  0.00    -0.049 A 
ATOM     46  C   UNL A   1      35.484  34.668  28.977  1.00  0.00    -0.049 A 
ATOM     47  C   UNL A   1      35.021  32.969  31.143  1.00  0.00    -0.053 A 
ATOM     48  H   UNL A   1      32.980  33.369  30.780  1.00  0.00     0.063 H 
ATOM     49  C   UNL A   1      36.555  34.029  29.606  1.00  0.00    -0.053 A 
ATOM     50  H   UNL A   1      35.664  35.353  28.225  1.00  0.00     0.063 H 
ATOM     51  C   UNL A   1      36.337  33.178  30.702  1.00  0.00    -0.014 A 
ATOM     52  H   UNL A   1      34.847  32.380  31.972  1.00  0.00     0.063 H 
ATOM     53  H   UNL A   1      37.516  34.183  29.262  1.00  0.00     0.063 H 
BRANCH  51  54
ATOM     54  C   UNL A   1      37.489  32.528  31.382  1.00  0.00     0.031 A 
ATOM     55  C   UNL A   1      38.197  31.365  30.741  1.00  0.00     0.074 A 
ATOM     56  C   UNL A   1      37.865  32.943  32.608  1.00  0.00     0.049 A 
ATOM     57  N   UNL A   1      39.177  30.630  31.207  1.00  0.00    -0.248 NA
ATOM     58  C   UNL A   1      37.719  30.955  29.413  1.00  0.00    -0.034 C 
ATOM     59  C   UNL A   1      37.230  34.023  33.364  1.00  0.00    -0.036 A 
ATOM     60  N   UNL A   1      38.861  32.494  33.441  1.00  0.00    -0.354 N 
ATOM     61  C   UNL A   1      39.417  29.662  30.240  1.00  0.00     0.074 A 
ATOM     62  C   UNL A   1      38.447  29.872  29.186  1.00  0.00    -0.034 C 
ATOM     63  H   UNL A   1      37.003  31.395  28.814  1.00  0.00     0.065 H 
ATOM     64  C   UNL A   1      37.856  34.159  34.543  1.00  0.00    -0.036 A 
ATOM     65  H   UNL A   1      36.430  34.589  33.042  1.00  0.00     0.065 H 
ATOM     66  C   UNL A   1      38.914  33.158  34.642  1.00  0.00     0.049 A 
ATOM     67  H   UNL A   1      39.478  31.765  33.199  1.00  0.00     0.167 HD
ATOM     68  C   UNL A   1      40.372  28.701  30.221  1.00  0.00     0.037 A 
ATOM     69  H   UNL A   1      38.337  29.257  28.364  1.00  0.00     0.065 H 
ATOM     70  H   UNL A   1      37.625  34.860  35.266  1.00  0.00     0.065 H 
ATOM     71  C   UNL A   1      39.717  32.975  35.708  1.00  0.00     0.037 A 
ATOM     72  C   UNL A   1      41.356  28.513  31.255  1.00  0.00     0.049 A 
ATOM     73  C   UNL A   1      40.784  31.915  35.657  1.00  0.00     0.074 A 
ATOM     74  C   UNL A   1      42.413  27.620  31.290  1.00  0.00    -0.036 A 
ATOM     75  N   UNL A   1      41.400  29.229  32.443  1.00  0.00    -0.354 N 
ATOM     76  N   UNL A   1      41.052  31.057  34.703  1.00  0.00    -0.248 NA
ATOM     77  C   UNL A   1      41.665  31.804  36.828  1.00  0.00    -0.034 C 
ATOM     78  C   UNL A   1      43.067  27.761  32.520  1.00  0.00    -0.036 A 
ATOM     79  H   UNL A   1      42.674  26.962  30.539  1.00  0.00     0.065 H 
ATOM     80  C   UNL A   1      42.450  28.778  33.229  1.00  0.00     0.049 A 
ATOM     81  H   UNL A   1      40.778  29.950  32.691  1.00  0.00     0.167 HD
ATOM     82  C   UNL A   1      42.143  30.321  35.146  1.00  0.00     0.074 A 
ATOM     83  C   UNL A   1      42.497  30.843  36.450  1.00  0.00    -0.034 C 
ATOM     84  H   UNL A   1      41.643  32.335  37.713  1.00  0.00     0.065 H 
ATOM     85  H   UNL A   1      43.871  27.202  32.842  1.00  0.00     0.065 H 
ATOM     86  C   UNL A   1      42.790  29.303  34.528  1.00  0.00     0.037 A 
ATOM     87  H   UNL A   1      43.295  30.511  37.012  1.00  0.00     0.065 H 
BRANCH  68  88
ATOM     88  C   UNL A   1      40.396  27.773  29.039  1.00  0.00     0.064 A 
ATOM     89  C   UNL A   1      39.647  26.585  29.016  1.00  0.00     0.173 A 
ATOM     90  C   UNL A   1      41.163  28.084  27.905  1.00  0.00     0.173 A 
ATOM     91  F   UNL A   1      38.903  26.237  30.077  1.00  0.00    -0.203 F 
ATOM     92  C   UNL A   1      39.698  25.726  27.923  1.00  0.00     0.198 A 
ATOM     93  C   UNL A   1      41.185  27.237  26.800  1.00  0.00     0.198 A 
ATOM     94  F   UNL A   1      41.891  29.210  27.868  1.00  0.00    -0.203 F 
ATOM     95  F   UNL A   1      39.022  24.569  27.950  1.00  0.00    -0.200 F 
ATOM     96  C   UNL A   1      40.462  26.054  26.813  1.00  0.00     0.200 A 
ATOM     97  F   UNL A   1      41.913  27.563  25.723  1.00  0.00    -0.200 F 
ATOM     98  F   UNL A   1      40.511  25.226  25.761  1.00  0.00    -0.200 F 
ENDBRANCH  68  88
BRANCH  71  99
ATOM     99  C   UNL A   1      39.549  33.835  36.908  1.00  0.00     0.064 A 
ATOM    100  C   UNL A   1      38.770  33.416  37.994  1.00  0.00     0.173 A 
ATOM    101  C   UNL A   1      40.183  35.083  37.001  1.00  0.00     0.173 A 
ATOM    102  F   UNL A   1      38.129  32.239  37.943  1.00  0.00    -0.203 F 
ATOM    103  C   UNL A   1      38.621  34.217  39.125  1.00  0.00     0.198 A 
ATOM    104  C   UNL A   1      40.055  35.871  38.142  1.00  0.00     0.198 A 
ATOM    105  F   UNL A   1      40.944  35.527  35.990  1.00  0.00    -0.203 F 
ATOM    106  F   UNL A   1      37.842  33.809  40.135  1.00  0.00    -0.200 F 
ATOM    107  C   UNL A   1      39.270  35.441  39.201  1.00  0.00     0.200 A 
ATOM    108  F   UNL A   1      40.697  37.046  38.218  1.00  0.00    -0.200 F 
ATOM    109  F   UNL A   1      39.135  36.206  40.292  1.00  0.00    -0.200 F 
ENDBRANCH  71  99
BRANCH  86 110
ATOM    110  C   UNL A   1      43.963  28.697  35.243  1.00  0.00     0.064 A 
ATOM    111  C   UNL A   1      43.813  27.595  36.097  1.00  0.00     0.173 A 
ATOM    112  C   UNL A   1      45.257  29.199  35.039  1.00  0.00     0.173 A 
ATOM    113  F   UNL A   1      42.595  27.088  36.337  1.00  0.00    -0.203 F 
ATOM    114  C   UNL A   1      44.914  27.032  36.740  1.00  0.00     0.198 A 
ATOM    115  C   UNL A   1      46.359  28.616  35.660  1.00  0.00     0.198 A 
ATOM    116  F   UNL A   1      45.456  30.248  34.227  1.00  0.00    -0.203 F 
ATOM    117  F   UNL A   1      44.741  26.009  37.587  1.00  0.00    -0.200 F 
ATOM    118  C   UNL A   1      46.185  27.538  36.515  1.00  0.00     0.200 A 
ATOM    119  F   UNL A   1      47.588  29.098  35.431  1.00  0.00    -0.200 F 
ATOM    120  F   UNL A   1      47.243  26.991  37.128  1.00  0.00    -0.200 F 
ENDBRANCH  86 110
ENDBRANCH  51  54
ENDBRANCH  41  44
ENDBRANCH  37  40
ENDBRANCH  34  37
ENDBRANCH  31  34
ENDBRANCH   1  31
TORSDOF 16
ENDMDL
MODEL 2
REMARK VINA RESULT:     -10.8      6.190     12.088
REMARK SMILES CC(=O)Oc1ccccc1C(=O)NCCCCCCNC(=O)c1ccc(-c2c3nc(c(-c4c(F)c(F)c(F)c(F)c4F)c4ccc([nH]4)c(-c4c(F)c(F)c(F)c(F)c4F)c4nc(c(-c5c(F)c(F)c(F)c(F)c5F)c5ccc2[nH]5)C=C4)C=C3)cc1
REMARK SMILES IDX 16 1 15 4 14 7 13 10 11 11 12 12 10 14 5 15 6 16 7 17 9 19
REMARK SMILES IDX 8 20 4 24 2 25 3 26 1 27 17 31 18 34 19 37 20 40 21 41 22 43
REMARK SMILES IDX 23 44 24 45 85 46 25 47 84 49 26 51 27 54 28 55 78 56 29 57
REMARK SMILES IDX 83 58 77 59 79 60 30 61 82 62 76 64 75 66 31 68 63 71 43 72
REMARK SMILES IDX 62 73 44 74 47 75 61 76 80 77 45 78 46 80 60 82 81 83 48 86
REMARK SMILES IDX 32 88 33 89 41 90 34 91 35 92 39 93 42 94 36 95 37 96 40 97
REMARK SMILES IDX 38 98 64 99 65 100 73 101 66 102 67 103 71 104 74 105 68 106
REMARK SMILES IDX 69 107 72 108 70 109 49 110 50 111 58 112 51 113 52 114
REMARK SMILES IDX 56 115 59 116 53 117 54 118 57 119 55 120
REMARK H PARENT 16 2 16 3 15 5 15 6 14 8 14 9 13 13 6 18 7 21 9 22 8 23 1 28
REMARK H PARENT 1 29 1 30 17 32 17 33 18 35 18 36 19 38 19 39 20 42 24 48
REMARK H PARENT 85 50 25 52 84 53 83 63 77 65 79 67 82 69 76 70 44 79 47 81
REMARK H PARENT 80 84 45 85 81 87
REMARK Flexibility Score: inf
ROOT
ATOM      1  C   UNL A   1      45.664  21.908  25.395  1.00  0.00    -0.052 C 
ATOM      2  H   UNL A   1      44.645  21.929  25.723  1.00  0.00     0.027 H 
ATOM      3  H   UNL A   1      46.401  22.074  26.152  1.00  0.00     0.027 H 
ENDROOT
BRANCH   1   4
ATOM      4  C   UNL A   1      45.851  23.075  24.419  1.00  0.00    -0.036 C 
ATOM      5  H   UNL A   1      46.847  23.014  24.033  1.00  0.00     0.028 H 
ATOM      6  H   UNL A   1      45.071  22.954  23.696  1.00  0.00     0.028 H 
BRANCH   4   7
ATOM      7  C   UNL A   1      45.659  24.486  24.965  1.00  0.00     0.018 C 
ATOM      8  H   UNL A   1      45.914  24.475  26.004  1.00  0.00     0.049 H 
ATOM      9  H   UNL A   1      46.287  25.117  24.372  1.00  0.00     0.049 H 
BRANCH   7  10
ATOM     10  N   UNL A   1      44.329  25.027  24.842  1.00  0.00    -0.352 N 
ATOM     11  C   UNL A   1      43.838  26.294  25.056  1.00  0.00     0.255 C 
ATOM     12  O   UNL A   1      42.635  26.452  24.830  1.00  0.00    -0.269 OA
ATOM     13  H   UNL A   1      43.652  24.374  24.553  1.00  0.00     0.163 HD
BRANCH  11  14
ATOM     14  C   UNL A   1      44.614  27.458  25.599  1.00  0.00     0.082 A 
ATOM     15  C   UNL A   1      45.969  27.765  25.424  1.00  0.00     0.143 A 
ATOM     16  C   UNL A   1      46.548  28.899  26.022  1.00  0.00    -0.018 A 
ATOM     17  C   UNL A   1      45.768  29.782  26.761  1.00  0.00    -0.059 A 
ATOM     18  H   UNL A   1      47.559  29.077  25.911  1.00  0.00     0.066 H 
ATOM     19  C   UNL A   1      43.845  28.385  26.338  1.00  0.00    -0.046 A 
ATOM     20  C   UNL A   1      44.411  29.531  26.911  1.00  0.00    -0.061 A 
ATOM     21  H   UNL A   1      46.195  30.616  27.194  1.00  0.00     0.062 H 
ATOM     22  H   UNL A   1      42.835  28.212  26.459  1.00  0.00     0.063 H 
ATOM     23  H   UNL A   1      43.820  30.187  27.444  1.00  0.00     0.062 H 
BRANCH  15  24
ATOM     24  O   UNL A   1      46.868  26.954  24.729  1.00  0.00    -0.426 OA
BRANCH  24  25
ATOM     25  C   UNL A   1      47.523  27.560  23.665  1.00  0.00     0.308 C 
ATOM     26  O   UNL A   1      47.033  28.306  22.832  1.00  0.00    -0.252 OA
BRANCH  25  27
ATOM     27  C   UNL A   1      48.969  27.152  23.700  1.00  0.00     0.034 C 
ATOM     28  H   UNL A   1      49.552  27.940  24.132  1.00  0.00     0.035 H 
ATOM     29  H   UNL A   1      49.310  26.962  22.704  1.00  0.00     0.035 H 
ATOM     30  H   UNL A   1      49.075  26.265  24.289  1.00  0.00     0.035 H 
ENDBRANCH  25  27
ENDBRANCH  24  25
ENDBRANCH  15  24
ENDBRANCH  11  14
ENDBRANCH   7  10
ENDBRANCH   4   7
ENDBRANCH   1   4
BRANCH   1  31
ATOM     31  C   UNL A   1      45.949  20.489  24.891  1.00  0.00    -0.052 C 
ATOM     32  H   UNL A   1      46.520  19.990  25.646  1.00  0.00     0.027 H 
ATOM     33  H   UNL A   1      46.446  20.630  23.954  1.00  0.00     0.027 H 
BRANCH  31  34
ATOM     34  C   UNL A   1      44.751  19.597  24.561  1.00  0.00    -0.036 C 
ATOM     35  H   UNL A   1      45.076  18.876  23.840  1.00  0.00     0.028 H 
ATOM     36  H   UNL A   1      43.991  20.269  24.221  1.00  0.00     0.028 H 
BRANCH  34  37
ATOM     37  C   UNL A   1      44.111  18.832  25.716  1.00  0.00     0.018 C 
ATOM     38  H   UNL A   1      44.352  19.335  26.629  1.00  0.00     0.049 H 
ATOM     39  H   UNL A   1      44.498  17.835  25.685  1.00  0.00     0.049 H 
BRANCH  37  40
ATOM     40  N   UNL A   1      42.667  18.733  25.614  1.00  0.00    -0.352 N 
ATOM     41  C   UNL A   1      41.680  19.608  25.999  1.00  0.00     0.251 C 
ATOM     42  H   UNL A   1      42.341  17.902  25.200  1.00  0.00     0.163 HD
ATOM     43  O   UNL A   1      40.504  19.265  25.905  1.00  0.00    -0.269 OA
BRANCH  41  44
ATOM     44  C   UNL A   1      41.999  20.947  26.552  1.00  0.00     0.039 A 
ATOM     45  C   UNL A   1      42.247  21.055  27.926  1.00  0.00    -0.049 A 
ATOM     46  C   UNL A   1      42.005  22.100  25.764  1.00  0.00    -0.049 A 
ATOM     47  C   UNL A   1      42.551  22.297  28.495  1.00  0.00    -0.053 A 
ATOM     48  H   UNL A   1      42.205  20.214  28.524  1.00  0.00     0.063 H 
ATOM     49  C   UNL A   1      42.380  23.327  26.316  1.00  0.00    -0.053 A 
ATOM     50  H   UNL A   1      41.732  22.045  24.770  1.00  0.00     0.063 H 
ATOM     51  C   UNL A   1      42.649  23.442  27.689  1.00  0.00    -0.014 A 
ATOM     52  H   UNL A   1      42.704  22.372  29.512  1.00  0.00     0.063 H 
ATOM     53  H   UNL A   1      42.460  24.157  25.708  1.00  0.00     0.063 H 
BRANCH  51  54
ATOM     54  C   UNL A   1      43.017  24.762  28.269  1.00  0.00     0.031 A 
ATOM     55  C   UNL A   1      41.963  25.808  28.513  1.00  0.00     0.074 A 
ATOM     56  C   UNL A   1      44.309  25.046  28.523  1.00  0.00     0.049 A 
ATOM     57  N   UNL A   1      42.097  27.036  28.950  1.00  0.00    -0.248 NA
ATOM     58  C   UNL A   1      40.577  25.434  28.194  1.00  0.00    -0.034 C 
ATOM     59  C   UNL A   1      45.435  24.143  28.281  1.00  0.00    -0.036 A 
ATOM     60  N   UNL A   1      44.896  26.183  29.021  1.00  0.00    -0.354 N 
ATOM     61  C   UNL A   1      40.821  27.584  28.940  1.00  0.00     0.074 A 
ATOM     62  C   UNL A   1      39.934  26.573  28.405  1.00  0.00    -0.034 C 
ATOM     63  H   UNL A   1      40.204  24.522  27.887  1.00  0.00     0.065 H 
ATOM     64  C   UNL A   1      46.573  24.755  28.641  1.00  0.00    -0.036 A 
ATOM     65  H   UNL A   1      45.364  23.187  27.898  1.00  0.00     0.065 H 
ATOM     66  C   UNL A   1      46.265  26.104  29.107  1.00  0.00     0.049 A 
ATOM     67  H   UNL A   1      44.384  26.980  29.292  1.00  0.00     0.167 HD
ATOM     68  C   UNL A   1      40.420  28.809  29.358  1.00  0.00     0.037 A 
ATOM     69  H   UNL A   1      38.931  26.720  28.211  1.00  0.00     0.065 H 
ATOM     70  H   UNL A   1      47.517  24.339  28.594  1.00  0.00     0.065 H 
ATOM     71  C   UNL A   1      47.171  27.017  29.505  1.00  0.00     0.037 A 
ATOM     72  C   UNL A   1      41.298  29.803  29.919  1.00  0.00     0.049 A 
ATOM     73  C   UNL A   1      46.702  28.365  29.984  1.00  0.00     0.074 A 
ATOM     74  C   UNL A   1      40.976  31.042  30.444  1.00  0.00    -0.036 A 
ATOM     75  N   UNL A   1      42.676  29.673  30.021  1.00  0.00    -0.354 N 
ATOM     76  N   UNL A   1      45.483  28.843  30.043  1.00  0.00    -0.248 NA
ATOM     77  C   UNL A   1      47.736  29.295  30.460  1.00  0.00    -0.034 C 
ATOM     78  C   UNL A   1      42.163  31.682  30.819  1.00  0.00    -0.036 A 
ATOM     79  H   UNL A   1      40.024  31.429  30.542  1.00  0.00     0.065 H 
ATOM     80  C   UNL A   1      43.221  30.821  30.577  1.00  0.00     0.049 A 
ATOM     81  H   UNL A   1      43.191  28.882  29.741  1.00  0.00     0.167 HD
ATOM     82  C   UNL A   1      45.599  30.117  30.582  1.00  0.00     0.074 A 
ATOM     83  C   UNL A   1      47.006  30.333  30.847  1.00  0.00    -0.034 C 
ATOM     84  H   UNL A   1      48.760  29.173  30.488  1.00  0.00     0.065 H 
ATOM     85  H   UNL A   1      42.237  32.634  31.211  1.00  0.00     0.065 H 
ATOM     86  C   UNL A   1      44.624  31.026  30.831  1.00  0.00     0.037 A 
ATOM     87  H   UNL A   1      47.391  31.186  31.281  1.00  0.00     0.065 H 
BRANCH  68  88
ATOM     88  C   UNL A   1      38.961  29.144  29.220  1.00  0.00     0.064 A 
ATOM     89  C   UNL A   1      38.393  29.475  27.980  1.00  0.00     0.173 A 
ATOM     90  C   UNL A   1      38.116  29.115  30.341  1.00  0.00     0.173 A 
ATOM     91  F   UNL A   1      39.158  29.525  26.879  1.00  0.00    -0.203 F 
ATOM     92  C   UNL A   1      37.045  29.805  27.874  1.00  0.00     0.198 A 
ATOM     93  C   UNL A   1      36.761  29.413  30.224  1.00  0.00     0.198 A 
ATOM     94  F   UNL A   1      38.604  28.797  31.549  1.00  0.00    -0.203 F 
ATOM     95  F   UNL A   1      36.539  30.177  26.690  1.00  0.00    -0.200 F 
ATOM     96  C   UNL A   1      36.228  29.769  28.994  1.00  0.00     0.200 A 
ATOM     97  F   UNL A   1      35.971  29.365  31.305  1.00  0.00    -0.200 F 
ATOM     98  F   UNL A   1      34.931  30.087  28.891  1.00  0.00    -0.200 F 
ENDBRANCH  68  88
BRANCH  71  99
ATOM     99  C   UNL A   1      48.617  26.673  29.483  1.00  0.00     0.064 A 
ATOM    100  C   UNL A   1      49.423  27.011  28.389  1.00  0.00     0.173 A 
ATOM    101  C   UNL A   1      49.224  26.020  30.566  1.00  0.00     0.173 A 
ATOM    102  F   UNL A   1      48.883  27.618  27.321  1.00  0.00    -0.203 F 
ATOM    103  C   UNL A   1      50.781  26.698  28.372  1.00  0.00     0.198 A 
ATOM    104  C   UNL A   1      50.586  25.732  30.560  1.00  0.00     0.198 A 
ATOM    105  F   UNL A   1      48.496  25.681  31.640  1.00  0.00    -0.203 F 
ATOM    106  F   UNL A   1      51.523  27.000  27.297  1.00  0.00    -0.200 F 
ATOM    107  C   UNL A   1      51.363  26.066  29.461  1.00  0.00     0.200 A 
ATOM    108  F   UNL A   1      51.148  25.136  31.621  1.00  0.00    -0.200 F 
ATOM    109  F   UNL A   1      52.671  25.775  29.449  1.00  0.00    -0.200 F 
ENDBRANCH  71  99
BRANCH  86 110
ATOM    110  C   UNL A   1      45.041  32.333  31.442  1.00  0.00     0.064 A 
ATOM    111  C   UNL A   1      45.360  33.445  30.649  1.00  0.00     0.173 A 
ATOM    112  C   UNL A   1      45.084  32.486  32.836  1.00  0.00     0.173 A 
ATOM    113  F   UNL A   1      45.350  33.347  29.311  1.00  0.00    -0.203 F 
ATOM    114  C   UNL A   1      45.728  34.657  31.230  1.00  0.00     0.198 A 
ATOM    115  C   UNL A   1      45.423  33.707  33.413  1.00  0.00     0.198 A 
ATOM    116  F   UNL A   1      44.782  31.455  33.639  1.00  0.00    -0.203 F 
ATOM    117  F   UNL A   1      46.072  35.693  30.453  1.00  0.00    -0.200 F 
ATOM    118  C   UNL A   1      45.752  34.788  32.610  1.00  0.00     0.200 A 
ATOM    119  F   UNL A   1      45.434  33.835  34.747  1.00  0.00    -0.200 F 
ATOM    120  F   UNL A   1      46.099  35.957  33.167  1.00  0.00    -0.200 F 
ENDBRANCH  86 110
ENDBRANCH  51  54
ENDBRANCH  41  44
ENDBRANCH  37  40
ENDBRANCH  34  37
ENDBRANCH  31  34
ENDBRANCH   1  31
TORSDOF 16
ENDMDL
MODEL 3
REMARK VINA RESULT:     -10.8      1.636      2.724
REMARK SMILES CC(=O)Oc1ccccc1C(=O)NCCCCCCNC(=O)c1ccc(-c2c3nc(c(-c4c(F)c(F)c(F)c(F)c4F)c4ccc([nH]4)c(-c4c(F)c(F)c(F)c(F)c4F)c4nc(c(-c5c(F)c(F)c(F)c(F)c5F)c5ccc2[nH]5)C=C4)C=C3)cc1
REMARK SMILES IDX 16 1 15 4 14 7 13 10 11 11 12 12 10 14 5 15 6 16 7 17 9 19
REMARK SMILES IDX 8 20 4 24 2 25 3 26 1 27 17 31 18 34 19 37 20 40 21 41 22 43
REMARK SMILES IDX 23 44 24 45 85 46 25 47 84 49 26 51 27 54 28 55 78 56 29 57
REMARK SMILES IDX 83 58 77 59 79 60 30 61 82 62 76 64 75 66 31 68 63 71 43 72
REMARK SMILES IDX 62 73 44 74 47 75 61 76 80 77 45 78 46 80 60 82 81 83 48 86
REMARK SMILES IDX 32 88 33 89 41 90 34 91 35 92 39 93 42 94 36 95 37 96 40 97
REMARK SMILES IDX 38 98 64 99 65 100 73 101 66 102 67 103 71 104 74 105 68 106
REMARK SMILES IDX 69 107 72 108 70 109 49 110 50 111 58 112 51 113 52 114
REMARK SMILES IDX 56 115 59 116 53 117 54 118 57 119 55 120
REMARK H PARENT 16 2 16 3 15 5 15 6 14 8 14 9 13 13 6 18 7 21 9 22 8 23 1 28
REMARK H PARENT 1 29 1 30 17 32 17 33 18 35 18 36 19 38 19 39 20 42 24 48
REMARK H PARENT 85 50 25 52 84 53 83 63 77 65 79 67 82 69 76 70 44 79 47 81
REMARK H PARENT 80 84 45 85 81 87
REMARK Flexibility Score: inf
ROOT
ATOM      1  C   UNL A   1      32.024  29.845  26.931  1.00  0.00    -0.052 C 
ATOM      2  H   UNL A   1      31.985  30.215  27.934  1.00  0.00     0.027 H 
ATOM      3  H   UNL A   1      31.451  28.963  26.735  1.00  0.00     0.027 H 
ENDROOT
BRANCH   1   4
ATOM      4  C   UNL A   1      33.473  29.426  26.658  1.00  0.00    -0.036 C 
ATOM      5  H   UNL A   1      33.785  29.912  25.757  1.00  0.00     0.028 H 
ATOM      6  H   UNL A   1      34.010  29.708  27.540  1.00  0.00     0.028 H 
BRANCH   4   7
ATOM      7  C   UNL A   1      33.755  27.935  26.492  1.00  0.00     0.018 C 
ATOM      8  H   UNL A   1      34.721  27.735  26.906  1.00  0.00     0.049 H 
ATOM      9  H   UNL A   1      32.956  27.430  26.993  1.00  0.00     0.049 H 
BRANCH   7  10
ATOM     10  N   UNL A   1      33.743  27.445  25.137  1.00  0.00    -0.352 N 
ATOM     11  C   UNL A   1      33.844  26.171  24.630  1.00  0.00     0.255 C 
ATOM     12  O   UNL A   1      33.767  26.071  23.402  1.00  0.00    -0.269 OA
ATOM     13  H   UNL A   1      33.645  28.147  24.454  1.00  0.00     0.163 HD
BRANCH  11  14
ATOM     14  C   UNL A   1      34.105  24.926  25.425  1.00  0.00     0.082 A 
ATOM     15  C   UNL A   1      33.259  24.269  26.329  1.00  0.00     0.143 A 
ATOM     16  C   UNL A   1      33.670  23.109  27.009  1.00  0.00    -0.018 A 
ATOM     17  C   UNL A   1      34.917  22.547  26.756  1.00  0.00    -0.059 A 
ATOM     18  H   UNL A   1      33.041  22.671  27.701  1.00  0.00     0.066 H 
ATOM     19  C   UNL A   1      35.356  24.319  25.175  1.00  0.00    -0.046 A 
ATOM     20  C   UNL A   1      35.758  23.147  25.828  1.00  0.00    -0.061 A 
ATOM     21  H   UNL A   1      35.213  21.692  27.252  1.00  0.00     0.062 H 
ATOM     22  H   UNL A   1      35.993  24.752  24.489  1.00  0.00     0.063 H 
ATOM     23  H   UNL A   1      36.679  22.730  25.621  1.00  0.00     0.062 H 
BRANCH  15  24
ATOM     24  O   UNL A   1      31.995  24.738  26.693  1.00  0.00    -0.426 OA
BRANCH  24  25
ATOM     25  C   UNL A   1      30.943  23.861  26.466  1.00  0.00     0.308 C 
ATOM     26  O   UNL A   1      30.223  23.347  27.307  1.00  0.00    -0.252 OA
BRANCH  25  27
ATOM     27  C   UNL A   1      30.818  23.639  24.984  1.00  0.00     0.034 C 
ATOM     28  H   UNL A   1      31.012  22.611  24.760  1.00  0.00     0.035 H 
ATOM     29  H   UNL A   1      31.526  24.256  24.471  1.00  0.00     0.035 H 
ATOM     30  H   UNL A   1      29.828  23.894  24.668  1.00  0.00     0.035 H 
ENDBRANCH  25  27
ENDBRANCH  24  25
ENDBRANCH  15  24
ENDBRANCH  11  14
ENDBRANCH   7  10
ENDBRANCH   4   7
ENDBRANCH   1   4
BRANCH   1  31
ATOM     31  C   UNL A   1      31.397  30.914  26.029  1.00  0.00    -0.052 C 
ATOM     32  H   UNL A   1      30.407  30.588  25.788  1.00  0.00     0.027 H 
ATOM     33  H   UNL A   1      32.071  30.997  25.201  1.00  0.00     0.027 H 
BRANCH  31  34
ATOM     34  C   UNL A   1      31.288  32.336  26.581  1.00  0.00    -0.036 C 
ATOM     35  H   UNL A   1      30.587  32.315  27.389  1.00  0.00     0.028 H 
ATOM     36  H   UNL A   1      30.997  32.936  25.743  1.00  0.00     0.028 H 
BRANCH  34  37
ATOM     37  C   UNL A   1      32.568  32.983  27.101  1.00  0.00     0.018 C 
ATOM     38  H   UNL A   1      33.263  33.059  26.291  1.00  0.00     0.049 H 
ATOM     39  H   UNL A   1      32.933  32.363  27.893  1.00  0.00     0.049 H 
BRANCH  37  40
ATOM     40  N   UNL A   1      32.363  34.307  27.656  1.00  0.00    -0.352 N 
ATOM     41  C   UNL A   1      33.025  34.969  28.662  1.00  0.00     0.251 C 
ATOM     42  H   UNL A   1      31.630  34.817  27.243  1.00  0.00     0.163 HD
ATOM     43  O   UNL A   1      32.608  36.062  29.037  1.00  0.00    -0.269 OA
BRANCH  41  44
ATOM     44  C   UNL A   1      34.216  34.384  29.326  1.00  0.00     0.039 A 
ATOM     45  C   UNL A   1      34.022  33.622  30.485  1.00  0.00    -0.049 A 
ATOM     46  C   UNL A   1      35.516  34.614  28.869  1.00  0.00    -0.049 A 
ATOM     47  C   UNL A   1      35.114  33.051  31.148  1.00  0.00    -0.053 A 
ATOM     48  H   UNL A   1      33.068  33.481  30.853  1.00  0.00     0.063 H 
ATOM     49  C   UNL A   1      36.599  33.985  29.487  1.00  0.00    -0.053 A 
ATOM     50  H   UNL A   1      35.677  35.251  28.073  1.00  0.00     0.063 H 
ATOM     51  C   UNL A   1      36.412  33.203  30.638  1.00  0.00    -0.014 A 
ATOM     52  H   UNL A   1      34.964  32.515  32.016  1.00  0.00     0.063 H 
ATOM     53  H   UNL A   1      37.547  34.096  29.092  1.00  0.00     0.063 H 
BRANCH  51  54
ATOM     54  C   UNL A   1      37.580  32.564  31.303  1.00  0.00     0.031 A 
ATOM     55  C   UNL A   1      38.289  31.407  30.653  1.00  0.00     0.074 A 
ATOM     56  C   UNL A   1      37.969  32.984  32.523  1.00  0.00     0.049 A 
ATOM     57  N   UNL A   1      39.282  30.682  31.106  1.00  0.00    -0.248 NA
ATOM     58  C   UNL A   1      37.797  30.992  29.331  1.00  0.00    -0.034 C 
ATOM     59  C   UNL A   1      37.334  34.058  33.288  1.00  0.00    -0.036 A 
ATOM     60  N   UNL A   1      38.979  32.545  33.343  1.00  0.00    -0.354 N 
ATOM     61  C   UNL A   1      39.518  29.715  30.136  1.00  0.00     0.074 A 
ATOM     62  C   UNL A   1      38.533  29.915  29.095  1.00  0.00    -0.034 C 
ATOM     63  H   UNL A   1      37.069  31.425  28.742  1.00  0.00     0.065 H 
ATOM     64  C   UNL A   1      37.974  34.201  34.458  1.00  0.00    -0.036 A 
ATOM     65  H   UNL A   1      36.525  34.617  32.975  1.00  0.00     0.065 H 
ATOM     66  C   UNL A   1      39.043  33.209  34.543  1.00  0.00     0.049 A 
ATOM     67  H   UNL A   1      39.600  31.821  33.093  1.00  0.00     0.167 HD
ATOM     68  C   UNL A   1      40.482  28.763  30.104  1.00  0.00     0.037 A 
ATOM     69  H   UNL A   1      38.417  29.299  28.275  1.00  0.00     0.065 H 
ATOM     70  H   UNL A   1      37.747  34.900  35.183  1.00  0.00     0.065 H 
ATOM     71  C   UNL A   1      39.862  33.035  35.598  1.00  0.00     0.037 A 
ATOM     72  C   UNL A   1      41.481  28.585  31.125  1.00  0.00     0.049 A 
ATOM     73  C   UNL A   1      40.938  31.984  35.533  1.00  0.00     0.074 A 
ATOM     74  C   UNL A   1      42.547  27.701  31.146  1.00  0.00    -0.036 A 
ATOM     75  N   UNL A   1      41.535  29.301  32.313  1.00  0.00    -0.354 N 
ATOM     76  N   UNL A   1      41.201  31.128  34.576  1.00  0.00    -0.248 NA
ATOM     77  C   UNL A   1      41.836  31.883  36.692  1.00  0.00    -0.034 C 
ATOM     78  C   UNL A   1      43.216  27.849  32.367  1.00  0.00    -0.036 A 
ATOM     79  H   UNL A   1      42.803  27.045  30.392  1.00  0.00     0.065 H 
ATOM     80  C   UNL A   1      42.599  28.861  33.085  1.00  0.00     0.049 A 
ATOM     81  H   UNL A   1      40.910  30.017  32.568  1.00  0.00     0.167 HD
ATOM     82  C   UNL A   1      42.304  30.403  35.005  1.00  0.00     0.074 A 
ATOM     83  C   UNL A   1      42.672  30.929  36.303  1.00  0.00    -0.034 C 
ATOM     84  H   UNL A   1      41.821  32.414  37.577  1.00  0.00     0.065 H 
ATOM     85  H   UNL A   1      44.030  27.298  32.679  1.00  0.00     0.065 H 
ATOM     86  C   UNL A   1      42.952  29.390  34.378  1.00  0.00     0.037 A 
ATOM     87  H   UNL A   1      43.480  30.604  36.855  1.00  0.00     0.065 H 
BRANCH  68  88
ATOM     88  C   UNL A   1      40.498  27.834  28.923  1.00  0.00     0.064 A 
ATOM     89  C   UNL A   1      41.291  28.088  27.793  1.00  0.00     0.173 A 
ATOM     90  C   UNL A   1      39.722  26.664  28.929  1.00  0.00     0.173 A 
ATOM     91  F   UNL A   1      42.044  29.196  27.733  1.00  0.00    -0.203 F 
ATOM     92  C   UNL A   1      41.276  27.229  26.698  1.00  0.00     0.198 A 
ATOM     93  C   UNL A   1      39.736  25.790  27.844  1.00  0.00     0.198 A 
ATOM     94  F   UNL A   1      38.952  26.367  29.986  1.00  0.00    -0.203 F 
ATOM     95  F   UNL A   1      41.995  27.524  25.606  1.00  0.00    -0.200 F 
ATOM     96  C   UNL A   1      40.503  26.077  26.726  1.00  0.00     0.200 A 
ATOM     97  F   UNL A   1      38.998  24.671  27.878  1.00  0.00    -0.200 F 
ATOM     98  F   UNL A   1      40.489  25.251  25.671  1.00  0.00    -0.200 F 
ENDBRANCH  68  88
BRANCH  71  99
ATOM     99  C   UNL A   1      39.703  33.894  36.800  1.00  0.00     0.064 A 
ATOM    100  C   UNL A   1      40.335  35.140  36.887  1.00  0.00     0.173 A 
ATOM    101  C   UNL A   1      38.896  33.494  37.876  1.00  0.00     0.173 A 
ATOM    102  F   UNL A   1      41.133  35.557  35.891  1.00  0.00    -0.203 F 
ATOM    103  C   UNL A   1      40.178  35.951  38.009  1.00  0.00     0.198 A 
ATOM    104  C   UNL A   1      38.717  34.316  38.985  1.00  0.00     0.198 A 
ATOM    105  F   UNL A   1      38.264  32.312  37.838  1.00  0.00    -0.203 F 
ATOM    106  F   UNL A   1      40.823  37.123  38.083  1.00  0.00    -0.200 F 
ATOM    107  C   UNL A   1      39.362  35.541  39.054  1.00  0.00     0.200 A 
ATOM    108  F   UNL A   1      37.916  33.923  39.985  1.00  0.00    -0.200 F 
ATOM    109  F   UNL A   1      39.202  36.326  40.128  1.00  0.00    -0.200 F 
ENDBRANCH  71  99
BRANCH  86 110
ATOM    110  C   UNL A   1      44.141  28.795  35.077  1.00  0.00     0.064 A 
ATOM    111  C   UNL A   1      44.013  27.690  35.931  1.00  0.00     0.173 A 
ATOM    112  C   UNL A   1      45.426  29.312  34.859  1.00  0.00     0.173 A 
ATOM    113  F   UNL A   1      42.803  27.169  36.185  1.00  0.00    -0.203 F 
ATOM    114  C   UNL A   1      45.127  27.138  36.559  1.00  0.00     0.198 A 
ATOM    115  C   UNL A   1      46.542  28.739  35.465  1.00  0.00     0.198 A 
ATOM    116  F   UNL A   1      45.604  30.364  34.046  1.00  0.00    -0.203 F 
ATOM    117  F   UNL A   1      44.975  26.111  37.406  1.00  0.00    -0.200 F 
ATOM    118  C   UNL A   1      46.390  27.658  36.320  1.00  0.00     0.200 A 
ATOM    119  F   UNL A   1      47.763  29.235  35.222  1.00  0.00    -0.200 F 
ATOM    120  F   UNL A   1      47.462  27.121  36.919  1.00  0.00    -0.200 F 
ENDBRANCH  86 110
ENDBRANCH  51  54
ENDBRANCH  41  44
ENDBRANCH  37  40
ENDBRANCH  34  37
ENDBRANCH  31  34
ENDBRANCH   1  31
TORSDOF 16
ENDMDL
MODEL 4
REMARK VINA RESULT:     -10.7      1.462      2.358
REMARK SMILES CC(=O)Oc1ccccc1C(=O)NCCCCCCNC(=O)c1ccc(-c2c3nc(c(-c4c(F)c(F)c(F)c(F)c4F)c4ccc([nH]4)c(-c4c(F)c(F)c(F)c(F)c4F)c4nc(c(-c5c(F)c(F)c(F)c(F)c5F)c5ccc2[nH]5)C=C4)C=C3)cc1
REMARK SMILES IDX 16 1 15 4 14 7 13 10 11 11 12 12 10 14 5 15 6 16 7 17 9 19
REMARK SMILES IDX 8 20 4 24 2 25 3 26 1 27 17 31 18 34 19 37 20 40 21 41 22 43
REMARK SMILES IDX 23 44 24 45 85 46 25 47 84 49 26 51 27 54 28 55 78 56 29 57
REMARK SMILES IDX 83 58 77 59 79 60 30 61 82 62 76 64 75 66 31 68 63 71 43 72
REMARK SMILES IDX 62 73 44 74 47 75 61 76 80 77 45 78 46 80 60 82 81 83 48 86
REMARK SMILES IDX 32 88 33 89 41 90 34 91 35 92 39 93 42 94 36 95 37 96 40 97
REMARK SMILES IDX 38 98 64 99 65 100 73 101 66 102 67 103 71 104 74 105 68 106
REMARK SMILES IDX 69 107 72 108 70 109 49 110 50 111 58 112 51 113 52 114
REMARK SMILES IDX 56 115 59 116 53 117 54 118 57 119 55 120
REMARK H PARENT 16 2 16 3 15 5 15 6 14 8 14 9 13 13 6 18 7 21 9 22 8 23 1 28
REMARK H PARENT 1 29 1 30 17 32 17 33 18 35 18 36 19 38 19 39 20 42 24 48
REMARK H PARENT 85 50 25 52 84 53 83 63 77 65 79 67 82 69 76 70 44 79 47 81
REMARK H PARENT 80 84 45 85 81 87
REMARK Flexibility Score: inf
ROOT
ATOM      1  C   UNL A   1      32.419  29.949  27.130  1.00  0.00    -0.052 C 
ATOM      2  H   UNL A   1      33.355  29.859  26.619  1.00  0.00     0.027 H 
ATOM      3  H   UNL A   1      32.447  30.461  28.069  1.00  0.00     0.027 H 
ENDROOT
BRANCH   1   4
ATOM      4  C   UNL A   1      31.956  28.532  27.483  1.00  0.00    -0.036 C 
ATOM      5  H   UNL A   1      32.612  28.159  28.241  1.00  0.00     0.028 H 
ATOM      6  H   UNL A   1      30.933  28.644  27.778  1.00  0.00     0.028 H 
BRANCH   4   7
ATOM      7  C   UNL A   1      31.925  27.501  26.359  1.00  0.00     0.018 C 
ATOM      8  H   UNL A   1      31.402  27.934  25.531  1.00  0.00     0.049 H 
ATOM      9  H   UNL A   1      32.947  27.266  26.150  1.00  0.00     0.049 H 
BRANCH   7  10
ATOM     10  N   UNL A   1      31.289  26.248  26.678  1.00  0.00    -0.352 N 
ATOM     11  C   UNL A   1      31.701  24.948  26.500  1.00  0.00     0.255 C 
ATOM     12  O   UNL A   1      30.930  24.077  26.913  1.00  0.00    -0.269 OA
ATOM     13  H   UNL A   1      30.404  26.339  27.097  1.00  0.00     0.163 HD
BRANCH  11  14
ATOM     14  C   UNL A   1      32.950  24.510  25.795  1.00  0.00     0.082 A 
ATOM     15  C   UNL A   1      33.366  24.795  24.488  1.00  0.00     0.143 A 
ATOM     16  C   UNL A   1      34.572  24.286  23.974  1.00  0.00    -0.018 A 
ATOM     17  C   UNL A   1      35.416  23.526  24.775  1.00  0.00    -0.059 A 
ATOM     18  H   UNL A   1      34.831  24.478  22.993  1.00  0.00     0.066 H 
ATOM     19  C   UNL A   1      33.840  23.752  26.590  1.00  0.00    -0.046 A 
ATOM     20  C   UNL A   1      35.055  23.267  26.091  1.00  0.00    -0.061 A 
ATOM     21  H   UNL A   1      36.303  23.158  24.396  1.00  0.00     0.062 H 
ATOM     22  H   UNL A   1      33.586  23.551  27.570  1.00  0.00     0.063 H 
ATOM     23  H   UNL A   1      35.681  22.718  26.700  1.00  0.00     0.062 H 
BRANCH  15  24
ATOM     24  O   UNL A   1      32.605  25.523  23.571  1.00  0.00    -0.426 OA
BRANCH  24  25
ATOM     25  C   UNL A   1      33.327  26.313  22.686  1.00  0.00     0.308 C 
ATOM     26  O   UNL A   1      33.652  26.025  21.545  1.00  0.00    -0.252 OA
BRANCH  25  27
ATOM     27  C   UNL A   1      33.652  27.614  23.364  1.00  0.00     0.034 C 
ATOM     28  H   UNL A   1      33.526  28.419  22.670  1.00  0.00     0.035 H 
ATOM     29  H   UNL A   1      34.665  27.595  23.706  1.00  0.00     0.035 H 
ATOM     30  H   UNL A   1      32.997  27.755  24.198  1.00  0.00     0.035 H 
ENDBRANCH  25  27
ENDBRANCH  24  25
ENDBRANCH  15  24
ENDBRANCH  11  14
ENDBRANCH   7  10
ENDBRANCH   4   7
ENDBRANCH   1   4
BRANCH   1  31
ATOM     31  C   UNL A   1      31.505  30.813  26.253  1.00  0.00    -0.052 C 
ATOM     32  H   UNL A   1      30.525  30.388  26.296  1.00  0.00     0.027 H 
ATOM     33  H   UNL A   1      31.970  30.805  25.289  1.00  0.00     0.027 H 
BRANCH  31  34
ATOM     34  C   UNL A   1      31.375  32.296  26.605  1.00  0.00    -0.036 C 
ATOM     35  H   UNL A   1      30.663  32.377  27.399  1.00  0.00     0.028 H 
ATOM     36  H   UNL A   1      31.090  32.773  25.690  1.00  0.00     0.028 H 
BRANCH  34  37
ATOM     37  C   UNL A   1      32.641  33.022  27.048  1.00  0.00     0.018 C 
ATOM     38  H   UNL A   1      33.270  33.159  26.193  1.00  0.00     0.049 H 
ATOM     39  H   UNL A   1      33.103  32.417  27.800  1.00  0.00     0.049 H 
BRANCH  37  40
ATOM     40  N   UNL A   1      32.386  34.320  27.643  1.00  0.00    -0.352 N 
ATOM     41  C   UNL A   1      32.993  34.956  28.699  1.00  0.00     0.251 C 
ATOM     42  H   UNL A   1      31.659  34.830  27.219  1.00  0.00     0.163 HD
ATOM     43  O   UNL A   1      32.537  36.025  29.098  1.00  0.00    -0.269 OA
BRANCH  41  44
ATOM     44  C   UNL A   1      34.168  34.370  29.390  1.00  0.00     0.039 A 
ATOM     45  C   UNL A   1      33.970  33.762  30.636  1.00  0.00    -0.049 A 
ATOM     46  C   UNL A   1      35.461  34.455  28.868  1.00  0.00    -0.049 A 
ATOM     47  C   UNL A   1      35.048  33.196  31.325  1.00  0.00    -0.053 A 
ATOM     48  H   UNL A   1      33.024  33.730  31.047  1.00  0.00     0.063 H 
ATOM     49  C   UNL A   1      36.525  33.827  29.521  1.00  0.00    -0.053 A 
ATOM     50  H   UNL A   1      35.631  34.983  27.997  1.00  0.00     0.063 H 
ATOM     51  C   UNL A   1      36.333  33.197  30.760  1.00  0.00    -0.014 A 
ATOM     52  H   UNL A   1      34.898  32.774  32.255  1.00  0.00     0.063 H 
ATOM     53  H   UNL A   1      37.461  33.826  29.086  1.00  0.00     0.063 H 
BRANCH  51  54
ATOM     54  C   UNL A   1      37.481  32.559  31.459  1.00  0.00     0.031 A 
ATOM     55  C   UNL A   1      38.207  31.400  30.831  1.00  0.00     0.074 A 
ATOM     56  C   UNL A   1      37.837  32.982  32.687  1.00  0.00     0.049 A 
ATOM     57  N   UNL A   1      39.187  30.675  31.313  1.00  0.00    -0.248 NA
ATOM     58  C   UNL A   1      37.750  30.981  29.498  1.00  0.00    -0.034 C 
ATOM     59  C   UNL A   1      37.184  34.059  33.432  1.00  0.00    -0.036 A 
ATOM     60  N   UNL A   1      38.825  32.544  33.535  1.00  0.00    -0.354 N 
ATOM     61  C   UNL A   1      39.448  29.706  30.352  1.00  0.00     0.074 A 
ATOM     62  C   UNL A   1      38.491  29.903  29.285  1.00  0.00    -0.034 C 
ATOM     63  H   UNL A   1      37.039  31.413  28.888  1.00  0.00     0.065 H 
ATOM     64  C   UNL A   1      37.792  34.205  34.618  1.00  0.00    -0.036 A 
ATOM     65  H   UNL A   1      36.383  34.618  33.096  1.00  0.00     0.065 H 
ATOM     66  C   UNL A   1      38.857  33.212  34.735  1.00  0.00     0.049 A 
ATOM     67  H   UNL A   1      39.451  31.820  33.305  1.00  0.00     0.167 HD
ATOM     68  C   UNL A   1      40.411  28.753  30.350  1.00  0.00     0.037 A 
ATOM     69  H   UNL A   1      38.396  29.285  28.464  1.00  0.00     0.065 H 
ATOM     70  H   UNL A   1      37.546  34.906  35.335  1.00  0.00     0.065 H 
ATOM     71  C   UNL A   1      39.647  33.040  35.812  1.00  0.00     0.037 A 
ATOM     72  C   UNL A   1      41.383  28.576  31.397  1.00  0.00     0.049 A 
ATOM     73  C   UNL A   1      40.723  31.988  35.780  1.00  0.00     0.074 A 
ATOM     74  C   UNL A   1      42.446  27.692  31.450  1.00  0.00    -0.036 A 
ATOM     75  N   UNL A   1      41.405  29.296  32.584  1.00  0.00    -0.354 N 
ATOM     76  N   UNL A   1      41.012  31.130  34.832  1.00  0.00    -0.248 NA
ATOM     77  C   UNL A   1      41.590  31.890  36.963  1.00  0.00    -0.034 C 
ATOM     78  C   UNL A   1      43.082  27.843  32.688  1.00  0.00    -0.036 A 
ATOM     79  H   UNL A   1      42.723  27.034  30.705  1.00  0.00     0.065 H 
ATOM     80  C   UNL A   1      42.448  28.858  33.385  1.00  0.00     0.049 A 
ATOM     81  H   UNL A   1      40.774  30.014  32.820  1.00  0.00     0.167 HD
ATOM     82  C   UNL A   1      42.102  30.405  35.293  1.00  0.00     0.074 A 
ATOM     83  C   UNL A   1      42.435  30.934  36.599  1.00  0.00    -0.034 C 
ATOM     84  H   UNL A   1      41.551  32.424  37.845  1.00  0.00     0.065 H 
ATOM     85  H   UNL A   1      43.887  27.292  33.023  1.00  0.00     0.065 H 
ATOM     86  C   UNL A   1      42.766  29.390  34.686  1.00  0.00     0.037 A 
ATOM     87  H   UNL A   1      43.228  30.610  37.173  1.00  0.00     0.065 H 
BRANCH  68  88
ATOM     88  C   UNL A   1      40.458  27.820  29.171  1.00  0.00     0.064 A 
ATOM     89  C   UNL A   1      39.677  26.655  29.119  1.00  0.00     0.173 A 
ATOM     90  C   UNL A   1      41.282  28.106  28.071  1.00  0.00     0.173 A 
ATOM     91  F   UNL A   1      38.879  26.331  30.148  1.00  0.00    -0.203 F 
ATOM     92  C   UNL A   1      39.750  25.791  28.030  1.00  0.00     0.198 A 
ATOM     93  C   UNL A   1      41.326  27.255  26.969  1.00  0.00     0.198 A 
ATOM     94  F   UNL A   1      42.043  29.210  28.063  1.00  0.00    -0.203 F 
ATOM     95  F   UNL A   1      39.041  24.654  28.031  1.00  0.00    -0.200 F 
ATOM     96  C   UNL A   1      40.570  26.093  26.953  1.00  0.00     0.200 A 
ATOM     97  F   UNL A   1      42.109  27.556  25.924  1.00  0.00    -0.200 F 
ATOM     98  F   UNL A   1      40.639  25.261  25.906  1.00  0.00    -0.200 F 
ENDBRANCH  68  88
BRANCH  71  99
ATOM     99  C   UNL A   1      39.456  33.903  37.007  1.00  0.00     0.064 A 
ATOM    100  C   UNL A   1      38.702  33.463  38.103  1.00  0.00     0.173 A 
ATOM    101  C   UNL A   1      40.043  35.175  37.085  1.00  0.00     0.173 A 
ATOM    102  F   UNL A   1      38.105  32.262  38.066  1.00  0.00    -0.203 F 
ATOM    103  C   UNL A   1      38.532  34.268  39.228  1.00  0.00     0.198 A 
ATOM    104  C   UNL A   1      39.894  35.967  38.220  1.00  0.00     0.198 A 
ATOM    105  F   UNL A   1      40.779  35.638  36.064  1.00  0.00    -0.203 F 
ATOM    106  F   UNL A   1      37.776  33.838  40.248  1.00  0.00    -0.200 F 
ATOM    107  C   UNL A   1      39.134  35.515  39.289  1.00  0.00     0.200 A 
ATOM    108  F   UNL A   1      40.492  37.166  38.282  1.00  0.00    -0.200 F 
ATOM    109  F   UNL A   1      38.979  36.284  40.375  1.00  0.00    -0.200 F 
ENDBRANCH  71  99
BRANCH  86 110
ATOM    110  C   UNL A   1      43.935  28.796  35.419  1.00  0.00     0.064 A 
ATOM    111  C   UNL A   1      45.233  29.303  35.263  1.00  0.00     0.173 A 
ATOM    112  C   UNL A   1      43.747  27.736  36.318  1.00  0.00     0.173 A 
ATOM    113  F   UNL A   1      45.468  30.306  34.403  1.00  0.00    -0.203 F 
ATOM    114  C   UNL A   1      46.305  28.754  35.963  1.00  0.00     0.198 A 
ATOM    115  C   UNL A   1      44.816  27.209  37.039  1.00  0.00     0.198 A 
ATOM    116  F   UNL A   1      42.524  27.219  36.509  1.00  0.00    -0.203 F 
ATOM    117  F   UNL A   1      47.544  29.225  35.763  1.00  0.00    -0.200 F 
ATOM    118  C   UNL A   1      46.094  27.714  36.855  1.00  0.00     0.200 A 
ATOM    119  F   UNL A   1      44.608  26.212  37.909  1.00  0.00    -0.200 F 
ATOM    120  F   UNL A   1      47.126  27.192  37.533  1.00  0.00    -0.200 F 
ENDBRANCH  86 110
ENDBRANCH  51  54
ENDBRANCH  41  44
ENDBRANCH  37  40
ENDBRANCH  34  37
ENDBRANCH  31  34
ENDBRANCH   1  31
TORSDOF 16
ENDMDL
MODEL 5
REMARK VINA RESULT:     -10.7      1.009      2.450
REMARK SMILES CC(=O)Oc1ccccc1C(=O)NCCCCCCNC(=O)c1ccc(-c2c3nc(c(-c4c(F)c(F)c(F)c(F)c4F)c4ccc([nH]4)c(-c4c(F)c(F)c(F)c(F)c4F)c4nc(c(-c5c(F)c(F)c(F)c(F)c5F)c5ccc2[nH]5)C=C4)C=C3)cc1
REMARK SMILES IDX 16 1 15 4 14 7 13 10 11 11 12 12 10 14 5 15 6 16 7 17 9 19
REMARK SMILES IDX 8 20 4 24 2 25 3 26 1 27 17 31 18 34 19 37 20 40 21 41 22 43
REMARK SMILES IDX 23 44 24 45 85 46 25 47 84 49 26 51 27 54 28 55 78 56 29 57
REMARK SMILES IDX 83 58 77 59 79 60 30 61 82 62 76 64 75 66 31 68 63 71 43 72
REMARK SMILES IDX 62 73 44 74 47 75 61 76 80 77 45 78 46 80 60 82 81 83 48 86
REMARK SMILES IDX 32 88 33 89 41 90 34 91 35 92 39 93 42 94 36 95 37 96 40 97
REMARK SMILES IDX 38 98 64 99 65 100 73 101 66 102 67 103 71 104 74 105 68 106
REMARK SMILES IDX 69 107 72 108 70 109 49 110 50 111 58 112 51 113 52 114
REMARK SMILES IDX 56 115 59 116 53 117 54 118 57 119 55 120
REMARK H PARENT 16 2 16 3 15 5 15 6 14 8 14 9 13 13 6 18 7 21 9 22 8 23 1 28
REMARK H PARENT 1 29 1 30 17 32 17 33 18 35 18 36 19 38 19 39 20 42 24 48
REMARK H PARENT 85 50 25 52 84 53 83 63 77 65 79 67 82 69 76 70 44 79 47 81
REMARK H PARENT 80 84 45 85 81 87
REMARK Flexibility Score: inf
ROOT
ATOM      1  C   UNL A   1      32.307  29.940  26.341  1.00  0.00    -0.052 C 
ATOM      2  H   UNL A   1      32.781  29.516  25.480  1.00  0.00     0.027 H 
ATOM      3  H   UNL A   1      32.943  30.497  26.997  1.00  0.00     0.027 H 
ENDROOT
BRANCH   1   4
ATOM      4  C   UNL A   1      31.801  28.776  27.200  1.00  0.00    -0.036 C 
ATOM      5  H   UNL A   1      32.047  28.996  28.218  1.00  0.00     0.028 H 
ATOM      6  H   UNL A   1      30.754  28.713  26.985  1.00  0.00     0.028 H 
BRANCH   4   7
ATOM      7  C   UNL A   1      32.345  27.384  26.890  1.00  0.00     0.018 C 
ATOM      8  H   UNL A   1      33.093  27.485  26.132  1.00  0.00     0.049 H 
ATOM      9  H   UNL A   1      32.716  27.003  27.818  1.00  0.00     0.049 H 
BRANCH   7  10
ATOM     10  N   UNL A   1      31.375  26.424  26.430  1.00  0.00    -0.352 N 
ATOM     11  C   UNL A   1      30.657  26.345  25.259  1.00  0.00     0.255 C 
ATOM     12  O   UNL A   1      29.913  25.366  25.148  1.00  0.00    -0.269 OA
ATOM     13  H   UNL A   1      31.193  25.696  27.067  1.00  0.00     0.163 HD
BRANCH  11  14
ATOM     14  C   UNL A   1      30.651  27.366  24.161  1.00  0.00     0.082 A 
ATOM     15  C   UNL A   1      31.726  27.836  23.396  1.00  0.00     0.143 A 
ATOM     16  C   UNL A   1      31.547  28.818  22.405  1.00  0.00    -0.018 A 
ATOM     17  C   UNL A   1      30.278  29.309  22.118  1.00  0.00    -0.059 A 
ATOM     18  H   UNL A   1      32.365  29.176  21.886  1.00  0.00     0.066 H 
ATOM     19  C   UNL A   1      29.372  27.869  23.832  1.00  0.00    -0.046 A 
ATOM     20  C   UNL A   1      29.186  28.826  22.826  1.00  0.00    -0.061 A 
ATOM     21  H   UNL A   1      30.151  30.026  21.387  1.00  0.00     0.062 H 
ATOM     22  H   UNL A   1      28.550  27.521  24.349  1.00  0.00     0.063 H 
ATOM     23  H   UNL A   1      28.238  29.171  22.611  1.00  0.00     0.062 H 
BRANCH  15  24
ATOM     24  O   UNL A   1      33.052  27.447  23.595  1.00  0.00    -0.426 OA
BRANCH  24  25
ATOM     25  C   UNL A   1      33.480  26.365  22.836  1.00  0.00     0.308 C 
ATOM     26  O   UNL A   1      33.647  26.339  21.627  1.00  0.00    -0.252 OA
BRANCH  25  27
ATOM     27  C   UNL A   1      33.717  25.201  23.757  1.00  0.00     0.034 C 
ATOM     28  H   UNL A   1      34.770  25.064  23.894  1.00  0.00     0.035 H 
ATOM     29  H   UNL A   1      33.296  24.316  23.329  1.00  0.00     0.035 H 
ATOM     30  H   UNL A   1      33.255  25.394  24.702  1.00  0.00     0.035 H 
ENDBRANCH  25  27
ENDBRANCH  24  25
ENDBRANCH  15  24
ENDBRANCH  11  14
ENDBRANCH   7  10
ENDBRANCH   4   7
ENDBRANCH   1   4
BRANCH   1  31
ATOM     31  C   UNL A   1      31.287  30.967  25.838  1.00  0.00    -0.052 C 
ATOM     32  H   UNL A   1      30.314  30.542  25.970  1.00  0.00     0.027 H 
ATOM     33  H   UNL A   1      31.574  31.158  24.824  1.00  0.00     0.027 H 
BRANCH  31  34
ATOM     34  C   UNL A   1      31.278  32.346  26.501  1.00  0.00    -0.036 C 
ATOM     35  H   UNL A   1      30.502  32.343  27.238  1.00  0.00     0.028 H 
ATOM     36  H   UNL A   1      31.137  33.037  25.697  1.00  0.00     0.028 H 
BRANCH  34  37
ATOM     37  C   UNL A   1      32.562  32.797  27.189  1.00  0.00     0.018 C 
ATOM     38  H   UNL A   1      33.374  32.677  26.502  1.00  0.00     0.049 H 
ATOM     39  H   UNL A   1      32.677  32.195  28.065  1.00  0.00     0.049 H 
BRANCH  37  40
ATOM     40  N   UNL A   1      32.530  34.181  27.623  1.00  0.00    -0.352 N 
ATOM     41  C   UNL A   1      33.272  34.839  28.574  1.00  0.00     0.251 C 
ATOM     42  H   UNL A   1      31.868  34.742  27.159  1.00  0.00     0.163 HD
ATOM     43  O   UNL A   1      32.999  36.005  28.848  1.00  0.00    -0.269 OA
BRANCH  41  44
ATOM     44  C   UNL A   1      34.378  34.167  29.300  1.00  0.00     0.039 A 
ATOM     45  C   UNL A   1      35.694  34.456  28.918  1.00  0.00    -0.049 A 
ATOM     46  C   UNL A   1      34.149  33.223  30.304  1.00  0.00    -0.049 A 
ATOM     47  C   UNL A   1      36.770  33.847  29.572  1.00  0.00    -0.053 A 
ATOM     48  H   UNL A   1      35.871  35.123  28.150  1.00  0.00     0.063 H 
ATOM     49  C   UNL A   1      35.223  32.669  31.005  1.00  0.00    -0.053 A 
ATOM     50  H   UNL A   1      33.184  32.933  30.528  1.00  0.00     0.063 H 
ATOM     51  C   UNL A   1      36.546  32.968  30.643  1.00  0.00    -0.014 A 
ATOM     52  H   UNL A   1      37.735  34.044  29.265  1.00  0.00     0.063 H 
ATOM     53  H   UNL A   1      35.041  32.035  31.799  1.00  0.00     0.063 H 
BRANCH  51  54
ATOM     54  C   UNL A   1      37.680  32.347  31.380  1.00  0.00     0.031 A 
ATOM     55  C   UNL A   1      38.425  31.180  30.789  1.00  0.00     0.074 A 
ATOM     56  C   UNL A   1      38.004  32.792  32.609  1.00  0.00     0.049 A 
ATOM     57  N   UNL A   1      39.396  30.468  31.306  1.00  0.00    -0.248 NA
ATOM     58  C   UNL A   1      38.002  30.738  29.452  1.00  0.00    -0.034 C 
ATOM     59  C   UNL A   1      37.328  33.877  33.319  1.00  0.00    -0.036 A 
ATOM     60  N   UNL A   1      38.973  32.372  33.488  1.00  0.00    -0.354 N 
ATOM     61  C   UNL A   1      39.684  29.484  30.368  1.00  0.00     0.074 A 
ATOM     62  C   UNL A   1      38.752  29.660  29.275  1.00  0.00    -0.034 C 
ATOM     63  H   UNL A   1      37.304  31.157  28.818  1.00  0.00     0.065 H 
ATOM     64  C   UNL A   1      37.907  34.046  34.518  1.00  0.00    -0.036 A 
ATOM     65  H   UNL A   1      36.533  34.427  32.955  1.00  0.00     0.065 H 
ATOM     66  C   UNL A   1      38.973  33.060  34.677  1.00  0.00     0.049 A 
ATOM     67  H   UNL A   1      39.607  31.647  33.285  1.00  0.00     0.167 HD
ATOM     68  C   UNL A   1      40.651  28.536  30.405  1.00  0.00     0.037 A 
ATOM     69  H   UNL A   1      38.681  29.027  28.463  1.00  0.00     0.065 H 
ATOM     70  H   UNL A   1      37.641  34.757  35.216  1.00  0.00     0.065 H 
ATOM     71  C   UNL A   1      39.737  32.910  35.775  1.00  0.00     0.037 A 
ATOM     72  C   UNL A   1      41.598  28.381  31.478  1.00  0.00     0.049 A 
ATOM     73  C   UNL A   1      40.818  31.862  35.786  1.00  0.00     0.074 A 
ATOM     74  C   UNL A   1      42.663  27.503  31.571  1.00  0.00    -0.036 A 
ATOM     75  N   UNL A   1      41.588  29.121  32.653  1.00  0.00    -0.354 N 
ATOM     76  N   UNL A   1      41.133  30.989  34.861  1.00  0.00    -0.248 NA
ATOM     77  C   UNL A   1      41.656  31.787  36.992  1.00  0.00    -0.034 C 
ATOM     78  C   UNL A   1      43.268  27.677  32.822  1.00  0.00    -0.036 A 
ATOM     79  H   UNL A   1      42.960  26.833  30.844  1.00  0.00     0.065 H 
ATOM     80  C   UNL A   1      42.613  28.700  33.487  1.00  0.00     0.049 A 
ATOM     81  H   UNL A   1      40.948  29.839  32.863  1.00  0.00     0.167 HD
ATOM     82  C   UNL A   1      42.215  30.277  35.359  1.00  0.00     0.074 A 
ATOM     83  C   UNL A   1      42.513  30.829  36.664  1.00  0.00    -0.034 C 
ATOM     84  H   UNL A   1      41.594  32.335  37.864  1.00  0.00     0.065 H 
ATOM     85  H   UNL A   1      44.067  27.135  33.186  1.00  0.00     0.065 H 
ATOM     86  C   UNL A   1      42.897  29.255  34.786  1.00  0.00     0.037 A 
ATOM     87  H   UNL A   1      43.294  30.518  37.263  1.00  0.00     0.065 H 
BRANCH  68  88
ATOM     88  C   UNL A   1      40.730  27.584  29.244  1.00  0.00     0.064 A 
ATOM     89  C   UNL A   1      41.694  27.729  28.234  1.00  0.00     0.173 A 
ATOM     90  C   UNL A   1      39.841  26.502  29.150  1.00  0.00     0.173 A 
ATOM     91  F   UNL A   1      42.562  28.751  28.271  1.00  0.00    -0.203 F 
ATOM     92  C   UNL A   1      41.739  26.852  27.154  1.00  0.00     0.198 A 
ATOM     93  C   UNL A   1      39.911  25.607  28.085  1.00  0.00     0.198 A 
ATOM     94  F   UNL A   1      38.906  26.310  30.092  1.00  0.00    -0.203 F 
ATOM     95  F   UNL A   1      42.628  27.047  26.170  1.00  0.00    -0.200 F 
ATOM     96  C   UNL A   1      40.851  25.789  27.082  1.00  0.00     0.200 A 
ATOM     97  F   UNL A   1      39.061  24.573  28.024  1.00  0.00    -0.200 F 
ATOM     98  F   UNL A   1      40.894  24.945  26.042  1.00  0.00    -0.200 F 
ENDBRANCH  68  88
BRANCH  71  99
ATOM     99  C   UNL A   1      39.513  33.791  36.951  1.00  0.00     0.064 A 
ATOM    100  C   UNL A   1      38.749  33.360  38.042  1.00  0.00     0.173 A 
ATOM    101  C   UNL A   1      40.079  35.073  37.014  1.00  0.00     0.173 A 
ATOM    102  F   UNL A   1      38.171  32.149  38.018  1.00  0.00    -0.203 F 
ATOM    103  C   UNL A   1      38.548  34.182  39.149  1.00  0.00     0.198 A 
ATOM    104  C   UNL A   1      39.900  35.884  38.132  1.00  0.00     0.198 A 
ATOM    105  F   UNL A   1      40.825  35.529  35.997  1.00  0.00    -0.203 F 
ATOM    106  F   UNL A   1      37.783  33.760  40.165  1.00  0.00    -0.200 F 
ATOM    107  C   UNL A   1      39.130  35.440  39.197  1.00  0.00     0.200 A 
ATOM    108  F   UNL A   1      40.478  37.092  38.181  1.00  0.00    -0.200 F 
ATOM    109  F   UNL A   1      38.946  36.226  40.266  1.00  0.00    -0.200 F 
ENDBRANCH  71  99
BRANCH  86 110
ATOM    110  C   UNL A   1      44.050  28.679  35.557  1.00  0.00     0.064 A 
ATOM    111  C   UNL A   1      45.353  29.178  35.411  1.00  0.00     0.173 A 
ATOM    112  C   UNL A   1      43.843  27.644  36.481  1.00  0.00     0.173 A 
ATOM    113  F   UNL A   1      45.606  30.157  34.530  1.00  0.00    -0.203 F 
ATOM    114  C   UNL A   1      46.410  28.646  36.146  1.00  0.00     0.198 A 
ATOM    115  C   UNL A   1      44.896  27.134  37.235  1.00  0.00     0.198 A 
ATOM    116  F   UNL A   1      42.615  27.135  36.662  1.00  0.00    -0.203 F 
ATOM    117  F   UNL A   1      47.653  29.108  35.958  1.00  0.00    -0.200 F 
ATOM    118  C   UNL A   1      46.179  27.631  37.062  1.00  0.00     0.200 A 
ATOM    119  F   UNL A   1      44.669  26.162  38.129  1.00  0.00    -0.200 F 
ATOM    120  F   UNL A   1      47.196  27.125  37.774  1.00  0.00    -0.200 F 
ENDBRANCH  86 110
ENDBRANCH  51  54
ENDBRANCH  41  44
ENDBRANCH  37  40
ENDBRANCH  34  37
ENDBRANCH  31  34
ENDBRANCH   1  31
TORSDOF 16
ENDMDL
MODEL 6
REMARK VINA RESULT:     -10.6      0.224      1.644
REMARK SMILES CC(=O)Oc1ccccc1C(=O)NCCCCCCNC(=O)c1ccc(-c2c3nc(c(-c4c(F)c(F)c(F)c(F)c4F)c4ccc([nH]4)c(-c4c(F)c(F)c(F)c(F)c4F)c4nc(c(-c5c(F)c(F)c(F)c(F)c5F)c5ccc2[nH]5)C=C4)C=C3)cc1
REMARK SMILES IDX 16 1 15 4 14 7 13 10 11 11 12 12 10 14 5 15 6 16 7 17 9 19
REMARK SMILES IDX 8 20 4 24 2 25 3 26 1 27 17 31 18 34 19 37 20 40 21 41 22 43
REMARK SMILES IDX 23 44 24 45 85 46 25 47 84 49 26 51 27 54 28 55 78 56 29 57
REMARK SMILES IDX 83 58 77 59 79 60 30 61 82 62 76 64 75 66 31 68 63 71 43 72
REMARK SMILES IDX 62 73 44 74 47 75 61 76 80 77 45 78 46 80 60 82 81 83 48 86
REMARK SMILES IDX 32 88 33 89 41 90 34 91 35 92 39 93 42 94 36 95 37 96 40 97
REMARK SMILES IDX 38 98 64 99 65 100 73 101 66 102 67 103 71 104 74 105 68 106
REMARK SMILES IDX 69 107 72 108 70 109 49 110 50 111 58 112 51 113 52 114
REMARK SMILES IDX 56 115 59 116 53 117 54 118 57 119 55 120
REMARK H PARENT 16 2 16 3 15 5 15 6 14 8 14 9 13 13 6 18 7 21 9 22 8 23 1 28
REMARK H PARENT 1 29 1 30 17 32 17 33 18 35 18 36 19 38 19 39 20 42 24 48
REMARK H PARENT 85 50 25 52 84 53 83 63 77 65 79 67 82 69 76 70 44 79 47 81
REMARK H PARENT 80 84 45 85 81 87
REMARK Flexibility Score: inf
ROOT
ATOM      1  C   UNL A   1      32.199  29.843  27.234  1.00  0.00    -0.052 C 
ATOM      2  H   UNL A   1      32.162  30.324  28.189  1.00  0.00     0.027 H 
ATOM      3  H   UNL A   1      31.697  28.900  27.167  1.00  0.00     0.027 H 
ENDROOT
BRANCH   1   4
ATOM      4  C   UNL A   1      33.668  29.514  26.947  1.00  0.00    -0.036 C 
ATOM      5  H   UNL A   1      34.128  30.403  26.569  1.00  0.00     0.028 H 
ATOM      6  H   UNL A   1      34.055  29.159  27.880  1.00  0.00     0.028 H 
BRANCH   4   7
ATOM      7  C   UNL A   1      33.957  28.392  25.955  1.00  0.00     0.018 C 
ATOM      8  H   UNL A   1      34.915  27.980  26.195  1.00  0.00     0.049 H 
ATOM      9  H   UNL A   1      33.149  27.697  26.056  1.00  0.00     0.049 H 
BRANCH   7  10
ATOM     10  N   UNL A   1      33.974  28.776  24.566  1.00  0.00    -0.352 N 
ATOM     11  C   UNL A   1      33.155  28.432  23.517  1.00  0.00     0.255 C 
ATOM     12  O   UNL A   1      33.416  28.962  22.433  1.00  0.00    -0.269 OA
ATOM     13  H   UNL A   1      34.702  29.394  24.327  1.00  0.00     0.163 HD
BRANCH  11  14
ATOM     14  C   UNL A   1      32.036  27.434  23.565  1.00  0.00     0.082 A 
ATOM     15  C   UNL A   1      30.663  27.662  23.715  1.00  0.00     0.143 A 
ATOM     16  C   UNL A   1      29.742  26.600  23.756  1.00  0.00    -0.018 A 
ATOM     17  C   UNL A   1      30.170  25.288  23.589  1.00  0.00    -0.059 A 
ATOM     18  H   UNL A   1      28.740  26.797  23.911  1.00  0.00     0.066 H 
ATOM     19  C   UNL A   1      32.438  26.092  23.377  1.00  0.00    -0.046 A 
ATOM     20  C   UNL A   1      31.521  25.033  23.388  1.00  0.00    -0.061 A 
ATOM     21  H   UNL A   1      29.491  24.511  23.614  1.00  0.00     0.062 H 
ATOM     22  H   UNL A   1      33.437  25.885  23.228  1.00  0.00     0.063 H 
ATOM     23  H   UNL A   1      31.848  24.065  23.247  1.00  0.00     0.062 H 
BRANCH  15  24
ATOM     24  O   UNL A   1      30.102  28.925  23.917  1.00  0.00    -0.426 OA
BRANCH  24  25
ATOM     25  C   UNL A   1      29.574  29.534  22.786  1.00  0.00     0.308 C 
ATOM     26  O   UNL A   1      29.884  29.317  21.625  1.00  0.00    -0.252 OA
BRANCH  25  27
ATOM     27  C   UNL A   1      28.531  30.525  23.220  1.00  0.00     0.034 C 
ATOM     28  H   UNL A   1      28.958  31.205  23.928  1.00  0.00     0.035 H 
ATOM     29  H   UNL A   1      27.713  30.005  23.674  1.00  0.00     0.035 H 
ATOM     30  H   UNL A   1      28.179  31.069  22.369  1.00  0.00     0.035 H 
ENDBRANCH  25  27
ENDBRANCH  24  25
ENDBRANCH  15  24
ENDBRANCH  11  14
ENDBRANCH   7  10
ENDBRANCH   4   7
ENDBRANCH   1   4
BRANCH   1  31
ATOM     31  C   UNL A   1      31.451  30.742  26.244  1.00  0.00    -0.052 C 
ATOM     32  H   UNL A   1      30.447  30.378  26.176  1.00  0.00     0.027 H 
ATOM     33  H   UNL A   1      32.025  30.686  25.341  1.00  0.00     0.027 H 
BRANCH  31  34
ATOM     34  C   UNL A   1      31.374  32.238  26.558  1.00  0.00    -0.036 C 
ATOM     35  H   UNL A   1      30.598  32.375  27.282  1.00  0.00     0.028 H 
ATOM     36  H   UNL A   1      31.201  32.710  25.613  1.00  0.00     0.028 H 
BRANCH  34  37
ATOM     37  C   UNL A   1      32.634  32.901  27.105  1.00  0.00     0.018 C 
ATOM     38  H   UNL A   1      33.338  33.001  26.305  1.00  0.00     0.049 H 
ATOM     39  H   UNL A   1      32.999  32.279  27.894  1.00  0.00     0.049 H 
BRANCH  37  40
ATOM     40  N   UNL A   1      32.396  34.215  27.673  1.00  0.00    -0.352 N 
ATOM     41  C   UNL A   1      33.032  34.877  28.695  1.00  0.00     0.251 C 
ATOM     42  H   UNL A   1      31.657  34.715  27.257  1.00  0.00     0.163 HD
ATOM     43  O   UNL A   1      32.588  35.956  29.079  1.00  0.00    -0.269 OA
BRANCH  41  44
ATOM     44  C   UNL A   1      34.226  34.307  29.367  1.00  0.00     0.039 A 
ATOM     45  C   UNL A   1      34.030  33.479  30.479  1.00  0.00    -0.049 A 
ATOM     46  C   UNL A   1      35.528  34.614  28.965  1.00  0.00    -0.049 A 
ATOM     47  C   UNL A   1      35.125  32.919  31.146  1.00  0.00    -0.053 A 
ATOM     48  H   UNL A   1      33.072  33.279  30.808  1.00  0.00     0.063 H 
ATOM     49  C   UNL A   1      36.618  33.998  29.584  1.00  0.00    -0.053 A 
ATOM     50  H   UNL A   1      35.685  35.297  28.207  1.00  0.00     0.063 H 
ATOM     51  C   UNL A   1      36.430  33.151  30.687  1.00  0.00    -0.014 A 
ATOM     52  H   UNL A   1      34.972  32.333  31.981  1.00  0.00     0.063 H 
ATOM     53  H   UNL A   1      37.572  34.168  29.226  1.00  0.00     0.063 H 
BRANCH  51  54
ATOM     54  C   UNL A   1      37.603  32.526  31.357  1.00  0.00     0.031 A 
ATOM     55  C   UNL A   1      38.323  31.371  30.714  1.00  0.00     0.074 A 
ATOM     56  C   UNL A   1      37.988  32.957  32.574  1.00  0.00     0.049 A 
ATOM     57  N   UNL A   1      39.322  30.658  31.171  1.00  0.00    -0.248 NA
ATOM     58  C   UNL A   1      37.835  30.943  29.394  1.00  0.00    -0.034 C 
ATOM     59  C   UNL A   1      37.344  34.029  33.332  1.00  0.00    -0.036 A 
ATOM     60  N   UNL A   1      39.002  32.531  33.396  1.00  0.00    -0.354 N 
ATOM     61  C   UNL A   1      39.567  29.688  30.207  1.00  0.00     0.074 A 
ATOM     62  C   UNL A   1      38.580  29.872  29.165  1.00  0.00    -0.034 C 
ATOM     63  H   UNL A   1      37.103  31.367  28.803  1.00  0.00     0.065 H 
ATOM     64  C   UNL A   1      37.982  34.186  34.501  1.00  0.00    -0.036 A 
ATOM     65  H   UNL A   1      36.529  34.579  33.016  1.00  0.00     0.065 H 
ATOM     66  C   UNL A   1      39.060  33.204  34.592  1.00  0.00     0.049 A 
ATOM     67  H   UNL A   1      39.629  31.812  33.151  1.00  0.00     0.167 HD
ATOM     68  C   UNL A   1      40.540  28.744  30.181  1.00  0.00     0.037 A 
ATOM     69  H   UNL A   1      38.470  29.250  28.349  1.00  0.00     0.065 H 
ATOM     70  H   UNL A   1      37.749  34.886  35.222  1.00  0.00     0.065 H 
ATOM     71  C   UNL A   1      39.880  33.043  35.649  1.00  0.00     0.037 A 
ATOM     72  C   UNL A   1      41.540  28.581  31.203  1.00  0.00     0.049 A 
ATOM     73  C   UNL A   1      40.965  32.002  35.591  1.00  0.00     0.074 A 
ATOM     74  C   UNL A   1      42.613  27.707  31.230  1.00  0.00    -0.036 A 
ATOM     75  N   UNL A   1      41.587  29.305  32.387  1.00  0.00    -0.354 N 
ATOM     76  N   UNL A   1      41.236  31.143  34.639  1.00  0.00    -0.248 NA
ATOM     77  C   UNL A   1      41.864  31.915  36.750  1.00  0.00    -0.034 C 
ATOM     78  C   UNL A   1      43.281  27.868  32.450  1.00  0.00    -0.036 A 
ATOM     79  H   UNL A   1      42.876  27.049  30.480  1.00  0.00     0.065 H 
ATOM     80  C   UNL A   1      42.655  28.879  33.161  1.00  0.00     0.049 A 
ATOM     81  H   UNL A   1      40.956  30.017  32.638  1.00  0.00     0.167 HD
ATOM     82  C   UNL A   1      42.346  30.430  35.072  1.00  0.00     0.074 A 
ATOM     83  C   UNL A   1      42.708  30.967  36.367  1.00  0.00    -0.034 C 
ATOM     84  H   UNL A   1      41.844  32.452  37.632  1.00  0.00     0.065 H 
ATOM     85  H   UNL A   1      44.100  27.326  32.765  1.00  0.00     0.065 H 
ATOM     86  C   UNL A   1      43.003  29.419  34.451  1.00  0.00     0.037 A 
ATOM     87  H   UNL A   1      43.520  30.653  36.921  1.00  0.00     0.065 H 
BRANCH  68  88
ATOM     88  C   UNL A   1      40.564  27.808  29.005  1.00  0.00     0.064 A 
ATOM     89  C   UNL A   1      41.387  28.040  27.892  1.00  0.00     0.173 A 
ATOM     90  C   UNL A   1      39.766  26.653  29.000  1.00  0.00     0.173 A 
ATOM     91  F   UNL A   1      42.163  29.133  27.843  1.00  0.00    -0.203 F 
ATOM     92  C   UNL A   1      41.380  27.175  26.802  1.00  0.00     0.198 A 
ATOM     93  C   UNL A   1      39.787  25.772  27.921  1.00  0.00     0.198 A 
ATOM     94  F   UNL A   1      38.967  26.377  30.041  1.00  0.00    -0.203 F 
ATOM     95  F   UNL A   1      42.129  27.450  25.725  1.00  0.00    -0.200 F 
ATOM     96  C   UNL A   1      40.584  26.039  26.818  1.00  0.00     0.200 A 
ATOM     97  F   UNL A   1      39.028  24.668  27.945  1.00  0.00    -0.200 F 
ATOM     98  F   UNL A   1      40.578  25.207  25.768  1.00  0.00    -0.200 F 
ENDBRANCH  68  88
BRANCH  71  99
ATOM     99  C   UNL A   1      39.713  33.908  36.845  1.00  0.00     0.064 A 
ATOM    100  C   UNL A   1      40.320  35.168  36.917  1.00  0.00     0.173 A 
ATOM    101  C   UNL A   1      38.924  33.499  37.931  1.00  0.00     0.173 A 
ATOM    102  F   UNL A   1      41.100  35.594  35.911  1.00  0.00    -0.203 F 
ATOM    103  C   UNL A   1      40.154  35.984  38.034  1.00  0.00     0.198 A 
ATOM    104  C   UNL A   1      38.737  34.326  39.036  1.00  0.00     0.198 A 
ATOM    105  F   UNL A   1      38.317  32.304  37.908  1.00  0.00    -0.203 F 
ATOM    106  F   UNL A   1      40.775  37.171  38.093  1.00  0.00    -0.200 F 
ATOM    107  C   UNL A   1      39.357  35.566  39.089  1.00  0.00     0.200 A 
ATOM    108  F   UNL A   1      37.953  33.925  40.046  1.00  0.00    -0.200 F 
ATOM    109  F   UNL A   1      39.190  36.355  40.159  1.00  0.00    -0.200 F 
ENDBRANCH  71  99
BRANCH  86 110
ATOM    110  C   UNL A   1      44.197  28.839  35.154  1.00  0.00     0.064 A 
ATOM    111  C   UNL A   1      44.070  27.779  36.063  1.00  0.00     0.173 A 
ATOM    112  C   UNL A   1      45.485  29.323  34.886  1.00  0.00     0.173 A 
ATOM    113  F   UNL A   1      42.858  27.290  36.366  1.00  0.00    -0.203 F 
ATOM    114  C   UNL A   1      45.189  27.239  36.695  1.00  0.00     0.198 A 
ATOM    115  C   UNL A   1      46.604  28.762  35.496  1.00  0.00     0.198 A 
ATOM    116  F   UNL A   1      45.662  30.333  34.020  1.00  0.00    -0.203 F 
ATOM    117  F   UNL A   1      45.039  26.256  37.593  1.00  0.00    -0.200 F 
ATOM    118  C   UNL A   1      46.454  27.726  36.405  1.00  0.00     0.200 A 
ATOM    119  F   UNL A   1      47.827  29.226  35.205  1.00  0.00    -0.200 F 
ATOM    120  F   UNL A   1      47.530  27.201  37.007  1.00  0.00    -0.200 F 
ENDBRANCH  86 110
ENDBRANCH  51  54
ENDBRANCH  41  44
ENDBRANCH  37  40
ENDBRANCH  34  37
ENDBRANCH  31  34
ENDBRANCH   1  31
TORSDOF 16
ENDMDL
MODEL 7
REMARK VINA RESULT:     -10.6      0.402      1.689
REMARK SMILES CC(=O)Oc1ccccc1C(=O)NCCCCCCNC(=O)c1ccc(-c2c3nc(c(-c4c(F)c(F)c(F)c(F)c4F)c4ccc([nH]4)c(-c4c(F)c(F)c(F)c(F)c4F)c4nc(c(-c5c(F)c(F)c(F)c(F)c5F)c5ccc2[nH]5)C=C4)C=C3)cc1
REMARK SMILES IDX 16 1 15 4 14 7 13 10 11 11 12 12 10 14 5 15 6 16 7 17 9 19
REMARK SMILES IDX 8 20 4 24 2 25 3 26 1 27 17 31 18 34 19 37 20 40 21 41 22 43
REMARK SMILES IDX 23 44 24 45 85 46 25 47 84 49 26 51 27 54 28 55 78 56 29 57
REMARK SMILES IDX 83 58 77 59 79 60 30 61 82 62 76 64 75 66 31 68 63 71 43 72
REMARK SMILES IDX 62 73 44 74 47 75 61 76 80 77 45 78 46 80 60 82 81 83 48 86
REMARK SMILES IDX 32 88 33 89 41 90 34 91 35 92 39 93 42 94 36 95 37 96 40 97
REMARK SMILES IDX 38 98 64 99 65 100 73 101 66 102 67 103 71 104 74 105 68 106
REMARK SMILES IDX 69 107 72 108 70 109 49 110 50 111 58 112 51 113 52 114
REMARK SMILES IDX 56 115 59 116 53 117 54 118 57 119 55 120
REMARK H PARENT 16 2 16 3 15 5 15 6 14 8 14 9 13 13 6 18 7 21 9 22 8 23 1 28
REMARK H PARENT 1 29 1 30 17 32 17 33 18 35 18 36 19 38 19 39 20 42 24 48
REMARK H PARENT 85 50 25 52 84 53 83 63 77 65 79 67 82 69 76 70 44 79 47 81
REMARK H PARENT 80 84 45 85 81 87
REMARK Flexibility Score: inf
ROOT
ATOM      1  C   UNL A   1      33.281  30.079  26.926  1.00  0.00    -0.052 C 
ATOM      2  H   UNL A   1      33.763  30.317  26.000  1.00  0.00     0.027 H 
ATOM      3  H   UNL A   1      33.641  30.603  27.787  1.00  0.00     0.027 H 
ENDROOT
BRANCH   1   4
ATOM      4  C   UNL A   1      33.576  28.605  27.226  1.00  0.00    -0.036 C 
ATOM      5  H   UNL A   1      34.545  28.557  27.678  1.00  0.00     0.028 H 
ATOM      6  H   UNL A   1      32.765  28.286  27.848  1.00  0.00     0.028 H 
BRANCH   4   7
ATOM      7  C   UNL A   1      33.571  27.633  26.051  1.00  0.00     0.018 C 
ATOM      8  H   UNL A   1      34.413  26.982  26.159  1.00  0.00     0.049 H 
ATOM      9  H   UNL A   1      32.627  27.131  26.090  1.00  0.00     0.049 H 
BRANCH   7  10
ATOM     10  N   UNL A   1      33.641  28.235  24.743  1.00  0.00    -0.352 N 
ATOM     11  C   UNL A   1      32.702  28.358  23.746  1.00  0.00     0.255 C 
ATOM     12  O   UNL A   1      33.065  28.965  22.735  1.00  0.00    -0.269 OA
ATOM     13  H   UNL A   1      34.517  28.628  24.526  1.00  0.00     0.163 HD
BRANCH  11  14
ATOM     14  C   UNL A   1      31.324  27.765  23.758  1.00  0.00     0.082 A 
ATOM     15  C   UNL A   1      30.089  28.415  23.637  1.00  0.00     0.143 A 
ATOM     16  C   UNL A   1      28.877  27.703  23.686  1.00  0.00    -0.018 A 
ATOM     17  C   UNL A   1      28.876  26.317  23.799  1.00  0.00    -0.059 A 
ATOM     18  H   UNL A   1      27.981  28.214  23.636  1.00  0.00     0.066 H 
ATOM     19  C   UNL A   1      31.290  26.355  23.852  1.00  0.00    -0.046 A 
ATOM     20  C   UNL A   1      30.086  25.640  23.872  1.00  0.00    -0.061 A 
ATOM     21  H   UNL A   1      27.985  25.798  23.829  1.00  0.00     0.062 H 
ATOM     22  H   UNL A   1      32.180  25.837  23.908  1.00  0.00     0.063 H 
ATOM     23  H   UNL A   1      30.098  24.610  23.940  1.00  0.00     0.062 H 
BRANCH  15  24
ATOM     24  O   UNL A   1      29.945  29.800  23.543  1.00  0.00    -0.426 OA
BRANCH  24  25
ATOM     25  C   UNL A   1      29.275  30.258  22.415  1.00  0.00     0.308 C 
ATOM     26  O   UNL A   1      29.529  29.986  21.252  1.00  0.00    -0.252 OA
BRANCH  25  27
ATOM     27  C   UNL A   1      28.156  31.158  22.858  1.00  0.00     0.034 C 
ATOM     28  H   UNL A   1      28.027  31.944  22.143  1.00  0.00     0.035 H 
ATOM     29  H   UNL A   1      28.394  31.580  23.812  1.00  0.00     0.035 H 
ATOM     30  H   UNL A   1      27.252  30.592  22.934  1.00  0.00     0.035 H 
ENDBRANCH  25  27
ENDBRANCH  24  25
ENDBRANCH  15  24
ENDBRANCH  11  14
ENDBRANCH   7  10
ENDBRANCH   4   7
ENDBRANCH   1   4
BRANCH   1  31
ATOM     31  C   UNL A   1      31.817  30.515  26.800  1.00  0.00    -0.052 C 
ATOM     32  H   UNL A   1      31.271  30.032  27.583  1.00  0.00     0.027 H 
ATOM     33  H   UNL A   1      31.538  30.238  25.804  1.00  0.00     0.027 H 
BRANCH  31  34
ATOM     34  C   UNL A   1      31.509  32.011  26.884  1.00  0.00    -0.036 C 
ATOM     35  H   UNL A   1      30.950  32.174  27.781  1.00  0.00     0.028 H 
ATOM     36  H   UNL A   1      30.988  32.237  25.977  1.00  0.00     0.028 H 
BRANCH  34  37
ATOM     37  C   UNL A   1      32.697  32.967  26.904  1.00  0.00     0.018 C 
ATOM     38  H   UNL A   1      32.984  33.172  25.894  1.00  0.00     0.049 H 
ATOM     39  H   UNL A   1      33.476  32.489  27.460  1.00  0.00     0.049 H 
BRANCH  37  40
ATOM     40  N   UNL A   1      32.414  34.227  27.566  1.00  0.00    -0.352 N 
ATOM     41  C   UNL A   1      33.002  34.817  28.658  1.00  0.00     0.251 C 
ATOM     42  H   UNL A   1      31.681  34.746  27.164  1.00  0.00     0.163 HD
ATOM     43  O   UNL A   1      32.525  35.855  29.110  1.00  0.00    -0.269 OA
BRANCH  41  44
ATOM     44  C   UNL A   1      34.184  34.216  29.325  1.00  0.00     0.039 A 
ATOM     45  C   UNL A   1      33.966  33.329  30.387  1.00  0.00    -0.049 A 
ATOM     46  C   UNL A   1      35.493  34.547  28.969  1.00  0.00    -0.049 A 
ATOM     47  C   UNL A   1      35.049  32.738  31.048  1.00  0.00    -0.053 A 
ATOM     48  H   UNL A   1      33.002  33.109  30.684  1.00  0.00     0.063 H 
ATOM     49  C   UNL A   1      36.572  33.903  29.579  1.00  0.00    -0.053 A 
ATOM     50  H   UNL A   1      35.664  35.271  28.252  1.00  0.00     0.063 H 
ATOM     51  C   UNL A   1      36.363  32.997  30.631  1.00  0.00    -0.014 A 
ATOM     52  H   UNL A   1      34.880  32.107  31.846  1.00  0.00     0.063 H 
ATOM     53  H   UNL A   1      37.532  34.095  29.252  1.00  0.00     0.063 H 
BRANCH  51  54
ATOM     54  C   UNL A   1      37.524  32.342  31.292  1.00  0.00     0.031 A 
ATOM     55  C   UNL A   1      38.229  31.190  30.628  1.00  0.00     0.074 A 
ATOM     56  C   UNL A   1      37.909  32.740  32.520  1.00  0.00     0.049 A 
ATOM     57  N   UNL A   1      39.216  30.452  31.074  1.00  0.00    -0.248 NA
ATOM     58  C   UNL A   1      37.742  30.797  29.298  1.00  0.00    -0.034 C 
ATOM     59  C   UNL A   1      37.277  33.806  33.298  1.00  0.00    -0.036 A 
ATOM     60  N   UNL A   1      38.913  32.283  33.338  1.00  0.00    -0.354 N 
ATOM     61  C   UNL A   1      39.451  29.499  30.091  1.00  0.00     0.074 A 
ATOM     62  C   UNL A   1      38.472  29.721  29.049  1.00  0.00    -0.034 C 
ATOM     63  H   UNL A   1      37.019  31.244  28.712  1.00  0.00     0.065 H 
ATOM     64  C   UNL A   1      37.912  33.928  34.473  1.00  0.00    -0.036 A 
ATOM     65  H   UNL A   1      36.472  34.375  32.990  1.00  0.00     0.065 H 
ATOM     66  C   UNL A   1      38.975  32.929  34.548  1.00  0.00     0.049 A 
ATOM     67  H   UNL A   1      39.531  31.559  33.080  1.00  0.00     0.167 HD
ATOM     68  C   UNL A   1      40.410  28.542  30.050  1.00  0.00     0.037 A 
ATOM     69  H   UNL A   1      38.356  29.117  28.219  1.00  0.00     0.065 H 
ATOM     70  H   UNL A   1      37.686  34.617  35.207  1.00  0.00     0.065 H 
ATOM     71  C   UNL A   1      39.788  32.734  35.604  1.00  0.00     0.037 A 
ATOM     72  C   UNL A   1      41.403  28.343  31.072  1.00  0.00     0.049 A 
ATOM     73  C   UNL A   1      40.857  31.678  35.529  1.00  0.00     0.074 A 
ATOM     74  C   UNL A   1      42.463  27.453  31.085  1.00  0.00    -0.036 A 
ATOM     75  N   UNL A   1      41.455  29.041  32.271  1.00  0.00    -0.354 N 
ATOM     76  N   UNL A   1      41.121  30.835  34.560  1.00  0.00    -0.248 NA
ATOM     77  C   UNL A   1      41.749  31.554  36.691  1.00  0.00    -0.034 C 
ATOM     78  C   UNL A   1      43.127  27.578  32.311  1.00  0.00    -0.036 A 
ATOM     79  H   UNL A   1      42.720  26.807  30.323  1.00  0.00     0.065 H 
ATOM     80  C   UNL A   1      42.513  28.583  33.041  1.00  0.00     0.049 A 
ATOM     81  H   UNL A   1      40.833  29.757  32.534  1.00  0.00     0.167 HD
ATOM     82  C   UNL A   1      42.217  30.097  34.983  1.00  0.00     0.074 A 
ATOM     83  C   UNL A   1      42.582  30.601  36.291  1.00  0.00    -0.034 C 
ATOM     84  H   UNL A   1      41.733  32.072  37.583  1.00  0.00     0.065 H 
ATOM     85  H   UNL A   1      43.937  27.018  32.619  1.00  0.00     0.065 H 
ATOM     86  C   UNL A   1      42.863  29.090  34.344  1.00  0.00     0.037 A 
ATOM     87  H   UNL A   1      43.386  30.263  36.841  1.00  0.00     0.065 H 
BRANCH  68  88
ATOM     88  C   UNL A   1      40.426  27.631  28.854  1.00  0.00     0.064 A 
ATOM     89  C   UNL A   1      39.671  26.448  28.816  1.00  0.00     0.173 A 
ATOM     90  C   UNL A   1      41.193  27.955  27.724  1.00  0.00     0.173 A 
ATOM     91  F   UNL A   1      38.927  26.088  29.873  1.00  0.00    -0.203 F 
ATOM     92  C   UNL A   1      39.715  25.604  27.710  1.00  0.00     0.198 A 
ATOM     93  C   UNL A   1      41.208  27.124  26.606  1.00  0.00     0.198 A 
ATOM     94  F   UNL A   1      41.927  29.078  27.702  1.00  0.00    -0.203 F 
ATOM     95  F   UNL A   1      39.034  24.451  27.721  1.00  0.00    -0.200 F 
ATOM     96  C   UNL A   1      40.479  25.945  26.603  1.00  0.00     0.200 A 
ATOM     97  F   UNL A   1      41.936  27.462  25.533  1.00  0.00    -0.200 F 
ATOM     98  F   UNL A   1      40.521  25.132  25.539  1.00  0.00    -0.200 F 
ENDBRANCH  68  88
BRANCH  71  99
ATOM     99  C   UNL A   1      39.627  33.575  36.818  1.00  0.00     0.064 A 
ATOM    100  C   UNL A   1      40.280  34.809  36.934  1.00  0.00     0.173 A 
ATOM    101  C   UNL A   1      38.800  33.171  37.877  1.00  0.00     0.173 A 
ATOM    102  F   UNL A   1      41.097  35.228  35.956  1.00  0.00    -0.203 F 
ATOM    103  C   UNL A   1      40.121  35.604  38.068  1.00  0.00     0.198 A 
ATOM    104  C   UNL A   1      38.621  33.978  38.998  1.00  0.00     0.198 A 
ATOM    105  F   UNL A   1      38.148  32.001  37.811  1.00  0.00    -0.203 F 
ATOM    106  F   UNL A   1      40.785  36.763  38.169  1.00  0.00    -0.200 F 
ATOM    107  C   UNL A   1      39.286  35.191  39.095  1.00  0.00     0.200 A 
ATOM    108  F   UNL A   1      37.800  33.583  39.981  1.00  0.00    -0.200 F 
ATOM    109  F   UNL A   1      39.125  35.960  40.180  1.00  0.00    -0.200 F 
ENDBRANCH  71  99
BRANCH  86 110
ATOM    110  C   UNL A   1      44.044  28.478  35.040  1.00  0.00     0.064 A 
ATOM    111  C   UNL A   1      45.335  29.007  34.897  1.00  0.00     0.173 A 
ATOM    112  C   UNL A   1      43.877  27.376  35.891  1.00  0.00     0.173 A 
ATOM    113  F   UNL A   1      45.551  30.051  34.083  1.00  0.00    -0.203 F 
ATOM    114  C   UNL A   1      46.420  28.440  35.563  1.00  0.00     0.198 A 
ATOM    115  C   UNL A   1      44.958  26.830  36.578  1.00  0.00     0.198 A 
ATOM    116  F   UNL A   1      42.662  26.835  36.067  1.00  0.00    -0.203 F 
ATOM    117  F   UNL A   1      47.651  28.935  35.376  1.00  0.00    -0.200 F 
ATOM    118  C   UNL A   1      46.229  27.358  36.408  1.00  0.00     0.200 A 
ATOM    119  F   UNL A   1      44.769  25.791  37.404  1.00  0.00    -0.200 F 
ATOM    120  F   UNL A   1      47.271  26.818  37.054  1.00  0.00    -0.200 F 
ENDBRANCH  86 110
ENDBRANCH  51  54
ENDBRANCH  41  44
ENDBRANCH  37  40
ENDBRANCH  34  37
ENDBRANCH  31  34
ENDBRANCH   1  31
TORSDOF 16
ENDMDL
MODEL 8
REMARK VINA RESULT:     -10.6      6.098     11.360
REMARK SMILES CC(=O)Oc1ccccc1C(=O)NCCCCCCNC(=O)c1ccc(-c2c3nc(c(-c4c(F)c(F)c(F)c(F)c4F)c4ccc([nH]4)c(-c4c(F)c(F)c(F)c(F)c4F)c4nc(c(-c5c(F)c(F)c(F)c(F)c5F)c5ccc2[nH]5)C=C4)C=C3)cc1
REMARK SMILES IDX 16 1 15 4 14 7 13 10 11 11 12 12 10 14 5 15 6 16 7 17 9 19
REMARK SMILES IDX 8 20 4 24 2 25 3 26 1 27 17 31 18 34 19 37 20 40 21 41 22 43
REMARK SMILES IDX 23 44 24 45 85 46 25 47 84 49 26 51 27 54 28 55 78 56 29 57
REMARK SMILES IDX 83 58 77 59 79 60 30 61 82 62 76 64 75 66 31 68 63 71 43 72
REMARK SMILES IDX 62 73 44 74 47 75 61 76 80 77 45 78 46 80 60 82 81 83 48 86
REMARK SMILES IDX 32 88 33 89 41 90 34 91 35 92 39 93 42 94 36 95 37 96 40 97
REMARK SMILES IDX 38 98 64 99 65 100 73 101 66 102 67 103 71 104 74 105 68 106
REMARK SMILES IDX 69 107 72 108 70 109 49 110 50 111 58 112 51 113 52 114
REMARK SMILES IDX 56 115 59 116 53 117 54 118 57 119 55 120
REMARK H PARENT 16 2 16 3 15 5 15 6 14 8 14 9 13 13 6 18 7 21 9 22 8 23 1 28
REMARK H PARENT 1 29 1 30 17 32 17 33 18 35 18 36 19 38 19 39 20 42 24 48
REMARK H PARENT 85 50 25 52 84 53 83 63 77 65 79 67 82 69 76 70 44 79 47 81
REMARK H PARENT 80 84 45 85 81 87
REMARK Flexibility Score: inf
ROOT
ATOM      1  C   UNL A   1      36.429  21.756  24.945  1.00  0.00    -0.052 C 
ATOM      2  H   UNL A   1      37.445  22.089  24.886  1.00  0.00     0.027 H 
ATOM      3  H   UNL A   1      35.814  21.983  24.101  1.00  0.00     0.027 H 
ENDROOT
BRANCH   1   4
ATOM      4  C   UNL A   1      35.773  22.507  26.109  1.00  0.00    -0.036 C 
ATOM      5  H   UNL A   1      35.057  21.847  26.554  1.00  0.00     0.028 H 
ATOM      6  H   UNL A   1      36.587  22.793  26.742  1.00  0.00     0.028 H 
BRANCH   4   7
ATOM      7  C   UNL A   1      35.053  23.812  25.786  1.00  0.00     0.018 C 
ATOM      8  H   UNL A   1      35.622  24.614  26.207  1.00  0.00     0.049 H 
ATOM      9  H   UNL A   1      34.976  23.848  24.720  1.00  0.00     0.049 H 
BRANCH   7  10
ATOM     10  N   UNL A   1      33.703  23.919  26.281  1.00  0.00    -0.352 N 
ATOM     11  C   UNL A   1      32.569  23.196  25.993  1.00  0.00     0.255 C 
ATOM     12  O   UNL A   1      31.553  23.516  26.617  1.00  0.00    -0.269 OA
ATOM     13  H   UNL A   1      33.570  24.636  26.941  1.00  0.00     0.163 HD
BRANCH  11  14
ATOM     14  C   UNL A   1      32.452  22.119  24.955  1.00  0.00     0.082 A 
ATOM     15  C   UNL A   1      32.264  22.251  23.574  1.00  0.00     0.143 A 
ATOM     16  C   UNL A   1      32.158  21.126  22.736  1.00  0.00    -0.018 A 
ATOM     17  C   UNL A   1      32.295  19.844  23.257  1.00  0.00    -0.059 A 
ATOM     18  H   UNL A   1      31.977  21.254  21.728  1.00  0.00     0.066 H 
ATOM     19  C   UNL A   1      32.608  20.805  25.450  1.00  0.00    -0.046 A 
ATOM     20  C   UNL A   1      32.532  19.683  24.615  1.00  0.00    -0.061 A 
ATOM     21  H   UNL A   1      32.222  19.021  22.639  1.00  0.00     0.062 H 
ATOM     22  H   UNL A   1      32.783  20.668  26.457  1.00  0.00     0.063 H 
ATOM     23  H   UNL A   1      32.651  18.737  25.010  1.00  0.00     0.062 H 
BRANCH  15  24
ATOM     24  O   UNL A   1      32.085  23.475  22.926  1.00  0.00    -0.426 OA
BRANCH  24  25
ATOM     25  C   UNL A   1      33.247  24.193  22.672  1.00  0.00     0.308 C 
ATOM     26  O   UNL A   1      34.334  23.739  22.354  1.00  0.00    -0.252 OA
BRANCH  25  27
ATOM     27  C   UNL A   1      32.950  25.657  22.846  1.00  0.00     0.034 C 
ATOM     28  H   UNL A   1      33.271  25.972  23.817  1.00  0.00     0.035 H 
ATOM     29  H   UNL A   1      31.897  25.821  22.749  1.00  0.00     0.035 H 
ATOM     30  H   UNL A   1      33.469  26.218  22.098  1.00  0.00     0.035 H 
ENDBRANCH  25  27
ENDBRANCH  24  25
ENDBRANCH  15  24
ENDBRANCH  11  14
ENDBRANCH   7  10
ENDBRANCH   4   7
ENDBRANCH   1   4
BRANCH   1  31
ATOM     31  C   UNL A   1      36.457  20.224  24.994  1.00  0.00    -0.052 C 
ATOM     32  H   UNL A   1      35.829  19.867  24.206  1.00  0.00     0.027 H 
ATOM     33  H   UNL A   1      36.137  19.980  25.987  1.00  0.00     0.027 H 
BRANCH  31  34
ATOM     34  C   UNL A   1      37.813  19.531  24.846  1.00  0.00    -0.036 C 
ATOM     35  H   UNL A   1      38.133  19.662  23.834  1.00  0.00     0.028 H 
ATOM     36  H   UNL A   1      37.638  18.517  25.139  1.00  0.00     0.028 H 
BRANCH  34  37
ATOM     37  C   UNL A   1      38.944  20.012  25.750  1.00  0.00     0.018 C 
ATOM     38  H   UNL A   1      38.547  20.182  26.729  1.00  0.00     0.049 H 
ATOM     39  H   UNL A   1      39.340  20.903  25.310  1.00  0.00     0.049 H 
BRANCH  37  40
ATOM     40  N   UNL A   1      40.040  19.067  25.858  1.00  0.00    -0.352 N 
ATOM     41  C   UNL A   1      41.374  19.268  26.117  1.00  0.00     0.251 C 
ATOM     42  H   UNL A   1      39.785  18.125  25.725  1.00  0.00     0.163 HD
ATOM     43  O   UNL A   1      42.147  18.315  26.060  1.00  0.00    -0.269 OA
BRANCH  41  44
ATOM     44  C   UNL A   1      41.910  20.615  26.436  1.00  0.00     0.039 A 
ATOM     45  C   UNL A   1      42.184  21.488  25.375  1.00  0.00    -0.049 A 
ATOM     46  C   UNL A   1      42.201  21.014  27.742  1.00  0.00    -0.049 A 
ATOM     47  C   UNL A   1      42.692  22.767  25.626  1.00  0.00    -0.053 A 
ATOM     48  H   UNL A   1      42.010  21.186  24.404  1.00  0.00     0.063 H 
ATOM     49  C   UNL A   1      42.639  22.315  27.998  1.00  0.00    -0.053 A 
ATOM     50  H   UNL A   1      42.093  20.345  28.521  1.00  0.00     0.063 H 
ATOM     51  C   UNL A   1      42.897  23.204  26.943  1.00  0.00    -0.014 A 
ATOM     52  H   UNL A   1      42.916  23.394  24.838  1.00  0.00     0.063 H 
ATOM     53  H   UNL A   1      42.773  22.626  28.974  1.00  0.00     0.063 H 
BRANCH  51  54
ATOM     54  C   UNL A   1      43.392  24.578  27.230  1.00  0.00     0.031 A 
ATOM     55  C   UNL A   1      42.459  25.628  27.772  1.00  0.00     0.074 A 
ATOM     56  C   UNL A   1      44.668  24.903  26.947  1.00  0.00     0.049 A 
ATOM     57  N   UNL A   1      42.690  26.893  28.023  1.00  0.00    -0.248 NA
ATOM     58  C   UNL A   1      41.077  25.206  28.038  1.00  0.00    -0.034 C 
ATOM     59  C   UNL A   1      45.661  23.998  26.368  1.00  0.00    -0.036 A 
ATOM     60  N   UNL A   1      45.345  26.090  27.089  1.00  0.00    -0.354 N 
ATOM     61  C   UNL A   1      41.479  27.419  28.456  1.00  0.00     0.074 A 
ATOM     62  C   UNL A   1      40.506  26.350  28.385  1.00  0.00    -0.034 C 
ATOM     63  H   UNL A   1      40.659  24.264  27.971  1.00  0.00     0.065 H 
ATOM     64  C   UNL A   1      46.820  24.656  26.214  1.00  0.00    -0.036 A 
ATOM     65  H   UNL A   1      45.497  23.009  26.120  1.00  0.00     0.065 H 
ATOM     66  C   UNL A   1      46.646  26.039  26.652  1.00  0.00     0.049 A 
ATOM     67  H   UNL A   1      44.935  26.901  27.470  1.00  0.00     0.167 HD
ATOM     68  C   UNL A   1      41.208  28.673  28.895  1.00  0.00     0.037 A 
ATOM     69  H   UNL A   1      39.499  26.464  28.578  1.00  0.00     0.065 H 
ATOM     70  H   UNL A   1      47.694  24.251  25.845  1.00  0.00     0.065 H 
ATOM     71  C   UNL A   1      47.590  26.998  26.598  1.00  0.00     0.037 A 
ATOM     72  C   UNL A   1      42.183  29.727  28.996  1.00  0.00     0.049 A 
ATOM     73  C   UNL A   1      47.272  28.378  27.109  1.00  0.00     0.074 A 
ATOM     74  C   UNL A   1      42.024  31.005  29.502  1.00  0.00    -0.036 A 
ATOM     75  N   UNL A   1      43.502  29.627  28.574  1.00  0.00    -0.354 N 
ATOM     76  N   UNL A   1      46.145  28.842  27.590  1.00  0.00    -0.248 NA
ATOM     77  C   UNL A   1      48.362  29.363  27.077  1.00  0.00    -0.034 C 
ATOM     78  C   UNL A   1      43.232  31.695  29.342  1.00  0.00    -0.036 A 
ATOM     79  H   UNL A   1      41.163  31.386  29.923  1.00  0.00     0.065 H 
ATOM     80  C   UNL A   1      44.159  30.829  28.784  1.00  0.00     0.049 A 
ATOM     81  H   UNL A   1      43.910  28.820  28.184  1.00  0.00     0.167 HD
ATOM     82  C   UNL A   1      46.393  30.162  27.938  1.00  0.00     0.074 A 
ATOM     83  C   UNL A   1      47.783  30.422  27.627  1.00  0.00    -0.034 C 
ATOM     84  H   UNL A   1      49.325  29.259  26.721  1.00  0.00     0.065 H 
ATOM     85  H   UNL A   1      43.403  32.680  29.596  1.00  0.00     0.065 H 
ATOM     86  C   UNL A   1      45.543  31.077  28.466  1.00  0.00     0.037 A 
ATOM     87  H   UNL A   1      48.263  31.317  27.810  1.00  0.00     0.065 H 
BRANCH  68  88
ATOM     88  C   UNL A   1      39.791  28.973  29.298  1.00  0.00     0.064 A 
ATOM     89  C   UNL A   1      38.846  29.450  28.376  1.00  0.00     0.173 A 
ATOM     90  C   UNL A   1      39.368  28.762  30.619  1.00  0.00     0.173 A 
ATOM     91  F   UNL A   1      39.200  29.677  27.102  1.00  0.00    -0.203 F 
ATOM     92  C   UNL A   1      37.544  29.744  28.771  1.00  0.00     0.198 A 
ATOM     93  C   UNL A   1      38.055  29.026  31.003  1.00  0.00     0.198 A 
ATOM     94  F   UNL A   1      40.226  28.298  31.540  1.00  0.00    -0.203 F 
ATOM     95  F   UNL A   1      36.677  30.257  27.887  1.00  0.00    -0.200 F 
ATOM     96  C   UNL A   1      37.147  29.528  30.082  1.00  0.00     0.200 A 
ATOM     97  F   UNL A   1      37.670  28.803  32.267  1.00  0.00    -0.200 F 
ATOM     98  F   UNL A   1      35.894  29.811  30.461  1.00  0.00    -0.200 F 
ENDBRANCH  68  88
BRANCH  71  99
ATOM     99  C   UNL A   1      48.934  26.674  26.054  1.00  0.00     0.064 A 
ATOM    100  C   UNL A   1      49.271  26.982  24.730  1.00  0.00     0.173 A 
ATOM    101  C   UNL A   1      49.915  26.069  26.855  1.00  0.00     0.173 A 
ATOM    102  F   UNL A   1      48.360  27.542  23.920  1.00  0.00    -0.203 F 
ATOM    103  C   UNL A   1      50.535  26.688  24.222  1.00  0.00     0.198 A 
ATOM    104  C   UNL A   1      51.186  25.801  26.354  1.00  0.00     0.198 A 
ATOM    105  F   UNL A   1      49.643  25.760  28.131  1.00  0.00    -0.203 F 
ATOM    106  F   UNL A   1      50.821  26.961  22.941  1.00  0.00    -0.200 F 
ATOM    107  C   UNL A   1      51.494  26.105  25.037  1.00  0.00     0.200 A 
ATOM    108  F   UNL A   1      52.115  25.251  27.150  1.00  0.00    -0.200 F 
ATOM    109  F   UNL A   1      52.712  25.832  24.551  1.00  0.00    -0.200 F 
ENDBRANCH  71  99
BRANCH  86 110
ATOM    110  C   UNL A   1      46.096  32.441  28.763  1.00  0.00     0.064 A 
ATOM    111  C   UNL A   1      46.627  32.760  30.021  1.00  0.00     0.173 A 
ATOM    112  C   UNL A   1      46.133  33.427  27.765  1.00  0.00     0.173 A 
ATOM    113  F   UNL A   1      46.602  31.858  31.014  1.00  0.00    -0.203 F 
ATOM    114  C   UNL A   1      47.154  34.025  30.277  1.00  0.00     0.198 A 
ATOM    115  C   UNL A   1      46.687  34.680  28.015  1.00  0.00     0.198 A 
ATOM    116  F   UNL A   1      45.644  33.171  26.543  1.00  0.00    -0.203 F 
ATOM    117  F   UNL A   1      47.614  34.321  31.500  1.00  0.00    -0.200 F 
ATOM    118  C   UNL A   1      47.190  34.980  29.272  1.00  0.00     0.200 A 
ATOM    119  F   UNL A   1      46.732  35.597  27.040  1.00  0.00    -0.200 F 
ATOM    120  F   UNL A   1      47.704  36.192  29.517  1.00  0.00    -0.200 F 
ENDBRANCH  86 110
ENDBRANCH  51  54
ENDBRANCH  41  44
ENDBRANCH  37  40
ENDBRANCH  34  37
ENDBRANCH  31  34
ENDBRANCH   1  31
TORSDOF 16
ENDMDL
MODEL 9
REMARK VINA RESULT:     -10.6      0.850      7.700
REMARK SMILES CC(=O)Oc1ccccc1C(=O)NCCCCCCNC(=O)c1ccc(-c2c3nc(c(-c4c(F)c(F)c(F)c(F)c4F)c4ccc([nH]4)c(-c4c(F)c(F)c(F)c(F)c4F)c4nc(c(-c5c(F)c(F)c(F)c(F)c5F)c5ccc2[nH]5)C=C4)C=C3)cc1
REMARK SMILES IDX 16 1 15 4 14 7 13 10 11 11 12 12 10 14 5 15 6 16 7 17 9 19
REMARK SMILES IDX 8 20 4 24 2 25 3 26 1 27 17 31 18 34 19 37 20 40 21 41 22 43
REMARK SMILES IDX 23 44 24 45 85 46 25 47 84 49 26 51 27 54 28 55 78 56 29 57
REMARK SMILES IDX 83 58 77 59 79 60 30 61 82 62 76 64 75 66 31 68 63 71 43 72
REMARK SMILES IDX 62 73 44 74 47 75 61 76 80 77 45 78 46 80 60 82 81 83 48 86
REMARK SMILES IDX 32 88 33 89 41 90 34 91 35 92 39 93 42 94 36 95 37 96 40 97
REMARK SMILES IDX 38 98 64 99 65 100 73 101 66 102 67 103 71 104 74 105 68 106
REMARK SMILES IDX 69 107 72 108 70 109 49 110 50 111 58 112 51 113 52 114
REMARK SMILES IDX 56 115 59 116 53 117 54 118 57 119 55 120
REMARK H PARENT 16 2 16 3 15 5 15 6 14 8 14 9 13 13 6 18 7 21 9 22 8 23 1 28
REMARK H PARENT 1 29 1 30 17 32 17 33 18 35 18 36 19 38 19 39 20 42 24 48
REMARK H PARENT 85 50 25 52 84 53 83 63 77 65 79 67 82 69 76 70 44 79 47 81
REMARK H PARENT 80 84 45 85 81 87
REMARK Flexibility Score: inf
ROOT
ATOM      1  C   UNL A   1      31.883  29.559  27.102  1.00  0.00    -0.052 C 
ATOM      2  H   UNL A   1      31.498  29.745  28.084  1.00  0.00     0.027 H 
ATOM      3  H   UNL A   1      31.484  28.704  26.598  1.00  0.00     0.027 H 
ENDROOT
BRANCH   1   4
ATOM      4  C   UNL A   1      33.377  29.250  27.251  1.00  0.00    -0.036 C 
ATOM      5  H   UNL A   1      33.902  30.183  27.227  1.00  0.00     0.028 H 
ATOM      6  H   UNL A   1      33.453  28.705  28.169  1.00  0.00     0.028 H 
BRANCH   4   7
ATOM      7  C   UNL A   1      34.014  28.341  26.205  1.00  0.00     0.018 C 
ATOM      8  H   UNL A   1      35.016  28.131  26.518  1.00  0.00     0.049 H 
ATOM      9  H   UNL A   1      33.388  27.475  26.150  1.00  0.00     0.049 H 
BRANCH   7  10
ATOM     10  N   UNL A   1      34.070  28.872  24.867  1.00  0.00    -0.352 N 
ATOM     11  C   UNL A   1      33.393  28.523  23.721  1.00  0.00     0.255 C 
ATOM     12  O   UNL A   1      33.643  29.201  22.720  1.00  0.00    -0.269 OA
ATOM     13  H   UNL A   1      34.704  29.615  24.753  1.00  0.00     0.163 HD
BRANCH  11  14
ATOM     14  C   UNL A   1      32.449  27.367  23.574  1.00  0.00     0.082 A 
ATOM     15  C   UNL A   1      31.050  27.363  23.648  1.00  0.00     0.143 A 
ATOM     16  C   UNL A   1      30.311  26.176  23.501  1.00  0.00    -0.018 A 
ATOM     17  C   UNL A   1      30.953  24.974  23.221  1.00  0.00    -0.059 A 
ATOM     18  H   UNL A   1      29.284  26.197  23.603  1.00  0.00     0.066 H 
ATOM     19  C   UNL A   1      33.070  26.135  23.268  1.00  0.00    -0.046 A 
ATOM     20  C   UNL A   1      32.335  24.956  23.093  1.00  0.00    -0.061 A 
ATOM     21  H   UNL A   1      30.407  24.106  23.109  1.00  0.00     0.062 H 
ATOM     22  H   UNL A   1      34.096  26.104  23.170  1.00  0.00     0.063 H 
ATOM     23  H   UNL A   1      32.821  24.073  22.869  1.00  0.00     0.062 H 
BRANCH  15  24
ATOM     24  O   UNL A   1      30.283  28.491  23.948  1.00  0.00    -0.426 OA
BRANCH  24  25
ATOM     25  C   UNL A   1      29.867  29.240  22.855  1.00  0.00     0.308 C 
ATOM     26  O   UNL A   1      30.049  28.980  21.676  1.00  0.00    -0.252 OA
BRANCH  25  27
ATOM     27  C   UNL A   1      29.133  30.451  23.359  1.00  0.00     0.034 C 
ATOM     28  H   UNL A   1      29.571  30.776  24.280  1.00  0.00     0.035 H 
ATOM     29  H   UNL A   1      28.105  30.203  23.522  1.00  0.00     0.035 H 
ATOM     30  H   UNL A   1      29.200  31.236  22.635  1.00  0.00     0.035 H 
ENDBRANCH  25  27
ENDBRANCH  24  25
ENDBRANCH  15  24
ENDBRANCH  11  14
ENDBRANCH   7  10
ENDBRANCH   4   7
ENDBRANCH   1   4
BRANCH   1  31
ATOM     31  C   UNL A   1      31.472  30.745  26.223  1.00  0.00    -0.052 C 
ATOM     32  H   UNL A   1      30.501  30.530  25.828  1.00  0.00     0.027 H 
ATOM     33  H   UNL A   1      32.256  30.829  25.499  1.00  0.00     0.027 H 
BRANCH  31  34
ATOM     34  C   UNL A   1      31.403  32.127  26.877  1.00  0.00    -0.036 C 
ATOM     35  H   UNL A   1      31.098  31.987  27.892  1.00  0.00     0.028 H 
ATOM     36  H   UNL A   1      30.721  32.685  26.270  1.00  0.00     0.028 H 
BRANCH  34  37
ATOM     37  C   UNL A   1      32.684  32.955  26.893  1.00  0.00     0.018 C 
ATOM     38  H   UNL A   1      32.953  33.182  25.883  1.00  0.00     0.049 H 
ATOM     39  H   UNL A   1      33.428  32.372  27.392  1.00  0.00     0.049 H 
BRANCH  37  40
ATOM     40  N   UNL A   1      32.557  34.202  27.625  1.00  0.00    -0.352 N 
ATOM     41  C   UNL A   1      33.229  34.662  28.731  1.00  0.00     0.251 C 
ATOM     42  H   UNL A   1      31.879  34.820  27.269  1.00  0.00     0.163 HD
ATOM     43  O   UNL A   1      32.880  35.721  29.247  1.00  0.00    -0.269 OA
BRANCH  41  44
ATOM     44  C   UNL A   1      34.348  33.899  29.337  1.00  0.00     0.039 A 
ATOM     45  C   UNL A   1      35.658  34.302  29.048  1.00  0.00    -0.049 A 
ATOM     46  C   UNL A   1      34.140  32.769  30.131  1.00  0.00    -0.049 A 
ATOM     47  C   UNL A   1      36.746  33.613  29.594  1.00  0.00    -0.053 A 
ATOM     48  H   UNL A   1      35.822  35.112  28.429  1.00  0.00     0.063 H 
ATOM     49  C   UNL A   1      35.222  32.126  30.735  1.00  0.00    -0.053 A 
ATOM     50  H   UNL A   1      33.183  32.408  30.272  1.00  0.00     0.063 H 
ATOM     51  C   UNL A   1      36.538  32.534  30.468  1.00  0.00    -0.014 A 
ATOM     52  H   UNL A   1      37.708  33.899  29.354  1.00  0.00     0.063 H 
ATOM     53  H   UNL A   1      35.052  31.342  31.385  1.00  0.00     0.063 H 
BRANCH  51  54
ATOM     54  C   UNL A   1      37.683  31.820  31.094  1.00  0.00     0.031 A 
ATOM     55  C   UNL A   1      38.142  32.182  32.481  1.00  0.00     0.074 A 
ATOM     56  C   UNL A   1      38.353  30.884  30.394  1.00  0.00     0.049 A 
ATOM     57  N   UNL A   1      39.157  31.718  33.168  1.00  0.00    -0.248 NA
ATOM     58  C   UNL A   1      37.375  33.227  33.176  1.00  0.00    -0.034 C 
ATOM     59  C   UNL A   1      38.047  30.476  29.023  1.00  0.00    -0.036 A 
ATOM     60  N   UNL A   1      39.442  30.118  30.733  1.00  0.00    -0.354 N 
ATOM     61  C   UNL A   1      39.161  32.426  34.363  1.00  0.00     0.074 A 
ATOM     62  C   UNL A   1      38.080  33.386  34.286  1.00  0.00    -0.034 C 
ATOM     63  H   UNL A   1      36.514  33.709  32.877  1.00  0.00     0.065 H 
ATOM     64  C   UNL A   1      38.919  29.530  28.641  1.00  0.00    -0.036 A 
ATOM     65  H   UNL A   1      37.282  30.855  28.442  1.00  0.00     0.065 H 
ATOM     66  C   UNL A   1      39.866  29.287  29.726  1.00  0.00     0.049 A 
ATOM     67  H   UNL A   1      39.877  30.161  31.616  1.00  0.00     0.167 HD
ATOM     68  C   UNL A   1      39.977  32.276  35.435  1.00  0.00     0.037 A 
ATOM     69  H   UNL A   1      37.885  34.102  35.003  1.00  0.00     0.065 H 
ATOM     70  H   UNL A   1      38.921  29.052  27.726  1.00  0.00     0.065 H 
ATOM     71  C   UNL A   1      40.905  28.431  29.675  1.00  0.00     0.037 A 
ATOM     72  C   UNL A   1      41.032  31.300  35.522  1.00  0.00     0.049 A 
ATOM     73  C   UNL A   1      41.786  28.266  30.885  1.00  0.00     0.074 A 
ATOM     74  C   UNL A   1      41.860  31.017  36.595  1.00  0.00    -0.036 A 
ATOM     75  N   UNL A   1      41.410  30.450  34.492  1.00  0.00    -0.354 N 
ATOM     76  N   UNL A   1      41.731  28.886  32.038  1.00  0.00    -0.248 NA
ATOM     77  C   UNL A   1      42.867  27.275  30.787  1.00  0.00    -0.034 C 
ATOM     78  C   UNL A   1      42.770  30.030  36.198  1.00  0.00    -0.036 A 
ATOM     79  H   UNL A   1      41.814  31.458  37.526  1.00  0.00     0.065 H 
ATOM     80  C   UNL A   1      42.476  29.661  34.895  1.00  0.00     0.049 A 
ATOM     81  H   UNL A   1      40.983  30.413  33.606  1.00  0.00     0.167 HD
ATOM     82  C   UNL A   1      42.752  28.348  32.810  1.00  0.00     0.074 A 
ATOM     83  C   UNL A   1      43.402  27.339  31.999  1.00  0.00    -0.034 C 
ATOM     84  H   UNL A   1      43.139  26.684  29.985  1.00  0.00     0.065 H 
ATOM     85  H   UNL A   1      43.531  29.644  36.777  1.00  0.00     0.065 H 
ATOM     86  C   UNL A   1      43.118  28.664  34.077  1.00  0.00     0.037 A 
ATOM     87  H   UNL A   1      44.181  26.746  32.323  1.00  0.00     0.065 H 
BRANCH  68  88
ATOM     88  C   UNL A   1      39.759  33.196  36.603  1.00  0.00     0.064 A 
ATOM     89  C   UNL A   1      40.467  34.400  36.737  1.00  0.00     0.173 A 
ATOM     90  C   UNL A   1      38.816  32.877  37.593  1.00  0.00     0.173 A 
ATOM     91  F   UNL A   1      41.386  34.749  35.824  1.00  0.00    -0.203 F 
ATOM     92  C   UNL A   1      40.270  35.230  37.837  1.00  0.00     0.198 A 
ATOM     93  C   UNL A   1      38.598  33.727  38.675  1.00  0.00     0.198 A 
ATOM     94  F   UNL A   1      38.105  31.743  37.511  1.00  0.00    -0.203 F 
ATOM     95  F   UNL A   1      41.002  36.344  37.975  1.00  0.00    -0.200 F 
ATOM     96  C   UNL A   1      39.332  34.896  38.804  1.00  0.00     0.200 A 
ATOM     97  F   UNL A   1      37.682  33.408  39.600  1.00  0.00    -0.200 F 
ATOM     98  F   UNL A   1      39.143  35.695  39.862  1.00  0.00    -0.200 F 
ENDBRANCH  68  88
BRANCH  71  99
ATOM     99  C   UNL A   1      41.154  27.652  28.435  1.00  0.00     0.064 A 
ATOM    100  C   UNL A   1      42.042  28.115  27.456  1.00  0.00     0.173 A 
ATOM    101  C   UNL A   1      40.524  26.418  28.215  1.00  0.00     0.173 A 
ATOM    102  F   UNL A   1      42.653  29.300  27.613  1.00  0.00    -0.203 F 
ATOM    103  C   UNL A   1      42.284  27.379  26.298  1.00  0.00     0.198 A 
ATOM    104  C   UNL A   1      40.787  25.670  27.070  1.00  0.00     0.198 A 
ATOM    105  F   UNL A   1      39.670  25.928  29.125  1.00  0.00    -0.203 F 
ATOM    106  F   UNL A   1      43.112  27.862  25.360  1.00  0.00    -0.200 F 
ATOM    107  C   UNL A   1      41.663  26.154  26.110  1.00  0.00     0.200 A 
ATOM    108  F   UNL A   1      40.196  24.479  26.899  1.00  0.00    -0.200 F 
ATOM    109  F   UNL A   1      41.903  25.442  25.000  1.00  0.00    -0.200 F 
ENDBRANCH  71  99
BRANCH  86 110
ATOM    110  C   UNL A   1      44.262  27.896  34.675  1.00  0.00     0.064 A 
ATOM    111  C   UNL A   1      45.579  28.372  34.609  1.00  0.00     0.173 A 
ATOM    112  C   UNL A   1      44.031  26.693  35.358  1.00  0.00     0.173 A 
ATOM    113  F   UNL A   1      45.855  29.510  33.954  1.00  0.00    -0.203 F 
ATOM    114  C   UNL A   1      46.628  27.658  35.184  1.00  0.00     0.198 A 
ATOM    115  C   UNL A   1      45.078  25.997  35.957  1.00  0.00     0.198 A 
ATOM    116  F   UNL A   1      42.789  26.197  35.456  1.00  0.00    -0.203 F 
ATOM    117  F   UNL A   1      47.885  28.109  35.069  1.00  0.00    -0.200 F 
ATOM    118  C   UNL A   1      46.375  26.476  35.864  1.00  0.00     0.200 A 
ATOM    119  F   UNL A   1      44.830  24.861  36.624  1.00  0.00    -0.200 F 
ATOM    120  F   UNL A   1      47.384  25.795  36.423  1.00  0.00    -0.200 F 
ENDBRANCH  86 110
ENDBRANCH  51  54
ENDBRANCH  41  44
ENDBRANCH  37  40
ENDBRANCH  34  37
ENDBRANCH  31  34
ENDBRANCH   1  31
TORSDOF 16
ENDMDL
MODEL 10
REMARK VINA RESULT:     -10.5      4.128      9.281
REMARK SMILES CC(=O)Oc1ccccc1C(=O)NCCCCCCNC(=O)c1ccc(-c2c3nc(c(-c4c(F)c(F)c(F)c(F)c4F)c4ccc([nH]4)c(-c4c(F)c(F)c(F)c(F)c4F)c4nc(c(-c5c(F)c(F)c(F)c(F)c5F)c5ccc2[nH]5)C=C4)C=C3)cc1
REMARK SMILES IDX 16 1 15 4 14 7 13 10 11 11 12 12 10 14 5 15 6 16 7 17 9 19
REMARK SMILES IDX 8 20 4 24 2 25 3 26 1 27 17 31 18 34 19 37 20 40 21 41 22 43
REMARK SMILES IDX 23 44 24 45 85 46 25 47 84 49 26 51 27 54 28 55 78 56 29 57
REMARK SMILES IDX 83 58 77 59 79 60 30 61 82 62 76 64 75 66 31 68 63 71 43 72
REMARK SMILES IDX 62 73 44 74 47 75 61 76 80 77 45 78 46 80 60 82 81 83 48 86
REMARK SMILES IDX 32 88 33 89 41 90 34 91 35 92 39 93 42 94 36 95 37 96 40 97
REMARK SMILES IDX 38 98 64 99 65 100 73 101 66 102 67 103 71 104 74 105 68 106
REMARK SMILES IDX 69 107 72 108 70 109 49 110 50 111 58 112 51 113 52 114
REMARK SMILES IDX 56 115 59 116 53 117 54 118 57 119 55 120
REMARK H PARENT 16 2 16 3 15 5 15 6 14 8 14 9 13 13 6 18 7 21 9 22 8 23 1 28
REMARK H PARENT 1 29 1 30 17 32 17 33 18 35 18 36 19 38 19 39 20 42 24 48
REMARK H PARENT 85 50 25 52 84 53 83 63 77 65 79 67 82 69 76 70 44 79 47 81
REMARK H PARENT 80 84 45 85 81 87
REMARK Flexibility Score: inf
ROOT
ATOM      1  C   UNL A   1      33.609  26.873  23.206  1.00  0.00    -0.052 C 
ATOM      2  H   UNL A   1      33.735  27.839  22.761  1.00  0.00     0.027 H 
ATOM      3  H   UNL A   1      34.487  26.264  23.254  1.00  0.00     0.027 H 
ENDROOT
BRANCH   1   4
ATOM      4  C   UNL A   1      32.645  26.083  22.315  1.00  0.00    -0.036 C 
ATOM      5  H   UNL A   1      32.113  26.789  21.712  1.00  0.00     0.028 H 
ATOM      6  H   UNL A   1      33.269  25.399  21.777  1.00  0.00     0.028 H 
BRANCH   4   7
ATOM      7  C   UNL A   1      31.609  25.202  23.007  1.00  0.00     0.018 C 
ATOM      8  H   UNL A   1      31.683  25.373  24.060  1.00  0.00     0.049 H 
ATOM      9  H   UNL A   1      30.664  25.479  22.588  1.00  0.00     0.049 H 
BRANCH   7  10
ATOM     10  N   UNL A   1      31.742  23.786  22.777  1.00  0.00    -0.352 N 
ATOM     11  C   UNL A   1      32.698  22.884  23.183  1.00  0.00     0.255 C 
ATOM     12  O   UNL A   1      32.512  21.712  22.843  1.00  0.00    -0.269 OA
ATOM     13  H   UNL A   1      31.021  23.395  22.233  1.00  0.00     0.163 HD
BRANCH  11  14
ATOM     14  C   UNL A   1      33.958  23.213  23.927  1.00  0.00     0.082 A 
ATOM     15  C   UNL A   1      34.105  23.670  25.243  1.00  0.00     0.143 A 
ATOM     16  C   UNL A   1      35.372  23.949  25.786  1.00  0.00    -0.018 A 
ATOM     17  C   UNL A   1      36.524  23.720  25.043  1.00  0.00    -0.059 A 
ATOM     18  H   UNL A   1      35.445  24.325  26.745  1.00  0.00     0.066 H 
ATOM     19  C   UNL A   1      35.148  22.972  23.205  1.00  0.00    -0.046 A 
ATOM     20  C   UNL A   1      36.414  23.221  23.752  1.00  0.00    -0.061 A 
ATOM     21  H   UNL A   1      37.453  23.921  25.447  1.00  0.00     0.062 H 
ATOM     22  H   UNL A   1      35.084  22.602  22.244  1.00  0.00     0.063 H 
ATOM     23  H   UNL A   1      37.262  23.033  23.197  1.00  0.00     0.062 H 
BRANCH  15  24
ATOM     24  O   UNL A   1      33.033  23.964  26.089  1.00  0.00    -0.426 OA
BRANCH  24  25
ATOM     25  C   UNL A   1      32.387  22.866  26.641  1.00  0.00     0.308 C 
ATOM     26  O   UNL A   1      31.328  22.379  26.276  1.00  0.00    -0.252 OA
BRANCH  25  27
ATOM     27  C   UNL A   1      33.216  22.349  27.783  1.00  0.00     0.034 C 
ATOM     28  H   UNL A   1      34.024  23.025  27.972  1.00  0.00     0.035 H 
ATOM     29  H   UNL A   1      33.609  21.386  27.532  1.00  0.00     0.035 H 
ATOM     30  H   UNL A   1      32.606  22.268  28.658  1.00  0.00     0.035 H 
ENDBRANCH  25  27
ENDBRANCH  24  25
ENDBRANCH  15  24
ENDBRANCH  11  14
ENDBRANCH   7  10
ENDBRANCH   4   7
ENDBRANCH   1   4
BRANCH   1  31
ATOM     31  C   UNL A   1      33.223  27.097  24.672  1.00  0.00    -0.052 C 
ATOM     32  H   UNL A   1      33.210  26.140  25.150  1.00  0.00     0.027 H 
ATOM     33  H   UNL A   1      32.280  27.604  24.628  1.00  0.00     0.027 H 
BRANCH  31  34
ATOM     34  C   UNL A   1      34.113  28.015  25.512  1.00  0.00    -0.036 C 
ATOM     35  H   UNL A   1      34.117  28.977  25.042  1.00  0.00     0.028 H 
ATOM     36  H   UNL A   1      35.062  27.523  25.546  1.00  0.00     0.028 H 
BRANCH  34  37
ATOM     37  C   UNL A   1      33.723  28.220  26.972  1.00  0.00     0.018 C 
ATOM     38  H   UNL A   1      34.477  27.777  27.589  1.00  0.00     0.049 H 
ATOM     39  H   UNL A   1      32.765  27.764  27.108  1.00  0.00     0.049 H 
BRANCH  37  40
ATOM     40  N   UNL A   1      33.587  29.616  27.344  1.00  0.00    -0.352 N 
ATOM     41  C   UNL A   1      34.464  30.463  27.979  1.00  0.00     0.251 C 
ATOM     42  H   UNL A   1      32.725  30.024  27.101  1.00  0.00     0.163 HD
ATOM     43  O   UNL A   1      34.091  31.592  28.285  1.00  0.00    -0.269 OA
BRANCH  41  44
ATOM     44  C   UNL A   1      35.842  30.038  28.328  1.00  0.00     0.039 A 
ATOM     45  C   UNL A   1      36.830  30.115  27.339  1.00  0.00    -0.049 A 
ATOM     46  C   UNL A   1      36.168  29.516  29.582  1.00  0.00    -0.049 A 
ATOM     47  C   UNL A   1      38.144  29.725  27.621  1.00  0.00    -0.053 A 
ATOM     48  H   UNL A   1      36.589  30.462  26.398  1.00  0.00     0.063 H 
ATOM     49  C   UNL A   1      37.493  29.195  29.886  1.00  0.00    -0.053 A 
ATOM     50  H   UNL A   1      35.428  29.366  30.286  1.00  0.00     0.063 H 
ATOM     51  C   UNL A   1      38.495  29.288  28.907  1.00  0.00    -0.014 A 
ATOM     52  H   UNL A   1      38.860  29.759  26.879  1.00  0.00     0.063 H 
ATOM     53  H   UNL A   1      37.737  28.887  30.841  1.00  0.00     0.063 H 
BRANCH  51  54
ATOM     54  C   UNL A   1      39.897  28.913  29.237  1.00  0.00     0.031 A 
ATOM     55  C   UNL A   1      40.781  29.862  30.000  1.00  0.00     0.074 A 
ATOM     56  C   UNL A   1      40.399  27.742  28.798  1.00  0.00     0.049 A 
ATOM     57  N   UNL A   1      42.044  29.741  30.325  1.00  0.00    -0.248 NA
ATOM     58  C   UNL A   1      40.171  31.129  30.430  1.00  0.00    -0.034 C 
ATOM     59  C   UNL A   1      39.667  26.756  28.002  1.00  0.00    -0.036 A 
ATOM     60  N   UNL A   1      41.648  27.191  28.943  1.00  0.00    -0.354 N 
ATOM     61  C   UNL A   1      42.383  30.920  30.977  1.00  0.00     0.074 A 
ATOM     62  C   UNL A   1      41.208  31.764  30.956  1.00  0.00    -0.034 C 
ATOM     63  H   UNL A   1      39.191  31.442  30.343  1.00  0.00     0.065 H 
ATOM     64  C   UNL A   1      40.475  25.719  27.738  1.00  0.00    -0.036 A 
ATOM     65  H   UNL A   1      38.686  26.844  27.695  1.00  0.00     0.065 H 
ATOM     66  C   UNL A   1      41.792  25.978  28.315  1.00  0.00     0.049 A 
ATOM     67  H   UNL A   1      42.374  27.626  29.449  1.00  0.00     0.167 HD
ATOM     68  C   UNL A   1      43.559  31.260  31.559  1.00  0.00     0.037 A 
ATOM     69  H   UNL A   1      41.180  32.735  31.305  1.00  0.00     0.065 H 
ATOM     70  H   UNL A   1      40.210  24.873  27.210  1.00  0.00     0.065 H 
ATOM     71  C   UNL A   1      42.863  25.169  28.208  1.00  0.00     0.037 A 
ATOM     72  C   UNL A   1      44.718  30.407  31.607  1.00  0.00     0.049 A 
ATOM     73  C   UNL A   1      44.153  25.558  28.878  1.00  0.00     0.074 A 
ATOM     74  C   UNL A   1      45.928  30.629  32.241  1.00  0.00    -0.036 A 
ATOM     75  N   UNL A   1      44.814  29.168  30.988  1.00  0.00    -0.354 N 
ATOM     76  N   UNL A   1      44.438  26.641  29.560  1.00  0.00    -0.248 NA
ATOM     77  C   UNL A   1      45.268  24.605  28.773  1.00  0.00    -0.034 C 
ATOM     78  C   UNL A   1      46.773  29.548  31.965  1.00  0.00    -0.036 A 
ATOM     79  H   UNL A   1      46.167  31.451  32.817  1.00  0.00     0.065 H 
ATOM     80  C   UNL A   1      46.072  28.627  31.204  1.00  0.00     0.049 A 
ATOM     81  H   UNL A   1      44.094  28.738  30.473  1.00  0.00     0.167 HD
ATOM     82  C   UNL A   1      45.752  26.493  29.982  1.00  0.00     0.074 A 
ATOM     83  C   UNL A   1      46.205  25.207  29.493  1.00  0.00    -0.034 C 
ATOM     84  H   UNL A   1      45.311  23.704  28.271  1.00  0.00     0.065 H 
ATOM     85  H   UNL A   1      47.752  29.452  32.277  1.00  0.00     0.065 H 
ATOM     86  C   UNL A   1      46.513  27.348  30.708  1.00  0.00     0.037 A 
ATOM     87  H   UNL A   1      47.138  24.810  29.681  1.00  0.00     0.065 H 
BRANCH  68  88
ATOM     88  C   UNL A   1      43.649  32.621  32.191  1.00  0.00     0.064 A 
ATOM     89  C   UNL A   1      44.075  33.745  31.467  1.00  0.00     0.173 A 
ATOM     90  C   UNL A   1      43.288  32.806  33.535  1.00  0.00     0.173 A 
ATOM     91  F   UNL A   1      44.439  33.622  30.181  1.00  0.00    -0.203 F 
ATOM     92  C   UNL A   1      44.174  34.994  32.073  1.00  0.00     0.198 A 
ATOM     93  C   UNL A   1      43.358  34.064  34.129  1.00  0.00     0.198 A 
ATOM     94  F   UNL A   1      42.867  31.768  34.272  1.00  0.00    -0.203 F 
ATOM     95  F   UNL A   1      44.641  36.040  31.378  1.00  0.00    -0.200 F 
ATOM     96  C   UNL A   1      43.812  35.154  33.403  1.00  0.00     0.200 A 
ATOM     97  F   UNL A   1      42.995  34.219  35.409  1.00  0.00    -0.200 F 
ATOM     98  F   UNL A   1      43.908  36.356  33.986  1.00  0.00    -0.200 F 
ENDBRANCH  68  88
BRANCH  71  99
ATOM     99  C   UNL A   1      42.749  23.899  27.445  1.00  0.00     0.064 A 
ATOM    100  C   UNL A   1      43.095  23.837  26.089  1.00  0.00     0.173 A 
ATOM    101  C   UNL A   1      42.313  22.718  28.063  1.00  0.00     0.173 A 
ATOM    102  F   UNL A   1      43.498  24.946  25.449  1.00  0.00    -0.203 F 
ATOM    103  C   UNL A   1      42.999  22.644  25.375  1.00  0.00     0.198 A 
ATOM    104  C   UNL A   1      42.243  21.520  27.356  1.00  0.00     0.198 A 
ATOM    105  F   UNL A   1      41.976  22.724  29.361  1.00  0.00    -0.203 F 
ATOM    106  F   UNL A   1      43.302  22.619  24.070  1.00  0.00    -0.200 F 
ATOM    107  C   UNL A   1      42.581  21.485  26.012  1.00  0.00     0.200 A 
ATOM    108  F   UNL A   1      41.853  20.399  27.979  1.00  0.00    -0.200 F 
ATOM    109  F   UNL A   1      42.498  20.336  25.328  1.00  0.00    -0.200 F 
ENDBRANCH  71  99
BRANCH  86 110
ATOM    110  C   UNL A   1      47.912  26.914  31.038  1.00  0.00     0.064 A 
ATOM    111  C   UNL A   1      48.182  26.074  32.129  1.00  0.00     0.173 A 
ATOM    112  C   UNL A   1      48.989  27.308  30.231  1.00  0.00     0.173 A 
ATOM    113  F   UNL A   1      47.189  25.682  32.941  1.00  0.00    -0.203 F 
ATOM    114  C   UNL A   1      49.483  25.665  32.413  1.00  0.00     0.198 A 
ATOM    115  C   UNL A   1      50.285  26.873  30.500  1.00  0.00     0.198 A 
ATOM    116  F   UNL A   1      48.785  28.105  29.172  1.00  0.00    -0.203 F 
ATOM    117  F   UNL A   1      49.723  24.900  33.487  1.00  0.00    -0.200 F 
ATOM    118  C   UNL A   1      50.531  26.058  31.594  1.00  0.00     0.200 A 
ATOM    119  F   UNL A   1      51.294  27.244  29.700  1.00  0.00    -0.200 F 
ATOM    120  F   UNL A   1      51.781  25.657  31.864  1.00  0.00    -0.200 F 
ENDBRANCH  86 110
ENDBRANCH  51  54
ENDBRANCH  41  44
ENDBRANCH  37  40
ENDBRANCH  34  37
ENDBRANCH  31  34
ENDBRANCH   1  31
TORSDOF 16
ENDMDL
