MODEL 1
REMARK VINA RESULT:     -13.1      0.000      0.000
REMARK SMILES Cc1c(-c2nn(-c3ccccc3)cc2/C=N/O)nnn1-c1ccc(C(=O)NCCCCCCNC(=O)c2ccc(-c3c4nc(c(-c5c(F)c(F)c(F)c(F)c5F)c5ccc([nH]5)c(-c5c(F)c(F)c(F)c(F)c5F)c5nc(c(-c6c(F)c(F)c(F)c(F)c6F)c6ccc3[nH]6)C=C5)C=C4)cc2)cc1
REMARK SMILES IDX 29 1 28 4 27 7 25 8 26 9 24 11 21 12 22 13 101 14 23 15
REMARK SMILES IDX 100 17 20 21 2 22 3 23 18 24 19 25 1 26 4 30 5 31 14 32 6 33
REMARK SMILES IDX 13 34 15 36 16 37 17 39 7 41 8 42 12 43 9 44 11 46 10 48
REMARK SMILES IDX 30 52 31 55 32 58 33 61 34 64 35 65 36 67 37 68 38 69 99 70
REMARK SMILES IDX 39 71 98 73 40 75 41 78 42 79 92 80 43 81 97 82 91 83 93 84
REMARK SMILES IDX 44 85 96 86 90 88 89 90 45 92 77 95 57 96 76 97 58 98 61 99
REMARK SMILES IDX 75 100 94 101 59 102 60 104 74 106 95 107 62 110 46 112
REMARK SMILES IDX 47 113 55 114 48 115 49 116 53 117 56 118 50 119 51 120
REMARK SMILES IDX 54 121 52 122 78 123 79 124 87 125 80 126 81 127 85 128
REMARK SMILES IDX 88 129 82 130 83 131 86 132 84 133 63 134 64 135 72 136
REMARK SMILES IDX 65 137 66 138 70 139 73 140 67 141 68 142 71 143 69 144
REMARK H PARENT 29 2 29 3 28 5 28 6 27 10 22 16 101 18 23 19 100 20 1 27 1 28
REMARK H PARENT 1 29 13 35 15 38 17 40 8 45 12 47 9 49 11 50 10 51 30 53 30 54
REMARK H PARENT 31 56 31 57 32 59 32 60 33 62 33 63 34 66 38 72 99 74 39 76
REMARK H PARENT 98 77 97 87 91 89 93 91 96 93 90 94 58 103 61 105 94 108
REMARK H PARENT 59 109 95 111
REMARK Flexibility Score: inf
ROOT
ATOM      1  C   UNL A   1      31.559  29.798  27.094  1.00  0.00    -0.036 C 
ATOM      2  H   UNL A   1      30.628  29.333  26.844  1.00  0.00     0.028 H 
ATOM      3  H   UNL A   1      31.551  30.206  28.084  1.00  0.00     0.028 H 
ENDROOT
BRANCH   1   4
ATOM      4  C   UNL A   1      31.799  30.958  26.125  1.00  0.00     0.018 C 
ATOM      5  H   UNL A   1      31.790  31.881  26.668  1.00  0.00     0.049 H 
ATOM      6  H   UNL A   1      32.749  30.828  25.650  1.00  0.00     0.049 H 
BRANCH   4   7
ATOM      7  N   UNL A   1      30.761  30.984  25.118  1.00  0.00    -0.352 N 
ATOM      8  C   UNL A   1      30.439  30.171  24.064  1.00  0.00     0.251 C 
ATOM      9  O   UNL A   1      29.489  30.525  23.364  1.00  0.00    -0.269 OA
ATOM     10  H   UNL A   1      30.154  31.754  25.210  1.00  0.00     0.163 HD
BRANCH   8  11
ATOM     11  C   UNL A   1      31.110  28.873  23.766  1.00  0.00     0.039 A 
ATOM     12  C   UNL A   1      32.231  26.318  23.436  1.00  0.00     0.067 A 
ATOM     13  C   UNL A   1      30.880  26.441  23.763  1.00  0.00    -0.036 A 
ATOM     14  C   UNL A   1      33.004  27.456  23.196  1.00  0.00    -0.036 A 
ATOM     15  C   UNL A   1      30.340  27.712  23.964  1.00  0.00    -0.047 A 
ATOM     16  H   UNL A   1      30.287  25.601  23.856  1.00  0.00     0.065 H 
ATOM     17  C   UNL A   1      32.421  28.724  23.300  1.00  0.00    -0.047 A 
ATOM     18  H   UNL A   1      34.001  27.363  22.945  1.00  0.00     0.065 H 
ATOM     19  H   UNL A   1      29.357  27.803  24.263  1.00  0.00     0.063 H 
ATOM     20  H   UNL A   1      32.962  29.559  23.029  1.00  0.00     0.063 H 
BRANCH  12  21
ATOM     21  N   UNL A   1      32.794  25.034  23.296  1.00  0.00    -0.217 N 
ATOM     22  C   UNL A   1      32.982  24.059  24.255  1.00  0.00     0.071 A 
ATOM     23  C   UNL A   1      33.756  23.124  23.597  1.00  0.00     0.137 A 
ATOM     24  N   UNL A   1      33.917  23.476  22.289  1.00  0.00    -0.128 NA
ATOM     25  N   UNL A   1      33.254  24.610  22.095  1.00  0.00    -0.061 NA
BRANCH  22  26
ATOM     26  C   UNL A   1      32.354  24.050  25.597  1.00  0.00    -0.020 C 
ATOM     27  H   UNL A   1      31.323  23.778  25.507  1.00  0.00     0.030 H 
ATOM     28  H   UNL A   1      32.428  25.025  26.032  1.00  0.00     0.030 H 
ATOM     29  H   UNL A   1      32.857  23.342  26.221  1.00  0.00     0.030 H 
ENDBRANCH  22  26
BRANCH  23  30
ATOM     30  C   UNL A   1      34.264  21.855  24.098  1.00  0.00     0.124 A 
ATOM     31  N   UNL A   1      33.619  20.706  23.873  1.00  0.00    -0.165 NA
ATOM     32  C   UNL A   1      35.434  21.681  24.870  1.00  0.00     0.044 A 
ATOM     33  N   UNL A   1      34.312  19.787  24.577  1.00  0.00    -0.240 N 
ATOM     34  C   UNL A   1      35.413  20.336  25.194  1.00  0.00     0.040 A 
ATOM     35  H   UNL A   1      36.095  19.839  25.788  1.00  0.00     0.085 H 
BRANCH  32  36
ATOM     36  C   UNL A   1      36.459  22.611  25.274  1.00  0.00     0.077 C 
ATOM     37  N   UNL A   1      37.420  22.223  26.045  1.00  0.00    -0.097 NA
ATOM     38  H   UNL A   1      36.425  23.589  24.946  1.00  0.00     0.088 H 
BRANCH  37  39
ATOM     39  O   UNL A   1      38.262  23.308  26.316  1.00  0.00    -0.411 OA
ATOM     40  H   UNL A   1      37.921  24.072  26.735  1.00  0.00     0.330 HD
ENDBRANCH  37  39
ENDBRANCH  32  36
BRANCH  33  41
ATOM     41  C   UNL A   1      33.858  18.451  24.652  1.00  0.00     0.065 A 
ATOM     42  C   UNL A   1      32.904  18.108  25.621  1.00  0.00    -0.036 A 
ATOM     43  C   UNL A   1      34.377  17.473  23.796  1.00  0.00    -0.036 A 
ATOM     44  C   UNL A   1      32.456  16.792  25.717  1.00  0.00    -0.060 A 
ATOM     45  H   UNL A   1      32.535  18.829  26.260  1.00  0.00     0.065 H 
ATOM     46  C   UNL A   1      33.961  16.148  23.934  1.00  0.00    -0.060 A 
ATOM     47  H   UNL A   1      35.063  17.730  23.068  1.00  0.00     0.065 H 
ATOM     48  C   UNL A   1      32.995  15.811  24.886  1.00  0.00    -0.062 A 
ATOM     49  H   UNL A   1      31.726  16.544  26.403  1.00  0.00     0.062 H 
ATOM     50  H   UNL A   1      34.367  15.415  23.334  1.00  0.00     0.062 H 
ATOM     51  H   UNL A   1      32.679  14.832  24.972  1.00  0.00     0.062 H 
ENDBRANCH  33  41
ENDBRANCH  23  30
ENDBRANCH  12  21
ENDBRANCH   8  11
ENDBRANCH   4   7
ENDBRANCH   1   4
BRANCH   1  52
ATOM     52  C   UNL A   1      32.664  28.733  27.048  1.00  0.00    -0.052 C 
ATOM     53  H   UNL A   1      32.381  27.996  26.325  1.00  0.00     0.027 H 
ATOM     54  H   UNL A   1      32.747  28.351  28.043  1.00  0.00     0.027 H 
BRANCH  52  55
ATOM     55  C   UNL A   1      34.067  29.248  26.676  1.00  0.00    -0.052 C 
ATOM     56  H   UNL A   1      33.944  30.090  26.028  1.00  0.00     0.027 H 
ATOM     57  H   UNL A   1      34.567  28.415  26.226  1.00  0.00     0.027 H 
BRANCH  55  58
ATOM     58  C   UNL A   1      34.964  29.683  27.845  1.00  0.00    -0.036 C 
ATOM     59  H   UNL A   1      35.824  29.047  27.867  1.00  0.00     0.028 H 
ATOM     60  H   UNL A   1      34.382  29.602  28.739  1.00  0.00     0.028 H 
BRANCH  58  61
ATOM     61  C   UNL A   1      35.430  31.124  27.737  1.00  0.00     0.018 C 
ATOM     62  H   UNL A   1      34.931  31.585  26.910  1.00  0.00     0.049 H 
ATOM     63  H   UNL A   1      36.491  31.114  27.599  1.00  0.00     0.049 H 
BRANCH  61  64
ATOM     64  N   UNL A   1      35.143  31.897  28.952  1.00  0.00    -0.352 N 
ATOM     65  C   UNL A   1      35.599  31.679  30.237  1.00  0.00     0.251 C 
ATOM     66  H   UNL A   1      34.546  32.671  28.835  1.00  0.00     0.163 HD
ATOM     67  O   UNL A   1      35.030  32.164  31.213  1.00  0.00    -0.269 OA
BRANCH  65  68
ATOM     68  C   UNL A   1      36.805  30.861  30.413  1.00  0.00     0.039 A 
ATOM     69  C   UNL A   1      36.764  29.499  30.724  1.00  0.00    -0.049 A 
ATOM     70  C   UNL A   1      38.012  31.509  30.194  1.00  0.00    -0.049 A 
ATOM     71  C   UNL A   1      37.964  28.788  30.750  1.00  0.00    -0.053 A 
ATOM     72  H   UNL A   1      35.869  29.030  30.930  1.00  0.00     0.063 H 
ATOM     73  C   UNL A   1      39.129  30.768  29.960  1.00  0.00    -0.053 A 
ATOM     74  H   UNL A   1      38.062  32.539  30.211  1.00  0.00     0.063 H 
ATOM     75  C   UNL A   1      39.141  29.440  30.359  1.00  0.00    -0.014 A 
ATOM     76  H   UNL A   1      37.983  27.801  31.050  1.00  0.00     0.063 H 
ATOM     77  H   UNL A   1      39.949  31.186  29.494  1.00  0.00     0.063 H 
BRANCH  75  78
ATOM     78  C   UNL A   1      40.439  28.788  30.345  1.00  0.00     0.031 A 
ATOM     79  C   UNL A   1      41.081  28.599  31.673  1.00  0.00     0.074 A 
ATOM     80  C   UNL A   1      40.875  28.159  29.231  1.00  0.00     0.049 A 
ATOM     81  N   UNL A   1      42.219  29.056  32.076  1.00  0.00    -0.248 NA
ATOM     82  C   UNL A   1      40.321  27.892  32.716  1.00  0.00    -0.034 C 
ATOM     83  C   UNL A   1      40.186  27.971  27.942  1.00  0.00    -0.036 A 
ATOM     84  N   UNL A   1      42.007  27.433  29.059  1.00  0.00    -0.354 N 
ATOM     85  C   UNL A   1      42.401  28.569  33.369  1.00  0.00     0.074 A 
ATOM     86  C   UNL A   1      41.144  27.990  33.762  1.00  0.00    -0.034 C 
ATOM     87  H   UNL A   1      39.396  27.439  32.655  1.00  0.00     0.065 H 
ATOM     88  C   UNL A   1      40.799  26.999  27.233  1.00  0.00    -0.036 A 
ATOM     89  H   UNL A   1      39.359  28.503  27.629  1.00  0.00     0.065 H 
ATOM     90  C   UNL A   1      42.019  26.637  27.921  1.00  0.00     0.049 A 
ATOM     91  H   UNL A   1      42.762  27.468  29.691  1.00  0.00     0.167 HD
ATOM     92  C   UNL A   1      43.640  28.506  33.935  1.00  0.00     0.037 A 
ATOM     93  H   UNL A   1      40.910  27.691  34.722  1.00  0.00     0.065 H 
ATOM     94  H   UNL A   1      40.455  26.586  26.352  1.00  0.00     0.065 H 
ATOM     95  C   UNL A   1      42.963  25.722  27.598  1.00  0.00     0.037 A 
ATOM     96  C   UNL A   1      44.582  29.317  33.205  1.00  0.00     0.049 A 
ATOM     97  C   UNL A   1      44.173  26.049  28.397  1.00  0.00     0.074 A 
ATOM     98  C   UNL A   1      44.685  30.668  32.940  1.00  0.00    -0.036 A 
ATOM     99  N   UNL A   1      45.395  28.698  32.287  1.00  0.00    -0.354 N 
ATOM    100  N   UNL A   1      44.871  27.139  28.233  1.00  0.00    -0.248 NA
ATOM    101  C   UNL A   1      44.308  25.410  29.698  1.00  0.00    -0.034 C 
ATOM    102  C   UNL A   1      45.131  30.743  31.586  1.00  0.00    -0.036 A 
ATOM    103  H   UNL A   1      44.485  31.453  33.579  1.00  0.00     0.065 H 
ATOM    104  C   UNL A   1      45.343  29.440  31.133  1.00  0.00     0.049 A 
ATOM    105  H   UNL A   1      45.919  27.876  32.430  1.00  0.00     0.167 HD
ATOM    106  C   UNL A   1      45.199  27.550  29.517  1.00  0.00     0.074 A 
ATOM    107  C   UNL A   1      44.887  26.406  30.373  1.00  0.00    -0.034 C 
ATOM    108  H   UNL A   1      44.036  24.463  30.008  1.00  0.00     0.065 H 
ATOM    109  H   UNL A   1      45.270  31.606  31.039  1.00  0.00     0.065 H 
ATOM    110  C   UNL A   1      45.412  28.868  29.807  1.00  0.00     0.037 A 
ATOM    111  H   UNL A   1      45.091  26.373  31.384  1.00  0.00     0.065 H 
BRANCH  92 112
ATOM    112  C   UNL A   1      44.084  27.480  34.946  1.00  0.00     0.064 A 
ATOM    113  C   UNL A   1      44.010  26.110  34.616  1.00  0.00     0.173 A 
ATOM    114  C   UNL A   1      44.308  27.763  36.310  1.00  0.00     0.173 A 
ATOM    115  F   UNL A   1      43.792  25.721  33.351  1.00  0.00    -0.203 F 
ATOM    116  C   UNL A   1      44.073  25.109  35.590  1.00  0.00     0.198 A 
ATOM    117  C   UNL A   1      44.424  26.760  37.271  1.00  0.00     0.198 A 
ATOM    118  F   UNL A   1      44.311  29.013  36.786  1.00  0.00    -0.203 F 
ATOM    119  F   UNL A   1      43.873  23.830  35.245  1.00  0.00    -0.200 F 
ATOM    120  C   UNL A   1      44.273  25.436  36.919  1.00  0.00     0.200 A 
ATOM    121  F   UNL A   1      44.604  27.098  38.557  1.00  0.00    -0.200 F 
ATOM    122  F   UNL A   1      44.272  24.486  37.862  1.00  0.00    -0.200 F 
ENDBRANCH  92 112
BRANCH  95 123
ATOM    123  C   UNL A   1      42.763  24.418  26.925  1.00  0.00     0.064 A 
ATOM    124  C   UNL A   1      43.271  24.178  25.640  1.00  0.00     0.173 A 
ATOM    125  C   UNL A   1      42.305  23.293  27.641  1.00  0.00     0.173 A 
ATOM    126  F   UNL A   1      43.767  25.190  24.915  1.00  0.00    -0.203 F 
ATOM    127  C   UNL A   1      43.340  22.884  25.111  1.00  0.00     0.198 A 
ATOM    128  C   UNL A   1      42.371  22.004  27.110  1.00  0.00     0.198 A 
ATOM    129  F   UNL A   1      41.876  23.411  28.906  1.00  0.00    -0.203 F 
ATOM    130  F   UNL A   1      43.887  22.686  23.903  1.00  0.00    -0.200 F 
ATOM    131  C   UNL A   1      42.900  21.799  25.849  1.00  0.00     0.200 A 
ATOM    132  F   UNL A   1      41.980  20.958  27.853  1.00  0.00    -0.200 F 
ATOM    133  F   UNL A   1      43.026  20.554  25.368  1.00  0.00    -0.200 F 
ENDBRANCH  95 123
BRANCH 110 134
ATOM    134  C   UNL A   1      45.487  29.839  28.657  1.00  0.00     0.064 A 
ATOM    135  C   UNL A   1      44.380  30.543  28.148  1.00  0.00     0.173 A 
ATOM    136  C   UNL A   1      46.748  30.191  28.159  1.00  0.00     0.173 A 
ATOM    137  F   UNL A   1      43.154  30.346  28.640  1.00  0.00    -0.203 F 
ATOM    138  C   UNL A   1      44.525  31.517  27.161  1.00  0.00     0.198 A 
ATOM    139  C   UNL A   1      46.895  31.189  27.199  1.00  0.00     0.198 A 
ATOM    140  F   UNL A   1      47.850  29.600  28.646  1.00  0.00    -0.203 F 
ATOM    141  F   UNL A   1      43.447  32.164  26.693  1.00  0.00    -0.200 F 
ATOM    142  C   UNL A   1      45.784  31.845  26.693  1.00  0.00     0.200 A 
ATOM    143  F   UNL A   1      48.121  31.541  26.787  1.00  0.00    -0.200 F 
ATOM    144  F   UNL A   1      45.930  32.812  25.776  1.00  0.00    -0.200 F 
ENDBRANCH 110 134
ENDBRANCH  75  78
ENDBRANCH  65  68
ENDBRANCH  61  64
ENDBRANCH  58  61
ENDBRANCH  55  58
ENDBRANCH  52  55
ENDBRANCH   1  52
TORSDOF 19
ENDMDL
MODEL 2
REMARK VINA RESULT:     -12.5      5.474     12.999
REMARK SMILES Cc1c(-c2nn(-c3ccccc3)cc2/C=N/O)nnn1-c1ccc(C(=O)NCCCCCCNC(=O)c2ccc(-c3c4nc(c(-c5c(F)c(F)c(F)c(F)c5F)c5ccc([nH]5)c(-c5c(F)c(F)c(F)c(F)c5F)c5nc(c(-c6c(F)c(F)c(F)c(F)c6F)c6ccc3[nH]6)C=C5)C=C4)cc2)cc1
REMARK SMILES IDX 29 1 28 4 27 7 25 8 26 9 24 11 21 12 22 13 101 14 23 15
REMARK SMILES IDX 100 17 20 21 2 22 3 23 18 24 19 25 1 26 4 30 5 31 14 32 6 33
REMARK SMILES IDX 13 34 15 36 16 37 17 39 7 41 8 42 12 43 9 44 11 46 10 48
REMARK SMILES IDX 30 52 31 55 32 58 33 61 34 64 35 65 36 67 37 68 38 69 99 70
REMARK SMILES IDX 39 71 98 73 40 75 41 78 42 79 92 80 43 81 97 82 91 83 93 84
REMARK SMILES IDX 44 85 96 86 90 88 89 90 45 92 77 95 57 96 76 97 58 98 61 99
REMARK SMILES IDX 75 100 94 101 59 102 60 104 74 106 95 107 62 110 46 112
REMARK SMILES IDX 47 113 55 114 48 115 49 116 53 117 56 118 50 119 51 120
REMARK SMILES IDX 54 121 52 122 78 123 79 124 87 125 80 126 81 127 85 128
REMARK SMILES IDX 88 129 82 130 83 131 86 132 84 133 63 134 64 135 72 136
REMARK SMILES IDX 65 137 66 138 70 139 73 140 67 141 68 142 71 143 69 144
REMARK H PARENT 29 2 29 3 28 5 28 6 27 10 22 16 101 18 23 19 100 20 1 27 1 28
REMARK H PARENT 1 29 13 35 15 38 17 40 8 45 12 47 9 49 11 50 10 51 30 53 30 54
REMARK H PARENT 31 56 31 57 32 59 32 60 33 62 33 63 34 66 38 72 99 74 39 76
REMARK H PARENT 98 77 97 87 91 89 93 91 96 93 90 94 58 103 61 105 94 108
REMARK H PARENT 59 109 95 111
REMARK Flexibility Score: inf
ROOT
ATOM      1  C   UNL A   1      45.032  23.832  28.956  1.00  0.00    -0.036 C 
ATOM      2  H   UNL A   1      44.464  22.961  29.208  1.00  0.00     0.028 H 
ATOM      3  H   UNL A   1      46.084  23.675  29.079  1.00  0.00     0.028 H 
ENDROOT
BRANCH   1   4
ATOM      4  C   UNL A   1      44.627  24.967  29.898  1.00  0.00     0.018 C 
ATOM      5  H   UNL A   1      44.211  25.771  29.326  1.00  0.00     0.049 H 
ATOM      6  H   UNL A   1      43.900  24.605  30.594  1.00  0.00     0.049 H 
BRANCH   4   7
ATOM      7  N   UNL A   1      45.785  25.444  30.623  1.00  0.00    -0.352 N 
ATOM      8  C   UNL A   1      47.013  25.919  30.248  1.00  0.00     0.251 C 
ATOM      9  O   UNL A   1      47.796  26.203  31.155  1.00  0.00    -0.269 OA
ATOM     10  H   UNL A   1      45.663  25.423  31.601  1.00  0.00     0.163 HD
BRANCH   8  11
ATOM     11  C   UNL A   1      47.421  26.174  28.836  1.00  0.00     0.039 A 
ATOM     12  C   UNL A   1      47.923  26.773  26.137  1.00  0.00     0.067 A 
ATOM     13  C   UNL A   1      47.248  27.698  26.934  1.00  0.00    -0.036 A 
ATOM     14  C   UNL A   1      48.416  25.590  26.694  1.00  0.00    -0.036 A 
ATOM     15  C   UNL A   1      46.968  27.377  28.263  1.00  0.00    -0.047 A 
ATOM     16  H   UNL A   1      46.959  28.609  26.545  1.00  0.00     0.065 H 
ATOM     17  C   UNL A   1      48.217  25.330  28.055  1.00  0.00    -0.047 A 
ATOM     18  H   UNL A   1      48.923  24.911  26.105  1.00  0.00     0.065 H 
ATOM     19  H   UNL A   1      46.418  28.034  28.838  1.00  0.00     0.063 H 
ATOM     20  H   UNL A   1      48.664  24.507  28.488  1.00  0.00     0.063 H 
BRANCH  12  21
ATOM     21  N   UNL A   1      48.150  27.067  24.778  1.00  0.00    -0.217 N 
ATOM     22  C   UNL A   1      49.348  27.175  24.102  1.00  0.00     0.071 A 
ATOM     23  C   UNL A   1      48.966  27.682  22.876  1.00  0.00     0.137 A 
ATOM     24  N   UNL A   1      47.606  27.758  22.796  1.00  0.00    -0.128 NA
ATOM     25  N   UNL A   1      47.112  27.302  23.941  1.00  0.00    -0.061 NA
BRANCH  22  26
ATOM     26  C   UNL A   1      50.660  26.712  24.610  1.00  0.00    -0.020 C 
ATOM     27  H   UNL A   1      51.417  26.915  23.882  1.00  0.00     0.030 H 
ATOM     28  H   UNL A   1      50.619  25.659  24.796  1.00  0.00     0.030 H 
ATOM     29  H   UNL A   1      50.892  27.225  25.519  1.00  0.00     0.030 H 
ENDBRANCH  22  26
BRANCH  23  30
ATOM     30  C   UNL A   1      49.801  27.997  21.725  1.00  0.00     0.124 A 
ATOM     31  N   UNL A   1      50.503  29.132  21.662  1.00  0.00    -0.165 NA
ATOM     32  C   UNL A   1      49.952  27.197  20.570  1.00  0.00     0.044 A 
ATOM     33  N   UNL A   1      51.043  29.126  20.426  1.00  0.00    -0.240 N 
ATOM     34  C   UNL A   1      50.732  27.977  19.735  1.00  0.00     0.040 A 
ATOM     35  H   UNL A   1      51.024  27.740  18.774  1.00  0.00     0.085 H 
BRANCH  32  36
ATOM     36  C   UNL A   1      49.456  25.883  20.247  1.00  0.00     0.077 C 
ATOM     37  N   UNL A   1      49.944  25.234  19.243  1.00  0.00    -0.097 NA
ATOM     38  H   UNL A   1      48.709  25.459  20.821  1.00  0.00     0.088 H 
BRANCH  37  39
ATOM     39  O   UNL A   1      49.281  24.007  19.120  1.00  0.00    -0.411 OA
ATOM     40  H   UNL A   1      48.359  23.955  19.274  1.00  0.00     0.330 HD
ENDBRANCH  37  39
ENDBRANCH  32  36
BRANCH  33  41
ATOM     41  C   UNL A   1      51.788  30.235  19.963  1.00  0.00     0.065 A 
ATOM     42  C   UNL A   1      52.066  31.286  20.849  1.00  0.00    -0.036 A 
ATOM     43  C   UNL A   1      52.212  30.303  18.632  1.00  0.00    -0.036 A 
ATOM     44  C   UNL A   1      52.787  32.393  20.405  1.00  0.00    -0.060 A 
ATOM     45  H   UNL A   1      51.739  31.239  21.826  1.00  0.00     0.065 H 
ATOM     46  C   UNL A   1      52.887  31.440  18.183  1.00  0.00    -0.060 A 
ATOM     47  H   UNL A   1      52.025  29.519  17.986  1.00  0.00     0.065 H 
ATOM     48  C   UNL A   1      53.183  32.477  19.071  1.00  0.00    -0.062 A 
ATOM     49  H   UNL A   1      53.027  33.151  21.063  1.00  0.00     0.062 H 
ATOM     50  H   UNL A   1      53.168  31.514  17.194  1.00  0.00     0.062 H 
ATOM     51  H   UNL A   1      53.697  33.307  18.737  1.00  0.00     0.062 H 
ENDBRANCH  33  41
ENDBRANCH  23  30
ENDBRANCH  12  21
ENDBRANCH   8  11
ENDBRANCH   4   7
ENDBRANCH   1   4
BRANCH   1  52
ATOM     52  C   UNL A   1      44.790  24.160  27.475  1.00  0.00    -0.052 C 
ATOM     53  H   UNL A   1      45.381  25.017  27.226  1.00  0.00     0.027 H 
ATOM     54  H   UNL A   1      43.737  24.320  27.378  1.00  0.00     0.027 H 
BRANCH  52  55
ATOM     55  C   UNL A   1      45.140  23.037  26.480  1.00  0.00    -0.052 C 
ATOM     56  H   UNL A   1      45.926  22.454  26.911  1.00  0.00     0.027 H 
ATOM     57  H   UNL A   1      45.408  23.535  25.571  1.00  0.00     0.027 H 
BRANCH  55  58
ATOM     58  C   UNL A   1      43.997  22.081  26.104  1.00  0.00    -0.036 C 
ATOM     59  H   UNL A   1      43.557  21.707  27.004  1.00  0.00     0.028 H 
ATOM     60  H   UNL A   1      44.419  21.300  25.508  1.00  0.00     0.028 H 
BRANCH  58  61
ATOM     61  C   UNL A   1      42.911  22.745  25.276  1.00  0.00     0.018 C 
ATOM     62  H   UNL A   1      43.104  22.554  24.240  1.00  0.00     0.049 H 
ATOM     63  H   UNL A   1      42.931  23.793  25.491  1.00  0.00     0.049 H 
BRANCH  61  64
ATOM     64  N   UNL A   1      41.571  22.244  25.606  1.00  0.00    -0.352 N 
ATOM     65  C   UNL A   1      40.666  22.748  26.519  1.00  0.00     0.251 C 
ATOM     66  H   UNL A   1      41.281  21.443  25.113  1.00  0.00     0.163 HD
ATOM     67  O   UNL A   1      39.743  22.063  26.956  1.00  0.00    -0.269 OA
BRANCH  65  68
ATOM     68  C   UNL A   1      40.821  24.144  26.946  1.00  0.00     0.039 A 
ATOM     69  C   UNL A   1      40.349  25.227  26.199  1.00  0.00    -0.049 A 
ATOM     70  C   UNL A   1      41.423  24.335  28.181  1.00  0.00    -0.049 A 
ATOM     71  C   UNL A   1      40.441  26.504  26.752  1.00  0.00    -0.053 A 
ATOM     72  H   UNL A   1      39.943  25.086  25.261  1.00  0.00     0.063 H 
ATOM     73  C   UNL A   1      41.266  25.528  28.817  1.00  0.00    -0.053 A 
ATOM     74  H   UNL A   1      41.983  23.583  28.611  1.00  0.00     0.063 H 
ATOM     75  C   UNL A   1      40.899  26.636  28.069  1.00  0.00    -0.014 A 
ATOM     76  H   UNL A   1      40.174  27.335  26.201  1.00  0.00     0.063 H 
ATOM     77  H   UNL A   1      41.417  25.605  29.835  1.00  0.00     0.063 H 
BRANCH  75  78
ATOM     78  C   UNL A   1      41.026  27.919  28.738  1.00  0.00     0.031 A 
ATOM     79  C   UNL A   1      42.177  28.759  28.312  1.00  0.00     0.074 A 
ATOM     80  C   UNL A   1      40.006  28.407  29.478  1.00  0.00     0.049 A 
ATOM     81  N   UNL A   1      43.149  29.200  29.037  1.00  0.00    -0.248 NA
ATOM     82  C   UNL A   1      42.315  29.071  26.880  1.00  0.00    -0.034 C 
ATOM     83  C   UNL A   1      38.667  27.833  29.705  1.00  0.00    -0.036 A 
ATOM     84  N   UNL A   1      39.911  29.609  30.098  1.00  0.00    -0.354 N 
ATOM     85  C   UNL A   1      43.944  29.977  28.197  1.00  0.00     0.074 A 
ATOM     86  C   UNL A   1      43.470  29.738  26.860  1.00  0.00    -0.034 C 
ATOM     87  H   UNL A   1      41.684  28.835  26.098  1.00  0.00     0.065 H 
ATOM     88  C   UNL A   1      37.839  28.781  30.194  1.00  0.00    -0.036 A 
ATOM     89  H   UNL A   1      38.403  26.854  29.518  1.00  0.00     0.065 H 
ATOM     90  C   UNL A   1      38.626  29.959  30.493  1.00  0.00     0.049 A 
ATOM     91  H   UNL A   1      40.692  30.188  30.257  1.00  0.00     0.167 HD
ATOM     92  C   UNL A   1      44.803  30.910  28.697  1.00  0.00     0.037 A 
ATOM     93  H   UNL A   1      43.957  30.042  26.001  1.00  0.00     0.065 H 
ATOM     94  H   UNL A   1      36.821  28.683  30.329  1.00  0.00     0.065 H 
ATOM     95  C   UNL A   1      38.245  31.155  31.001  1.00  0.00     0.037 A 
ATOM     96  C   UNL A   1      45.027  30.703  30.106  1.00  0.00     0.049 A 
ATOM     97  C   UNL A   1      39.478  31.828  31.488  1.00  0.00     0.074 A 
ATOM     98  C   UNL A   1      45.579  29.680  30.852  1.00  0.00    -0.036 A 
ATOM     99  N   UNL A   1      44.301  31.458  30.995  1.00  0.00    -0.354 N 
ATOM    100  N   UNL A   1      40.190  31.391  32.490  1.00  0.00    -0.248 NA
ATOM    101  C   UNL A   1      40.182  32.694  30.552  1.00  0.00    -0.034 C 
ATOM    102  C   UNL A   1      44.752  29.585  32.011  1.00  0.00    -0.036 A 
ATOM    103  H   UNL A   1      46.408  29.110  30.623  1.00  0.00     0.065 H 
ATOM    104  C   UNL A   1      43.795  30.598  31.939  1.00  0.00     0.049 A 
ATOM    105  H   UNL A   1      44.169  32.433  30.962  1.00  0.00     0.167 HD
ATOM    106  C   UNL A   1      41.509  31.573  32.099  1.00  0.00     0.074 A 
ATOM    107  C   UNL A   1      41.439  32.447  30.927  1.00  0.00    -0.034 C 
ATOM    108  H   UNL A   1      39.815  33.317  29.816  1.00  0.00     0.065 H 
ATOM    109  H   UNL A   1      44.844  28.890  32.768  1.00  0.00     0.065 H 
ATOM    110  C   UNL A   1      42.507  30.770  32.573  1.00  0.00     0.037 A 
ATOM    111  H   UNL A   1      42.268  32.828  30.445  1.00  0.00     0.065 H 
BRANCH  92 112
ATOM    112  C   UNL A   1      45.195  32.192  28.006  1.00  0.00     0.064 A 
ATOM    113  C   UNL A   1      44.203  33.155  27.724  1.00  0.00     0.173 A 
ATOM    114  C   UNL A   1      46.434  32.391  27.360  1.00  0.00     0.173 A 
ATOM    115  F   UNL A   1      42.983  33.063  28.275  1.00  0.00    -0.203 F 
ATOM    116  C   UNL A   1      44.413  34.186  26.804  1.00  0.00     0.198 A 
ATOM    117  C   UNL A   1      46.656  33.453  26.485  1.00  0.00     0.198 A 
ATOM    118  F   UNL A   1      47.438  31.512  27.458  1.00  0.00    -0.203 F 
ATOM    119  F   UNL A   1      43.401  35.002  26.477  1.00  0.00    -0.200 F 
ATOM    120  C   UNL A   1      45.638  34.330  26.180  1.00  0.00     0.200 A 
ATOM    121  F   UNL A   1      47.847  33.567  25.879  1.00  0.00    -0.200 F 
ATOM    122  F   UNL A   1      45.823  35.279  25.254  1.00  0.00    -0.200 F 
ENDBRANCH  92 112
BRANCH  95 123
ATOM    123  C   UNL A   1      36.968  31.867  30.774  1.00  0.00     0.064 A 
ATOM    124  C   UNL A   1      36.030  32.025  31.805  1.00  0.00     0.173 A 
ATOM    125  C   UNL A   1      36.764  32.641  29.613  1.00  0.00     0.173 A 
ATOM    126  F   UNL A   1      36.181  31.359  32.957  1.00  0.00    -0.203 F 
ATOM    127  C   UNL A   1      34.964  32.925  31.691  1.00  0.00     0.198 A 
ATOM    128  C   UNL A   1      35.698  33.534  29.500  1.00  0.00     0.198 A 
ATOM    129  F   UNL A   1      37.650  32.617  28.606  1.00  0.00    -0.203 F 
ATOM    130  F   UNL A   1      34.122  33.095  32.720  1.00  0.00    -0.200 F 
ATOM    131  C   UNL A   1      34.805  33.685  30.545  1.00  0.00     0.200 A 
ATOM    132  F   UNL A   1      35.580  34.294  28.401  1.00  0.00    -0.200 F 
ATOM    133  F   UNL A   1      33.822  34.593  30.463  1.00  0.00    -0.200 F 
ENDBRANCH  95 123
BRANCH 110 134
ATOM    134  C   UNL A   1      42.173  29.816  33.690  1.00  0.00     0.064 A 
ATOM    135  C   UNL A   1      41.735  28.494  33.491  1.00  0.00     0.173 A 
ATOM    136  C   UNL A   1      42.459  30.200  35.006  1.00  0.00     0.173 A 
ATOM    137  F   UNL A   1      41.539  28.012  32.261  1.00  0.00    -0.203 F 
ATOM    138  C   UNL A   1      41.553  27.616  34.559  1.00  0.00     0.198 A 
ATOM    139  C   UNL A   1      42.312  29.311  36.068  1.00  0.00     0.198 A 
ATOM    140  F   UNL A   1      42.938  31.428  35.257  1.00  0.00    -0.203 F 
ATOM    141  F   UNL A   1      41.128  26.364  34.335  1.00  0.00    -0.200 F 
ATOM    142  C   UNL A   1      41.850  28.023  35.846  1.00  0.00     0.200 A 
ATOM    143  F   UNL A   1      42.651  29.693  37.307  1.00  0.00    -0.200 F 
ATOM    144  F   UNL A   1      41.718  27.168  36.870  1.00  0.00    -0.200 F 
ENDBRANCH 110 134
ENDBRANCH  75  78
ENDBRANCH  65  68
ENDBRANCH  61  64
ENDBRANCH  58  61
ENDBRANCH  55  58
ENDBRANCH  52  55
ENDBRANCH   1  52
TORSDOF 19
ENDMDL
MODEL 3
REMARK VINA RESULT:     -12.4      4.886      9.900
REMARK SMILES Cc1c(-c2nn(-c3ccccc3)cc2/C=N/O)nnn1-c1ccc(C(=O)NCCCCCCNC(=O)c2ccc(-c3c4nc(c(-c5c(F)c(F)c(F)c(F)c5F)c5ccc([nH]5)c(-c5c(F)c(F)c(F)c(F)c5F)c5nc(c(-c6c(F)c(F)c(F)c(F)c6F)c6ccc3[nH]6)C=C5)C=C4)cc2)cc1
REMARK SMILES IDX 29 1 28 4 27 7 25 8 26 9 24 11 21 12 22 13 101 14 23 15
REMARK SMILES IDX 100 17 20 21 2 22 3 23 18 24 19 25 1 26 4 30 5 31 14 32 6 33
REMARK SMILES IDX 13 34 15 36 16 37 17 39 7 41 8 42 12 43 9 44 11 46 10 48
REMARK SMILES IDX 30 52 31 55 32 58 33 61 34 64 35 65 36 67 37 68 38 69 99 70
REMARK SMILES IDX 39 71 98 73 40 75 41 78 42 79 92 80 43 81 97 82 91 83 93 84
REMARK SMILES IDX 44 85 96 86 90 88 89 90 45 92 77 95 57 96 76 97 58 98 61 99
REMARK SMILES IDX 75 100 94 101 59 102 60 104 74 106 95 107 62 110 46 112
REMARK SMILES IDX 47 113 55 114 48 115 49 116 53 117 56 118 50 119 51 120
REMARK SMILES IDX 54 121 52 122 78 123 79 124 87 125 80 126 81 127 85 128
REMARK SMILES IDX 88 129 82 130 83 131 86 132 84 133 63 134 64 135 72 136
REMARK SMILES IDX 65 137 66 138 70 139 73 140 67 141 68 142 71 143 69 144
REMARK H PARENT 29 2 29 3 28 5 28 6 27 10 22 16 101 18 23 19 100 20 1 27 1 28
REMARK H PARENT 1 29 13 35 15 38 17 40 8 45 12 47 9 49 11 50 10 51 30 53 30 54
REMARK H PARENT 31 56 31 57 32 59 32 60 33 62 33 63 34 66 38 72 99 74 39 76
REMARK H PARENT 98 77 97 87 91 89 93 91 96 93 90 94 58 103 61 105 94 108
REMARK H PARENT 59 109 95 111
REMARK Flexibility Score: inf
ROOT
ATOM      1  C   UNL A   1      36.364  33.599  35.472  1.00  0.00    -0.036 C 
ATOM      2  H   UNL A   1      35.548  34.131  35.915  1.00  0.00     0.028 H 
ATOM      3  H   UNL A   1      36.086  32.609  35.177  1.00  0.00     0.028 H 
ENDROOT
BRANCH   1   4
ATOM      4  C   UNL A   1      37.481  33.468  36.510  1.00  0.00     0.018 C 
ATOM      5  H   UNL A   1      38.322  34.056  36.202  1.00  0.00     0.049 H 
ATOM      6  H   UNL A   1      37.125  33.816  37.456  1.00  0.00     0.049 H 
BRANCH   4   7
ATOM      7  N   UNL A   1      37.883  32.083  36.631  1.00  0.00    -0.352 N 
ATOM      8  C   UNL A   1      38.635  31.240  35.857  1.00  0.00     0.251 C 
ATOM      9  O   UNL A   1      38.742  30.078  36.251  1.00  0.00    -0.269 OA
ATOM     10  H   UNL A   1      37.542  31.653  37.449  1.00  0.00     0.163 HD
BRANCH   8  11
ATOM     11  C   UNL A   1      39.374  31.658  34.631  1.00  0.00     0.039 A 
ATOM     12  C   UNL A   1      40.903  32.643  32.490  1.00  0.00     0.067 A 
ATOM     13  C   UNL A   1      41.499  32.469  33.739  1.00  0.00    -0.036 A 
ATOM     14  C   UNL A   1      39.576  32.257  32.281  1.00  0.00    -0.036 A 
ATOM     15  C   UNL A   1      40.723  32.017  34.807  1.00  0.00    -0.047 A 
ATOM     16  H   UNL A   1      42.502  32.674  33.872  1.00  0.00     0.065 H 
ATOM     17  C   UNL A   1      38.842  31.706  33.338  1.00  0.00    -0.047 A 
ATOM     18  H   UNL A   1      39.140  32.377  31.354  1.00  0.00     0.065 H 
ATOM     19  H   UNL A   1      41.147  31.944  35.745  1.00  0.00     0.063 H 
ATOM     20  H   UNL A   1      37.897  31.331  33.162  1.00  0.00     0.063 H 
BRANCH  12  21
ATOM     21  N   UNL A   1      41.667  33.161  31.425  1.00  0.00    -0.217 N 
ATOM     22  C   UNL A   1      42.222  34.417  31.286  1.00  0.00     0.071 A 
ATOM     23  C   UNL A   1      42.660  34.417  29.976  1.00  0.00     0.137 A 
ATOM     24  N   UNL A   1      42.475  33.189  29.414  1.00  0.00    -0.128 NA
ATOM     25  N   UNL A   1      41.938  32.402  30.337  1.00  0.00    -0.061 NA
BRANCH  22  26
ATOM     26  C   UNL A   1      42.378  35.407  32.377  1.00  0.00    -0.020 C 
ATOM     27  H   UNL A   1      41.517  36.042  32.408  1.00  0.00     0.030 H 
ATOM     28  H   UNL A   1      43.251  36.000  32.199  1.00  0.00     0.030 H 
ATOM     29  H   UNL A   1      42.478  34.896  33.311  1.00  0.00     0.030 H 
ENDBRANCH  22  26
BRANCH  23  30
ATOM     30  C   UNL A   1      43.348  35.476  29.251  1.00  0.00     0.124 A 
ATOM     31  N   UNL A   1      42.699  36.562  28.820  1.00  0.00    -0.165 NA
ATOM     32  C   UNL A   1      44.717  35.484  28.903  1.00  0.00     0.044 A 
ATOM     33  N   UNL A   1      43.619  37.243  28.105  1.00  0.00    -0.240 N 
ATOM     34  C   UNL A   1      44.848  36.623  28.129  1.00  0.00     0.040 A 
ATOM     35  H   UNL A   1      45.708  36.947  27.658  1.00  0.00     0.085 H 
BRANCH  32  36
ATOM     36  C   UNL A   1      45.789  34.577  29.225  1.00  0.00     0.077 C 
ATOM     37  N   UNL A   1      46.971  34.770  28.740  1.00  0.00    -0.097 NA
ATOM     38  H   UNL A   1      45.613  33.771  29.846  1.00  0.00     0.088 H 
BRANCH  37  39
ATOM     39  O   UNL A   1      47.821  33.745  29.171  1.00  0.00    -0.411 OA
ATOM     40  H   UNL A   1      48.294  33.234  28.546  1.00  0.00     0.330 HD
ENDBRANCH  37  39
ENDBRANCH  32  36
BRANCH  33  41
ATOM     41  C   UNL A   1      43.259  38.418  27.408  1.00  0.00     0.065 A 
ATOM     42  C   UNL A   1      41.901  38.698  27.198  1.00  0.00    -0.036 A 
ATOM     43  C   UNL A   1      44.243  39.275  26.902  1.00  0.00    -0.036 A 
ATOM     44  C   UNL A   1      41.530  39.846  26.501  1.00  0.00    -0.060 A 
ATOM     45  H   UNL A   1      41.179  38.055  27.560  1.00  0.00     0.065 H 
ATOM     46  C   UNL A   1      43.861  40.395  26.160  1.00  0.00    -0.060 A 
ATOM     47  H   UNL A   1      45.241  39.081  27.075  1.00  0.00     0.065 H 
ATOM     48  C   UNL A   1      42.508  40.684  25.969  1.00  0.00    -0.062 A 
ATOM     49  H   UNL A   1      40.531  40.074  26.378  1.00  0.00     0.062 H 
ATOM     50  H   UNL A   1      44.581  41.010  25.750  1.00  0.00     0.062 H 
ATOM     51  H   UNL A   1      42.233  41.522  25.433  1.00  0.00     0.062 H 
ENDBRANCH  33  41
ENDBRANCH  23  30
ENDBRANCH  12  21
ENDBRANCH   8  11
ENDBRANCH   4   7
ENDBRANCH   1   4
BRANCH   1  52
ATOM     52  C   UNL A   1      36.802  34.347  34.204  1.00  0.00    -0.052 C 
ATOM     53  H   UNL A   1      37.627  33.815  33.776  1.00  0.00     0.027 H 
ATOM     54  H   UNL A   1      37.046  35.340  34.518  1.00  0.00     0.027 H 
BRANCH  52  55
ATOM     55  C   UNL A   1      35.722  34.501  33.118  1.00  0.00    -0.052 C 
ATOM     56  H   UNL A   1      35.641  35.541  32.883  1.00  0.00     0.027 H 
ATOM     57  H   UNL A   1      34.834  34.073  33.536  1.00  0.00     0.027 H 
BRANCH  55  58
ATOM     58  C   UNL A   1      35.965  33.741  31.804  1.00  0.00    -0.036 C 
ATOM     59  H   UNL A   1      37.019  33.690  31.632  1.00  0.00     0.028 H 
ATOM     60  H   UNL A   1      35.456  34.275  31.029  1.00  0.00     0.028 H 
BRANCH  58  61
ATOM     61  C   UNL A   1      35.409  32.328  31.820  1.00  0.00     0.018 C 
ATOM     62  H   UNL A   1      34.755  32.226  32.661  1.00  0.00     0.049 H 
ATOM     63  H   UNL A   1      36.236  31.653  31.883  1.00  0.00     0.049 H 
BRANCH  61  64
ATOM     64  N   UNL A   1      34.660  32.008  30.598  1.00  0.00    -0.352 N 
ATOM     65  C   UNL A   1      35.148  31.598  29.374  1.00  0.00     0.251 C 
ATOM     66  H   UNL A   1      33.681  32.100  30.661  1.00  0.00     0.163 HD
ATOM     67  O   UNL A   1      34.478  31.696  28.348  1.00  0.00    -0.269 OA
BRANCH  65  68
ATOM     68  C   UNL A   1      36.495  31.016  29.327  1.00  0.00     0.039 A 
ATOM     69  C   UNL A   1      37.644  31.772  29.077  1.00  0.00    -0.049 A 
ATOM     70  C   UNL A   1      36.578  29.660  29.604  1.00  0.00    -0.049 A 
ATOM     71  C   UNL A   1      38.885  31.144  29.173  1.00  0.00    -0.053 A 
ATOM     72  H   UNL A   1      37.576  32.771  28.827  1.00  0.00     0.063 H 
ATOM     73  C   UNL A   1      37.780  29.127  29.955  1.00  0.00    -0.053 A 
ATOM     74  H   UNL A   1      35.739  29.062  29.543  1.00  0.00     0.063 H 
ATOM     75  C   UNL A   1      38.935  29.817  29.620  1.00  0.00    -0.014 A 
ATOM     76  H   UNL A   1      39.750  31.648  28.922  1.00  0.00     0.063 H 
ATOM     77  H   UNL A   1      37.829  28.229  30.460  1.00  0.00     0.063 H 
BRANCH  75  78
ATOM     78  C   UNL A   1      40.176  29.076  29.761  1.00  0.00     0.031 A 
ATOM     79  C   UNL A   1      40.656  28.876  31.154  1.00  0.00     0.074 A 
ATOM     80  C   UNL A   1      40.682  28.388  28.713  1.00  0.00     0.049 A 
ATOM     81  N   UNL A   1      41.774  29.262  31.671  1.00  0.00    -0.248 NA
ATOM     82  C   UNL A   1      39.738  28.252  32.121  1.00  0.00    -0.034 C 
ATOM     83  C   UNL A   1      40.124  28.216  27.359  1.00  0.00    -0.036 A 
ATOM     84  N   UNL A   1      41.770  27.580  28.679  1.00  0.00    -0.354 N 
ATOM     85  C   UNL A   1      41.780  28.796  32.985  1.00  0.00     0.074 A 
ATOM     86  C   UNL A   1      40.448  28.319  33.248  1.00  0.00    -0.034 C 
ATOM     87  H   UNL A   1      38.794  27.864  31.967  1.00  0.00     0.065 H 
ATOM     88  C   UNL A   1      40.737  27.185  26.739  1.00  0.00    -0.036 A 
ATOM     89  H   UNL A   1      39.377  28.797  26.949  1.00  0.00     0.065 H 
ATOM     90  C   UNL A   1      41.847  26.755  27.564  1.00  0.00     0.049 A 
ATOM     91  H   UNL A   1      42.453  27.578  29.388  1.00  0.00     0.167 HD
ATOM     92  C   UNL A   1      42.942  28.661  33.683  1.00  0.00     0.037 A 
ATOM     93  H   UNL A   1      40.091  28.062  34.183  1.00  0.00     0.065 H 
ATOM     94  H   UNL A   1      40.461  26.774  25.834  1.00  0.00     0.065 H 
ATOM     95  C   UNL A   1      42.750  25.768  27.362  1.00  0.00     0.037 A 
ATOM     96  C   UNL A   1      44.014  29.385  33.047  1.00  0.00     0.049 A 
ATOM     97  C   UNL A   1      43.888  26.029  28.283  1.00  0.00     0.074 A 
ATOM     98  C   UNL A   1      44.244  30.718  32.769  1.00  0.00    -0.036 A 
ATOM     99  N   UNL A   1      44.874  28.686  32.234  1.00  0.00    -0.354 N 
ATOM    100  N   UNL A   1      44.678  27.063  28.176  1.00  0.00    -0.248 NA
ATOM    101  C   UNL A   1      43.835  25.417  29.602  1.00  0.00    -0.034 C 
ATOM    102  C   UNL A   1      44.837  30.725  31.471  1.00  0.00    -0.036 A 
ATOM    103  H   UNL A   1      44.034  31.531  33.369  1.00  0.00     0.065 H 
ATOM    104  C   UNL A   1      45.001  29.400  31.068  1.00  0.00     0.049 A 
ATOM    105  H   UNL A   1      45.318  27.833  32.448  1.00  0.00     0.167 HD
ATOM    106  C   UNL A   1      44.895  27.483  29.481  1.00  0.00     0.074 A 
ATOM    107  C   UNL A   1      44.409  26.387  30.318  1.00  0.00    -0.034 C 
ATOM    108  H   UNL A   1      43.463  24.500  29.897  1.00  0.00     0.065 H 
ATOM    109  H   UNL A   1      45.097  31.562  30.927  1.00  0.00     0.065 H 
ATOM    110  C   UNL A   1      45.171  28.790  29.768  1.00  0.00     0.037 A 
ATOM    111  H   UNL A   1      44.500  26.365  31.346  1.00  0.00     0.065 H 
BRANCH  92 112
ATOM    112  C   UNL A   1      43.199  27.633  34.755  1.00  0.00     0.064 A 
ATOM    113  C   UNL A   1      43.524  28.062  36.059  1.00  0.00     0.173 A 
ATOM    114  C   UNL A   1      43.419  26.263  34.496  1.00  0.00     0.173 A 
ATOM    115  F   UNL A   1      43.365  29.345  36.417  1.00  0.00    -0.203 F 
ATOM    116  C   UNL A   1      44.101  27.203  37.000  1.00  0.00     0.198 A 
ATOM    117  C   UNL A   1      43.943  25.397  35.455  1.00  0.00     0.198 A 
ATOM    118  F   UNL A   1      43.244  25.731  33.281  1.00  0.00    -0.203 F 
ATOM    119  F   UNL A   1      44.506  27.686  38.182  1.00  0.00    -0.200 F 
ATOM    120  C   UNL A   1      44.316  25.872  36.693  1.00  0.00     0.200 A 
ATOM    121  F   UNL A   1      44.158  24.112  35.134  1.00  0.00    -0.200 F 
ATOM    122  F   UNL A   1      44.923  25.061  37.569  1.00  0.00    -0.200 F 
ENDBRANCH  92 112
BRANCH  95 123
ATOM    123  C   UNL A   1      42.530  24.465  26.696  1.00  0.00     0.064 A 
ATOM    124  C   UNL A   1      43.319  24.062  25.608  1.00  0.00     0.173 A 
ATOM    125  C   UNL A   1      41.718  23.474  27.286  1.00  0.00     0.173 A 
ATOM    126  F   UNL A   1      44.150  24.934  25.022  1.00  0.00    -0.203 F 
ATOM    127  C   UNL A   1      43.316  22.738  25.153  1.00  0.00     0.198 A 
ATOM    128  C   UNL A   1      41.714  22.155  26.828  1.00  0.00     0.198 A 
ATOM    129  F   UNL A   1      40.990  23.744  28.379  1.00  0.00    -0.203 F 
ATOM    130  F   UNL A   1      44.128  22.375  24.151  1.00  0.00    -0.200 F 
ATOM    131  C   UNL A   1      42.522  21.785  25.770  1.00  0.00     0.200 A 
ATOM    132  F   UNL A   1      40.972  21.235  27.461  1.00  0.00    -0.200 F 
ATOM    133  F   UNL A   1      42.568  20.504  25.376  1.00  0.00    -0.200 F 
ENDBRANCH  95 123
BRANCH 110 134
ATOM    134  C   UNL A   1      45.440  29.723  28.616  1.00  0.00     0.064 A 
ATOM    135  C   UNL A   1      44.441  30.445  27.938  1.00  0.00     0.173 A 
ATOM    136  C   UNL A   1      46.769  30.019  28.290  1.00  0.00     0.173 A 
ATOM    137  F   UNL A   1      43.152  30.303  28.259  1.00  0.00    -0.203 F 
ATOM    138  C   UNL A   1      44.756  31.385  26.957  1.00  0.00     0.198 A 
ATOM    139  C   UNL A   1      47.084  30.983  27.336  1.00  0.00     0.198 A 
ATOM    140  F   UNL A   1      47.771  29.409  28.943  1.00  0.00    -0.203 F 
ATOM    141  F   UNL A   1      43.778  32.051  26.326  1.00  0.00    -0.200 F 
ATOM    142  C   UNL A   1      46.078  31.658  26.663  1.00  0.00     0.200 A 
ATOM    143  F   UNL A   1      48.368  31.283  27.092  1.00  0.00    -0.200 F 
ATOM    144  F   UNL A   1      46.386  32.592  25.751  1.00  0.00    -0.200 F 
ENDBRANCH 110 134
ENDBRANCH  75  78
ENDBRANCH  65  68
ENDBRANCH  61  64
ENDBRANCH  58  61
ENDBRANCH  55  58
ENDBRANCH  52  55
ENDBRANCH   1  52
TORSDOF 19
ENDMDL
MODEL 4
REMARK VINA RESULT:     -12.4      4.209      9.919
REMARK SMILES Cc1c(-c2nn(-c3ccccc3)cc2/C=N/O)nnn1-c1ccc(C(=O)NCCCCCCNC(=O)c2ccc(-c3c4nc(c(-c5c(F)c(F)c(F)c(F)c5F)c5ccc([nH]5)c(-c5c(F)c(F)c(F)c(F)c5F)c5nc(c(-c6c(F)c(F)c(F)c(F)c6F)c6ccc3[nH]6)C=C5)C=C4)cc2)cc1
REMARK SMILES IDX 29 1 28 4 27 7 25 8 26 9 24 11 21 12 22 13 101 14 23 15
REMARK SMILES IDX 100 17 20 21 2 22 3 23 18 24 19 25 1 26 4 30 5 31 14 32 6 33
REMARK SMILES IDX 13 34 15 36 16 37 17 39 7 41 8 42 12 43 9 44 11 46 10 48
REMARK SMILES IDX 30 52 31 55 32 58 33 61 34 64 35 65 36 67 37 68 38 69 99 70
REMARK SMILES IDX 39 71 98 73 40 75 41 78 42 79 92 80 43 81 97 82 91 83 93 84
REMARK SMILES IDX 44 85 96 86 90 88 89 90 45 92 77 95 57 96 76 97 58 98 61 99
REMARK SMILES IDX 75 100 94 101 59 102 60 104 74 106 95 107 62 110 46 112
REMARK SMILES IDX 47 113 55 114 48 115 49 116 53 117 56 118 50 119 51 120
REMARK SMILES IDX 54 121 52 122 78 123 79 124 87 125 80 126 81 127 85 128
REMARK SMILES IDX 88 129 82 130 83 131 86 132 84 133 63 134 64 135 72 136
REMARK SMILES IDX 65 137 66 138 70 139 73 140 67 141 68 142 71 143 69 144
REMARK H PARENT 29 2 29 3 28 5 28 6 27 10 22 16 101 18 23 19 100 20 1 27 1 28
REMARK H PARENT 1 29 13 35 15 38 17 40 8 45 12 47 9 49 11 50 10 51 30 53 30 54
REMARK H PARENT 31 56 31 57 32 59 32 60 33 62 33 63 34 66 38 72 99 74 39 76
REMARK H PARENT 98 77 97 87 91 89 93 91 96 93 90 94 58 103 61 105 94 108
REMARK H PARENT 59 109 95 111
REMARK Flexibility Score: inf
ROOT
ATOM      1  C   UNL A   1      43.272  23.336  26.398  1.00  0.00    -0.036 C 
ATOM      2  H   UNL A   1      44.199  23.058  26.855  1.00  0.00     0.028 H 
ATOM      3  H   UNL A   1      42.530  23.598  27.123  1.00  0.00     0.028 H 
ENDROOT
BRANCH   1   4
ATOM      4  C   UNL A   1      42.738  22.138  25.611  1.00  0.00     0.018 C 
ATOM      5  H   UNL A   1      41.980  22.469  24.932  1.00  0.00     0.049 H 
ATOM      6  H   UNL A   1      43.541  21.689  25.066  1.00  0.00     0.049 H 
BRANCH   4   7
ATOM      7  N   UNL A   1      42.174  21.162  26.519  1.00  0.00    -0.352 N 
ATOM      8  C   UNL A   1      40.901  20.868  26.928  1.00  0.00     0.251 C 
ATOM      9  O   UNL A   1      40.784  19.976  27.770  1.00  0.00    -0.269 OA
ATOM     10  H   UNL A   1      42.855  20.582  26.933  1.00  0.00     0.163 HD
BRANCH   8  11
ATOM     11  C   UNL A   1      39.671  21.502  26.372  1.00  0.00     0.039 A 
ATOM     12  C   UNL A   1      37.397  22.533  25.084  1.00  0.00     0.067 A 
ATOM     13  C   UNL A   1      37.682  21.170  24.994  1.00  0.00    -0.036 A 
ATOM     14  C   UNL A   1      38.191  23.368  25.874  1.00  0.00    -0.036 A 
ATOM     15  C   UNL A   1      38.835  20.673  25.603  1.00  0.00    -0.047 A 
ATOM     16  H   UNL A   1      37.048  20.537  24.481  1.00  0.00     0.065 H 
ATOM     17  C   UNL A   1      39.285  22.833  26.565  1.00  0.00    -0.047 A 
ATOM     18  H   UNL A   1      37.973  24.374  25.948  1.00  0.00     0.065 H 
ATOM     19  H   UNL A   1      39.078  19.677  25.488  1.00  0.00     0.063 H 
ATOM     20  H   UNL A   1      39.812  23.426  27.224  1.00  0.00     0.063 H 
BRANCH  12  21
ATOM     21  N   UNL A   1      36.269  23.050  24.416  1.00  0.00    -0.217 N 
ATOM     22  C   UNL A   1      35.048  23.427  24.938  1.00  0.00     0.071 A 
ATOM     23  C   UNL A   1      34.284  23.644  23.808  1.00  0.00     0.137 A 
ATOM     24  N   UNL A   1      35.047  23.512  22.686  1.00  0.00    -0.128 NA
ATOM     25  N   UNL A   1      36.284  23.226  23.074  1.00  0.00    -0.061 NA
BRANCH  22  26
ATOM     26  C   UNL A   1      34.765  23.643  26.375  1.00  0.00    -0.020 C 
ATOM     27  H   UNL A   1      35.578  23.266  26.960  1.00  0.00     0.030 H 
ATOM     28  H   UNL A   1      33.866  23.127  26.643  1.00  0.00     0.030 H 
ATOM     29  H   UNL A   1      34.645  24.688  26.562  1.00  0.00     0.030 H 
ENDBRANCH  22  26
BRANCH  23  30
ATOM     30  C   UNL A   1      32.897  24.078  23.723  1.00  0.00     0.124 A 
ATOM     31  N   UNL A   1      32.578  25.337  23.407  1.00  0.00    -0.165 NA
ATOM     32  C   UNL A   1      31.763  23.275  23.974  1.00  0.00     0.044 A 
ATOM     33  N   UNL A   1      31.237  25.389  23.542  1.00  0.00    -0.240 N 
ATOM     34  C   UNL A   1      30.708  24.166  23.885  1.00  0.00     0.040 A 
ATOM     35  H   UNL A   1      29.711  23.952  24.047  1.00  0.00     0.085 H 
BRANCH  32  36
ATOM     36  C   UNL A   1      31.633  21.868  24.260  1.00  0.00     0.077 C 
ATOM     37  N   UNL A   1      32.134  21.378  25.345  1.00  0.00    -0.097 NA
ATOM     38  H   UNL A   1      31.138  21.252  23.596  1.00  0.00     0.088 H 
BRANCH  37  39
ATOM     39  O   UNL A   1      31.905  19.997  25.377  1.00  0.00    -0.411 OA
ATOM     40  H   UNL A   1      31.779  19.524  24.578  1.00  0.00     0.330 HD
ENDBRANCH  37  39
ENDBRANCH  32  36
BRANCH  33  41
ATOM     41  C   UNL A   1      30.547  26.612  23.378  1.00  0.00     0.065 A 
ATOM     42  C   UNL A   1      31.274  27.767  23.058  1.00  0.00    -0.036 A 
ATOM     43  C   UNL A   1      29.162  26.679  23.566  1.00  0.00    -0.036 A 
ATOM     44  C   UNL A   1      30.610  28.984  22.906  1.00  0.00    -0.060 A 
ATOM     45  H   UNL A   1      32.297  27.717  22.935  1.00  0.00     0.065 H 
ATOM     46  C   UNL A   1      28.514  27.911  23.463  1.00  0.00    -0.060 A 
ATOM     47  H   UNL A   1      28.624  25.824  23.779  1.00  0.00     0.065 H 
ATOM     48  C   UNL A   1      29.235  29.058  23.123  1.00  0.00    -0.062 A 
ATOM     49  H   UNL A   1      31.136  29.828  22.633  1.00  0.00     0.062 H 
ATOM     50  H   UNL A   1      27.500  27.975  23.638  1.00  0.00     0.062 H 
ATOM     51  H   UNL A   1      28.748  29.963  23.033  1.00  0.00     0.062 H 
ENDBRANCH  33  41
ENDBRANCH  23  30
ENDBRANCH  12  21
ENDBRANCH   8  11
ENDBRANCH   4   7
ENDBRANCH   1   4
BRANCH   1  52
ATOM     52  C   UNL A   1      43.513  24.575  25.523  1.00  0.00    -0.052 C 
ATOM     53  H   UNL A   1      42.677  25.231  25.643  1.00  0.00     0.027 H 
ATOM     54  H   UNL A   1      43.635  24.210  24.525  1.00  0.00     0.027 H 
BRANCH  52  55
ATOM     55  C   UNL A   1      44.792  25.373  25.840  1.00  0.00    -0.052 C 
ATOM     56  H   UNL A   1      44.501  26.258  26.365  1.00  0.00     0.027 H 
ATOM     57  H   UNL A   1      45.257  25.555  24.892  1.00  0.00     0.027 H 
BRANCH  55  58
ATOM     58  C   UNL A   1      45.852  24.651  26.686  1.00  0.00    -0.036 C 
ATOM     59  H   UNL A   1      46.795  24.728  26.186  1.00  0.00     0.028 H 
ATOM     60  H   UNL A   1      45.535  23.635  26.793  1.00  0.00     0.028 H 
BRANCH  58  61
ATOM     61  C   UNL A   1      45.998  25.230  28.082  1.00  0.00     0.018 C 
ATOM     62  H   UNL A   1      45.573  26.212  28.093  1.00  0.00     0.049 H 
ATOM     63  H   UNL A   1      47.041  25.251  28.319  1.00  0.00     0.049 H 
BRANCH  61  64
ATOM     64  N   UNL A   1      45.323  24.413  29.098  1.00  0.00    -0.352 N 
ATOM     65  C   UNL A   1      44.385  24.806  30.033  1.00  0.00     0.251 C 
ATOM     66  H   UNL A   1      45.572  23.461  29.116  1.00  0.00     0.163 HD
ATOM     67  O   UNL A   1      44.155  24.133  31.036  1.00  0.00    -0.269 OA
BRANCH  65  68
ATOM     68  C   UNL A   1      43.646  26.050  29.789  1.00  0.00     0.039 A 
ATOM     69  C   UNL A   1      42.683  26.181  28.785  1.00  0.00    -0.049 A 
ATOM     70  C   UNL A   1      43.919  27.096  30.659  1.00  0.00    -0.049 A 
ATOM     71  C   UNL A   1      41.955  27.368  28.715  1.00  0.00    -0.053 A 
ATOM     72  H   UNL A   1      42.515  25.419  28.110  1.00  0.00     0.063 H 
ATOM     73  C   UNL A   1      43.035  28.126  30.754  1.00  0.00    -0.053 A 
ATOM     74  H   UNL A   1      44.780  27.093  31.226  1.00  0.00     0.063 H 
ATOM     75  C   UNL A   1      42.140  28.332  29.715  1.00  0.00    -0.014 A 
ATOM     76  H   UNL A   1      41.290  27.532  27.942  1.00  0.00     0.063 H 
ATOM     77  H   UNL A   1      43.031  28.741  31.583  1.00  0.00     0.063 H 
BRANCH  75  78
ATOM     78  C   UNL A   1      41.428  29.597  29.736  1.00  0.00     0.031 A 
ATOM     79  C   UNL A   1      42.233  30.798  29.389  1.00  0.00     0.074 A 
ATOM     80  C   UNL A   1      40.078  29.619  29.792  1.00  0.00     0.049 A 
ATOM     81  N   UNL A   1      42.457  31.841  30.117  1.00  0.00    -0.248 NA
ATOM     82  C   UNL A   1      42.956  30.801  28.107  1.00  0.00    -0.034 C 
ATOM     83  C   UNL A   1      39.131  28.489  29.793  1.00  0.00    -0.036 A 
ATOM     84  N   UNL A   1      39.246  30.689  29.736  1.00  0.00    -0.354 N 
ATOM     85  C   UNL A   1      43.220  32.707  29.335  1.00  0.00     0.074 A 
ATOM     86  C   UNL A   1      43.620  31.956  28.175  1.00  0.00    -0.034 C 
ATOM     87  H   UNL A   1      42.951  30.096  27.354  1.00  0.00     0.065 H 
ATOM     88  C   UNL A   1      37.890  28.932  29.498  1.00  0.00    -0.036 A 
ATOM     89  H   UNL A   1      39.380  27.508  29.989  1.00  0.00     0.065 H 
ATOM     90  C   UNL A   1      37.917  30.379  29.479  1.00  0.00     0.049 A 
ATOM     91  H   UNL A   1      39.561  31.613  29.869  1.00  0.00     0.167 HD
ATOM     92  C   UNL A   1      43.290  34.039  29.618  1.00  0.00     0.037 A 
ATOM     93  H   UNL A   1      44.325  32.269  27.489  1.00  0.00     0.065 H 
ATOM     94  H   UNL A   1      37.064  28.340  29.315  1.00  0.00     0.065 H 
ATOM     95  C   UNL A   1      36.923  31.266  29.238  1.00  0.00     0.037 A 
ATOM     96  C   UNL A   1      42.822  34.309  30.954  1.00  0.00     0.049 A 
ATOM     97  C   UNL A   1      37.387  32.583  29.750  1.00  0.00     0.074 A 
ATOM     98  C   UNL A   1      43.246  33.938  32.215  1.00  0.00    -0.036 A 
ATOM     99  N   UNL A   1      41.527  34.739  31.112  1.00  0.00    -0.354 N 
ATOM    100  N   UNL A   1      37.590  32.833  31.015  1.00  0.00    -0.248 NA
ATOM    101  C   UNL A   1      38.094  33.451  28.820  1.00  0.00    -0.034 C 
ATOM    102  C   UNL A   1      42.046  33.684  32.944  1.00  0.00    -0.036 A 
ATOM    103  H   UNL A   1      44.217  33.863  32.557  1.00  0.00     0.065 H 
ATOM    104  C   UNL A   1      40.967  33.983  32.112  1.00  0.00     0.049 A 
ATOM    105  H   UNL A   1      41.083  35.457  30.604  1.00  0.00     0.167 HD
ATOM    106  C   UNL A   1      38.749  33.596  31.047  1.00  0.00     0.074 A 
ATOM    107  C   UNL A   1      38.972  34.005  29.660  1.00  0.00    -0.034 C 
ATOM    108  H   UNL A   1      37.957  33.596  27.808  1.00  0.00     0.065 H 
ATOM    109  H   UNL A   1      41.987  33.338  33.915  1.00  0.00     0.065 H 
ATOM    110  C   UNL A   1      39.578  33.581  32.133  1.00  0.00     0.037 A 
ATOM    111  H   UNL A   1      39.723  34.648  29.365  1.00  0.00     0.065 H 
BRANCH  92 112
ATOM    112  C   UNL A   1      43.478  35.136  28.600  1.00  0.00     0.064 A 
ATOM    113  C   UNL A   1      44.745  35.740  28.464  1.00  0.00     0.173 A 
ATOM    114  C   UNL A   1      42.414  35.809  27.962  1.00  0.00     0.173 A 
ATOM    115  F   UNL A   1      45.829  35.195  29.036  1.00  0.00    -0.203 F 
ATOM    116  C   UNL A   1      44.915  36.964  27.810  1.00  0.00     0.198 A 
ATOM    117  C   UNL A   1      42.597  37.001  27.263  1.00  0.00     0.198 A 
ATOM    118  F   UNL A   1      41.144  35.405  28.080  1.00  0.00    -0.203 F 
ATOM    119  F   UNL A   1      46.116  37.560  27.813  1.00  0.00    -0.200 F 
ATOM    120  C   UNL A   1      43.839  37.597  27.216  1.00  0.00     0.200 A 
ATOM    121  F   UNL A   1      41.538  37.606  26.706  1.00  0.00    -0.200 F 
ATOM    122  F   UNL A   1      43.986  38.797  26.641  1.00  0.00    -0.200 F 
ENDBRANCH  92 112
BRANCH  95 123
ATOM    123  C   UNL A   1      35.785  31.114  28.305  1.00  0.00     0.064 A 
ATOM    124  C   UNL A   1      35.568  29.914  27.612  1.00  0.00     0.173 A 
ATOM    125  C   UNL A   1      34.733  32.053  28.282  1.00  0.00     0.173 A 
ATOM    126  F   UNL A   1      36.502  28.954  27.625  1.00  0.00    -0.203 F 
ATOM    127  C   UNL A   1      34.359  29.657  26.956  1.00  0.00     0.198 A 
ATOM    128  C   UNL A   1      33.529  31.796  27.624  1.00  0.00     0.198 A 
ATOM    129  F   UNL A   1      34.815  33.195  28.981  1.00  0.00    -0.203 F 
ATOM    130  F   UNL A   1      34.164  28.475  26.355  1.00  0.00    -0.200 F 
ATOM    131  C   UNL A   1      33.338  30.593  26.971  1.00  0.00     0.200 A 
ATOM    132  F   UNL A   1      32.535  32.695  27.682  1.00  0.00    -0.200 F 
ATOM    133  F   UNL A   1      32.158  30.320  26.397  1.00  0.00    -0.200 F 
ENDBRANCH  95 123
BRANCH 110 134
ATOM    134  C   UNL A   1      39.098  32.878  33.376  1.00  0.00     0.064 A 
ATOM    135  C   UNL A   1      39.451  31.561  33.722  1.00  0.00     0.173 A 
ATOM    136  C   UNL A   1      38.387  33.617  34.330  1.00  0.00     0.173 A 
ATOM    137  F   UNL A   1      40.218  30.820  32.917  1.00  0.00    -0.203 F 
ATOM    138  C   UNL A   1      39.076  31.000  34.942  1.00  0.00     0.198 A 
ATOM    139  C   UNL A   1      38.044  33.068  35.563  1.00  0.00     0.198 A 
ATOM    140  F   UNL A   1      38.073  34.899  34.087  1.00  0.00    -0.203 F 
ATOM    141  F   UNL A   1      39.424  29.739  35.237  1.00  0.00    -0.200 F 
ATOM    142  C   UNL A   1      38.379  31.757  35.865  1.00  0.00     0.200 A 
ATOM    143  F   UNL A   1      37.415  33.822  36.475  1.00  0.00    -0.200 F 
ATOM    144  F   UNL A   1      38.054  31.235  37.056  1.00  0.00    -0.200 F 
ENDBRANCH 110 134
ENDBRANCH  75  78
ENDBRANCH  65  68
ENDBRANCH  61  64
ENDBRANCH  58  61
ENDBRANCH  55  58
ENDBRANCH  52  55
ENDBRANCH   1  52
TORSDOF 19
ENDMDL
MODEL 5
REMARK VINA RESULT:     -12.1      2.527      4.524
REMARK SMILES Cc1c(-c2nn(-c3ccccc3)cc2/C=N/O)nnn1-c1ccc(C(=O)NCCCCCCNC(=O)c2ccc(-c3c4nc(c(-c5c(F)c(F)c(F)c(F)c5F)c5ccc([nH]5)c(-c5c(F)c(F)c(F)c(F)c5F)c5nc(c(-c6c(F)c(F)c(F)c(F)c6F)c6ccc3[nH]6)C=C5)C=C4)cc2)cc1
REMARK SMILES IDX 29 1 28 4 27 7 25 8 26 9 24 11 21 12 22 13 101 14 23 15
REMARK SMILES IDX 100 17 20 21 2 22 3 23 18 24 19 25 1 26 4 30 5 31 14 32 6 33
REMARK SMILES IDX 13 34 15 36 16 37 17 39 7 41 8 42 12 43 9 44 11 46 10 48
REMARK SMILES IDX 30 52 31 55 32 58 33 61 34 64 35 65 36 67 37 68 38 69 99 70
REMARK SMILES IDX 39 71 98 73 40 75 41 78 42 79 92 80 43 81 97 82 91 83 93 84
REMARK SMILES IDX 44 85 96 86 90 88 89 90 45 92 77 95 57 96 76 97 58 98 61 99
REMARK SMILES IDX 75 100 94 101 59 102 60 104 74 106 95 107 62 110 46 112
REMARK SMILES IDX 47 113 55 114 48 115 49 116 53 117 56 118 50 119 51 120
REMARK SMILES IDX 54 121 52 122 78 123 79 124 87 125 80 126 81 127 85 128
REMARK SMILES IDX 88 129 82 130 83 131 86 132 84 133 63 134 64 135 72 136
REMARK SMILES IDX 65 137 66 138 70 139 73 140 67 141 68 142 71 143 69 144
REMARK H PARENT 29 2 29 3 28 5 28 6 27 10 22 16 101 18 23 19 100 20 1 27 1 28
REMARK H PARENT 1 29 13 35 15 38 17 40 8 45 12 47 9 49 11 50 10 51 30 53 30 54
REMARK H PARENT 31 56 31 57 32 59 32 60 33 62 33 63 34 66 38 72 99 74 39 76
REMARK H PARENT 98 77 97 87 91 89 93 91 96 93 90 94 58 103 61 105 94 108
REMARK H PARENT 59 109 95 111
REMARK Flexibility Score: inf
ROOT
ATOM      1  C   UNL A   1      34.287  33.077  32.502  1.00  0.00    -0.036 C 
ATOM      2  H   UNL A   1      34.024  32.269  33.153  1.00  0.00     0.028 H 
ATOM      3  H   UNL A   1      33.432  33.645  32.200  1.00  0.00     0.028 H 
ENDROOT
BRANCH   1   4
ATOM      4  C   UNL A   1      34.918  32.495  31.235  1.00  0.00     0.018 C 
ATOM      5  H   UNL A   1      35.934  32.226  31.436  1.00  0.00     0.049 H 
ATOM      6  H   UNL A   1      34.368  31.628  30.934  1.00  0.00     0.049 H 
BRANCH   4   7
ATOM      7  N   UNL A   1      34.883  33.475  30.171  1.00  0.00    -0.352 N 
ATOM      8  C   UNL A   1      34.649  33.407  28.823  1.00  0.00     0.251 C 
ATOM      9  O   UNL A   1      34.744  34.461  28.193  1.00  0.00    -0.269 OA
ATOM     10  H   UNL A   1      35.068  34.391  30.484  1.00  0.00     0.163 HD
BRANCH   8  11
ATOM     11  C   UNL A   1      34.224  32.171  28.104  1.00  0.00     0.039 A 
ATOM     12  C   UNL A   1      33.694  29.836  26.635  1.00  0.00     0.067 A 
ATOM     13  C   UNL A   1      34.921  29.979  27.282  1.00  0.00    -0.036 A 
ATOM     14  C   UNL A   1      32.703  30.811  26.780  1.00  0.00    -0.036 A 
ATOM     15  C   UNL A   1      35.192  31.159  27.977  1.00  0.00    -0.047 A 
ATOM     16  H   UNL A   1      35.621  29.222  27.246  1.00  0.00     0.065 H 
ATOM     17  C   UNL A   1      32.953  31.941  27.568  1.00  0.00    -0.047 A 
ATOM     18  H   UNL A   1      31.791  30.699  26.309  1.00  0.00     0.065 H 
ATOM     19  H   UNL A   1      36.121  31.291  28.406  1.00  0.00     0.063 H 
ATOM     20  H   UNL A   1      32.192  32.611  27.755  1.00  0.00     0.063 H 
BRANCH  12  21
ATOM     21  N   UNL A   1      33.442  28.674  25.879  1.00  0.00    -0.217 N 
ATOM     22  C   UNL A   1      32.691  27.566  26.215  1.00  0.00     0.071 A 
ATOM     23  C   UNL A   1      32.978  26.680  25.195  1.00  0.00     0.137 A 
ATOM     24  N   UNL A   1      33.763  27.276  24.254  1.00  0.00    -0.128 NA
ATOM     25  N   UNL A   1      33.976  28.527  24.643  1.00  0.00    -0.061 NA
BRANCH  22  26
ATOM     26  C   UNL A   1      31.739  27.491  27.347  1.00  0.00    -0.020 C 
ATOM     27  H   UNL A   1      31.189  28.408  27.412  1.00  0.00     0.030 H 
ATOM     28  H   UNL A   1      32.278  27.335  28.257  1.00  0.00     0.030 H 
ATOM     29  H   UNL A   1      31.061  26.680  27.190  1.00  0.00     0.030 H 
ENDBRANCH  22  26
BRANCH  23  30
ATOM     30  C   UNL A   1      32.464  25.332  24.996  1.00  0.00     0.124 A 
ATOM     31  N   UNL A   1      33.247  24.258  25.139  1.00  0.00    -0.165 NA
ATOM     32  C   UNL A   1      31.144  24.998  24.621  1.00  0.00     0.044 A 
ATOM     33  N   UNL A   1      32.469  23.221  24.765  1.00  0.00    -0.240 N 
ATOM     34  C   UNL A   1      31.194  23.627  24.443  1.00  0.00     0.040 A 
ATOM     35  H   UNL A   1      30.419  23.022  24.127  1.00  0.00     0.085 H 
BRANCH  32  36
ATOM     36  C   UNL A   1      29.967  25.811  24.441  1.00  0.00     0.077 C 
ATOM     37  N   UNL A   1      29.884  26.619  23.437  1.00  0.00    -0.097 NA
ATOM     38  H   UNL A   1      29.190  25.747  25.117  1.00  0.00     0.088 H 
BRANCH  37  39
ATOM     39  O   UNL A   1      28.670  27.312  23.501  1.00  0.00    -0.411 OA
ATOM     40  H   UNL A   1      28.569  28.124  23.045  1.00  0.00     0.330 HD
ENDBRANCH  37  39
ENDBRANCH  32  36
BRANCH  33  41
ATOM     41  C   UNL A   1      33.001  21.914  24.696  1.00  0.00     0.065 A 
ATOM     42  C   UNL A   1      32.153  20.849  24.359  1.00  0.00    -0.036 A 
ATOM     43  C   UNL A   1      34.347  21.676  24.996  1.00  0.00    -0.036 A 
ATOM     44  C   UNL A   1      32.660  19.551  24.300  1.00  0.00    -0.060 A 
ATOM     45  H   UNL A   1      31.158  21.026  24.153  1.00  0.00     0.065 H 
ATOM     46  C   UNL A   1      34.832  20.367  24.986  1.00  0.00    -0.060 A 
ATOM     47  H   UNL A   1      34.976  22.463  25.223  1.00  0.00     0.065 H 
ATOM     48  C   UNL A   1      33.993  19.310  24.629  1.00  0.00    -0.062 A 
ATOM     49  H   UNL A   1      32.048  18.771  24.015  1.00  0.00     0.062 H 
ATOM     50  H   UNL A   1      35.813  20.180  25.243  1.00  0.00     0.062 H 
ATOM     51  H   UNL A   1      34.362  18.346  24.607  1.00  0.00     0.062 H 
ENDBRANCH  33  41
ENDBRANCH  23  30
ENDBRANCH  12  21
ENDBRANCH   8  11
ENDBRANCH   4   7
ENDBRANCH   1   4
BRANCH   1  52
ATOM     52  C   UNL A   1      35.223  34.029  33.261  1.00  0.00    -0.052 C 
ATOM     53  H   UNL A   1      34.684  34.426  34.095  1.00  0.00     0.027 H 
ATOM     54  H   UNL A   1      35.527  34.770  32.552  1.00  0.00     0.027 H 
BRANCH  52  55
ATOM     55  C   UNL A   1      36.523  33.397  33.794  1.00  0.00    -0.052 C 
ATOM     56  H   UNL A   1      36.696  32.496  33.245  1.00  0.00     0.027 H 
ATOM     57  H   UNL A   1      36.360  33.251  34.842  1.00  0.00     0.027 H 
BRANCH  55  58
ATOM     58  C   UNL A   1      37.790  34.260  33.692  1.00  0.00    -0.036 C 
ATOM     59  H   UNL A   1      38.291  34.241  34.637  1.00  0.00     0.028 H 
ATOM     60  H   UNL A   1      37.481  35.247  33.420  1.00  0.00     0.028 H 
BRANCH  58  61
ATOM     61  C   UNL A   1      38.757  33.778  32.624  1.00  0.00     0.018 C 
ATOM     62  H   UNL A   1      38.931  32.732  32.765  1.00  0.00     0.049 H 
ATOM     63  H   UNL A   1      39.660  34.342  32.724  1.00  0.00     0.049 H 
BRANCH  61  64
ATOM     64  N   UNL A   1      38.241  33.992  31.266  1.00  0.00    -0.352 N 
ATOM     65  C   UNL A   1      38.555  33.307  30.110  1.00  0.00     0.251 C 
ATOM     66  H   UNL A   1      37.586  34.721  31.168  1.00  0.00     0.163 HD
ATOM     67  O   UNL A   1      38.337  33.785  28.998  1.00  0.00    -0.269 OA
BRANCH  65  68
ATOM     68  C   UNL A   1      39.146  31.969  30.239  1.00  0.00     0.039 A 
ATOM     69  C   UNL A   1      38.383  30.799  30.288  1.00  0.00    -0.049 A 
ATOM     70  C   UNL A   1      40.532  31.919  30.254  1.00  0.00    -0.049 A 
ATOM     71  C   UNL A   1      39.046  29.574  30.290  1.00  0.00    -0.053 A 
ATOM     72  H   UNL A   1      37.352  30.841  30.322  1.00  0.00     0.063 H 
ATOM     73  C   UNL A   1      41.156  30.740  29.989  1.00  0.00    -0.053 A 
ATOM     74  H   UNL A   1      41.083  32.765  30.466  1.00  0.00     0.063 H 
ATOM     75  C   UNL A   1      40.439  29.562  30.134  1.00  0.00    -0.014 A 
ATOM     76  H   UNL A   1      38.522  28.692  30.403  1.00  0.00     0.063 H 
ATOM     77  H   UNL A   1      42.142  30.723  29.684  1.00  0.00     0.063 H 
BRANCH  75  78
ATOM     78  C   UNL A   1      41.223  28.339  30.118  1.00  0.00     0.031 A 
ATOM     79  C   UNL A   1      41.856  27.960  31.409  1.00  0.00     0.074 A 
ATOM     80  C   UNL A   1      41.133  27.485  29.074  1.00  0.00     0.049 A 
ATOM     81  N   UNL A   1      43.113  27.802  31.660  1.00  0.00    -0.248 NA
ATOM     82  C   UNL A   1      40.992  27.832  32.593  1.00  0.00    -0.034 C 
ATOM     83  C   UNL A   1      40.277  27.569  27.878  1.00  0.00    -0.036 A 
ATOM     84  N   UNL A   1      41.717  26.270  28.924  1.00  0.00    -0.354 N 
ATOM     85  C   UNL A   1      43.198  27.400  32.992  1.00  0.00     0.074 A 
ATOM     86  C   UNL A   1      41.886  27.582  33.553  1.00  0.00    -0.034 C 
ATOM     87  H   UNL A   1      39.966  27.913  32.663  1.00  0.00     0.065 H 
ATOM     88  C   UNL A   1      40.222  26.365  27.269  1.00  0.00    -0.036 A 
ATOM     89  H   UNL A   1      39.793  28.421  27.554  1.00  0.00     0.065 H 
ATOM     90  C   UNL A   1      41.178  25.488  27.911  1.00  0.00     0.049 A 
ATOM     91  H   UNL A   1      42.465  25.967  29.488  1.00  0.00     0.167 HD
ATOM     92  C   UNL A   1      44.303  26.760  33.470  1.00  0.00     0.037 A 
ATOM     93  H   UNL A   1      41.665  27.527  34.560  1.00  0.00     0.065 H 
ATOM     94  H   UNL A   1      39.603  26.113  26.482  1.00  0.00     0.065 H 
ATOM     95  C   UNL A   1      41.486  24.196  27.651  1.00  0.00     0.037 A 
ATOM     96  C   UNL A   1      45.417  26.911  32.567  1.00  0.00     0.049 A 
ATOM     97  C   UNL A   1      42.792  23.923  28.307  1.00  0.00     0.074 A 
ATOM     98  C   UNL A   1      46.144  27.992  32.108  1.00  0.00    -0.036 A 
ATOM     99  N   UNL A   1      45.681  25.889  31.688  1.00  0.00    -0.354 N 
ATOM    100  N   UNL A   1      43.912  24.484  27.941  1.00  0.00    -0.248 NA
ATOM    101  C   UNL A   1      42.763  23.417  29.672  1.00  0.00    -0.034 C 
ATOM    102  C   UNL A   1      46.381  27.714  30.728  1.00  0.00    -0.036 A 
ATOM    103  H   UNL A   1      46.450  28.819  32.644  1.00  0.00     0.065 H 
ATOM    104  C   UNL A   1      45.852  26.454  30.448  1.00  0.00     0.049 A 
ATOM    105  H   UNL A   1      45.738  24.930  31.906  1.00  0.00     0.167 HD
ATOM    106  C   UNL A   1      44.570  24.776  29.128  1.00  0.00     0.074 A 
ATOM    107  C   UNL A   1      43.846  24.029  30.156  1.00  0.00    -0.034 C 
ATOM    108  H   UNL A   1      42.099  22.772  30.129  1.00  0.00     0.065 H 
ATOM    109  H   UNL A   1      46.859  28.335  30.057  1.00  0.00     0.065 H 
ATOM    110  C   UNL A   1      45.449  25.818  29.214  1.00  0.00     0.037 A 
ATOM    111  H   UNL A   1      44.139  23.981  31.144  1.00  0.00     0.065 H 
BRANCH  92 112
ATOM    112  C   UNL A   1      44.306  25.740  34.579  1.00  0.00     0.064 A 
ATOM    113  C   UNL A   1      44.965  26.040  35.790  1.00  0.00     0.173 A 
ATOM    114  C   UNL A   1      43.943  24.387  34.407  1.00  0.00     0.173 A 
ATOM    115  F   UNL A   1      45.366  27.292  36.060  1.00  0.00    -0.203 F 
ATOM    116  C   UNL A   1      45.305  25.048  36.714  1.00  0.00     0.198 A 
ATOM    117  C   UNL A   1      44.235  23.409  35.356  1.00  0.00     0.198 A 
ATOM    118  F   UNL A   1      43.395  23.936  33.273  1.00  0.00    -0.203 F 
ATOM    119  F   UNL A   1      46.039  25.363  37.790  1.00  0.00    -0.200 F 
ATOM    120  C   UNL A   1      44.945  23.731  36.493  1.00  0.00     0.200 A 
ATOM    121  F   UNL A   1      43.890  22.135  35.116  1.00  0.00    -0.200 F 
ATOM    122  F   UNL A   1      45.322  22.769  37.345  1.00  0.00    -0.200 F 
ENDBRANCH  92 112
BRANCH  95 123
ATOM    123  C   UNL A   1      40.574  23.127  27.185  1.00  0.00     0.064 A 
ATOM    124  C   UNL A   1      39.247  23.408  26.827  1.00  0.00     0.173 A 
ATOM    125  C   UNL A   1      41.067  21.857  26.823  1.00  0.00     0.173 A 
ATOM    126  F   UNL A   1      38.720  24.611  27.095  1.00  0.00    -0.203 F 
ATOM    127  C   UNL A   1      38.467  22.482  26.125  1.00  0.00     0.198 A 
ATOM    128  C   UNL A   1      40.287  20.933  26.127  1.00  0.00     0.198 A 
ATOM    129  F   UNL A   1      42.347  21.526  27.051  1.00  0.00    -0.203 F 
ATOM    130  F   UNL A   1      37.223  22.808  25.747  1.00  0.00    -0.200 F 
ATOM    131  C   UNL A   1      38.990  21.251  25.767  1.00  0.00     0.200 A 
ATOM    132  F   UNL A   1      40.820  19.761  25.751  1.00  0.00    -0.200 F 
ATOM    133  F   UNL A   1      38.265  20.390  25.039  1.00  0.00    -0.200 F 
ENDBRANCH  95 123
BRANCH 110 134
ATOM    134  C   UNL A   1      45.844  26.514  27.937  1.00  0.00     0.064 A 
ATOM    135  C   UNL A   1      46.784  26.004  27.022  1.00  0.00     0.173 A 
ATOM    136  C   UNL A   1      45.131  27.653  27.547  1.00  0.00     0.173 A 
ATOM    137  F   UNL A   1      47.434  24.863  27.266  1.00  0.00    -0.203 F 
ATOM    138  C   UNL A   1      47.026  26.629  25.799  1.00  0.00     0.198 A 
ATOM    139  C   UNL A   1      45.347  28.256  26.310  1.00  0.00     0.198 A 
ATOM    140  F   UNL A   1      44.177  28.154  28.348  1.00  0.00    -0.203 F 
ATOM    141  F   UNL A   1      47.934  26.120  24.953  1.00  0.00    -0.200 F 
ATOM    142  C   UNL A   1      46.301  27.750  25.441  1.00  0.00     0.200 A 
ATOM    143  F   UNL A   1      44.605  29.311  25.945  1.00  0.00    -0.200 F 
ATOM    144  F   UNL A   1      46.500  28.327  24.248  1.00  0.00    -0.200 F 
ENDBRANCH 110 134
ENDBRANCH  75  78
ENDBRANCH  65  68
ENDBRANCH  61  64
ENDBRANCH  58  61
ENDBRANCH  55  58
ENDBRANCH  52  55
ENDBRANCH   1  52
TORSDOF 19
ENDMDL
MODEL 6
REMARK VINA RESULT:     -12.0      5.444     13.125
REMARK SMILES Cc1c(-c2nn(-c3ccccc3)cc2/C=N/O)nnn1-c1ccc(C(=O)NCCCCCCNC(=O)c2ccc(-c3c4nc(c(-c5c(F)c(F)c(F)c(F)c5F)c5ccc([nH]5)c(-c5c(F)c(F)c(F)c(F)c5F)c5nc(c(-c6c(F)c(F)c(F)c(F)c6F)c6ccc3[nH]6)C=C5)C=C4)cc2)cc1
REMARK SMILES IDX 29 1 28 4 27 7 25 8 26 9 24 11 21 12 22 13 101 14 23 15
REMARK SMILES IDX 100 17 20 21 2 22 3 23 18 24 19 25 1 26 4 30 5 31 14 32 6 33
REMARK SMILES IDX 13 34 15 36 16 37 17 39 7 41 8 42 12 43 9 44 11 46 10 48
REMARK SMILES IDX 30 52 31 55 32 58 33 61 34 64 35 65 36 67 37 68 38 69 99 70
REMARK SMILES IDX 39 71 98 73 40 75 41 78 42 79 92 80 43 81 97 82 91 83 93 84
REMARK SMILES IDX 44 85 96 86 90 88 89 90 45 92 77 95 57 96 76 97 58 98 61 99
REMARK SMILES IDX 75 100 94 101 59 102 60 104 74 106 95 107 62 110 46 112
REMARK SMILES IDX 47 113 55 114 48 115 49 116 53 117 56 118 50 119 51 120
REMARK SMILES IDX 54 121 52 122 78 123 79 124 87 125 80 126 81 127 85 128
REMARK SMILES IDX 88 129 82 130 83 131 86 132 84 133 63 134 64 135 72 136
REMARK SMILES IDX 65 137 66 138 70 139 73 140 67 141 68 142 71 143 69 144
REMARK H PARENT 29 2 29 3 28 5 28 6 27 10 22 16 101 18 23 19 100 20 1 27 1 28
REMARK H PARENT 1 29 13 35 15 38 17 40 8 45 12 47 9 49 11 50 10 51 30 53 30 54
REMARK H PARENT 31 56 31 57 32 59 32 60 33 62 33 63 34 66 38 72 99 74 39 76
REMARK H PARENT 98 77 97 87 91 89 93 91 96 93 90 94 58 103 61 105 94 108
REMARK H PARENT 59 109 95 111
REMARK Flexibility Score: inf
ROOT
ATOM      1  C   UNL A   1      44.878  24.927  29.143  1.00  0.00    -0.036 C 
ATOM      2  H   UNL A   1      44.925  25.697  28.401  1.00  0.00     0.028 H 
ATOM      3  H   UNL A   1      43.943  24.927  29.664  1.00  0.00     0.028 H 
ENDROOT
BRANCH   1   4
ATOM      4  C   UNL A   1      45.976  25.180  30.178  1.00  0.00     0.018 C 
ATOM      5  H   UNL A   1      46.185  24.271  30.702  1.00  0.00     0.049 H 
ATOM      6  H   UNL A   1      46.859  25.521  29.678  1.00  0.00     0.049 H 
BRANCH   4   7
ATOM      7  N   UNL A   1      45.543  26.189  31.121  1.00  0.00    -0.352 N 
ATOM      8  C   UNL A   1      45.145  26.157  32.431  1.00  0.00     0.251 C 
ATOM      9  O   UNL A   1      44.792  27.228  32.927  1.00  0.00    -0.269 OA
ATOM     10  H   UNL A   1      45.531  27.096  30.738  1.00  0.00     0.163 HD
BRANCH   8  11
ATOM     11  C   UNL A   1      45.185  24.940  33.293  1.00  0.00     0.039 A 
ATOM     12  C   UNL A   1      45.529  22.603  34.813  1.00  0.00     0.067 A 
ATOM     13  C   UNL A   1      46.585  23.508  34.692  1.00  0.00    -0.036 A 
ATOM     14  C   UNL A   1      44.284  22.893  34.250  1.00  0.00    -0.036 A 
ATOM     15  C   UNL A   1      46.418  24.647  33.902  1.00  0.00    -0.047 A 
ATOM     16  H   UNL A   1      47.478  23.336  35.179  1.00  0.00     0.065 H 
ATOM     17  C   UNL A   1      44.103  24.091  33.549  1.00  0.00    -0.047 A 
ATOM     18  H   UNL A   1      43.502  22.227  34.349  1.00  0.00     0.065 H 
ATOM     19  H   UNL A   1      47.216  25.287  33.763  1.00  0.00     0.063 H 
ATOM     20  H   UNL A   1      43.162  24.351  33.218  1.00  0.00     0.063 H 
BRANCH  12  21
ATOM     21  N   UNL A   1      45.715  21.420  35.556  1.00  0.00    -0.217 N 
ATOM     22  C   UNL A   1      46.031  21.274  36.892  1.00  0.00     0.071 A 
ATOM     23  C   UNL A   1      46.291  19.922  37.001  1.00  0.00     0.137 A 
ATOM     24  N   UNL A   1      46.030  19.292  35.821  1.00  0.00    -0.128 NA
ATOM     25  N   UNL A   1      45.600  20.208  34.963  1.00  0.00    -0.061 NA
BRANCH  22  26
ATOM     26  C   UNL A   1      45.955  22.348  37.909  1.00  0.00    -0.020 C 
ATOM     27  H   UNL A   1      46.309  23.266  37.486  1.00  0.00     0.030 H 
ATOM     28  H   UNL A   1      46.563  22.087  38.750  1.00  0.00     0.030 H 
ATOM     29  H   UNL A   1      44.941  22.469  38.225  1.00  0.00     0.030 H 
ENDBRANCH  22  26
BRANCH  23  30
ATOM     30  C   UNL A   1      46.665  19.165  38.187  1.00  0.00     0.124 A 
ATOM     31  N   UNL A   1      45.791  18.373  38.815  1.00  0.00    -0.165 NA
ATOM     32  C   UNL A   1      47.931  19.186  38.814  1.00  0.00     0.044 A 
ATOM     33  N   UNL A   1      46.452  17.945  39.911  1.00  0.00    -0.240 N 
ATOM     34  C   UNL A   1      47.745  18.415  39.947  1.00  0.00     0.040 A 
ATOM     35  H   UNL A   1      48.445  18.228  40.682  1.00  0.00     0.085 H 
BRANCH  32  36
ATOM     36  C   UNL A   1      49.171  19.821  38.443  1.00  0.00     0.077 C 
ATOM     37  N   UNL A   1      50.149  19.116  37.980  1.00  0.00    -0.097 NA
ATOM     38  H   UNL A   1      49.276  20.843  38.547  1.00  0.00     0.088 H 
BRANCH  37  39
ATOM     39  O   UNL A   1      51.242  19.953  37.726  1.00  0.00    -0.411 OA
ATOM     40  H   UNL A   1      51.541  20.078  36.847  1.00  0.00     0.330 HD
ENDBRANCH  37  39
ENDBRANCH  32  36
BRANCH  33  41
ATOM     41  C   UNL A   1      45.796  17.148  40.877  1.00  0.00     0.065 A 
ATOM     42  C   UNL A   1      44.422  16.901  40.738  1.00  0.00    -0.036 A 
ATOM     43  C   UNL A   1      46.497  16.641  41.977  1.00  0.00    -0.036 A 
ATOM     44  C   UNL A   1      43.758  16.129  41.690  1.00  0.00    -0.060 A 
ATOM     45  H   UNL A   1      43.906  17.289  39.934  1.00  0.00     0.065 H 
ATOM     46  C   UNL A   1      45.811  15.914  42.952  1.00  0.00    -0.060 A 
ATOM     47  H   UNL A   1      47.512  16.805  42.067  1.00  0.00     0.065 H 
ATOM     48  C   UNL A   1      44.448  15.650  42.802  1.00  0.00    -0.062 A 
ATOM     49  H   UNL A   1      42.756  15.913  41.571  1.00  0.00     0.062 H 
ATOM     50  H   UNL A   1      46.313  15.570  43.784  1.00  0.00     0.062 H 
ATOM     51  H   UNL A   1      43.950  15.097  43.518  1.00  0.00     0.062 H 
ENDBRANCH  33  41
ENDBRANCH  23  30
ENDBRANCH  12  21
ENDBRANCH   8  11
ENDBRANCH   4   7
ENDBRANCH   1   4
BRANCH   1  52
ATOM     52  C   UNL A   1      45.011  23.567  28.442  1.00  0.00    -0.052 C 
ATOM     53  H   UNL A   1      44.254  22.919  28.834  1.00  0.00     0.027 H 
ATOM     54  H   UNL A   1      46.008  23.232  28.635  1.00  0.00     0.027 H 
BRANCH  52  55
ATOM     55  C   UNL A   1      44.864  23.593  26.909  1.00  0.00    -0.052 C 
ATOM     56  H   UNL A   1      45.847  23.587  26.487  1.00  0.00     0.027 H 
ATOM     57  H   UNL A   1      44.296  24.474  26.691  1.00  0.00     0.027 H 
BRANCH  55  58
ATOM     58  C   UNL A   1      44.078  22.431  26.281  1.00  0.00    -0.036 C 
ATOM     59  H   UNL A   1      43.660  21.839  27.069  1.00  0.00     0.028 H 
ATOM     60  H   UNL A   1      44.762  21.873  25.679  1.00  0.00     0.028 H 
BRANCH  58  61
ATOM     61  C   UNL A   1      42.950  22.894  25.375  1.00  0.00     0.018 C 
ATOM     62  H   UNL A   1      43.164  22.581  24.374  1.00  0.00     0.049 H 
ATOM     63  H   UNL A   1      42.891  23.959  25.447  1.00  0.00     0.049 H 
BRANCH  61  64
ATOM     64  N   UNL A   1      41.650  22.342  25.775  1.00  0.00    -0.352 N 
ATOM     65  C   UNL A   1      40.747  22.847  26.690  1.00  0.00     0.251 C 
ATOM     66  H   UNL A   1      41.388  21.502  25.334  1.00  0.00     0.163 HD
ATOM     67  O   UNL A   1      39.876  22.140  27.192  1.00  0.00    -0.269 OA
BRANCH  65  68
ATOM     68  C   UNL A   1      40.840  24.270  27.039  1.00  0.00     0.039 A 
ATOM     69  C   UNL A   1      40.275  25.285  26.261  1.00  0.00    -0.049 A 
ATOM     70  C   UNL A   1      41.482  24.559  28.233  1.00  0.00    -0.049 A 
ATOM     71  C   UNL A   1      40.317  26.592  26.744  1.00  0.00    -0.053 A 
ATOM     72  H   UNL A   1      39.837  25.073  25.351  1.00  0.00     0.063 H 
ATOM     73  C   UNL A   1      41.286  25.773  28.815  1.00  0.00    -0.053 A 
ATOM     74  H   UNL A   1      42.103  23.863  28.674  1.00  0.00     0.063 H 
ATOM     75  C   UNL A   1      40.823  26.819  28.030  1.00  0.00    -0.014 A 
ATOM     76  H   UNL A   1      39.980  27.377  26.165  1.00  0.00     0.063 H 
ATOM     77  H   UNL A   1      41.476  25.912  29.820  1.00  0.00     0.063 H 
BRANCH  75  78
ATOM     78  C   UNL A   1      40.906  28.140  28.627  1.00  0.00     0.031 A 
ATOM     79  C   UNL A   1      41.990  29.017  28.110  1.00  0.00     0.074 A 
ATOM     80  C   UNL A   1      39.890  28.611  29.385  1.00  0.00     0.049 A 
ATOM     81  N   UNL A   1      42.965  29.547  28.769  1.00  0.00    -0.248 NA
ATOM     82  C   UNL A   1      42.052  29.259  26.659  1.00  0.00    -0.034 C 
ATOM     83  C   UNL A   1      38.596  27.979  29.698  1.00  0.00    -0.036 A 
ATOM     84  N   UNL A   1      39.754  29.837  29.947  1.00  0.00    -0.354 N 
ATOM     85  C   UNL A   1      43.681  30.320  27.857  1.00  0.00     0.074 A 
ATOM     86  C   UNL A   1      43.167  29.986  26.555  1.00  0.00    -0.034 C 
ATOM     87  H   UNL A   1      41.405  28.949  25.918  1.00  0.00     0.065 H 
ATOM     88  C   UNL A   1      37.737  28.906  30.173  1.00  0.00    -0.036 A 
ATOM     89  H   UNL A   1      38.380  26.978  29.573  1.00  0.00     0.065 H 
ATOM     90  C   UNL A   1      38.469  30.139  30.378  1.00  0.00     0.049 A 
ATOM     91  H   UNL A   1      40.507  30.465  30.043  1.00  0.00     0.167 HD
ATOM     92  C   UNL A   1      44.505  31.323  28.272  1.00  0.00     0.037 A 
ATOM     93  H   UNL A   1      43.601  30.270  25.663  1.00  0.00     0.065 H 
ATOM     94  H   UNL A   1      36.732  28.761  30.357  1.00  0.00     0.065 H 
ATOM     95  C   UNL A   1      38.042  31.337  30.841  1.00  0.00     0.037 A 
ATOM     96  C   UNL A   1      44.797  31.202  29.678  1.00  0.00     0.049 A 
ATOM     97  C   UNL A   1      39.254  32.101  31.240  1.00  0.00     0.074 A 
ATOM     98  C   UNL A   1      45.434  30.252  30.451  1.00  0.00    -0.036 A 
ATOM     99  N   UNL A   1      44.067  31.964  30.558  1.00  0.00    -0.354 N 
ATOM    100  N   UNL A   1      40.029  31.756  32.231  1.00  0.00    -0.248 NA
ATOM    101  C   UNL A   1      39.870  32.952  30.232  1.00  0.00    -0.034 C 
ATOM    102  C   UNL A   1      44.662  30.174  31.648  1.00  0.00    -0.036 A 
ATOM    103  H   UNL A   1      46.284  29.715  30.215  1.00  0.00     0.065 H 
ATOM    104  C   UNL A   1      43.648  31.129  31.566  1.00  0.00     0.049 A 
ATOM    105  H   UNL A   1      43.879  32.928  30.483  1.00  0.00     0.167 HD
ATOM    106  C   UNL A   1      41.319  31.988  31.774  1.00  0.00     0.074 A 
ATOM    107  C   UNL A   1      41.154  32.793  30.565  1.00  0.00    -0.034 C 
ATOM    108  H   UNL A   1      39.440  33.514  29.481  1.00  0.00     0.065 H 
ATOM    109  H   UNL A   1      44.823  29.526  32.434  1.00  0.00     0.065 H 
ATOM    110  C   UNL A   1      42.379  31.265  32.245  1.00  0.00     0.037 A 
ATOM    111  H   UNL A   1      41.940  33.192  30.029  1.00  0.00     0.065 H 
BRANCH  92 112
ATOM    112  C   UNL A   1      44.797  32.585  27.501  1.00  0.00     0.064 A 
ATOM    113  C   UNL A   1      46.003  32.687  26.775  1.00  0.00     0.173 A 
ATOM    114  C   UNL A   1      44.089  33.794  27.672  1.00  0.00     0.173 A 
ATOM    115  F   UNL A   1      46.764  31.604  26.557  1.00  0.00    -0.203 F 
ATOM    116  C   UNL A   1      46.497  33.916  26.329  1.00  0.00     0.198 A 
ATOM    117  C   UNL A   1      44.559  35.010  27.178  1.00  0.00     0.198 A 
ATOM    118  F   UNL A   1      42.979  33.870  28.414  1.00  0.00    -0.203 F 
ATOM    119  F   UNL A   1      47.706  33.978  25.754  1.00  0.00    -0.200 F 
ATOM    120  C   UNL A   1      45.778  35.078  26.537  1.00  0.00     0.200 A 
ATOM    121  F   UNL A   1      43.854  36.128  27.403  1.00  0.00    -0.200 F 
ATOM    122  F   UNL A   1      46.277  36.264  26.167  1.00  0.00    -0.200 F 
ENDBRANCH  92 112
BRANCH  95 123
ATOM    123  C   UNL A   1      36.720  31.967  30.633  1.00  0.00     0.064 A 
ATOM    124  C   UNL A   1      35.860  32.225  31.711  1.00  0.00     0.173 A 
ATOM    125  C   UNL A   1      36.388  32.574  29.405  1.00  0.00     0.173 A 
ATOM    126  F   UNL A   1      36.132  31.721  32.922  1.00  0.00    -0.203 F 
ATOM    127  C   UNL A   1      34.747  33.063  31.574  1.00  0.00     0.198 A 
ATOM    128  C   UNL A   1      35.276  33.406  29.269  1.00  0.00     0.198 A 
ATOM    129  F   UNL A   1      37.192  32.451  28.338  1.00  0.00    -0.203 F 
ATOM    130  F   UNL A   1      33.982  33.336  32.641  1.00  0.00    -0.200 F 
ATOM    131  C   UNL A   1      34.462  33.661  30.358  1.00  0.00     0.200 A 
ATOM    132  F   UNL A   1      35.036  34.011  28.096  1.00  0.00    -0.200 F 
ATOM    133  F   UNL A   1      33.434  34.513  30.243  1.00  0.00    -0.200 F 
ENDBRANCH  95 123
BRANCH 110 134
ATOM    134  C   UNL A   1      42.144  30.355  33.423  1.00  0.00     0.064 A 
ATOM    135  C   UNL A   1      41.833  28.988  33.311  1.00  0.00     0.173 A 
ATOM    136  C   UNL A   1      42.400  30.845  34.709  1.00  0.00     0.173 A 
ATOM    137  F   UNL A   1      41.677  28.414  32.114  1.00  0.00    -0.203 F 
ATOM    138  C   UNL A   1      41.742  28.164  34.432  1.00  0.00     0.198 A 
ATOM    139  C   UNL A   1      42.344  30.014  35.826  1.00  0.00     0.198 A 
ATOM    140  F   UNL A   1      42.761  32.127  34.879  1.00  0.00    -0.203 F 
ATOM    141  F   UNL A   1      41.437  26.866  34.290  1.00  0.00    -0.200 F 
ATOM    142  C   UNL A   1      42.005  28.677  35.688  1.00  0.00     0.200 A 
ATOM    143  F   UNL A   1      42.651  30.503  37.035  1.00  0.00    -0.200 F 
ATOM    144  F   UNL A   1      41.961  27.879  36.764  1.00  0.00    -0.200 F 
ENDBRANCH 110 134
ENDBRANCH  75  78
ENDBRANCH  65  68
ENDBRANCH  61  64
ENDBRANCH  58  61
ENDBRANCH  55  58
ENDBRANCH  52  55
ENDBRANCH   1  52
TORSDOF 19
ENDMDL
MODEL 7
REMARK VINA RESULT:     -12.0      2.991      4.523
REMARK SMILES Cc1c(-c2nn(-c3ccccc3)cc2/C=N/O)nnn1-c1ccc(C(=O)NCCCCCCNC(=O)c2ccc(-c3c4nc(c(-c5c(F)c(F)c(F)c(F)c5F)c5ccc([nH]5)c(-c5c(F)c(F)c(F)c(F)c5F)c5nc(c(-c6c(F)c(F)c(F)c(F)c6F)c6ccc3[nH]6)C=C5)C=C4)cc2)cc1
REMARK SMILES IDX 29 1 28 4 27 7 25 8 26 9 24 11 21 12 22 13 101 14 23 15
REMARK SMILES IDX 100 17 20 21 2 22 3 23 18 24 19 25 1 26 4 30 5 31 14 32 6 33
REMARK SMILES IDX 13 34 15 36 16 37 17 39 7 41 8 42 12 43 9 44 11 46 10 48
REMARK SMILES IDX 30 52 31 55 32 58 33 61 34 64 35 65 36 67 37 68 38 69 99 70
REMARK SMILES IDX 39 71 98 73 40 75 41 78 42 79 92 80 43 81 97 82 91 83 93 84
REMARK SMILES IDX 44 85 96 86 90 88 89 90 45 92 77 95 57 96 76 97 58 98 61 99
REMARK SMILES IDX 75 100 94 101 59 102 60 104 74 106 95 107 62 110 46 112
REMARK SMILES IDX 47 113 55 114 48 115 49 116 53 117 56 118 50 119 51 120
REMARK SMILES IDX 54 121 52 122 78 123 79 124 87 125 80 126 81 127 85 128
REMARK SMILES IDX 88 129 82 130 83 131 86 132 84 133 63 134 64 135 72 136
REMARK SMILES IDX 65 137 66 138 70 139 73 140 67 141 68 142 71 143 69 144
REMARK H PARENT 29 2 29 3 28 5 28 6 27 10 22 16 101 18 23 19 100 20 1 27 1 28
REMARK H PARENT 1 29 13 35 15 38 17 40 8 45 12 47 9 49 11 50 10 51 30 53 30 54
REMARK H PARENT 31 56 31 57 32 59 32 60 33 62 33 63 34 66 38 72 99 74 39 76
REMARK H PARENT 98 77 97 87 91 89 93 91 96 93 90 94 58 103 61 105 94 108
REMARK H PARENT 59 109 95 111
REMARK Flexibility Score: inf
ROOT
ATOM      1  C   UNL A   1      36.302  33.393  29.474  1.00  0.00    -0.036 C 
ATOM      2  H   UNL A   1      36.827  34.276  29.172  1.00  0.00     0.028 H 
ATOM      3  H   UNL A   1      36.956  32.667  29.911  1.00  0.00     0.028 H 
ENDROOT
BRANCH   1   4
ATOM      4  C   UNL A   1      35.672  32.753  28.235  1.00  0.00     0.018 C 
ATOM      5  H   UNL A   1      36.238  33.026  27.369  1.00  0.00     0.049 H 
ATOM      6  H   UNL A   1      35.676  31.689  28.349  1.00  0.00     0.049 H 
BRANCH   4   7
ATOM      7  N   UNL A   1      34.308  33.210  28.082  1.00  0.00    -0.352 N 
ATOM      8  C   UNL A   1      33.156  32.629  27.624  1.00  0.00     0.251 C 
ATOM      9  O   UNL A   1      32.153  33.344  27.589  1.00  0.00    -0.269 OA
ATOM     10  H   UNL A   1      34.180  34.144  28.369  1.00  0.00     0.163 HD
BRANCH   8  11
ATOM     11  C   UNL A   1      33.033  31.192  27.242  1.00  0.00     0.039 A 
ATOM     12  C   UNL A   1      32.509  28.520  26.552  1.00  0.00     0.067 A 
ATOM     13  C   UNL A   1      31.691  29.534  26.053  1.00  0.00    -0.036 A 
ATOM     14  C   UNL A   1      33.629  28.835  27.326  1.00  0.00    -0.036 A 
ATOM     15  C   UNL A   1      31.933  30.855  26.432  1.00  0.00    -0.047 A 
ATOM     16  H   UNL A   1      30.914  29.309  25.411  1.00  0.00     0.065 H 
ATOM     17  C   UNL A   1      33.918  30.175  27.611  1.00  0.00    -0.047 A 
ATOM     18  H   UNL A   1      34.238  28.085  27.687  1.00  0.00     0.065 H 
ATOM     19  H   UNL A   1      31.294  31.599  26.111  1.00  0.00     0.063 H 
ATOM     20  H   UNL A   1      34.796  30.415  28.097  1.00  0.00     0.063 H 
BRANCH  12  21
ATOM     21  N   UNL A   1      32.227  27.179  26.224  1.00  0.00    -0.217 N 
ATOM     22  C   UNL A   1      32.807  26.382  25.258  1.00  0.00     0.071 A 
ATOM     23  C   UNL A   1      31.996  25.264  25.253  1.00  0.00     0.137 A 
ATOM     24  N   UNL A   1      31.061  25.352  26.242  1.00  0.00    -0.128 NA
ATOM     25  N   UNL A   1      31.263  26.496  26.884  1.00  0.00    -0.061 NA
BRANCH  22  26
ATOM     26  C   UNL A   1      34.069  26.686  24.545  1.00  0.00    -0.020 C 
ATOM     27  H   UNL A   1      34.833  26.010  24.868  1.00  0.00     0.030 H 
ATOM     28  H   UNL A   1      34.368  27.691  24.762  1.00  0.00     0.030 H 
ATOM     29  H   UNL A   1      33.919  26.579  23.492  1.00  0.00     0.030 H 
ENDBRANCH  22  26
BRANCH  23  30
ATOM     30  C   UNL A   1      32.117  24.061  24.443  1.00  0.00     0.124 A 
ATOM     31  N   UNL A   1      32.081  22.843  24.991  1.00  0.00    -0.165 NA
ATOM     32  C   UNL A   1      32.304  24.023  23.043  1.00  0.00     0.044 A 
ATOM     33  N   UNL A   1      32.340  22.003  23.967  1.00  0.00    -0.240 N 
ATOM     34  C   UNL A   1      32.482  22.678  22.775  1.00  0.00     0.040 A 
ATOM     35  H   UNL A   1      32.685  22.259  21.854  1.00  0.00     0.085 H 
BRANCH  32  36
ATOM     36  C   UNL A   1      32.320  25.071  22.053  1.00  0.00     0.077 C 
ATOM     37  N   UNL A   1      33.339  25.209  21.271  1.00  0.00    -0.097 NA
ATOM     38  H   UNL A   1      31.515  25.712  21.969  1.00  0.00     0.088 H 
BRANCH  37  39
ATOM     39  O   UNL A   1      33.129  26.306  20.428  1.00  0.00    -0.411 OA
ATOM     40  H   UNL A   1      33.655  27.075  20.519  1.00  0.00     0.330 HD
ENDBRANCH  37  39
ENDBRANCH  32  36
BRANCH  33  41
ATOM     41  C   UNL A   1      32.477  20.615  24.194  1.00  0.00     0.065 A 
ATOM     42  C   UNL A   1      32.316  19.729  23.120  1.00  0.00    -0.036 A 
ATOM     43  C   UNL A   1      32.735  20.127  25.480  1.00  0.00    -0.036 A 
ATOM     44  C   UNL A   1      32.435  18.356  23.330  1.00  0.00    -0.060 A 
ATOM     45  H   UNL A   1      32.111  20.093  22.176  1.00  0.00     0.065 H 
ATOM     46  C   UNL A   1      32.800  18.748  25.690  1.00  0.00    -0.060 A 
ATOM     47  H   UNL A   1      32.876  20.781  26.266  1.00  0.00     0.065 H 
ATOM     48  C   UNL A   1      32.660  17.866  24.616  1.00  0.00    -0.062 A 
ATOM     49  H   UNL A   1      32.354  17.703  22.535  1.00  0.00     0.062 H 
ATOM     50  H   UNL A   1      32.951  18.379  26.641  1.00  0.00     0.062 H 
ATOM     51  H   UNL A   1      32.726  16.849  24.775  1.00  0.00     0.062 H 
ENDBRANCH  33  41
ENDBRANCH  23  30
ENDBRANCH  12  21
ENDBRANCH   8  11
ENDBRANCH   4   7
ENDBRANCH   1   4
BRANCH   1  52
ATOM     52  C   UNL A   1      35.271  33.781  30.544  1.00  0.00    -0.052 C 
ATOM     53  H   UNL A   1      34.411  34.177  30.045  1.00  0.00     0.027 H 
ATOM     54  H   UNL A   1      35.761  34.485  31.183  1.00  0.00     0.027 H 
BRANCH  52  55
ATOM     55  C   UNL A   1      34.801  32.636  31.460  1.00  0.00    -0.052 C 
ATOM     56  H   UNL A   1      35.659  32.051  31.716  1.00  0.00     0.027 H 
ATOM     57  H   UNL A   1      34.059  32.107  30.898  1.00  0.00     0.027 H 
BRANCH  55  58
ATOM     58  C   UNL A   1      34.108  33.051  32.767  1.00  0.00    -0.036 C 
ATOM     59  H   UNL A   1      34.374  32.349  33.530  1.00  0.00     0.028 H 
ATOM     60  H   UNL A   1      33.055  33.060  32.579  1.00  0.00     0.028 H 
BRANCH  58  61
ATOM     61  C   UNL A   1      34.497  34.442  33.234  1.00  0.00     0.018 C 
ATOM     62  H   UNL A   1      33.662  35.097  33.094  1.00  0.00     0.049 H 
ATOM     63  H   UNL A   1      35.341  34.756  32.657  1.00  0.00     0.049 H 
BRANCH  61  64
ATOM     64  N   UNL A   1      34.885  34.469  34.650  1.00  0.00    -0.352 N 
ATOM     65  C   UNL A   1      35.972  33.868  35.254  1.00  0.00     0.251 C 
ATOM     66  H   UNL A   1      34.292  34.981  35.246  1.00  0.00     0.163 HD
ATOM     67  O   UNL A   1      36.005  33.668  36.466  1.00  0.00    -0.269 OA
BRANCH  65  68
ATOM     68  C   UNL A   1      37.109  33.487  34.408  1.00  0.00     0.039 A 
ATOM     69  C   UNL A   1      38.081  34.397  33.980  1.00  0.00    -0.049 A 
ATOM     70  C   UNL A   1      37.204  32.140  34.093  1.00  0.00    -0.049 A 
ATOM     71  C   UNL A   1      39.183  33.910  33.281  1.00  0.00    -0.053 A 
ATOM     72  H   UNL A   1      37.984  35.405  34.177  1.00  0.00     0.063 H 
ATOM     73  C   UNL A   1      38.392  31.644  33.654  1.00  0.00    -0.053 A 
ATOM     74  H   UNL A   1      36.384  31.522  34.188  1.00  0.00     0.063 H 
ATOM     75  C   UNL A   1      39.327  32.524  33.130  1.00  0.00    -0.014 A 
ATOM     76  H   UNL A   1      39.881  34.558  32.883  1.00  0.00     0.063 H 
ATOM     77  H   UNL A   1      38.594  30.633  33.711  1.00  0.00     0.063 H 
BRANCH  75  78
ATOM     78  C   UNL A   1      40.441  31.916  32.424  1.00  0.00     0.031 A 
ATOM     79  C   UNL A   1      41.635  31.600  33.251  1.00  0.00     0.074 A 
ATOM     80  C   UNL A   1      40.272  31.427  31.175  1.00  0.00     0.049 A 
ATOM     81  N   UNL A   1      42.840  32.041  33.107  1.00  0.00    -0.248 NA
ATOM     82  C   UNL A   1      41.449  30.760  34.445  1.00  0.00    -0.034 C 
ATOM     83  C   UNL A   1      39.044  31.363  30.362  1.00  0.00    -0.036 A 
ATOM     84  N   UNL A   1      41.162  30.757  30.402  1.00  0.00    -0.354 N 
ATOM     85  C   UNL A   1      43.606  31.419  34.092  1.00  0.00     0.074 A 
ATOM     86  C   UNL A   1      42.675  30.765  34.972  1.00  0.00    -0.034 C 
ATOM     87  H   UNL A   1      40.595  30.290  34.785  1.00  0.00     0.065 H 
ATOM     88  C   UNL A   1      39.214  30.494  29.343  1.00  0.00    -0.036 A 
ATOM     89  H   UNL A   1      38.184  31.903  30.545  1.00  0.00     0.065 H 
ATOM     90  C   UNL A   1      40.605  30.093  29.317  1.00  0.00     0.049 A 
ATOM     91  H   UNL A   1      42.128  30.744  30.594  1.00  0.00     0.167 HD
ATOM     92  C   UNL A   1      44.961  31.329  33.983  1.00  0.00     0.037 A 
ATOM     93  H   UNL A   1      42.922  30.355  35.887  1.00  0.00     0.065 H 
ATOM     94  H   UNL A   1      38.479  30.171  28.695  1.00  0.00     0.065 H 
ATOM     95  C   UNL A   1      41.252  29.246  28.482  1.00  0.00     0.037 A 
ATOM     96  C   UNL A   1      45.461  32.243  32.987  1.00  0.00     0.049 A 
ATOM     97  C   UNL A   1      42.706  29.518  28.634  1.00  0.00     0.074 A 
ATOM     98  C   UNL A   1      45.462  33.618  32.856  1.00  0.00    -0.036 A 
ATOM     99  N   UNL A   1      45.717  31.753  31.729  1.00  0.00    -0.354 N 
ATOM    100  N   UNL A   1      43.270  30.639  28.277  1.00  0.00    -0.248 NA
ATOM    101  C   UNL A   1      43.430  28.743  29.631  1.00  0.00    -0.034 C 
ATOM    102  C   UNL A   1      45.206  33.855  31.472  1.00  0.00    -0.036 A 
ATOM    103  H   UNL A   1      45.615  34.321  33.596  1.00  0.00     0.065 H 
ATOM    104  C   UNL A   1      45.138  32.617  30.832  1.00  0.00     0.049 A 
ATOM    105  H   UNL A   1      46.221  30.936  31.511  1.00  0.00     0.167 HD
ATOM    106  C   UNL A   1      44.185  30.915  29.284  1.00  0.00     0.074 A 
ATOM    107  C   UNL A   1      44.290  29.674  30.052  1.00  0.00    -0.034 C 
ATOM    108  H   UNL A   1      43.313  27.760  29.926  1.00  0.00     0.065 H 
ATOM    109  H   UNL A   1      45.091  34.777  31.025  1.00  0.00     0.065 H 
ATOM    110  C   UNL A   1      44.548  32.198  29.580  1.00  0.00     0.037 A 
ATOM    111  H   UNL A   1      44.952  29.535  30.831  1.00  0.00     0.065 H 
BRANCH  92 112
ATOM    112  C   UNL A   1      45.807  30.211  34.537  1.00  0.00     0.064 A 
ATOM    113  C   UNL A   1      46.856  30.515  35.430  1.00  0.00     0.173 A 
ATOM    114  C   UNL A   1      45.818  28.899  34.015  1.00  0.00     0.173 A 
ATOM    115  F   UNL A   1      46.952  31.734  35.982  1.00  0.00    -0.203 F 
ATOM    116  C   UNL A   1      47.878  29.604  35.711  1.00  0.00     0.198 A 
ATOM    117  C   UNL A   1      46.809  27.975  34.340  1.00  0.00     0.198 A 
ATOM    118  F   UNL A   1      44.942  28.494  33.088  1.00  0.00    -0.203 F 
ATOM    119  F   UNL A   1      48.917  29.982  36.467  1.00  0.00    -0.200 F 
ATOM    120  C   UNL A   1      47.857  28.336  35.160  1.00  0.00     0.200 A 
ATOM    121  F   UNL A   1      46.779  26.755  33.784  1.00  0.00    -0.200 F 
ATOM    122  F   UNL A   1      48.865  27.482  35.378  1.00  0.00    -0.200 F 
ENDBRANCH  92 112
BRANCH  95 123
ATOM    123  C   UNL A   1      40.718  28.021  27.847  1.00  0.00     0.064 A 
ATOM    124  C   UNL A   1      41.145  27.616  26.574  1.00  0.00     0.173 A 
ATOM    125  C   UNL A   1      39.981  27.078  28.593  1.00  0.00     0.173 A 
ATOM    126  F   UNL A   1      41.890  28.438  25.823  1.00  0.00    -0.203 F 
ATOM    127  C   UNL A   1      40.873  26.333  26.085  1.00  0.00     0.198 A 
ATOM    128  C   UNL A   1      39.706  25.801  28.101  1.00  0.00     0.198 A 
ATOM    129  F   UNL A   1      39.597  27.344  29.850  1.00  0.00    -0.203 F 
ATOM    130  F   UNL A   1      41.349  25.960  24.889  1.00  0.00    -0.200 F 
ATOM    131  C   UNL A   1      40.163  25.424  26.852  1.00  0.00     0.200 A 
ATOM    132  F   UNL A   1      39.054  24.918  28.872  1.00  0.00    -0.200 F 
ATOM    133  F   UNL A   1      39.959  24.175  26.410  1.00  0.00    -0.200 F 
ENDBRANCH  95 123
BRANCH 110 134
ATOM    134  C   UNL A   1      44.090  33.292  28.651  1.00  0.00     0.064 A 
ATOM    135  C   UNL A   1      42.942  34.078  28.866  1.00  0.00     0.173 A 
ATOM    136  C   UNL A   1      44.927  33.666  27.593  1.00  0.00     0.173 A 
ATOM    137  F   UNL A   1      42.144  33.858  29.914  1.00  0.00    -0.203 F 
ATOM    138  C   UNL A   1      42.629  35.155  28.038  1.00  0.00     0.198 A 
ATOM    139  C   UNL A   1      44.632  34.764  26.788  1.00  0.00     0.198 A 
ATOM    140  F   UNL A   1      46.068  32.995  27.372  1.00  0.00    -0.203 F 
ATOM    141  F   UNL A   1      41.523  35.879  28.267  1.00  0.00    -0.200 F 
ATOM    142  C   UNL A   1      43.479  35.502  27.004  1.00  0.00     0.200 A 
ATOM    143  F   UNL A   1      45.486  35.128  25.821  1.00  0.00    -0.200 F 
ATOM    144  F   UNL A   1      43.203  36.563  26.234  1.00  0.00    -0.200 F 
ENDBRANCH 110 134
ENDBRANCH  75  78
ENDBRANCH  65  68
ENDBRANCH  61  64
ENDBRANCH  58  61
ENDBRANCH  55  58
ENDBRANCH  52  55
ENDBRANCH   1  52
TORSDOF 19
ENDMDL
MODEL 8
REMARK VINA RESULT:     -11.9      1.992      2.879
REMARK SMILES Cc1c(-c2nn(-c3ccccc3)cc2/C=N/O)nnn1-c1ccc(C(=O)NCCCCCCNC(=O)c2ccc(-c3c4nc(c(-c5c(F)c(F)c(F)c(F)c5F)c5ccc([nH]5)c(-c5c(F)c(F)c(F)c(F)c5F)c5nc(c(-c6c(F)c(F)c(F)c(F)c6F)c6ccc3[nH]6)C=C5)C=C4)cc2)cc1
REMARK SMILES IDX 29 1 28 4 27 7 25 8 26 9 24 11 21 12 22 13 101 14 23 15
REMARK SMILES IDX 100 17 20 21 2 22 3 23 18 24 19 25 1 26 4 30 5 31 14 32 6 33
REMARK SMILES IDX 13 34 15 36 16 37 17 39 7 41 8 42 12 43 9 44 11 46 10 48
REMARK SMILES IDX 30 52 31 55 32 58 33 61 34 64 35 65 36 67 37 68 38 69 99 70
REMARK SMILES IDX 39 71 98 73 40 75 41 78 42 79 92 80 43 81 97 82 91 83 93 84
REMARK SMILES IDX 44 85 96 86 90 88 89 90 45 92 77 95 57 96 76 97 58 98 61 99
REMARK SMILES IDX 75 100 94 101 59 102 60 104 74 106 95 107 62 110 46 112
REMARK SMILES IDX 47 113 55 114 48 115 49 116 53 117 56 118 50 119 51 120
REMARK SMILES IDX 54 121 52 122 78 123 79 124 87 125 80 126 81 127 85 128
REMARK SMILES IDX 88 129 82 130 83 131 86 132 84 133 63 134 64 135 72 136
REMARK SMILES IDX 65 137 66 138 70 139 73 140 67 141 68 142 71 143 69 144
REMARK H PARENT 29 2 29 3 28 5 28 6 27 10 22 16 101 18 23 19 100 20 1 27 1 28
REMARK H PARENT 1 29 13 35 15 38 17 40 8 45 12 47 9 49 11 50 10 51 30 53 30 54
REMARK H PARENT 31 56 31 57 32 59 32 60 33 62 33 63 34 66 38 72 99 74 39 76
REMARK H PARENT 98 77 97 87 91 89 93 91 96 93 90 94 58 103 61 105 94 108
REMARK H PARENT 59 109 95 111
REMARK Flexibility Score: inf
ROOT
ATOM      1  C   UNL A   1      36.909  30.840  27.981  1.00  0.00    -0.036 C 
ATOM      2  H   UNL A   1      36.595  31.597  27.293  1.00  0.00     0.028 H 
ATOM      3  H   UNL A   1      37.567  30.129  27.524  1.00  0.00     0.028 H 
ENDROOT
BRANCH   1   4
ATOM      4  C   UNL A   1      35.674  30.075  28.460  1.00  0.00     0.018 C 
ATOM      5  H   UNL A   1      35.671  29.097  28.023  1.00  0.00     0.049 H 
ATOM      6  H   UNL A   1      35.702  29.994  29.526  1.00  0.00     0.049 H 
BRANCH   4   7
ATOM      7  N   UNL A   1      34.472  30.779  28.066  1.00  0.00    -0.352 N 
ATOM      8  C   UNL A   1      33.359  30.432  27.350  1.00  0.00     0.251 C 
ATOM      9  O   UNL A   1      32.525  31.319  27.162  1.00  0.00    -0.269 OA
ATOM     10  H   UNL A   1      34.451  31.712  28.383  1.00  0.00     0.163 HD
BRANCH   8  11
ATOM     11  C   UNL A   1      33.070  29.054  26.858  1.00  0.00     0.039 A 
ATOM     12  C   UNL A   1      32.440  26.395  26.205  1.00  0.00     0.067 A 
ATOM     13  C   UNL A   1      31.594  27.117  27.047  1.00  0.00    -0.036 A 
ATOM     14  C   UNL A   1      33.552  27.012  25.626  1.00  0.00    -0.036 A 
ATOM     15  C   UNL A   1      31.934  28.424  27.398  1.00  0.00    -0.047 A 
ATOM     16  H   UNL A   1      30.727  26.688  27.407  1.00  0.00     0.065 H 
ATOM     17  C   UNL A   1      33.821  28.357  25.906  1.00  0.00    -0.047 A 
ATOM     18  H   UNL A   1      34.171  26.480  24.995  1.00  0.00     0.065 H 
ATOM     19  H   UNL A   1      31.341  28.939  28.067  1.00  0.00     0.063 H 
ATOM     20  H   UNL A   1      34.582  28.840  25.404  1.00  0.00     0.063 H 
BRANCH  12  21
ATOM     21  N   UNL A   1      32.134  25.053  25.901  1.00  0.00    -0.217 N 
ATOM     22  C   UNL A   1      32.863  24.142  25.164  1.00  0.00     0.071 A 
ATOM     23  C   UNL A   1      31.985  23.086  25.025  1.00  0.00     0.137 A 
ATOM     24  N   UNL A   1      30.846  23.317  25.738  1.00  0.00    -0.128 NA
ATOM     25  N   UNL A   1      30.981  24.494  26.338  1.00  0.00    -0.061 NA
BRANCH  22  26
ATOM     26  C   UNL A   1      34.284  24.301  24.776  1.00  0.00    -0.020 C 
ATOM     27  H   UNL A   1      34.548  25.338  24.804  1.00  0.00     0.030 H 
ATOM     28  H   UNL A   1      34.426  23.924  23.784  1.00  0.00     0.030 H 
ATOM     29  H   UNL A   1      34.903  23.756  25.456  1.00  0.00     0.030 H 
ENDBRANCH  22  26
BRANCH  23  30
ATOM     30  C   UNL A   1      32.198  21.814  24.348  1.00  0.00     0.124 A 
ATOM     31  N   UNL A   1      32.277  20.666  25.028  1.00  0.00    -0.165 NA
ATOM     32  C   UNL A   1      32.367  21.637  22.957  1.00  0.00     0.044 A 
ATOM     33  N   UNL A   1      32.592  19.743  24.095  1.00  0.00    -0.240 N 
ATOM     34  C   UNL A   1      32.658  20.290  22.834  1.00  0.00     0.040 A 
ATOM     35  H   UNL A   1      32.883  19.791  21.959  1.00  0.00     0.085 H 
BRANCH  32  36
ATOM     36  C   UNL A   1      32.278  22.566  21.858  1.00  0.00     0.077 C 
ATOM     37  N   UNL A   1      33.279  23.330  21.571  1.00  0.00    -0.097 NA
ATOM     38  H   UNL A   1      31.412  22.620  21.299  1.00  0.00     0.088 H 
BRANCH  37  39
ATOM     39  O   UNL A   1      32.937  24.156  20.494  1.00  0.00    -0.411 OA
ATOM     40  H   UNL A   1      32.225  23.922  19.932  1.00  0.00     0.330 HD
ENDBRANCH  37  39
ENDBRANCH  32  36
BRANCH  33  41
ATOM     41  C   UNL A   1      32.853  18.406  24.470  1.00  0.00     0.065 A 
ATOM     42  C   UNL A   1      33.411  17.530  23.527  1.00  0.00    -0.036 A 
ATOM     43  C   UNL A   1      32.528  17.949  25.752  1.00  0.00    -0.036 A 
ATOM     44  C   UNL A   1      33.661  16.204  23.877  1.00  0.00    -0.060 A 
ATOM     45  H   UNL A   1      33.635  17.867  22.578  1.00  0.00     0.065 H 
ATOM     46  C   UNL A   1      32.734  16.607  26.075  1.00  0.00    -0.060 A 
ATOM     47  H   UNL A   1      32.138  18.599  26.452  1.00  0.00     0.065 H 
ATOM     48  C   UNL A   1      33.309  15.740  25.143  1.00  0.00    -0.062 A 
ATOM     49  H   UNL A   1      34.107  15.567  23.198  1.00  0.00     0.062 H 
ATOM     50  H   UNL A   1      32.460  16.254  27.004  1.00  0.00     0.062 H 
ATOM     51  H   UNL A   1      33.474  14.752  25.394  1.00  0.00     0.062 H 
ENDBRANCH  33  41
ENDBRANCH  23  30
ENDBRANCH  12  21
ENDBRANCH   8  11
ENDBRANCH   4   7
ENDBRANCH   1   4
BRANCH   1  52
ATOM     52  C   UNL A   1      37.685  31.511  29.124  1.00  0.00    -0.052 C 
ATOM     53  H   UNL A   1      38.696  31.163  29.084  1.00  0.00     0.027 H 
ATOM     54  H   UNL A   1      37.172  31.244  30.024  1.00  0.00     0.027 H 
BRANCH  52  55
ATOM     55  C   UNL A   1      37.711  33.050  29.093  1.00  0.00    -0.052 C 
ATOM     56  H   UNL A   1      37.673  33.357  28.070  1.00  0.00     0.027 H 
ATOM     57  H   UNL A   1      38.610  33.331  29.604  1.00  0.00     0.027 H 
BRANCH  55  58
ATOM     58  C   UNL A   1      36.574  33.765  29.841  1.00  0.00    -0.036 C 
ATOM     59  H   UNL A   1      35.959  34.266  29.123  1.00  0.00     0.028 H 
ATOM     60  H   UNL A   1      37.026  34.448  30.529  1.00  0.00     0.028 H 
BRANCH  58  61
ATOM     61  C   UNL A   1      35.703  32.819  30.648  1.00  0.00     0.018 C 
ATOM     62  H   UNL A   1      36.096  31.828  30.556  1.00  0.00     0.049 H 
ATOM     63  H   UNL A   1      34.708  32.882  30.261  1.00  0.00     0.049 H 
BRANCH  61  64
ATOM     64  N   UNL A   1      35.656  33.179  32.071  1.00  0.00    -0.352 N 
ATOM     65  C   UNL A   1      36.200  32.505  33.146  1.00  0.00     0.251 C 
ATOM     66  H   UNL A   1      35.172  34.009  32.286  1.00  0.00     0.163 HD
ATOM     67  O   UNL A   1      35.810  32.703  34.294  1.00  0.00    -0.269 OA
BRANCH  65  68
ATOM     68  C   UNL A   1      37.282  31.548  32.885  1.00  0.00     0.039 A 
ATOM     69  C   UNL A   1      37.053  30.223  32.501  1.00  0.00    -0.049 A 
ATOM     70  C   UNL A   1      38.571  32.050  32.987  1.00  0.00    -0.049 A 
ATOM     71  C   UNL A   1      38.149  29.432  32.162  1.00  0.00    -0.053 A 
ATOM     72  H   UNL A   1      36.096  29.839  32.470  1.00  0.00     0.063 H 
ATOM     73  C   UNL A   1      39.596  31.368  32.406  1.00  0.00    -0.053 A 
ATOM     74  H   UNL A   1      38.751  32.927  33.498  1.00  0.00     0.063 H 
ATOM     75  C   UNL A   1      39.418  30.024  32.114  1.00  0.00    -0.014 A 
ATOM     76  H   UNL A   1      38.028  28.430  31.948  1.00  0.00     0.063 H 
ATOM     77  H   UNL A   1      40.486  31.843  32.187  1.00  0.00     0.063 H 
BRANCH  75  78
ATOM     78  C   UNL A   1      40.623  29.290  31.767  1.00  0.00     0.031 A 
ATOM     79  C   UNL A   1      41.446  28.821  32.913  1.00  0.00     0.074 A 
ATOM     80  C   UNL A   1      40.806  28.837  30.507  1.00  0.00     0.049 A 
ATOM     81  N   UNL A   1      42.676  29.112  33.178  1.00  0.00    -0.248 NA
ATOM     82  C   UNL A   1      40.794  27.999  33.945  1.00  0.00    -0.034 C 
ATOM     83  C   UNL A   1      39.903  28.933  29.346  1.00  0.00    -0.036 A 
ATOM     84  N   UNL A   1      41.814  28.070  30.023  1.00  0.00    -0.354 N 
ATOM     85  C   UNL A   1      43.011  28.390  34.322  1.00  0.00     0.074 A 
ATOM     86  C   UNL A   1      41.780  27.848  34.831  1.00  0.00    -0.034 C 
ATOM     87  H   UNL A   1      39.829  27.635  33.975  1.00  0.00     0.065 H 
ATOM     88  C   UNL A   1      40.289  28.059  28.392  1.00  0.00    -0.036 A 
ATOM     89  H   UNL A   1      39.097  29.573  29.274  1.00  0.00     0.065 H 
ATOM     90  C   UNL A   1      41.560  27.489  28.787  1.00  0.00     0.049 A 
ATOM     91  H   UNL A   1      42.660  27.936  30.509  1.00  0.00     0.167 HD
ATOM     92  C   UNL A   1      44.311  28.135  34.643  1.00  0.00     0.037 A 
ATOM     93  H   UNL A   1      41.673  27.402  35.757  1.00  0.00     0.065 H 
ATOM     94  H   UNL A   1      39.768  27.835  27.530  1.00  0.00     0.065 H 
ATOM     95  C   UNL A   1      42.339  26.578  28.158  1.00  0.00     0.037 A 
ATOM     96  C   UNL A   1      45.203  28.990  33.901  1.00  0.00     0.049 A 
ATOM     97  C   UNL A   1      43.689  26.666  28.775  1.00  0.00     0.074 A 
ATOM     98  C   UNL A   1      45.402  30.355  33.844  1.00  0.00    -0.036 A 
ATOM     99  N   UNL A   1      45.789  28.484  32.766  1.00  0.00    -0.354 N 
ATOM    100  N   UNL A   1      44.462  27.712  28.669  1.00  0.00    -0.248 NA
ATOM    101  C   UNL A   1      43.964  25.798  29.911  1.00  0.00    -0.034 C 
ATOM    102  C   UNL A   1      45.630  30.634  32.463  1.00  0.00    -0.036 A 
ATOM    103  H   UNL A   1      45.391  31.027  34.627  1.00  0.00     0.065 H 
ATOM    104  C   UNL A   1      45.630  29.421  31.775  1.00  0.00     0.049 A 
ATOM    105  H   UNL A   1      46.240  27.612  32.679  1.00  0.00     0.167 HD
ATOM    106  C   UNL A   1      45.033  27.864  29.925  1.00  0.00     0.074 A 
ATOM    107  C   UNL A   1      44.745  26.612  30.626  1.00  0.00    -0.034 C 
ATOM    108  H   UNL A   1      43.648  24.835  30.106  1.00  0.00     0.065 H 
ATOM    109  H   UNL A   1      45.770  31.568  32.047  1.00  0.00     0.065 H 
ATOM    110  C   UNL A   1      45.426  29.090  30.382  1.00  0.00     0.037 A 
ATOM    111  H   UNL A   1      45.103  26.385  31.566  1.00  0.00     0.065 H 
BRANCH  92 112
ATOM    112  C   UNL A   1      44.802  26.915  35.380  1.00  0.00     0.064 A 
ATOM    113  C   UNL A   1      45.577  27.081  36.548  1.00  0.00     0.173 A 
ATOM    114  C   UNL A   1      44.790  25.611  34.842  1.00  0.00     0.173 A 
ATOM    115  F   UNL A   1      45.671  28.279  37.144  1.00  0.00    -0.203 F 
ATOM    116  C   UNL A   1      46.343  26.040  37.082  1.00  0.00     0.198 A 
ATOM    117  C   UNL A   1      45.511  24.562  35.410  1.00  0.00     0.198 A 
ATOM    118  F   UNL A   1      44.174  25.323  33.689  1.00  0.00    -0.203 F 
ATOM    119  F   UNL A   1      47.159  26.277  38.118  1.00  0.00    -0.200 F 
ATOM    120  C   UNL A   1      46.314  24.782  36.508  1.00  0.00     0.200 A 
ATOM    121  F   UNL A   1      45.481  23.353  34.829  1.00  0.00    -0.200 F 
ATOM    122  F   UNL A   1      47.092  23.800  36.979  1.00  0.00    -0.200 F 
ENDBRANCH  92 112
BRANCH  95 123
ATOM    123  C   UNL A   1      41.899  25.433  27.330  1.00  0.00     0.064 A 
ATOM    124  C   UNL A   1      42.662  24.990  26.239  1.00  0.00     0.173 A 
ATOM    125  C   UNL A   1      40.860  24.582  27.758  1.00  0.00     0.173 A 
ATOM    126  F   UNL A   1      43.696  25.722  25.802  1.00  0.00    -0.203 F 
ATOM    127  C   UNL A   1      42.415  23.756  25.627  1.00  0.00     0.198 A 
ATOM    128  C   UNL A   1      40.613  23.353  27.144  1.00  0.00     0.198 A 
ATOM    129  F   UNL A   1      40.128  24.882  28.841  1.00  0.00    -0.203 F 
ATOM    130  F   UNL A   1      43.203  23.338  24.626  1.00  0.00    -0.200 F 
ATOM    131  C   UNL A   1      41.399  22.934  26.086  1.00  0.00     0.200 A 
ATOM    132  F   UNL A   1      39.653  22.550  27.626  1.00  0.00    -0.200 F 
ATOM    133  F   UNL A   1      41.205  21.725  25.543  1.00  0.00    -0.200 F 
ENDBRANCH  95 123
BRANCH 110 134
ATOM    134  C   UNL A   1      45.416  30.241  29.410  1.00  0.00     0.064 A 
ATOM    135  C   UNL A   1      44.355  31.156  29.285  1.00  0.00     0.173 A 
ATOM    136  C   UNL A   1      46.586  30.522  28.693  1.00  0.00     0.173 A 
ATOM    137  F   UNL A   1      43.242  31.023  30.012  1.00  0.00    -0.203 F 
ATOM    138  C   UNL A   1      44.447  32.272  28.454  1.00  0.00     0.198 A 
ATOM    139  C   UNL A   1      46.690  31.655  27.891  1.00  0.00     0.198 A 
ATOM    140  F   UNL A   1      47.655  29.720  28.816  1.00  0.00    -0.203 F 
ATOM    141  F   UNL A   1      43.414  33.122  28.353  1.00  0.00    -0.200 F 
ATOM    142  C   UNL A   1      45.618  32.525  27.764  1.00  0.00     0.200 A 
ATOM    143  F   UNL A   1      47.844  31.924  27.266  1.00  0.00    -0.200 F 
ATOM    144  F   UNL A   1      45.725  33.620  26.998  1.00  0.00    -0.200 F 
ENDBRANCH 110 134
ENDBRANCH  75  78
ENDBRANCH  65  68
ENDBRANCH  61  64
ENDBRANCH  58  61
ENDBRANCH  55  58
ENDBRANCH  52  55
ENDBRANCH   1  52
TORSDOF 19
ENDMDL
MODEL 9
REMARK VINA RESULT:     -11.8      2.527      3.904
REMARK SMILES Cc1c(-c2nn(-c3ccccc3)cc2/C=N/O)nnn1-c1ccc(C(=O)NCCCCCCNC(=O)c2ccc(-c3c4nc(c(-c5c(F)c(F)c(F)c(F)c5F)c5ccc([nH]5)c(-c5c(F)c(F)c(F)c(F)c5F)c5nc(c(-c6c(F)c(F)c(F)c(F)c6F)c6ccc3[nH]6)C=C5)C=C4)cc2)cc1
REMARK SMILES IDX 29 1 28 4 27 7 25 8 26 9 24 11 21 12 22 13 101 14 23 15
REMARK SMILES IDX 100 17 20 21 2 22 3 23 18 24 19 25 1 26 4 30 5 31 14 32 6 33
REMARK SMILES IDX 13 34 15 36 16 37 17 39 7 41 8 42 12 43 9 44 11 46 10 48
REMARK SMILES IDX 30 52 31 55 32 58 33 61 34 64 35 65 36 67 37 68 38 69 99 70
REMARK SMILES IDX 39 71 98 73 40 75 41 78 42 79 92 80 43 81 97 82 91 83 93 84
REMARK SMILES IDX 44 85 96 86 90 88 89 90 45 92 77 95 57 96 76 97 58 98 61 99
REMARK SMILES IDX 75 100 94 101 59 102 60 104 74 106 95 107 62 110 46 112
REMARK SMILES IDX 47 113 55 114 48 115 49 116 53 117 56 118 50 119 51 120
REMARK SMILES IDX 54 121 52 122 78 123 79 124 87 125 80 126 81 127 85 128
REMARK SMILES IDX 88 129 82 130 83 131 86 132 84 133 63 134 64 135 72 136
REMARK SMILES IDX 65 137 66 138 70 139 73 140 67 141 68 142 71 143 69 144
REMARK H PARENT 29 2 29 3 28 5 28 6 27 10 22 16 101 18 23 19 100 20 1 27 1 28
REMARK H PARENT 1 29 13 35 15 38 17 40 8 45 12 47 9 49 11 50 10 51 30 53 30 54
REMARK H PARENT 31 56 31 57 32 59 32 60 33 62 33 63 34 66 38 72 99 74 39 76
REMARK H PARENT 98 77 97 87 91 89 93 91 96 93 90 94 58 103 61 105 94 108
REMARK H PARENT 59 109 95 111
REMARK Flexibility Score: inf
ROOT
ATOM      1  C   UNL A   1      36.062  33.815  29.141  1.00  0.00    -0.036 C 
ATOM      2  H   UNL A   1      35.509  34.730  29.163  1.00  0.00     0.028 H 
ATOM      3  H   UNL A   1      37.067  33.960  28.805  1.00  0.00     0.028 H 
ENDROOT
BRANCH   1   4
ATOM      4  C   UNL A   1      35.384  32.861  28.155  1.00  0.00     0.018 C 
ATOM      5  H   UNL A   1      35.925  32.864  27.231  1.00  0.00     0.049 H 
ATOM      6  H   UNL A   1      35.380  31.873  28.567  1.00  0.00     0.049 H 
BRANCH   4   7
ATOM      7  N   UNL A   1      34.021  33.283  27.915  1.00  0.00    -0.352 N 
ATOM      8  C   UNL A   1      32.908  32.663  27.416  1.00  0.00     0.251 C 
ATOM      9  O   UNL A   1      31.894  33.354  27.306  1.00  0.00    -0.269 OA
ATOM     10  H   UNL A   1      33.859  34.222  28.165  1.00  0.00     0.163 HD
BRANCH   8  11
ATOM     11  C   UNL A   1      32.834  31.213  27.075  1.00  0.00     0.039 A 
ATOM     12  C   UNL A   1      32.402  28.509  26.448  1.00  0.00     0.067 A 
ATOM     13  C   UNL A   1      31.582  29.486  25.883  1.00  0.00    -0.036 A 
ATOM     14  C   UNL A   1      33.480  28.874  27.258  1.00  0.00    -0.036 A 
ATOM     15  C   UNL A   1      31.778  30.824  26.230  1.00  0.00    -0.047 A 
ATOM     16  H   UNL A   1      30.839  29.223  25.217  1.00  0.00     0.065 H 
ATOM     17  C   UNL A   1      33.726  30.229  27.512  1.00  0.00    -0.047 A 
ATOM     18  H   UNL A   1      34.091  28.151  27.667  1.00  0.00     0.065 H 
ATOM     19  H   UNL A   1      31.136  31.541  25.860  1.00  0.00     0.063 H 
ATOM     20  H   UNL A   1      34.576  30.505  28.028  1.00  0.00     0.063 H 
BRANCH  12  21
ATOM     21  N   UNL A   1      32.166  27.151  26.151  1.00  0.00    -0.217 N 
ATOM     22  C   UNL A   1      32.723  26.371  25.158  1.00  0.00     0.071 A 
ATOM     23  C   UNL A   1      31.968  25.216  25.215  1.00  0.00     0.137 A 
ATOM     24  N   UNL A   1      31.093  25.271  26.258  1.00  0.00    -0.128 NA
ATOM     25  N   UNL A   1      31.278  26.431  26.876  1.00  0.00    -0.061 NA
BRANCH  22  26
ATOM     26  C   UNL A   1      33.923  26.726  24.366  1.00  0.00    -0.020 C 
ATOM     27  H   UNL A   1      33.625  27.267  23.491  1.00  0.00     0.030 H 
ATOM     28  H   UNL A   1      34.435  25.833  24.074  1.00  0.00     0.030 H 
ATOM     29  H   UNL A   1      34.574  27.334  24.956  1.00  0.00     0.030 H 
ENDBRANCH  22  26
BRANCH  23  30
ATOM     30  C   UNL A   1      32.097  24.010  24.409  1.00  0.00     0.124 A 
ATOM     31  N   UNL A   1      32.054  22.793  24.962  1.00  0.00    -0.165 NA
ATOM     32  C   UNL A   1      32.300  23.967  23.012  1.00  0.00     0.044 A 
ATOM     33  N   UNL A   1      32.323  21.950  23.943  1.00  0.00    -0.240 N 
ATOM     34  C   UNL A   1      32.480  22.620  22.751  1.00  0.00     0.040 A 
ATOM     35  H   UNL A   1      32.693  22.198  21.833  1.00  0.00     0.085 H 
BRANCH  32  36
ATOM     36  C   UNL A   1      32.330  25.011  22.019  1.00  0.00     0.077 C 
ATOM     37  N   UNL A   1      33.278  25.047  21.143  1.00  0.00    -0.097 NA
ATOM     38  H   UNL A   1      31.590  25.732  22.008  1.00  0.00     0.088 H 
BRANCH  37  39
ATOM     39  O   UNL A   1      33.102  26.163  20.317  1.00  0.00    -0.411 OA
ATOM     40  H   UNL A   1      33.844  26.575  19.921  1.00  0.00     0.330 HD
ENDBRANCH  37  39
ENDBRANCH  32  36
BRANCH  33  41
ATOM     41  C   UNL A   1      32.456  20.563  24.177  1.00  0.00     0.065 A 
ATOM     42  C   UNL A   1      32.755  20.115  25.472  1.00  0.00    -0.036 A 
ATOM     43  C   UNL A   1      32.326  19.648  23.126  1.00  0.00    -0.036 A 
ATOM     44  C   UNL A   1      32.903  18.751  25.717  1.00  0.00    -0.060 A 
ATOM     45  H   UNL A   1      32.865  20.795  26.241  1.00  0.00     0.065 H 
ATOM     46  C   UNL A   1      32.528  18.288  23.371  1.00  0.00    -0.060 A 
ATOM     47  H   UNL A   1      32.084  19.976  22.178  1.00  0.00     0.065 H 
ATOM     48  C   UNL A   1      32.805  17.841  24.665  1.00  0.00    -0.062 A 
ATOM     49  H   UNL A   1      33.085  18.416  26.675  1.00  0.00     0.062 H 
ATOM     50  H   UNL A   1      32.473  17.612  22.595  1.00  0.00     0.062 H 
ATOM     51  H   UNL A   1      32.937  16.833  24.843  1.00  0.00     0.062 H 
ENDBRANCH  33  41
ENDBRANCH  23  30
ENDBRANCH  12  21
ENDBRANCH   8  11
ENDBRANCH   4   7
ENDBRANCH   1   4
BRANCH   1  52
ATOM     52  C   UNL A   1      36.134  33.255  30.570  1.00  0.00    -0.052 C 
ATOM     53  H   UNL A   1      36.650  33.969  31.178  1.00  0.00     0.027 H 
ATOM     54  H   UNL A   1      36.636  32.313  30.491  1.00  0.00     0.027 H 
BRANCH  52  55
ATOM     55  C   UNL A   1      34.778  32.957  31.236  1.00  0.00    -0.052 C 
ATOM     56  H   UNL A   1      34.940  32.213  31.987  1.00  0.00     0.027 H 
ATOM     57  H   UNL A   1      34.131  32.647  30.440  1.00  0.00     0.027 H 
BRANCH  55  58
ATOM     58  C   UNL A   1      34.070  34.148  31.900  1.00  0.00    -0.036 C 
ATOM     59  H   UNL A   1      33.411  33.774  32.654  1.00  0.00     0.028 H 
ATOM     60  H   UNL A   1      33.544  34.674  31.131  1.00  0.00     0.028 H 
BRANCH  58  61
ATOM     61  C   UNL A   1      35.032  35.132  32.543  1.00  0.00     0.018 C 
ATOM     62  H   UNL A   1      34.714  36.126  32.308  1.00  0.00     0.049 H 
ATOM     63  H   UNL A   1      36.009  34.932  32.157  1.00  0.00     0.049 H 
BRANCH  61  64
ATOM     64  N   UNL A   1      35.087  34.986  34.003  1.00  0.00    -0.352 N 
ATOM     65  C   UNL A   1      35.820  34.086  34.750  1.00  0.00     0.251 C 
ATOM     66  H   UNL A   1      34.526  35.612  34.516  1.00  0.00     0.163 HD
ATOM     67  O   UNL A   1      35.528  33.828  35.916  1.00  0.00    -0.269 OA
BRANCH  65  68
ATOM     68  C   UNL A   1      36.982  33.449  34.118  1.00  0.00     0.039 A 
ATOM     69  C   UNL A   1      38.148  34.146  33.789  1.00  0.00    -0.049 A 
ATOM     70  C   UNL A   1      36.884  32.081  33.911  1.00  0.00    -0.049 A 
ATOM     71  C   UNL A   1      39.237  33.424  33.303  1.00  0.00    -0.053 A 
ATOM     72  H   UNL A   1      38.203  35.170  33.902  1.00  0.00     0.063 H 
ATOM     73  C   UNL A   1      38.017  31.360  33.696  1.00  0.00    -0.053 A 
ATOM     74  H   UNL A   1      35.963  31.617  33.918  1.00  0.00     0.063 H 
ATOM     75  C   UNL A   1      39.156  32.025  33.268  1.00  0.00    -0.014 A 
ATOM     76  H   UNL A   1      40.087  33.910  32.977  1.00  0.00     0.063 H 
ATOM     77  H   UNL A   1      38.029  30.339  33.850  1.00  0.00     0.063 H 
BRANCH  75  78
ATOM     78  C   UNL A   1      40.236  31.181  32.785  1.00  0.00     0.031 A 
ATOM     79  C   UNL A   1      41.096  30.571  33.833  1.00  0.00     0.074 A 
ATOM     80  C   UNL A   1      40.259  30.773  31.497  1.00  0.00     0.049 A 
ATOM     81  N   UNL A   1      42.369  30.713  33.997  1.00  0.00    -0.248 NA
ATOM     82  C   UNL A   1      40.446  29.776  34.888  1.00  0.00    -0.034 C 
ATOM     83  C   UNL A   1      39.277  31.023  30.427  1.00  0.00    -0.036 A 
ATOM     84  N   UNL A   1      41.129  29.925  30.895  1.00  0.00    -0.354 N 
ATOM     85  C   UNL A   1      42.717  29.905  35.078  1.00  0.00     0.074 A 
ATOM     86  C   UNL A   1      41.481  29.476  35.675  1.00  0.00    -0.034 C 
ATOM     87  H   UNL A   1      39.452  29.518  34.991  1.00  0.00     0.065 H 
ATOM     88  C   UNL A   1      39.479  30.159  29.409  1.00  0.00    -0.036 A 
ATOM     89  H   UNL A   1      38.545  31.749  30.453  1.00  0.00     0.065 H 
ATOM     90  C   UNL A   1      40.707  29.436  29.666  1.00  0.00     0.049 A 
ATOM     91  H   UNL A   1      41.993  29.676  31.298  1.00  0.00     0.167 HD
ATOM     92  C   UNL A   1      44.003  29.495  35.271  1.00  0.00     0.037 A 
ATOM     93  H   UNL A   1      41.404  29.000  36.588  1.00  0.00     0.065 H 
ATOM     94  H   UNL A   1      38.864  30.035  28.590  1.00  0.00     0.065 H 
ATOM     95  C   UNL A   1      41.321  28.477  28.935  1.00  0.00     0.037 A 
ATOM     96  C   UNL A   1      44.919  30.282  34.484  1.00  0.00     0.049 A 
ATOM     97  C   UNL A   1      42.720  28.387  29.430  1.00  0.00     0.074 A 
ATOM     98  C   UNL A   1      45.265  31.619  34.462  1.00  0.00    -0.036 A 
ATOM     99  N   UNL A   1      45.345  29.771  33.282  1.00  0.00    -0.354 N 
ATOM    100  N   UNL A   1      43.594  29.347  29.295  1.00  0.00    -0.248 NA
ATOM    101  C   UNL A   1      42.992  27.441  30.502  1.00  0.00    -0.034 C 
ATOM    102  C   UNL A   1      45.404  31.938  33.078  1.00  0.00    -0.036 A 
ATOM    103  H   UNL A   1      45.396  32.249  35.268  1.00  0.00     0.065 H 
ATOM    104  C   UNL A   1      45.208  30.766  32.346  1.00  0.00     0.049 A 
ATOM    105  H   UNL A   1      45.686  28.861  33.121  1.00  0.00     0.167 HD
ATOM    106  C   UNL A   1      44.284  29.375  30.499  1.00  0.00     0.074 A 
ATOM    107  C   UNL A   1      43.917  28.130  31.174  1.00  0.00    -0.034 C 
ATOM    108  H   UNL A   1      42.587  26.510  30.687  1.00  0.00     0.065 H 
ATOM    109  H   UNL A   1      45.612  32.870  32.688  1.00  0.00     0.065 H 
ATOM    110  C   UNL A   1      44.850  30.527  30.966  1.00  0.00     0.037 A 
ATOM    111  H   UNL A   1      44.327  27.820  32.069  1.00  0.00     0.065 H 
BRANCH  92 112
ATOM    112  C   UNL A   1      44.415  28.194  35.913  1.00  0.00     0.064 A 
ATOM    113  C   UNL A   1      44.045  26.977  35.304  1.00  0.00     0.173 A 
ATOM    114  C   UNL A   1      44.904  28.087  37.233  1.00  0.00     0.173 A 
ATOM    115  F   UNL A   1      43.559  26.956  34.054  1.00  0.00    -0.203 F 
ATOM    116  C   UNL A   1      44.085  25.761  35.993  1.00  0.00     0.198 A 
ATOM    117  C   UNL A   1      44.994  26.866  37.898  1.00  0.00     0.198 A 
ATOM    118  F   UNL A   1      45.207  29.163  37.968  1.00  0.00    -0.203 F 
ATOM    119  F   UNL A   1      43.607  24.651  35.415  1.00  0.00    -0.200 F 
ATOM    120  C   UNL A   1      44.553  25.709  37.293  1.00  0.00     0.200 A 
ATOM    121  F   UNL A   1      45.437  26.838  39.164  1.00  0.00    -0.200 F 
ATOM    122  F   UNL A   1      44.536  24.558  37.978  1.00  0.00    -0.200 F 
ENDBRANCH  92 112
BRANCH  95 123
ATOM    123  C   UNL A   1      40.686  27.428  28.106  1.00  0.00     0.064 A 
ATOM    124  C   UNL A   1      41.178  27.112  26.831  1.00  0.00     0.173 A 
ATOM    125  C   UNL A   1      39.752  26.529  28.659  1.00  0.00     0.173 A 
ATOM    126  F   UNL A   1      42.103  27.893  26.256  1.00  0.00    -0.203 F 
ATOM    127  C   UNL A   1      40.778  25.952  26.159  1.00  0.00     0.198 A 
ATOM    128  C   UNL A   1      39.351  25.374  27.986  1.00  0.00     0.198 A 
ATOM    129  F   UNL A   1      39.285  26.704  29.905  1.00  0.00    -0.203 F 
ATOM    130  F   UNL A   1      41.315  25.651  24.968  1.00  0.00    -0.200 F 
ATOM    131  C   UNL A   1      39.874  25.079  26.741  1.00  0.00     0.200 A 
ATOM    132  F   UNL A   1      38.507  24.518  28.580  1.00  0.00    -0.200 F 
ATOM    133  F   UNL A   1      39.540  23.936  26.126  1.00  0.00    -0.200 F 
ENDBRANCH  95 123
BRANCH 110 134
ATOM    134  C   UNL A   1      44.887  31.718  30.043  1.00  0.00     0.064 A 
ATOM    135  C   UNL A   1      45.854  31.905  29.039  1.00  0.00     0.173 A 
ATOM    136  C   UNL A   1      43.816  32.619  30.070  1.00  0.00     0.173 A 
ATOM    137  F   UNL A   1      46.853  31.033  28.874  1.00  0.00    -0.203 F 
ATOM    138  C   UNL A   1      45.775  32.964  28.136  1.00  0.00     0.198 A 
ATOM    139  C   UNL A   1      43.718  33.656  29.145  1.00  0.00     0.198 A 
ATOM    140  F   UNL A   1      42.829  32.460  30.965  1.00  0.00    -0.203 F 
ATOM    141  F   UNL A   1      46.717  33.117  27.194  1.00  0.00    -0.200 F 
ATOM    142  C   UNL A   1      44.701  33.834  28.185  1.00  0.00     0.200 A 
ATOM    143  F   UNL A   1      42.649  34.464  29.163  1.00  0.00    -0.200 F 
ATOM    144  F   UNL A   1      44.599  34.827  27.290  1.00  0.00    -0.200 F 
ENDBRANCH 110 134
ENDBRANCH  75  78
ENDBRANCH  65  68
ENDBRANCH  61  64
ENDBRANCH  58  61
ENDBRANCH  55  58
ENDBRANCH  52  55
ENDBRANCH   1  52
TORSDOF 19
ENDMDL
MODEL 10
REMARK VINA RESULT:     -11.8      5.341     12.731
REMARK SMILES Cc1c(-c2nn(-c3ccccc3)cc2/C=N/O)nnn1-c1ccc(C(=O)NCCCCCCNC(=O)c2ccc(-c3c4nc(c(-c5c(F)c(F)c(F)c(F)c5F)c5ccc([nH]5)c(-c5c(F)c(F)c(F)c(F)c5F)c5nc(c(-c6c(F)c(F)c(F)c(F)c6F)c6ccc3[nH]6)C=C5)C=C4)cc2)cc1
REMARK SMILES IDX 29 1 28 4 27 7 25 8 26 9 24 11 21 12 22 13 101 14 23 15
REMARK SMILES IDX 100 17 20 21 2 22 3 23 18 24 19 25 1 26 4 30 5 31 14 32 6 33
REMARK SMILES IDX 13 34 15 36 16 37 17 39 7 41 8 42 12 43 9 44 11 46 10 48
REMARK SMILES IDX 30 52 31 55 32 58 33 61 34 64 35 65 36 67 37 68 38 69 99 70
REMARK SMILES IDX 39 71 98 73 40 75 41 78 42 79 92 80 43 81 97 82 91 83 93 84
REMARK SMILES IDX 44 85 96 86 90 88 89 90 45 92 77 95 57 96 76 97 58 98 61 99
REMARK SMILES IDX 75 100 94 101 59 102 60 104 74 106 95 107 62 110 46 112
REMARK SMILES IDX 47 113 55 114 48 115 49 116 53 117 56 118 50 119 51 120
REMARK SMILES IDX 54 121 52 122 78 123 79 124 87 125 80 126 81 127 85 128
REMARK SMILES IDX 88 129 82 130 83 131 86 132 84 133 63 134 64 135 72 136
REMARK SMILES IDX 65 137 66 138 70 139 73 140 67 141 68 142 71 143 69 144
REMARK H PARENT 29 2 29 3 28 5 28 6 27 10 22 16 101 18 23 19 100 20 1 27 1 28
REMARK H PARENT 1 29 13 35 15 38 17 40 8 45 12 47 9 49 11 50 10 51 30 53 30 54
REMARK H PARENT 31 56 31 57 32 59 32 60 33 62 33 63 34 66 38 72 99 74 39 76
REMARK H PARENT 98 77 97 87 91 89 93 91 96 93 90 94 58 103 61 105 94 108
REMARK H PARENT 59 109 95 111
REMARK Flexibility Score: inf
ROOT
ATOM      1  C   UNL A   1      44.262  24.654  28.999  1.00  0.00    -0.036 C 
ATOM      2  H   UNL A   1      43.387  24.133  29.326  1.00  0.00     0.028 H 
ATOM      3  H   UNL A   1      45.159  24.218  29.387  1.00  0.00     0.028 H 
ENDROOT
BRANCH   1   4
ATOM      4  C   UNL A   1      44.194  26.092  29.517  1.00  0.00     0.018 C 
ATOM      5  H   UNL A   1      44.101  26.764  28.688  1.00  0.00     0.049 H 
ATOM      6  H   UNL A   1      43.346  26.194  30.161  1.00  0.00     0.049 H 
BRANCH   4   7
ATOM      7  N   UNL A   1      45.396  26.409  30.258  1.00  0.00    -0.352 N 
ATOM      8  C   UNL A   1      46.702  26.617  29.905  1.00  0.00     0.251 C 
ATOM      9  O   UNL A   1      47.495  26.829  30.824  1.00  0.00    -0.269 OA
ATOM     10  H   UNL A   1      45.241  26.492  31.227  1.00  0.00     0.163 HD
BRANCH   8  11
ATOM     11  C   UNL A   1      47.196  26.675  28.499  1.00  0.00     0.039 A 
ATOM     12  C   UNL A   1      47.909  26.973  25.798  1.00  0.00     0.067 A 
ATOM     13  C   UNL A   1      47.533  28.094  26.539  1.00  0.00    -0.036 A 
ATOM     14  C   UNL A   1      48.007  25.722  26.412  1.00  0.00    -0.036 A 
ATOM     15  C   UNL A   1      47.143  27.932  27.869  1.00  0.00    -0.047 A 
ATOM     16  H   UNL A   1      47.543  29.032  26.109  1.00  0.00     0.065 H 
ATOM     17  C   UNL A   1      47.712  25.595  27.775  1.00  0.00    -0.047 A 
ATOM     18  H   UNL A   1      48.295  24.896  25.864  1.00  0.00     0.065 H 
ATOM     19  H   UNL A   1      46.808  28.750  28.402  1.00  0.00     0.063 H 
ATOM     20  H   UNL A   1      47.878  24.695  28.251  1.00  0.00     0.063 H 
BRANCH  12  21
ATOM     21  N   UNL A   1      48.241  27.125  24.437  1.00  0.00    -0.217 N 
ATOM     22  C   UNL A   1      49.467  26.973  23.821  1.00  0.00     0.071 A 
ATOM     23  C   UNL A   1      49.232  27.449  22.546  1.00  0.00     0.137 A 
ATOM     24  N   UNL A   1      47.913  27.756  22.389  1.00  0.00    -0.128 NA
ATOM     25  N   UNL A   1      47.298  27.477  23.532  1.00  0.00    -0.061 NA
BRANCH  22  26
ATOM     26  C   UNL A   1      50.653  26.324  24.427  1.00  0.00    -0.020 C 
ATOM     27  H   UNL A   1      51.542  26.727  23.990  1.00  0.00     0.030 H 
ATOM     28  H   UNL A   1      50.614  25.270  24.247  1.00  0.00     0.030 H 
ATOM     29  H   UNL A   1      50.659  26.506  25.481  1.00  0.00     0.030 H 
ENDBRANCH  22  26
BRANCH  23  30
ATOM     30  C   UNL A   1      50.157  27.529  21.424  1.00  0.00     0.124 A 
ATOM     31  N   UNL A   1      50.115  26.648  20.420  1.00  0.00    -0.165 NA
ATOM     32  C   UNL A   1      51.186  28.485  21.269  1.00  0.00     0.044 A 
ATOM     33  N   UNL A   1      51.177  26.965  19.649  1.00  0.00    -0.240 N 
ATOM     34  C   UNL A   1      51.849  28.066  20.129  1.00  0.00     0.040 A 
ATOM     35  H   UNL A   1      52.691  28.499  19.718  1.00  0.00     0.085 H 
BRANCH  32  36
ATOM     36  C   UNL A   1      51.538  29.644  22.050  1.00  0.00     0.077 C 
ATOM     37  N   UNL A   1      51.306  30.829  21.592  1.00  0.00    -0.097 NA
ATOM     38  H   UNL A   1      51.977  29.526  22.977  1.00  0.00     0.088 H 
BRANCH  37  39
ATOM     39  O   UNL A   1      51.763  31.778  22.515  1.00  0.00    -0.411 OA
ATOM     40  H   UNL A   1      51.169  32.407  22.874  1.00  0.00     0.330 HD
ENDBRANCH  37  39
ENDBRANCH  32  36
BRANCH  33  41
ATOM     41  C   UNL A   1      51.509  26.173  18.527  1.00  0.00     0.065 A 
ATOM     42  C   UNL A   1      51.990  26.799  17.368  1.00  0.00    -0.036 A 
ATOM     43  C   UNL A   1      51.327  24.786  18.556  1.00  0.00    -0.036 A 
ATOM     44  C   UNL A   1      52.309  26.034  16.248  1.00  0.00    -0.060 A 
ATOM     45  H   UNL A   1      52.108  27.825  17.346  1.00  0.00     0.065 H 
ATOM     46  C   UNL A   1      51.600  24.034  17.411  1.00  0.00    -0.060 A 
ATOM     47  H   UNL A   1      50.994  24.323  19.416  1.00  0.00     0.065 H 
ATOM     48  C   UNL A   1      52.100  24.656  16.265  1.00  0.00    -0.062 A 
ATOM     49  H   UNL A   1      52.699  26.487  15.408  1.00  0.00     0.062 H 
ATOM     50  H   UNL A   1      51.432  23.017  17.412  1.00  0.00     0.062 H 
ATOM     51  H   UNL A   1      52.315  24.092  15.427  1.00  0.00     0.062 H 
ENDBRANCH  33  41
ENDBRANCH  23  30
ENDBRANCH  12  21
ENDBRANCH   8  11
ENDBRANCH   4   7
ENDBRANCH   1   4
BRANCH   1  52
ATOM     52  C   UNL A   1      44.338  24.566  27.467  1.00  0.00    -0.052 C 
ATOM     53  H   UNL A   1      45.087  25.255  27.135  1.00  0.00     0.027 H 
ATOM     54  H   UNL A   1      43.355  24.793  27.111  1.00  0.00     0.027 H 
BRANCH  52  55
ATOM     55  C   UNL A   1      44.684  23.178  26.898  1.00  0.00    -0.052 C 
ATOM     56  H   UNL A   1      45.382  22.717  27.565  1.00  0.00     0.027 H 
ATOM     57  H   UNL A   1      45.067  23.360  25.915  1.00  0.00     0.027 H 
BRANCH  55  58
ATOM     58  C   UNL A   1      43.507  22.208  26.708  1.00  0.00    -0.036 C 
ATOM     59  H   UNL A   1      42.895  22.241  27.585  1.00  0.00     0.028 H 
ATOM     60  H   UNL A   1      43.920  21.236  26.541  1.00  0.00     0.028 H 
BRANCH  58  61
ATOM     61  C   UNL A   1      42.644  22.546  25.504  1.00  0.00     0.018 C 
ATOM     62  H   UNL A   1      43.019  22.016  24.653  1.00  0.00     0.049 H 
ATOM     63  H   UNL A   1      42.689  23.604  25.357  1.00  0.00     0.049 H 
BRANCH  61  64
ATOM     64  N   UNL A   1      41.236  22.179  25.706  1.00  0.00    -0.352 N 
ATOM     65  C   UNL A   1      40.294  22.795  26.505  1.00  0.00     0.251 C 
ATOM     66  H   UNL A   1      40.924  21.390  25.206  1.00  0.00     0.163 HD
ATOM     67  O   UNL A   1      39.272  22.213  26.862  1.00  0.00    -0.269 OA
BRANCH  65  68
ATOM     68  C   UNL A   1      40.534  24.186  26.910  1.00  0.00     0.039 A 
ATOM     69  C   UNL A   1      40.477  25.260  26.018  1.00  0.00    -0.049 A 
ATOM     70  C   UNL A   1      40.772  24.391  28.261  1.00  0.00    -0.049 A 
ATOM     71  C   UNL A   1      40.603  26.552  26.526  1.00  0.00    -0.053 A 
ATOM     72  H   UNL A   1      40.346  25.103  25.006  1.00  0.00     0.063 H 
ATOM     73  C   UNL A   1      40.626  25.641  28.778  1.00  0.00    -0.053 A 
ATOM     74  H   UNL A   1      41.057  23.605  28.866  1.00  0.00     0.063 H 
ATOM     75  C   UNL A   1      40.671  26.725  27.915  1.00  0.00    -0.014 A 
ATOM     76  H   UNL A   1      40.642  27.365  25.892  1.00  0.00     0.063 H 
ATOM     77  H   UNL A   1      40.483  25.778  29.791  1.00  0.00     0.063 H 
BRANCH  75  78
ATOM     78  C   UNL A   1      40.797  28.028  28.545  1.00  0.00     0.031 A 
ATOM     79  C   UNL A   1      41.911  28.880  28.052  1.00  0.00     0.074 A 
ATOM     80  C   UNL A   1      39.796  28.514  29.313  1.00  0.00     0.049 A 
ATOM     81  N   UNL A   1      42.902  29.359  28.726  1.00  0.00    -0.248 NA
ATOM     82  C   UNL A   1      41.986  29.156  26.608  1.00  0.00    -0.034 C 
ATOM     83  C   UNL A   1      38.481  27.919  29.609  1.00  0.00    -0.036 A 
ATOM     84  N   UNL A   1      39.700  29.729  29.906  1.00  0.00    -0.354 N 
ATOM     85  C   UNL A   1      43.646  30.130  27.835  1.00  0.00     0.074 A 
ATOM     86  C   UNL A   1      43.124  29.847  26.524  1.00  0.00    -0.034 C 
ATOM     87  H   UNL A   1      41.329  28.888  25.858  1.00  0.00     0.065 H 
ATOM     88  C   UNL A   1      37.653  28.862  30.106  1.00  0.00    -0.036 A 
ATOM     89  H   UNL A   1      38.231  26.929  29.457  1.00  0.00     0.065 H 
ATOM     90  C   UNL A   1      38.425  30.064  30.343  1.00  0.00     0.049 A 
ATOM     91  H   UNL A   1      40.474  30.328  30.019  1.00  0.00     0.167 HD
ATOM     92  C   UNL A   1      44.503  31.094  28.276  1.00  0.00     0.037 A 
ATOM     93  H   UNL A   1      43.570  30.138  25.640  1.00  0.00     0.065 H 
ATOM     94  H   UNL A   1      36.643  28.747  30.285  1.00  0.00     0.065 H 
ATOM     95  C   UNL A   1      38.039  31.264  30.836  1.00  0.00     0.037 A 
ATOM     96  C   UNL A   1      44.788  30.928  29.679  1.00  0.00     0.049 A 
ATOM     97  C   UNL A   1      39.275  31.975  31.255  1.00  0.00     0.074 A 
ATOM     98  C   UNL A   1      45.391  29.937  30.429  1.00  0.00    -0.036 A 
ATOM     99  N   UNL A   1      44.082  31.691  30.578  1.00  0.00    -0.354 N 
ATOM    100  N   UNL A   1      40.036  31.579  32.238  1.00  0.00    -0.248 NA
ATOM    101  C   UNL A   1      39.922  32.830  30.270  1.00  0.00    -0.034 C 
ATOM    102  C   UNL A   1      44.613  29.856  31.622  1.00  0.00    -0.036 A 
ATOM    103  H   UNL A   1      46.222  29.378  30.181  1.00  0.00     0.065 H 
ATOM    104  C   UNL A   1      43.632  30.847  31.563  1.00  0.00     0.049 A 
ATOM    105  H   UNL A   1      43.928  32.663  30.526  1.00  0.00     0.167 HD
ATOM    106  C   UNL A   1      41.334  31.778  31.790  1.00  0.00     0.074 A 
ATOM    107  C   UNL A   1      41.199  32.619  30.600  1.00  0.00    -0.034 C 
ATOM    108  H   UNL A   1      39.513  33.426  29.533  1.00  0.00     0.065 H 
ATOM    109  H   UNL A   1      44.750  29.183  32.392  1.00  0.00     0.065 H 
ATOM    110  C   UNL A   1      42.367  31.009  32.244  1.00  0.00     0.037 A 
ATOM    111  H   UNL A   1      41.999  33.004  30.076  1.00  0.00     0.065 H 
BRANCH  92 112
ATOM    112  C   UNL A   1      44.840  32.364  27.538  1.00  0.00     0.064 A 
ATOM    113  C   UNL A   1      46.070  32.459  26.853  1.00  0.00     0.173 A 
ATOM    114  C   UNL A   1      44.146  33.582  27.707  1.00  0.00     0.173 A 
ATOM    115  F   UNL A   1      46.822  31.369  26.642  1.00  0.00    -0.203 F 
ATOM    116  C   UNL A   1      46.598  33.688  26.446  1.00  0.00     0.198 A 
ATOM    117  C   UNL A   1      44.650  34.798  27.250  1.00  0.00     0.198 A 
ATOM    118  F   UNL A   1      43.013  33.662  28.414  1.00  0.00    -0.203 F 
ATOM    119  F   UNL A   1      47.826  33.741  25.912  1.00  0.00    -0.200 F 
ATOM    120  C   UNL A   1      45.890  34.858  26.652  1.00  0.00     0.200 A 
ATOM    121  F   UNL A   1      43.955  35.923  27.472  1.00  0.00    -0.200 F 
ATOM    122  F   UNL A   1      46.419  36.042  26.318  1.00  0.00    -0.200 F 
ENDBRANCH  92 112
BRANCH  95 123
ATOM    123  C   UNL A   1      36.739  31.944  30.641  1.00  0.00     0.064 A 
ATOM    124  C   UNL A   1      35.861  32.154  31.715  1.00  0.00     0.173 A 
ATOM    125  C   UNL A   1      36.453  32.640  29.450  1.00  0.00     0.173 A 
ATOM    126  F   UNL A   1      36.091  31.563  32.896  1.00  0.00    -0.203 F 
ATOM    127  C   UNL A   1      34.774  33.030  31.611  1.00  0.00     0.198 A 
ATOM    128  C   UNL A   1      35.367  33.511  29.346  1.00  0.00     0.198 A 
ATOM    129  F   UNL A   1      37.278  32.565  28.395  1.00  0.00    -0.203 F 
ATOM    130  F   UNL A   1      33.992  33.253  32.676  1.00  0.00    -0.200 F 
ATOM    131  C   UNL A   1      34.535  33.715  30.431  1.00  0.00     0.200 A 
ATOM    132  F   UNL A   1      35.172  34.198  28.211  1.00  0.00    -0.200 F 
ATOM    133  F   UNL A   1      33.533  34.602  30.352  1.00  0.00    -0.200 F 
ENDBRANCH  95 123
BRANCH 110 134
ATOM    134  C   UNL A   1      42.098  30.078  33.398  1.00  0.00     0.064 A 
ATOM    135  C   UNL A   1      41.694  28.738  33.250  1.00  0.00     0.173 A 
ATOM    136  C   UNL A   1      42.415  30.507  34.692  1.00  0.00     0.173 A 
ATOM    137  F   UNL A   1      41.473  28.215  32.041  1.00  0.00    -0.203 F 
ATOM    138  C   UNL A   1      41.574  27.886  34.347  1.00  0.00     0.198 A 
ATOM    139  C   UNL A   1      42.329  29.645  35.783  1.00  0.00     0.198 A 
ATOM    140  F   UNL A   1      42.865  31.755  34.893  1.00  0.00    -0.203 F 
ATOM    141  F   UNL A   1      41.179  26.616  34.172  1.00  0.00    -0.200 F 
ATOM    142  C   UNL A   1      41.899  28.339  35.612  1.00  0.00     0.200 A 
ATOM    143  F   UNL A   1      42.696  30.073  36.999  1.00  0.00    -0.200 F 
ATOM    144  F   UNL A   1      41.826  27.509  36.663  1.00  0.00    -0.200 F 
ENDBRANCH 110 134
ENDBRANCH  75  78
ENDBRANCH  65  68
ENDBRANCH  61  64
ENDBRANCH  58  61
ENDBRANCH  55  58
ENDBRANCH  52  55
ENDBRANCH   1  52
TORSDOF 19
ENDMDL
