MODEL 1
REMARK VINA RESULT:     -11.0      0.000      0.000
REMARK SMILES O=C(NCCCCCCNC(=O)[C@H]1C[C@](O)(c2ccccc2Cl)[C@@H](c2ccccc2Cl)O1)c1ccc(-c2c3nc(c(-c4c(F)c(F)c(F)c(F)c4F)c4ccc([nH]4)c(-c4c(F)c(F)c(F)c(F)c4F)c4nc(c(-c5c(F)c(F)c(F)c(F)c5F)c5ccc2[nH]5)C=C4)C=C3)cc1
REMARK SMILES IDX 6 1 5 4 4 7 3 10 1 11 2 12 33 14 34 15 95 16 35 17 94 19
REMARK SMILES IDX 36 21 37 24 38 25 88 26 39 27 93 28 87 29 89 30 40 31 92 32
REMARK SMILES IDX 86 34 85 36 41 38 73 41 53 42 72 43 54 44 57 45 71 46 90 47
REMARK SMILES IDX 55 48 56 50 70 52 91 53 58 56 42 58 43 59 51 60 44 61 45 62
REMARK SMILES IDX 49 63 52 64 46 65 47 66 50 67 48 68 74 69 75 70 83 71 76 72
REMARK SMILES IDX 77 73 81 74 84 75 78 76 79 77 82 78 80 79 59 80 60 81 68 82
REMARK SMILES IDX 61 83 62 84 66 85 69 86 63 87 64 88 67 89 65 90 7 91 8 94
REMARK SMILES IDX 9 97 10 100 11 101 12 103 13 104 14 105 32 106 15 108 24 111
REMARK SMILES IDX 17 113 18 114 22 115 19 116 21 118 23 119 20 120 16 124
REMARK SMILES IDX 25 126 26 127 30 128 27 129 29 131 31 132 28 133
REMARK H PARENT 6 2 6 3 5 5 5 6 4 8 4 9 3 13 34 18 95 20 35 22 94 23 93 33
REMARK H PARENT 87 35 89 37 92 39 86 40 54 49 57 51 90 54 55 55 91 57 7 92
REMARK H PARENT 7 93 8 95 8 96 9 98 9 99 10 102 13 107 14 109 14 110 24 112
REMARK H PARENT 18 117 19 121 21 122 20 123 16 125 26 130 27 134 29 135 28 136
REMARK Flexibility Score: inf
ROOT
ATOM      1  C   UNL A   1      34.283  35.438  28.584  1.00  0.00    -0.052 C 
ATOM      2  H   UNL A   1      34.082  36.136  27.798  1.00  0.00     0.027 H 
ATOM      3  H   UNL A   1      35.059  35.737  29.258  1.00  0.00     0.027 H 
ENDROOT
BRANCH   1   4
ATOM      4  C   UNL A   1      34.785  34.145  27.939  1.00  0.00    -0.036 C 
ATOM      5  H   UNL A   1      34.311  34.053  26.984  1.00  0.00     0.028 H 
ATOM      6  H   UNL A   1      35.849  34.243  27.895  1.00  0.00     0.028 H 
BRANCH   4   7
ATOM      7  C   UNL A   1      34.524  32.861  28.714  1.00  0.00     0.018 C 
ATOM      8  H   UNL A   1      35.449  32.531  29.140  1.00  0.00     0.049 H 
ATOM      9  H   UNL A   1      33.789  33.091  29.457  1.00  0.00     0.049 H 
BRANCH   7  10
ATOM     10  N   UNL A   1      33.983  31.783  27.907  1.00  0.00    -0.352 N 
ATOM     11  O   UNL A   1      33.964  29.787  26.853  1.00  0.00    -0.269 OA
ATOM     12  C   UNL A   1      34.537  30.557  27.612  1.00  0.00     0.251 C 
ATOM     13  H   UNL A   1      33.096  31.952  27.515  1.00  0.00     0.163 HD
BRANCH  12  14
ATOM     14  C   UNL A   1      35.854  30.188  28.181  1.00  0.00     0.039 A 
ATOM     15  C   UNL A   1      37.034  30.369  27.456  1.00  0.00    -0.049 A 
ATOM     16  C   UNL A   1      35.900  29.638  29.466  1.00  0.00    -0.049 A 
ATOM     17  C   UNL A   1      38.235  29.871  27.953  1.00  0.00    -0.053 A 
ATOM     18  H   UNL A   1      37.016  30.873  26.556  1.00  0.00     0.063 H 
ATOM     19  C   UNL A   1      37.119  29.208  29.997  1.00  0.00    -0.053 A 
ATOM     20  H   UNL A   1      35.034  29.551  30.021  1.00  0.00     0.063 H 
ATOM     21  C   UNL A   1      38.291  29.285  29.229  1.00  0.00    -0.014 A 
ATOM     22  H   UNL A   1      39.091  29.931  27.380  1.00  0.00     0.063 H 
ATOM     23  H   UNL A   1      37.157  28.832  30.957  1.00  0.00     0.063 H 
BRANCH  21  24
ATOM     24  C   UNL A   1      39.589  28.793  29.756  1.00  0.00     0.031 A 
ATOM     25  C   UNL A   1      40.258  29.462  30.924  1.00  0.00     0.074 A 
ATOM     26  C   UNL A   1      40.156  27.715  29.184  1.00  0.00     0.049 A 
ATOM     27  N   UNL A   1      41.381  29.151  31.524  1.00  0.00    -0.248 NA
ATOM     28  C   UNL A   1      39.585  30.642  31.489  1.00  0.00    -0.034 C 
ATOM     29  C   UNL A   1      39.607  26.987  28.038  1.00  0.00    -0.036 A 
ATOM     30  N   UNL A   1      41.306  27.034  29.491  1.00  0.00    -0.354 N 
ATOM     31  C   UNL A   1      41.560  30.105  32.517  1.00  0.00     0.074 A 
ATOM     32  C   UNL A   1      40.443  31.020  32.426  1.00  0.00    -0.034 C 
ATOM     33  H   UNL A   1      38.682  31.064  31.224  1.00  0.00     0.065 H 
ATOM     34  C   UNL A   1      40.395  25.935  27.769  1.00  0.00    -0.036 A 
ATOM     35  H   UNL A   1      38.752  27.242  27.520  1.00  0.00     0.065 H 
ATOM     36  C   UNL A   1      41.529  25.945  28.686  1.00  0.00     0.049 A 
ATOM     37  H   UNL A   1      41.912  27.300  30.220  1.00  0.00     0.167 HD
ATOM     38  C   UNL A   1      42.562  30.201  33.425  1.00  0.00     0.037 A 
ATOM     39  H   UNL A   1      40.329  31.861  33.014  1.00  0.00     0.065 H 
ATOM     40  H   UNL A   1      40.225  25.231  27.033  1.00  0.00     0.065 H 
ATOM     41  C   UNL A   1      42.541  25.058  28.679  1.00  0.00     0.037 A 
ATOM     42  C   UNL A   1      43.663  29.275  33.524  1.00  0.00     0.049 A 
ATOM     43  C   UNL A   1      43.646  25.197  29.685  1.00  0.00     0.074 A 
ATOM     44  C   UNL A   1      44.701  29.260  34.440  1.00  0.00    -0.036 A 
ATOM     45  N   UNL A   1      43.870  28.200  32.670  1.00  0.00    -0.354 N 
ATOM     46  N   UNL A   1      43.783  26.078  30.645  1.00  0.00    -0.248 NA
ATOM     47  C   UNL A   1      44.738  24.219  29.605  1.00  0.00    -0.034 C 
ATOM     48  C   UNL A   1      45.561  28.206  34.113  1.00  0.00    -0.036 A 
ATOM     49  H   UNL A   1      44.821  29.916  35.227  1.00  0.00     0.065 H 
ATOM     50  C   UNL A   1      45.033  27.532  33.023  1.00  0.00     0.049 A 
ATOM     51  H   UNL A   1      43.280  27.951  31.924  1.00  0.00     0.167 HD
ATOM     52  C   UNL A   1      44.963  25.751  31.296  1.00  0.00     0.074 A 
ATOM     53  C   UNL A   1      45.496  24.580  30.630  1.00  0.00    -0.034 C 
ATOM     54  H   UNL A   1      44.878  23.452  28.927  1.00  0.00     0.065 H 
ATOM     55  H   UNL A   1      46.439  27.970  34.600  1.00  0.00     0.065 H 
ATOM     56  C   UNL A   1      45.549  26.366  32.352  1.00  0.00     0.037 A 
ATOM     57  H   UNL A   1      46.356  24.089  30.918  1.00  0.00     0.065 H 
BRANCH  38  58
ATOM     58  C   UNL A   1      42.529  31.365  34.374  1.00  0.00     0.064 A 
ATOM     59  C   UNL A   1      43.213  32.560  34.104  1.00  0.00     0.173 A 
ATOM     60  C   UNL A   1      41.778  31.294  35.557  1.00  0.00     0.173 A 
ATOM     61  F   UNL A   1      43.954  32.677  32.992  1.00  0.00    -0.203 F 
ATOM     62  C   UNL A   1      43.170  33.628  34.997  1.00  0.00     0.198 A 
ATOM     63  C   UNL A   1      41.715  32.373  36.435  1.00  0.00     0.198 A 
ATOM     64  F   UNL A   1      41.098  30.178  35.860  1.00  0.00    -0.203 F 
ATOM     65  F   UNL A   1      43.872  34.741  34.742  1.00  0.00    -0.200 F 
ATOM     66  C   UNL A   1      42.418  33.536  36.159  1.00  0.00     0.200 A 
ATOM     67  F   UNL A   1      40.978  32.287  37.551  1.00  0.00    -0.200 F 
ATOM     68  F   UNL A   1      42.378  34.564  37.017  1.00  0.00    -0.200 F 
ENDBRANCH  38  58
BRANCH  41  69
ATOM     69  C   UNL A   1      42.531  23.948  27.693  1.00  0.00     0.064 A 
ATOM     70  C   UNL A   1      43.050  24.128  26.405  1.00  0.00     0.173 A 
ATOM     71  C   UNL A   1      42.035  22.679  28.029  1.00  0.00     0.173 A 
ATOM     72  F   UNL A   1      43.519  25.329  26.034  1.00  0.00    -0.203 F 
ATOM     73  C   UNL A   1      43.070  23.081  25.486  1.00  0.00     0.198 A 
ATOM     74  C   UNL A   1      42.080  21.627  27.119  1.00  0.00     0.198 A 
ATOM     75  F   UNL A   1      41.533  22.458  29.253  1.00  0.00    -0.203 F 
ATOM     76  F   UNL A   1      43.547  23.286  24.251  1.00  0.00    -0.200 F 
ATOM     77  C   UNL A   1      42.594  21.829  25.847  1.00  0.00     0.200 A 
ATOM     78  F   UNL A   1      41.633  20.415  27.477  1.00  0.00    -0.200 F 
ATOM     79  F   UNL A   1      42.626  20.819  24.968  1.00  0.00    -0.200 F 
ENDBRANCH  41  69
BRANCH  56  80
ATOM     80  C   UNL A   1      46.820  25.761  32.872  1.00  0.00     0.064 A 
ATOM     81  C   UNL A   1      46.814  24.809  33.903  1.00  0.00     0.173 A 
ATOM     82  C   UNL A   1      48.057  26.121  32.317  1.00  0.00     0.173 A 
ATOM     83  F   UNL A   1      45.659  24.445  34.479  1.00  0.00    -0.203 F 
ATOM     84  C   UNL A   1      48.003  24.260  34.376  1.00  0.00     0.198 A 
ATOM     85  C   UNL A   1      49.241  25.551  32.774  1.00  0.00     0.198 A 
ATOM     86  F   UNL A   1      48.115  27.025  31.327  1.00  0.00    -0.203 F 
ATOM     87  F   UNL A   1      47.979  23.390  35.395  1.00  0.00    -0.200 F 
ATOM     88  C   UNL A   1      49.215  24.627  33.808  1.00  0.00     0.200 A 
ATOM     89  F   UNL A   1      50.409  25.900  32.218  1.00  0.00    -0.200 F 
ATOM     90  F   UNL A   1      50.358  24.097  34.264  1.00  0.00    -0.200 F 
ENDBRANCH  56  80
ENDBRANCH  21  24
ENDBRANCH  12  14
ENDBRANCH   7  10
ENDBRANCH   4   7
ENDBRANCH   1   4
BRANCH   1  91
ATOM     91  C   UNL A   1      33.021  35.328  29.444  1.00  0.00    -0.052 C 
ATOM     92  H   UNL A   1      32.965  34.324  29.809  1.00  0.00     0.027 H 
ATOM     93  H   UNL A   1      32.218  35.617  28.799  1.00  0.00     0.027 H 
BRANCH  91  94
ATOM     94  C   UNL A   1      32.920  36.267  30.655  1.00  0.00    -0.036 C 
ATOM     95  H   UNL A   1      31.920  36.646  30.695  1.00  0.00     0.028 H 
ATOM     96  H   UNL A   1      33.663  37.021  30.503  1.00  0.00     0.028 H 
BRANCH  94  97
ATOM     97  C   UNL A   1      33.238  35.633  32.008  1.00  0.00     0.017 C 
ATOM     98  H   UNL A   1      32.356  35.660  32.611  1.00  0.00     0.049 H 
ATOM     99  H   UNL A   1      34.038  36.194  32.442  1.00  0.00     0.049 H 
BRANCH  97 100
ATOM    100  N   UNL A   1      33.683  34.262  31.901  1.00  0.00    -0.354 N 
ATOM    101  C   UNL A   1      34.511  33.507  32.673  1.00  0.00     0.249 C 
ATOM    102  H   UNL A   1      33.317  33.783  31.122  1.00  0.00     0.163 HD
ATOM    103  O   UNL A   1      34.630  32.331  32.305  1.00  0.00    -0.272 OA
BRANCH 101 104
ATOM    104  C   UNL A   1      35.308  34.041  33.898  1.00  0.00     0.140 C 
ATOM    105  C   UNL A   1      36.118  33.097  34.766  1.00  0.00     0.019 C 
ATOM    106  O   UNL A   1      36.211  35.072  33.462  1.00  0.00    -0.357 OA
ATOM    107  H   UNL A   1      34.506  34.348  34.536  1.00  0.00     0.071 H 
ATOM    108  C   UNL A   1      37.579  33.559  34.719  1.00  0.00     0.124 C 
ATOM    109  H   UNL A   1      36.039  32.098  34.391  1.00  0.00     0.033 H 
ATOM    110  H   UNL A   1      35.754  33.107  35.773  1.00  0.00     0.033 H 
ATOM    111  C   UNL A   1      37.572  34.613  33.581  1.00  0.00     0.118 C 
ATOM    112  H   UNL A   1      38.287  35.348  33.884  1.00  0.00     0.069 H 
BRANCH 108 113
ATOM    113  C   UNL A   1      38.041  33.877  36.156  1.00  0.00     0.005 A 
ATOM    114  C   UNL A   1      37.450  33.077  37.177  1.00  0.00    -0.055 A 
ATOM    115  C   UNL A   1      38.941  34.866  36.596  1.00  0.00     0.047 A 
ATOM    116  C   UNL A   1      37.760  33.216  38.531  1.00  0.00    -0.062 A 
ATOM    117  H   UNL A   1      36.759  32.361  36.902  1.00  0.00     0.063 H 
ATOM    118  C   UNL A   1      39.278  34.976  37.960  1.00  0.00    -0.043 A 
ATOM    119  Cl  UNL A   1      39.663  36.077  35.604  1.00  0.00    -0.084 Cl
ATOM    120  C   UNL A   1      38.695  34.158  38.923  1.00  0.00    -0.061 A 
ATOM    121  H   UNL A   1      37.296  32.621  39.234  1.00  0.00     0.062 H 
ATOM    122  H   UNL A   1      39.974  35.680  38.252  1.00  0.00     0.064 H 
ATOM    123  H   UNL A   1      38.957  34.252  39.916  1.00  0.00     0.062 H 
ENDBRANCH 108 113
BRANCH 108 124
ATOM    124  O   UNL A   1      38.373  32.417  34.318  1.00  0.00    -0.382 OA
ATOM    125  H   UNL A   1      38.837  32.620  33.490  1.00  0.00     0.212 HD
ENDBRANCH 108 124
BRANCH 111 126
ATOM    126  C   UNL A   1      38.091  34.223  32.194  1.00  0.00     0.003 A 
ATOM    127  C   UNL A   1      37.219  33.738  31.200  1.00  0.00    -0.055 A 
ATOM    128  C   UNL A   1      39.446  34.374  31.832  1.00  0.00     0.046 A 
ATOM    129  C   UNL A   1      37.652  33.487  29.894  1.00  0.00    -0.062 A 
ATOM    130  H   UNL A   1      36.230  33.563  31.442  1.00  0.00     0.063 H 
ATOM    131  C   UNL A   1      39.882  34.109  30.526  1.00  0.00    -0.043 A 
ATOM    132  Cl  UNL A   1      40.672  34.858  32.956  1.00  0.00    -0.084 Cl
ATOM    133  C   UNL A   1      38.982  33.684  29.554  1.00  0.00    -0.061 A 
ATOM    134  H   UNL A   1      36.981  33.157  29.183  1.00  0.00     0.062 H 
ATOM    135  H   UNL A   1      40.877  34.231  30.284  1.00  0.00     0.064 H 
ATOM    136  H   UNL A   1      39.302  33.515  28.587  1.00  0.00     0.062 H 
ENDBRANCH 111 126
ENDBRANCH 101 104
ENDBRANCH  97 100
ENDBRANCH  94  97
ENDBRANCH  91  94
ENDBRANCH   1  91
TORSDOF 16
ENDMDL
MODEL 2
REMARK VINA RESULT:     -10.7      0.487      7.091
REMARK SMILES O=C(NCCCCCCNC(=O)[C@H]1C[C@](O)(c2ccccc2Cl)[C@@H](c2ccccc2Cl)O1)c1ccc(-c2c3nc(c(-c4c(F)c(F)c(F)c(F)c4F)c4ccc([nH]4)c(-c4c(F)c(F)c(F)c(F)c4F)c4nc(c(-c5c(F)c(F)c(F)c(F)c5F)c5ccc2[nH]5)C=C4)C=C3)cc1
REMARK SMILES IDX 6 1 5 4 4 7 3 10 1 11 2 12 33 14 34 15 95 16 35 17 94 19
REMARK SMILES IDX 36 21 37 24 38 25 88 26 39 27 93 28 87 29 89 30 40 31 92 32
REMARK SMILES IDX 86 34 85 36 41 38 73 41 53 42 72 43 54 44 57 45 71 46 90 47
REMARK SMILES IDX 55 48 56 50 70 52 91 53 58 56 42 58 43 59 51 60 44 61 45 62
REMARK SMILES IDX 49 63 52 64 46 65 47 66 50 67 48 68 74 69 75 70 83 71 76 72
REMARK SMILES IDX 77 73 81 74 84 75 78 76 79 77 82 78 80 79 59 80 60 81 68 82
REMARK SMILES IDX 61 83 62 84 66 85 69 86 63 87 64 88 67 89 65 90 7 91 8 94
REMARK SMILES IDX 9 97 10 100 11 101 12 103 13 104 14 105 32 106 15 108 24 111
REMARK SMILES IDX 17 113 18 114 22 115 19 116 21 118 23 119 20 120 16 124
REMARK SMILES IDX 25 126 26 127 30 128 27 129 29 131 31 132 28 133
REMARK H PARENT 6 2 6 3 5 5 5 6 4 8 4 9 3 13 34 18 95 20 35 22 94 23 93 33
REMARK H PARENT 87 35 89 37 92 39 86 40 54 49 57 51 90 54 55 55 91 57 7 92
REMARK H PARENT 7 93 8 95 8 96 9 98 9 99 10 102 13 107 14 109 14 110 24 112
REMARK H PARENT 18 117 19 121 21 122 20 123 16 125 26 130 27 134 29 135 28 136
REMARK Flexibility Score: inf
ROOT
ATOM      1  C   UNL A   1      34.371  35.191  28.478  1.00  0.00    -0.052 C 
ATOM      2  H   UNL A   1      34.174  35.837  27.648  1.00  0.00     0.027 H 
ATOM      3  H   UNL A   1      35.168  35.514  29.114  1.00  0.00     0.027 H 
ENDROOT
BRANCH   1   4
ATOM      4  C   UNL A   1      34.822  33.842  27.917  1.00  0.00    -0.036 C 
ATOM      5  H   UNL A   1      34.408  33.742  26.936  1.00  0.00     0.028 H 
ATOM      6  H   UNL A   1      35.891  33.864  27.945  1.00  0.00     0.028 H 
BRANCH   4   7
ATOM      7  C   UNL A   1      34.419  32.611  28.720  1.00  0.00     0.018 C 
ATOM      8  H   UNL A   1      35.272  32.275  29.272  1.00  0.00     0.049 H 
ATOM      9  H   UNL A   1      33.609  32.907  29.354  1.00  0.00     0.049 H 
BRANCH   7  10
ATOM     10  N   UNL A   1      33.937  31.509  27.908  1.00  0.00    -0.352 N 
ATOM     11  O   UNL A   1      34.020  29.511  26.861  1.00  0.00    -0.269 OA
ATOM     12  C   UNL A   1      34.548  30.308  27.625  1.00  0.00     0.251 C 
ATOM     13  H   UNL A   1      33.048  31.639  27.503  1.00  0.00     0.163 HD
BRANCH  12  14
ATOM     14  C   UNL A   1      35.871  29.998  28.213  1.00  0.00     0.039 A 
ATOM     15  C   UNL A   1      37.054  30.271  27.523  1.00  0.00    -0.049 A 
ATOM     16  C   UNL A   1      35.921  29.410  29.481  1.00  0.00    -0.049 A 
ATOM     17  C   UNL A   1      38.271  29.828  28.033  1.00  0.00    -0.053 A 
ATOM     18  H   UNL A   1      37.026  30.803  26.639  1.00  0.00     0.063 H 
ATOM     19  C   UNL A   1      37.152  29.035  30.027  1.00  0.00    -0.053 A 
ATOM     20  H   UNL A   1      35.050  29.254  30.012  1.00  0.00     0.063 H 
ATOM     21  C   UNL A   1      38.334  29.205  29.291  1.00  0.00    -0.014 A 
ATOM     22  H   UNL A   1      39.135  29.957  27.483  1.00  0.00     0.063 H 
ATOM     23  H   UNL A   1      37.191  28.630  30.976  1.00  0.00     0.063 H 
BRANCH  21  24
ATOM     24  C   UNL A   1      39.647  28.773  29.832  1.00  0.00     0.031 A 
ATOM     25  C   UNL A   1      40.384  27.603  29.242  1.00  0.00     0.074 A 
ATOM     26  C   UNL A   1      40.187  29.462  30.855  1.00  0.00     0.049 A 
ATOM     27  N   UNL A   1      41.549  27.105  29.579  1.00  0.00    -0.248 NA
ATOM     28  C   UNL A   1      39.726  26.892  28.136  1.00  0.00    -0.034 C 
ATOM     29  C   UNL A   1      39.562  30.608  31.517  1.00  0.00    -0.036 A 
ATOM     30  N   UNL A   1      41.384  29.312  31.507  1.00  0.00    -0.354 N 
ATOM     31  C   UNL A   1      41.751  26.013  28.745  1.00  0.00     0.074 A 
ATOM     32  C   UNL A   1      40.580  25.906  27.901  1.00  0.00    -0.034 C 
ATOM     33  H   UNL A   1      38.833  27.106  27.666  1.00  0.00     0.065 H 
ATOM     34  C   UNL A   1      40.399  31.086  32.449  1.00  0.00    -0.036 A 
ATOM     35  H   UNL A   1      38.627  30.987  31.302  1.00  0.00     0.065 H 
ATOM     36  C   UNL A   1      41.594  30.250  32.487  1.00  0.00     0.049 A 
ATOM     37  H   UNL A   1      42.031  28.601  31.292  1.00  0.00     0.167 HD
ATOM     38  C   UNL A   1      42.821  25.182  28.686  1.00  0.00     0.037 A 
ATOM     39  H   UNL A   1      40.429  25.158  27.207  1.00  0.00     0.065 H 
ATOM     40  H   UNL A   1      40.227  31.913  33.043  1.00  0.00     0.065 H 
ATOM     41  C   UNL A   1      42.630  30.414  33.330  1.00  0.00     0.037 A 
ATOM     42  C   UNL A   1      43.994  25.304  29.516  1.00  0.00     0.049 A 
ATOM     43  C   UNL A   1      43.794  29.469  33.254  1.00  0.00     0.074 A 
ATOM     44  C   UNL A   1      45.148  24.541  29.499  1.00  0.00    -0.036 A 
ATOM     45  N   UNL A   1      44.157  26.250  30.518  1.00  0.00    -0.354 N 
ATOM     46  N   UNL A   1      43.993  28.467  32.434  1.00  0.00    -0.248 NA
ATOM     47  C   UNL A   1      44.877  29.679  34.223  1.00  0.00    -0.034 C 
ATOM     48  C   UNL A   1      45.990  24.994  30.520  1.00  0.00    -0.036 A 
ATOM     49  H   UNL A   1      45.352  23.769  28.846  1.00  0.00     0.065 H 
ATOM     50  C   UNL A   1      45.383  26.073  31.142  1.00  0.00     0.049 A 
ATOM     51  H   UNL A   1      43.499  26.943  30.753  1.00  0.00     0.167 HD
ATOM     52  C   UNL A   1      45.230  27.938  32.772  1.00  0.00     0.074 A 
ATOM     53  C   UNL A   1      45.742  28.742  33.864  1.00  0.00    -0.034 C 
ATOM     54  H   UNL A   1      44.946  30.374  34.984  1.00  0.00     0.065 H 
ATOM     55  H   UNL A   1      46.908  24.594  30.768  1.00  0.00     0.065 H 
ATOM     56  C   UNL A   1      45.880  26.882  32.226  1.00  0.00     0.037 A 
ATOM     57  H   UNL A   1      46.664  28.601  34.305  1.00  0.00     0.065 H 
BRANCH  38  58
ATOM     58  C   UNL A   1      42.764  24.047  27.704  1.00  0.00     0.064 A 
ATOM     59  C   UNL A   1      43.185  24.198  26.374  1.00  0.00     0.173 A 
ATOM     60  C   UNL A   1      42.309  22.782  28.106  1.00  0.00     0.173 A 
ATOM     61  F   UNL A   1      43.620  25.389  25.934  1.00  0.00    -0.203 F 
ATOM     62  C   UNL A   1      43.124  23.134  25.477  1.00  0.00     0.198 A 
ATOM     63  C   UNL A   1      42.274  21.713  27.214  1.00  0.00     0.198 A 
ATOM     64  F   UNL A   1      41.903  22.580  29.368  1.00  0.00    -0.203 F 
ATOM     65  F   UNL A   1      43.485  23.315  24.199  1.00  0.00    -0.200 F 
ATOM     66  C   UNL A   1      42.674  21.892  25.898  1.00  0.00     0.200 A 
ATOM     67  F   UNL A   1      41.851  20.510  27.627  1.00  0.00    -0.200 F 
ATOM     68  F   UNL A   1      42.616  20.869  25.035  1.00  0.00    -0.200 F 
ENDBRANCH  38  58
BRANCH  41  69
ATOM     69  C   UNL A   1      42.610  31.538  34.300  1.00  0.00     0.064 A 
ATOM     70  C   UNL A   1      41.928  31.422  35.518  1.00  0.00     0.173 A 
ATOM     71  C   UNL A   1      43.299  32.732  34.046  1.00  0.00     0.173 A 
ATOM     72  F   UNL A   1      41.241  30.303  35.797  1.00  0.00    -0.203 F 
ATOM     73  C   UNL A   1      41.932  32.462  36.445  1.00  0.00     0.198 A 
ATOM     74  C   UNL A   1      43.323  33.761  34.983  1.00  0.00     0.198 A 
ATOM     75  F   UNL A   1      43.971  32.887  32.896  1.00  0.00    -0.203 F 
ATOM     76  F   UNL A   1      41.249  32.337  37.591  1.00  0.00    -0.200 F 
ATOM     77  C   UNL A   1      42.636  33.627  36.181  1.00  0.00     0.200 A 
ATOM     78  F   UNL A   1      44.019  34.878  34.731  1.00  0.00    -0.200 F 
ATOM     79  F   UNL A   1      42.651  34.621  37.078  1.00  0.00    -0.200 F 
ENDBRANCH  41  69
BRANCH  56  80
ATOM     80  C   UNL A   1      47.236  26.558  32.780  1.00  0.00     0.064 A 
ATOM     81  C   UNL A   1      47.404  25.630  33.818  1.00  0.00     0.173 A 
ATOM     82  C   UNL A   1      48.384  27.167  32.249  1.00  0.00     0.173 A 
ATOM     83  F   UNL A   1      46.337  25.035  34.371  1.00  0.00    -0.203 F 
ATOM     84  C   UNL A   1      48.670  25.344  34.323  1.00  0.00     0.198 A 
ATOM     85  C   UNL A   1      49.650  26.858  32.738  1.00  0.00     0.198 A 
ATOM     86  F   UNL A   1      48.276  28.058  31.253  1.00  0.00    -0.203 F 
ATOM     87  F   UNL A   1      48.804  24.492  35.349  1.00  0.00    -0.200 F 
ATOM     88  C   UNL A   1      49.792  25.953  33.779  1.00  0.00     0.200 A 
ATOM     89  F   UNL A   1      50.732  27.440  32.205  1.00  0.00    -0.200 F 
ATOM     90  F   UNL A   1      51.010  25.675  34.265  1.00  0.00    -0.200 F 
ENDBRANCH  56  80
ENDBRANCH  21  24
ENDBRANCH  12  14
ENDBRANCH   7  10
ENDBRANCH   4   7
ENDBRANCH   1   4
BRANCH   1  91
ATOM     91  C   UNL A   1      33.123  35.181  29.366  1.00  0.00    -0.052 C 
ATOM     92  H   UNL A   1      33.046  34.207  29.803  1.00  0.00     0.027 H 
ATOM     93  H   UNL A   1      32.316  35.448  28.716  1.00  0.00     0.027 H 
BRANCH  91  94
ATOM     94  C   UNL A   1      33.075  36.205  30.509  1.00  0.00    -0.036 C 
ATOM     95  H   UNL A   1      32.071  36.569  30.582  1.00  0.00     0.028 H 
ATOM     96  H   UNL A   1      33.790  36.960  30.256  1.00  0.00     0.028 H 
BRANCH  94  97
ATOM     97  C   UNL A   1      33.487  35.680  31.882  1.00  0.00     0.017 C 
ATOM     98  H   UNL A   1      32.673  35.824  32.560  1.00  0.00     0.049 H 
ATOM     99  H   UNL A   1      34.359  36.222  32.181  1.00  0.00     0.049 H 
BRANCH  97 100
ATOM    100  N   UNL A   1      33.836  34.277  31.871  1.00  0.00    -0.354 N 
ATOM    101  C   UNL A   1      34.597  33.518  32.705  1.00  0.00     0.249 C 
ATOM    102  H   UNL A   1      33.449  33.776  31.118  1.00  0.00     0.163 HD
ATOM    103  O   UNL A   1      34.639  32.316  32.415  1.00  0.00    -0.272 OA
BRANCH 101 104
ATOM    104  C   UNL A   1      35.412  34.074  33.909  1.00  0.00     0.140 C 
ATOM    105  C   UNL A   1      36.240  33.147  34.779  1.00  0.00     0.019 C 
ATOM    106  O   UNL A   1      36.305  35.101  33.442  1.00  0.00    -0.357 OA
ATOM    107  H   UNL A   1      34.620  34.389  34.555  1.00  0.00     0.071 H 
ATOM    108  C   UNL A   1      37.698  33.612  34.700  1.00  0.00     0.124 C 
ATOM    109  H   UNL A   1      36.157  32.142  34.420  1.00  0.00     0.033 H 
ATOM    110  H   UNL A   1      35.892  33.171  35.790  1.00  0.00     0.033 H 
ATOM    111  C   UNL A   1      37.669  34.647  33.546  1.00  0.00     0.118 C 
ATOM    112  H   UNL A   1      38.387  35.390  33.825  1.00  0.00     0.069 H 
BRANCH 108 113
ATOM    113  C   UNL A   1      38.183  33.954  36.124  1.00  0.00     0.005 A 
ATOM    114  C   UNL A   1      37.569  33.207  37.172  1.00  0.00    -0.055 A 
ATOM    115  C   UNL A   1      39.122  34.921  36.530  1.00  0.00     0.047 A 
ATOM    116  C   UNL A   1      37.894  33.373  38.519  1.00  0.00    -0.062 A 
ATOM    117  H   UNL A   1      36.850  32.509  36.922  1.00  0.00     0.063 H 
ATOM    118  C   UNL A   1      39.473  35.058  37.888  1.00  0.00    -0.043 A 
ATOM    119  Cl  UNL A   1      39.881  36.074  35.498  1.00  0.00    -0.084 Cl
ATOM    120  C   UNL A   1      38.867  34.290  38.878  1.00  0.00    -0.061 A 
ATOM    121  H   UNL A   1      37.414  32.816  39.243  1.00  0.00     0.062 H 
ATOM    122  H   UNL A   1      40.197  35.744  38.155  1.00  0.00     0.064 H 
ATOM    123  H   UNL A   1      39.139  34.403  39.866  1.00  0.00     0.062 H 
ENDBRANCH 108 113
BRANCH 108 124
ATOM    124  O   UNL A   1      38.490  32.466  34.305  1.00  0.00    -0.382 OA
ATOM    125  H   UNL A   1      37.907  31.703  34.165  1.00  0.00     0.212 HD
ENDBRANCH 108 124
BRANCH 111 126
ATOM    126  C   UNL A   1      38.167  34.236  32.157  1.00  0.00     0.003 A 
ATOM    127  C   UNL A   1      37.282  33.726  31.188  1.00  0.00    -0.055 A 
ATOM    128  C   UNL A   1      39.514  34.394  31.768  1.00  0.00     0.046 A 
ATOM    129  C   UNL A   1      37.694  33.455  29.879  1.00  0.00    -0.062 A 
ATOM    130  H   UNL A   1      36.300  33.546  31.451  1.00  0.00     0.063 H 
ATOM    131  C   UNL A   1      39.929  34.109  30.460  1.00  0.00    -0.043 A 
ATOM    132  Cl  UNL A   1      40.755  34.910  32.861  1.00  0.00    -0.084 Cl
ATOM    133  C   UNL A   1      39.016  33.658  29.511  1.00  0.00    -0.061 A 
ATOM    134  H   UNL A   1      37.014  33.105  29.187  1.00  0.00     0.062 H 
ATOM    135  H   UNL A   1      40.919  34.236  30.197  1.00  0.00     0.064 H 
ATOM    136  H   UNL A   1      39.321  33.474  28.542  1.00  0.00     0.062 H 
ENDBRANCH 111 126
ENDBRANCH 101 104
ENDBRANCH  97 100
ENDBRANCH  94  97
ENDBRANCH  91  94
ENDBRANCH   1  91
TORSDOF 16
ENDMDL
MODEL 3
REMARK VINA RESULT:     -10.6      4.267      8.343
REMARK SMILES O=C(NCCCCCCNC(=O)[C@H]1C[C@](O)(c2ccccc2Cl)[C@@H](c2ccccc2Cl)O1)c1ccc(-c2c3nc(c(-c4c(F)c(F)c(F)c(F)c4F)c4ccc([nH]4)c(-c4c(F)c(F)c(F)c(F)c4F)c4nc(c(-c5c(F)c(F)c(F)c(F)c5F)c5ccc2[nH]5)C=C4)C=C3)cc1
REMARK SMILES IDX 6 1 5 4 4 7 3 10 1 11 2 12 33 14 34 15 95 16 35 17 94 19
REMARK SMILES IDX 36 21 37 24 38 25 88 26 39 27 93 28 87 29 89 30 40 31 92 32
REMARK SMILES IDX 86 34 85 36 41 38 73 41 53 42 72 43 54 44 57 45 71 46 90 47
REMARK SMILES IDX 55 48 56 50 70 52 91 53 58 56 42 58 43 59 51 60 44 61 45 62
REMARK SMILES IDX 49 63 52 64 46 65 47 66 50 67 48 68 74 69 75 70 83 71 76 72
REMARK SMILES IDX 77 73 81 74 84 75 78 76 79 77 82 78 80 79 59 80 60 81 68 82
REMARK SMILES IDX 61 83 62 84 66 85 69 86 63 87 64 88 67 89 65 90 7 91 8 94
REMARK SMILES IDX 9 97 10 100 11 101 12 103 13 104 14 105 32 106 15 108 24 111
REMARK SMILES IDX 17 113 18 114 22 115 19 116 21 118 23 119 20 120 16 124
REMARK SMILES IDX 25 126 26 127 30 128 27 129 29 131 31 132 28 133
REMARK H PARENT 6 2 6 3 5 5 5 6 4 8 4 9 3 13 34 18 95 20 35 22 94 23 93 33
REMARK H PARENT 87 35 89 37 92 39 86 40 54 49 57 51 90 54 55 55 91 57 7 92
REMARK H PARENT 7 93 8 95 8 96 9 98 9 99 10 102 13 107 14 109 14 110 24 112
REMARK H PARENT 18 117 19 121 21 122 20 123 16 125 26 130 27 134 29 135 28 136
REMARK Flexibility Score: inf
ROOT
ATOM      1  C   UNL A   1      34.327  33.286  29.141  1.00  0.00    -0.052 C 
ATOM      2  H   UNL A   1      33.930  32.659  29.911  1.00  0.00     0.027 H 
ATOM      3  H   UNL A   1      35.194  33.846  29.424  1.00  0.00     0.027 H 
ENDROOT
BRANCH   1   4
ATOM      4  C   UNL A   1      33.264  34.333  28.802  1.00  0.00    -0.036 C 
ATOM      5  H   UNL A   1      33.287  34.489  27.743  1.00  0.00     0.028 H 
ATOM      6  H   UNL A   1      32.342  33.932  29.168  1.00  0.00     0.028 H 
BRANCH   4   7
ATOM      7  C   UNL A   1      33.417  35.690  29.476  1.00  0.00     0.018 C 
ATOM      8  H   UNL A   1      34.420  35.771  29.844  1.00  0.00     0.049 H 
ATOM      9  H   UNL A   1      33.189  36.430  28.737  1.00  0.00     0.049 H 
BRANCH   7  10
ATOM     10  N   UNL A   1      32.506  35.905  30.584  1.00  0.00    -0.352 N 
ATOM     11  O   UNL A   1      31.750  35.769  32.706  1.00  0.00    -0.269 OA
ATOM     12  C   UNL A   1      32.657  35.569  31.910  1.00  0.00     0.251 C 
ATOM     13  H   UNL A   1      31.660  36.355  30.355  1.00  0.00     0.163 HD
BRANCH  12  14
ATOM     14  C   UNL A   1      33.907  34.919  32.368  1.00  0.00     0.039 A 
ATOM     15  C   UNL A   1      35.133  35.587  32.316  1.00  0.00    -0.049 A 
ATOM     16  C   UNL A   1      33.846  33.608  32.850  1.00  0.00    -0.049 A 
ATOM     17  C   UNL A   1      36.308  34.900  32.606  1.00  0.00    -0.053 A 
ATOM     18  H   UNL A   1      35.167  36.588  32.066  1.00  0.00     0.063 H 
ATOM     19  C   UNL A   1      35.019  32.944  33.215  1.00  0.00    -0.053 A 
ATOM     20  H   UNL A   1      32.934  33.132  32.936  1.00  0.00     0.063 H 
ATOM     21  C   UNL A   1      36.265  33.571  33.059  1.00  0.00    -0.014 A 
ATOM     22  H   UNL A   1      37.219  35.370  32.487  1.00  0.00     0.063 H 
ATOM     23  H   UNL A   1      34.970  31.988  33.600  1.00  0.00     0.063 H 
BRANCH  21  24
ATOM     24  C   UNL A   1      37.529  32.869  33.398  1.00  0.00     0.031 A 
ATOM     25  C   UNL A   1      38.244  33.137  34.693  1.00  0.00     0.074 A 
ATOM     26  C   UNL A   1      38.020  31.961  32.534  1.00  0.00     0.049 A 
ATOM     27  N   UNL A   1      39.345  32.598  35.156  1.00  0.00    -0.248 NA
ATOM     28  C   UNL A   1      37.654  34.151  35.580  1.00  0.00    -0.034 C 
ATOM     29  C   UNL A   1      37.420  31.623  31.242  1.00  0.00    -0.036 A 
ATOM     30  N   UNL A   1      39.122  31.149  32.613  1.00  0.00    -0.354 N 
ATOM     31  C   UNL A   1      39.591  33.220  36.373  1.00  0.00     0.074 A 
ATOM     32  C   UNL A   1      38.538  34.193  36.568  1.00  0.00    -0.034 C 
ATOM     33  H   UNL A   1      36.781  34.687  35.465  1.00  0.00     0.065 H 
ATOM     34  C   UNL A   1      38.134  30.641  30.671  1.00  0.00    -0.036 A 
ATOM     35  H   UNL A   1      36.583  32.067  30.835  1.00  0.00     0.065 H 
ATOM     36  C   UNL A   1      39.269  30.319  31.530  1.00  0.00     0.049 A 
ATOM     37  H   UNL A   1      39.747  31.159  33.374  1.00  0.00     0.167 HD
ATOM     38  C   UNL A   1      40.600  32.992  37.250  1.00  0.00     0.037 A 
ATOM     39  H   UNL A   1      38.483  34.839  37.371  1.00  0.00     0.065 H 
ATOM     40  H   UNL A   1      37.915  30.186  29.771  1.00  0.00     0.065 H 
ATOM     41  C   UNL A   1      40.218  29.407  31.251  1.00  0.00     0.037 A 
ATOM     42  C   UNL A   1      41.635  32.006  37.061  1.00  0.00     0.049 A 
ATOM     43  C   UNL A   1      41.332  29.186  32.232  1.00  0.00     0.074 A 
ATOM     44  C   UNL A   1      42.673  31.668  37.913  1.00  0.00    -0.036 A 
ATOM     45  N   UNL A   1      41.767  31.205  35.936  1.00  0.00    -0.354 N 
ATOM     46  N   UNL A   1      41.531  29.750  33.398  1.00  0.00    -0.248 NA
ATOM     47  C   UNL A   1      42.355  28.202  31.856  1.00  0.00    -0.034 C 
ATOM     48  C   UNL A   1      43.458  30.696  37.285  1.00  0.00    -0.036 A 
ATOM     49  H   UNL A   1      42.838  32.066  38.850  1.00  0.00     0.065 H 
ATOM     50  C   UNL A   1      42.883  30.391  36.061  1.00  0.00     0.049 A 
ATOM     51  H   UNL A   1      41.160  31.214  35.162  1.00  0.00     0.167 HD
ATOM     52  C   UNL A   1      42.688  29.177  33.905  1.00  0.00     0.074 A 
ATOM     53  C   UNL A   1      43.139  28.210  32.925  1.00  0.00    -0.034 C 
ATOM     54  H   UNL A   1      42.442  27.650  30.988  1.00  0.00     0.065 H 
ATOM     55  H   UNL A   1      44.320  30.276  37.667  1.00  0.00     0.065 H 
ATOM     56  C   UNL A   1      43.318  29.431  35.078  1.00  0.00     0.037 A 
ATOM     57  H   UNL A   1      43.965  27.604  33.045  1.00  0.00     0.065 H 
BRANCH  38  58
ATOM     58  C   UNL A   1      40.647  33.840  38.488  1.00  0.00     0.064 A 
ATOM     59  C   UNL A   1      41.414  35.014  38.552  1.00  0.00     0.173 A 
ATOM     60  C   UNL A   1      39.893  33.490  39.618  1.00  0.00     0.173 A 
ATOM     61  F   UNL A   1      42.161  35.390  37.503  1.00  0.00    -0.203 F 
ATOM     62  C   UNL A   1      41.446  35.788  39.710  1.00  0.00     0.198 A 
ATOM     63  C   UNL A   1      39.906  34.280  40.765  1.00  0.00     0.198 A 
ATOM     64  F   UNL A   1      39.136  32.382  39.609  1.00  0.00    -0.203 F 
ATOM     65  F   UNL A   1      42.223  36.878  39.764  1.00  0.00    -0.200 F 
ATOM     66  C   UNL A   1      40.689  35.423  40.813  1.00  0.00     0.200 A 
ATOM     67  F   UNL A   1      39.164  33.932  41.826  1.00  0.00    -0.200 F 
ATOM     68  F   UNL A   1      40.720  36.168  41.926  1.00  0.00    -0.200 F 
ENDBRANCH  38  58
BRANCH  41  69
ATOM     69  C   UNL A   1      40.130  28.623  29.994  1.00  0.00     0.064 A 
ATOM     70  C   UNL A   1      40.729  29.087  28.816  1.00  0.00     0.173 A 
ATOM     71  C   UNL A   1      39.478  27.382  29.953  1.00  0.00     0.173 A 
ATOM     72  F   UNL A   1      41.349  30.277  28.804  1.00  0.00    -0.203 F 
ATOM     73  C   UNL A   1      40.675  28.341  27.641  1.00  0.00     0.198 A 
ATOM     74  C   UNL A   1      39.447  26.625  28.785  1.00  0.00     0.198 A 
ATOM     75  F   UNL A   1      38.895  26.894  31.057  1.00  0.00    -0.203 F 
ATOM     76  F   UNL A   1      41.232  28.819  26.520  1.00  0.00    -0.200 F 
ATOM     77  C   UNL A   1      40.043  27.107  27.629  1.00  0.00     0.200 A 
ATOM     78  F   UNL A   1      38.850  25.426  28.782  1.00  0.00    -0.200 F 
ATOM     79  F   UNL A   1      40.003  26.383  26.502  1.00  0.00    -0.200 F 
ENDBRANCH  41  69
BRANCH  56  80
ATOM     80  C   UNL A   1      44.546  28.624  35.380  1.00  0.00     0.064 A 
ATOM     81  C   UNL A   1      44.471  27.391  36.046  1.00  0.00     0.173 A 
ATOM     82  C   UNL A   1      45.811  29.079  34.977  1.00  0.00     0.173 A 
ATOM     83  F   UNL A   1      43.288  26.922  36.467  1.00  0.00    -0.203 F 
ATOM     84  C   UNL A   1      45.622  26.657  36.321  1.00  0.00     0.198 A 
ATOM     85  C   UNL A   1      46.956  28.329  35.231  1.00  0.00     0.198 A 
ATOM     86  F   UNL A   1      45.934  30.250  34.334  1.00  0.00    -0.203 F 
ATOM     87  F   UNL A   1      45.534  25.506  37.002  1.00  0.00    -0.200 F 
ATOM     88  C   UNL A   1      46.862  27.123  35.908  1.00  0.00     0.200 A 
ATOM     89  F   UNL A   1      48.151  28.777  34.823  1.00  0.00    -0.200 F 
ATOM     90  F   UNL A   1      47.968  26.414  36.173  1.00  0.00    -0.200 F 
ENDBRANCH  56  80
ENDBRANCH  21  24
ENDBRANCH  12  14
ENDBRANCH   7  10
ENDBRANCH   4   7
ENDBRANCH   1   4
BRANCH   1  91
ATOM     91  C   UNL A   1      34.786  32.382  27.993  1.00  0.00    -0.052 C 
ATOM     92  H   UNL A   1      35.855  32.338  28.024  1.00  0.00     0.027 H 
ATOM     93  H   UNL A   1      34.380  32.825  27.108  1.00  0.00     0.027 H 
BRANCH  91  94
ATOM     94  C   UNL A   1      34.264  30.938  27.994  1.00  0.00    -0.036 C 
ATOM     95  H   UNL A   1      33.791  30.759  28.937  1.00  0.00     0.028 H 
ATOM     96  H   UNL A   1      35.116  30.318  27.813  1.00  0.00     0.028 H 
BRANCH  94  97
ATOM     97  C   UNL A   1      33.260  30.601  26.894  1.00  0.00     0.017 C 
ATOM     98  H   UNL A   1      33.796  30.232  26.045  1.00  0.00     0.049 H 
ATOM     99  H   UNL A   1      32.721  31.497  26.670  1.00  0.00     0.049 H 
BRANCH  97 100
ATOM    100  N   UNL A   1      32.290  29.606  27.296  1.00  0.00    -0.354 N 
ATOM    101  C   UNL A   1      32.240  28.258  27.124  1.00  0.00     0.249 C 
ATOM    102  H   UNL A   1      31.521  29.975  27.787  1.00  0.00     0.163 HD
ATOM    103  O   UNL A   1      31.268  27.706  27.656  1.00  0.00    -0.272 OA
BRANCH 101 104
ATOM    104  C   UNL A   1      33.265  27.433  26.293  1.00  0.00     0.140 C 
ATOM    105  C   UNL A   1      33.262  25.917  26.342  1.00  0.00     0.019 C 
ATOM    106  O   UNL A   1      33.152  27.798  24.906  1.00  0.00    -0.357 OA
ATOM    107  H   UNL A   1      34.178  27.702  26.783  1.00  0.00     0.071 H 
ATOM    108  C   UNL A   1      33.016  25.406  24.918  1.00  0.00     0.124 C 
ATOM    109  H   UNL A   1      32.484  25.576  26.992  1.00  0.00     0.033 H 
ATOM    110  H   UNL A   1      34.196  25.552  26.715  1.00  0.00     0.033 H 
ATOM    111  C   UNL A   1      32.614  26.694  24.152  1.00  0.00     0.118 C 
ATOM    112  H   UNL A   1      33.012  26.563  23.168  1.00  0.00     0.069 H 
BRANCH 108 113
ATOM    113  C   UNL A   1      34.207  24.518  24.501  1.00  0.00     0.005 A 
ATOM    114  C   UNL A   1      35.299  24.495  25.417  1.00  0.00    -0.055 A 
ATOM    115  C   UNL A   1      34.373  23.754  23.331  1.00  0.00     0.047 A 
ATOM    116  C   UNL A   1      36.452  23.737  25.211  1.00  0.00    -0.062 A 
ATOM    117  H   UNL A   1      35.233  25.067  26.274  1.00  0.00     0.063 H 
ATOM    118  C   UNL A   1      35.524  22.962  23.146  1.00  0.00    -0.043 A 
ATOM    119  Cl  UNL A   1      33.296  23.737  21.985  1.00  0.00    -0.084 Cl
ATOM    120  C   UNL A   1      36.557  22.950  24.078  1.00  0.00    -0.061 A 
ATOM    121  H   UNL A   1      37.222  23.762  25.898  1.00  0.00     0.062 H 
ATOM    122  H   UNL A   1      35.602  22.376  22.299  1.00  0.00     0.064 H 
ATOM    123  H   UNL A   1      37.391  22.361  23.925  1.00  0.00     0.062 H 
ENDBRANCH 108 113
BRANCH 108 124
ATOM    124  O   UNL A   1      31.885  24.504  24.979  1.00  0.00    -0.382 OA
ATOM    125  H   UNL A   1      32.114  23.734  25.521  1.00  0.00     0.212 HD
ENDBRANCH 108 124
BRANCH 111 126
ATOM    126  C   UNL A   1      31.135  26.961  23.859  1.00  0.00     0.003 A 
ATOM    127  C   UNL A   1      30.129  26.107  24.352  1.00  0.00    -0.055 A 
ATOM    128  C   UNL A   1      30.709  28.092  23.132  1.00  0.00     0.046 A 
ATOM    129  C   UNL A   1      28.770  26.397  24.195  1.00  0.00    -0.062 A 
ATOM    130  H   UNL A   1      30.403  25.241  24.843  1.00  0.00     0.063 H 
ATOM    131  C   UNL A   1      29.346  28.374  22.963  1.00  0.00    -0.043 A 
ATOM    132  Cl  UNL A   1      31.810  29.190  22.368  1.00  0.00    -0.084 Cl
ATOM    133  C   UNL A   1      28.378  27.538  23.510  1.00  0.00    -0.061 A 
ATOM    134  H   UNL A   1      28.059  25.762  24.590  1.00  0.00     0.062 H 
ATOM    135  H   UNL A   1      29.058  29.210  22.430  1.00  0.00     0.064 H 
ATOM    136  H   UNL A   1      27.376  27.764  23.406  1.00  0.00     0.062 H 
ENDBRANCH 111 126
ENDBRANCH 101 104
ENDBRANCH  97 100
ENDBRANCH  94  97
ENDBRANCH  91  94
ENDBRANCH   1  91
TORSDOF 16
ENDMDL
MODEL 4
REMARK VINA RESULT:     -10.6      4.611      8.330
REMARK SMILES O=C(NCCCCCCNC(=O)[C@H]1C[C@](O)(c2ccccc2Cl)[C@@H](c2ccccc2Cl)O1)c1ccc(-c2c3nc(c(-c4c(F)c(F)c(F)c(F)c4F)c4ccc([nH]4)c(-c4c(F)c(F)c(F)c(F)c4F)c4nc(c(-c5c(F)c(F)c(F)c(F)c5F)c5ccc2[nH]5)C=C4)C=C3)cc1
REMARK SMILES IDX 6 1 5 4 4 7 3 10 1 11 2 12 33 14 34 15 95 16 35 17 94 19
REMARK SMILES IDX 36 21 37 24 38 25 88 26 39 27 93 28 87 29 89 30 40 31 92 32
REMARK SMILES IDX 86 34 85 36 41 38 73 41 53 42 72 43 54 44 57 45 71 46 90 47
REMARK SMILES IDX 55 48 56 50 70 52 91 53 58 56 42 58 43 59 51 60 44 61 45 62
REMARK SMILES IDX 49 63 52 64 46 65 47 66 50 67 48 68 74 69 75 70 83 71 76 72
REMARK SMILES IDX 77 73 81 74 84 75 78 76 79 77 82 78 80 79 59 80 60 81 68 82
REMARK SMILES IDX 61 83 62 84 66 85 69 86 63 87 64 88 67 89 65 90 7 91 8 94
REMARK SMILES IDX 9 97 10 100 11 101 12 103 13 104 14 105 32 106 15 108 24 111
REMARK SMILES IDX 17 113 18 114 22 115 19 116 21 118 23 119 20 120 16 124
REMARK SMILES IDX 25 126 26 127 30 128 27 129 29 131 31 132 28 133
REMARK H PARENT 6 2 6 3 5 5 5 6 4 8 4 9 3 13 34 18 95 20 35 22 94 23 93 33
REMARK H PARENT 87 35 89 37 92 39 86 40 54 49 57 51 90 54 55 55 91 57 7 92
REMARK H PARENT 7 93 8 95 8 96 9 98 9 99 10 102 13 107 14 109 14 110 24 112
REMARK H PARENT 18 117 19 121 21 122 20 123 16 125 26 130 27 134 29 135 28 136
REMARK Flexibility Score: inf
ROOT
ATOM      1  C   UNL A   1      31.100  30.418  25.009  1.00  0.00    -0.052 C 
ATOM      2  H   UNL A   1      31.226  29.530  25.593  1.00  0.00     0.027 H 
ATOM      3  H   UNL A   1      31.937  30.667  24.391  1.00  0.00     0.027 H 
ENDROOT
BRANCH   1   4
ATOM      4  C   UNL A   1      30.949  31.592  25.977  1.00  0.00    -0.036 C 
ATOM      5  H   UNL A   1      30.500  32.401  25.440  1.00  0.00     0.028 H 
ATOM      6  H   UNL A   1      30.358  31.220  26.787  1.00  0.00     0.028 H 
BRANCH   4   7
ATOM      7  C   UNL A   1      32.233  32.110  26.611  1.00  0.00     0.018 C 
ATOM      8  H   UNL A   1      32.489  31.466  27.427  1.00  0.00     0.049 H 
ATOM      9  H   UNL A   1      32.977  32.116  25.843  1.00  0.00     0.049 H 
BRANCH   7  10
ATOM     10  N   UNL A   1      32.136  33.467  27.115  1.00  0.00    -0.352 N 
ATOM     11  O   UNL A   1      32.686  35.258  28.375  1.00  0.00    -0.269 OA
ATOM     12  C   UNL A   1      32.956  34.123  28.007  1.00  0.00     0.251 C 
ATOM     13  H   UNL A   1      31.378  33.994  26.771  1.00  0.00     0.163 HD
BRANCH  12  14
ATOM     14  C   UNL A   1      34.145  33.433  28.559  1.00  0.00     0.039 A 
ATOM     15  C   UNL A   1      34.057  32.140  29.082  1.00  0.00    -0.049 A 
ATOM     16  C   UNL A   1      35.371  34.105  28.559  1.00  0.00    -0.049 A 
ATOM     17  C   UNL A   1      35.153  31.581  29.732  1.00  0.00    -0.053 A 
ATOM     18  H   UNL A   1      33.183  31.602  28.984  1.00  0.00     0.063 H 
ATOM     19  C   UNL A   1      36.492  33.510  29.143  1.00  0.00    -0.053 A 
ATOM     20  H   UNL A   1      35.447  35.040  28.127  1.00  0.00     0.063 H 
ATOM     21  C   UNL A   1      36.383  32.259  29.769  1.00  0.00    -0.014 A 
ATOM     22  H   UNL A   1      35.063  30.661  30.190  1.00  0.00     0.063 H 
ATOM     23  H   UNL A   1      37.404  33.993  29.115  1.00  0.00     0.063 H 
BRANCH  21  24
ATOM     24  C   UNL A   1      37.551  31.628  30.436  1.00  0.00     0.031 A 
ATOM     25  C   UNL A   1      37.914  31.970  31.854  1.00  0.00     0.074 A 
ATOM     26  C   UNL A   1      38.275  30.720  29.756  1.00  0.00     0.049 A 
ATOM     27  N   UNL A   1      38.887  31.498  32.595  1.00  0.00    -0.248 NA
ATOM     28  C   UNL A   1      37.084  32.980  32.528  1.00  0.00    -0.034 C 
ATOM     29  C   UNL A   1      38.025  30.314  28.372  1.00  0.00    -0.036 A 
ATOM     30  N   UNL A   1      39.354  29.964  30.136  1.00  0.00    -0.354 N 
ATOM     31  C   UNL A   1      38.801  32.167  33.809  1.00  0.00     0.074 A 
ATOM     32  C   UNL A   1      37.695  33.095  33.699  1.00  0.00    -0.034 C 
ATOM     33  H   UNL A   1      36.246  33.470  32.180  1.00  0.00     0.065 H 
ATOM     34  C   UNL A   1      38.896  29.351  28.034  1.00  0.00    -0.036 A 
ATOM     35  H   UNL A   1      37.298  30.705  27.755  1.00  0.00     0.065 H 
ATOM     36  C   UNL A   1      39.796  29.110  29.157  1.00  0.00     0.049 A 
ATOM     37  H   UNL A   1      39.771  30.027  31.026  1.00  0.00     0.167 HD
ATOM     38  C   UNL A   1      39.571  32.015  34.914  1.00  0.00     0.037 A 
ATOM     39  H   UNL A   1      37.419  33.762  34.437  1.00  0.00     0.065 H 
ATOM     40  H   UNL A   1      38.923  28.858  27.127  1.00  0.00     0.065 H 
ATOM     41  C   UNL A   1      40.819  28.237  29.157  1.00  0.00     0.037 A 
ATOM     42  C   UNL A   1      40.658  31.075  35.025  1.00  0.00     0.049 A 
ATOM     43  C   UNL A   1      41.665  28.099  30.389  1.00  0.00     0.074 A 
ATOM     44  C   UNL A   1      41.466  30.813  36.118  1.00  0.00    -0.036 A 
ATOM     45  N   UNL A   1      41.095  30.247  34.000  1.00  0.00    -0.354 N 
ATOM     46  N   UNL A   1      41.549  28.707  31.544  1.00  0.00    -0.248 NA
ATOM     47  C   UNL A   1      42.787  27.155  30.316  1.00  0.00    -0.034 C 
ATOM     48  C   UNL A   1      42.420  29.861  35.742  1.00  0.00    -0.036 A 
ATOM     49  H   UNL A   1      41.380  31.246  37.051  1.00  0.00     0.065 H 
ATOM     50  C   UNL A   1      42.176  29.492  34.428  1.00  0.00     0.049 A 
ATOM     51  H   UNL A   1      40.697  30.204  33.101  1.00  0.00     0.167 HD
ATOM     52  C   UNL A   1      42.566  28.206  32.342  1.00  0.00     0.074 A 
ATOM     53  C   UNL A   1      43.282  27.232  31.543  1.00  0.00    -0.034 C 
ATOM     54  H   UNL A   1      43.107  26.581  29.519  1.00  0.00     0.065 H 
ATOM     55  H   UNL A   1      43.177  29.495  36.340  1.00  0.00     0.065 H 
ATOM     56  C   UNL A   1      42.877  28.525  33.622  1.00  0.00     0.037 A 
ATOM     57  H   UNL A   1      44.077  26.671  31.886  1.00  0.00     0.065 H 
BRANCH  38  58
ATOM     58  C   UNL A   1      39.278  32.902  36.091  1.00  0.00     0.064 A 
ATOM     59  C   UNL A   1      38.408  32.506  37.117  1.00  0.00     0.173 A 
ATOM     60  C   UNL A   1      39.901  34.153  36.207  1.00  0.00     0.173 A 
ATOM     61  F   UNL A   1      37.778  31.323  37.051  1.00  0.00    -0.203 F 
ATOM     62  C   UNL A   1      38.149  33.344  38.201  1.00  0.00     0.198 A 
ATOM     63  C   UNL A   1      39.661  34.977  37.305  1.00  0.00     0.198 A 
ATOM     64  F   UNL A   1      40.750  34.578  35.259  1.00  0.00    -0.203 F 
ATOM     65  F   UNL A   1      37.275  32.965  39.144  1.00  0.00    -0.200 F 
ATOM     66  C   UNL A   1      38.779  34.575  38.295  1.00  0.00     0.200 A 
ATOM     67  F   UNL A   1      40.281  36.161  37.401  1.00  0.00    -0.200 F 
ATOM     68  F   UNL A   1      38.529  35.379  39.338  1.00  0.00    -0.200 F 
ENDBRANCH  38  58
BRANCH  41  69
ATOM     69  C   UNL A   1      41.075  27.411  27.950  1.00  0.00     0.064 A 
ATOM     70  C   UNL A   1      41.886  27.889  26.913  1.00  0.00     0.173 A 
ATOM     71  C   UNL A   1      40.543  26.120  27.824  1.00  0.00     0.173 A 
ATOM     72  F   UNL A   1      42.402  29.126  26.982  1.00  0.00    -0.203 F 
ATOM     73  C   UNL A   1      42.153  27.107  25.792  1.00  0.00     0.198 A 
ATOM     74  C   UNL A   1      40.832  25.329  26.715  1.00  0.00     0.198 A 
ATOM     75  F   UNL A   1      39.765  25.617  28.794  1.00  0.00    -0.203 F 
ATOM     76  F   UNL A   1      42.911  27.598  24.801  1.00  0.00    -0.200 F 
ATOM     77  C   UNL A   1      41.634  25.825  25.698  1.00  0.00     0.200 A 
ATOM     78  F   UNL A   1      40.342  24.084  26.636  1.00  0.00    -0.200 F 
ATOM     79  F   UNL A   1      41.903  25.068  24.626  1.00  0.00    -0.200 F 
ENDBRANCH  41  69
BRANCH  56  80
ATOM     80  C   UNL A   1      44.024  27.787  34.248  1.00  0.00     0.064 A 
ATOM     81  C   UNL A   1      43.843  26.549  34.883  1.00  0.00     0.173 A 
ATOM     82  C   UNL A   1      45.323  28.314  34.192  1.00  0.00     0.173 A 
ATOM     83  F   UNL A   1      42.618  26.011  34.979  1.00  0.00    -0.203 F 
ATOM     84  C   UNL A   1      44.918  25.880  35.463  1.00  0.00     0.198 A 
ATOM     85  C   UNL A   1      46.399  27.630  34.749  1.00  0.00     0.198 A 
ATOM     86  F   UNL A   1      45.547  29.493  33.593  1.00  0.00    -0.203 F 
ATOM     87  F   UNL A   1      44.716  24.722  36.108  1.00  0.00    -0.200 F 
ATOM     88  C   UNL A   1      46.196  26.417  35.390  1.00  0.00     0.200 A 
ATOM     89  F   UNL A   1      47.632  28.146  34.668  1.00  0.00    -0.200 F 
ATOM     90  F   UNL A   1      47.229  25.770  35.947  1.00  0.00    -0.200 F 
ENDBRANCH  56  80
ENDBRANCH  21  24
ENDBRANCH  12  14
ENDBRANCH   7  10
ENDBRANCH   4   7
ENDBRANCH   1   4
BRANCH   1  91
ATOM     91  C   UNL A   1      29.938  30.176  24.040  1.00  0.00    -0.052 C 
ATOM     92  H   UNL A   1      29.532  31.131  23.778  1.00  0.00     0.027 H 
ATOM     93  H   UNL A   1      29.266  29.531  24.566  1.00  0.00     0.027 H 
BRANCH  91  94
ATOM     94  C   UNL A   1      30.265  29.437  22.734  1.00  0.00    -0.036 C 
ATOM     95  H   UNL A   1      30.905  30.066  22.151  1.00  0.00     0.028 H 
ATOM     96  H   UNL A   1      29.323  29.230  22.272  1.00  0.00     0.028 H 
BRANCH  94  97
ATOM     97  C   UNL A   1      30.956  28.085  22.899  1.00  0.00     0.017 C 
ATOM     98  H   UNL A   1      30.382  27.344  22.384  1.00  0.00     0.049 H 
ATOM     99  H   UNL A   1      31.019  27.886  23.947  1.00  0.00     0.049 H 
BRANCH  97 100
ATOM    100  N   UNL A   1      32.304  28.070  22.376  1.00  0.00    -0.354 N 
ATOM    101  C   UNL A   1      33.179  27.057  22.135  1.00  0.00     0.249 C 
ATOM    102  H   UNL A   1      32.655  28.962  22.152  1.00  0.00     0.163 HD
ATOM    103  O   UNL A   1      34.251  27.411  21.626  1.00  0.00    -0.272 OA
BRANCH 101 104
ATOM    104  C   UNL A   1      32.927  25.565  22.497  1.00  0.00     0.140 C 
ATOM    105  C   UNL A   1      34.063  24.679  22.970  1.00  0.00     0.019 C 
ATOM    106  O   UNL A   1      31.904  25.490  23.506  1.00  0.00    -0.357 OA
ATOM    107  H   UNL A   1      32.677  25.168  21.535  1.00  0.00     0.071 H 
ATOM    108  C   UNL A   1      33.708  24.173  24.372  1.00  0.00     0.124 C 
ATOM    109  H   UNL A   1      34.973  25.241  23.004  1.00  0.00     0.033 H 
ATOM    110  H   UNL A   1      34.202  23.857  22.299  1.00  0.00     0.033 H 
ATOM    111  C   UNL A   1      32.474  25.035  24.748  1.00  0.00     0.118 C 
ATOM    112  H   UNL A   1      31.857  24.388  25.335  1.00  0.00     0.069 H 
BRANCH 108 113
ATOM    113  C   UNL A   1      33.679  22.631  24.346  1.00  0.00     0.005 A 
ATOM    114  C   UNL A   1      34.781  21.991  24.985  1.00  0.00    -0.055 A 
ATOM    115  C   UNL A   1      32.732  21.774  23.754  1.00  0.00     0.047 A 
ATOM    116  C   UNL A   1      34.913  20.604  25.071  1.00  0.00    -0.062 A 
ATOM    117  H   UNL A   1      35.517  22.581  25.405  1.00  0.00     0.063 H 
ATOM    118  C   UNL A   1      32.853  20.375  23.876  1.00  0.00    -0.043 A 
ATOM    119  Cl  UNL A   1      31.404  22.273  22.775  1.00  0.00    -0.084 Cl
ATOM    120  C   UNL A   1      33.933  19.791  24.530  1.00  0.00    -0.061 A 
ATOM    121  H   UNL A   1      35.736  20.187  25.534  1.00  0.00     0.062 H 
ATOM    122  H   UNL A   1      32.121  19.769  23.471  1.00  0.00     0.064 H 
ATOM    123  H   UNL A   1      34.002  18.765  24.611  1.00  0.00     0.062 H 
ENDBRANCH 108 113
BRANCH 108 124
ATOM    124  O   UNL A   1      34.817  24.509  25.240  1.00  0.00    -0.382 OA
ATOM    125  H   UNL A   1      35.323  23.707  25.443  1.00  0.00     0.212 HD
ENDBRANCH 108 124
BRANCH 111 126
ATOM    126  C   UNL A   1      32.653  26.233  25.685  1.00  0.00     0.003 A 
ATOM    127  C   UNL A   1      33.879  26.922  25.759  1.00  0.00    -0.055 A 
ATOM    128  C   UNL A   1      31.596  26.730  26.475  1.00  0.00     0.046 A 
ATOM    129  C   UNL A   1      34.029  28.087  26.518  1.00  0.00    -0.062 A 
ATOM    130  H   UNL A   1      34.692  26.557  25.237  1.00  0.00     0.063 H 
ATOM    131  C   UNL A   1      31.751  27.890  27.247  1.00  0.00    -0.043 A 
ATOM    132  Cl  UNL A   1      30.054  25.947  26.585  1.00  0.00    -0.084 Cl
ATOM    133  C   UNL A   1      32.960  28.578  27.254  1.00  0.00    -0.061 A 
ATOM    134  H   UNL A   1      34.934  28.581  26.530  1.00  0.00     0.062 H 
ATOM    135  H   UNL A   1      30.961  28.237  27.814  1.00  0.00     0.064 H 
ATOM    136  H   UNL A   1      33.062  29.446  27.803  1.00  0.00     0.062 H 
ENDBRANCH 111 126
ENDBRANCH 101 104
ENDBRANCH  97 100
ENDBRANCH  94  97
ENDBRANCH  91  94
ENDBRANCH   1  91
TORSDOF 16
ENDMDL
MODEL 5
REMARK VINA RESULT:     -10.5      6.775     12.714
REMARK SMILES O=C(NCCCCCCNC(=O)[C@H]1C[C@](O)(c2ccccc2Cl)[C@@H](c2ccccc2Cl)O1)c1ccc(-c2c3nc(c(-c4c(F)c(F)c(F)c(F)c4F)c4ccc([nH]4)c(-c4c(F)c(F)c(F)c(F)c4F)c4nc(c(-c5c(F)c(F)c(F)c(F)c5F)c5ccc2[nH]5)C=C4)C=C3)cc1
REMARK SMILES IDX 6 1 5 4 4 7 3 10 1 11 2 12 33 14 34 15 95 16 35 17 94 19
REMARK SMILES IDX 36 21 37 24 38 25 88 26 39 27 93 28 87 29 89 30 40 31 92 32
REMARK SMILES IDX 86 34 85 36 41 38 73 41 53 42 72 43 54 44 57 45 71 46 90 47
REMARK SMILES IDX 55 48 56 50 70 52 91 53 58 56 42 58 43 59 51 60 44 61 45 62
REMARK SMILES IDX 49 63 52 64 46 65 47 66 50 67 48 68 74 69 75 70 83 71 76 72
REMARK SMILES IDX 77 73 81 74 84 75 78 76 79 77 82 78 80 79 59 80 60 81 68 82
REMARK SMILES IDX 61 83 62 84 66 85 69 86 63 87 64 88 67 89 65 90 7 91 8 94
REMARK SMILES IDX 9 97 10 100 11 101 12 103 13 104 14 105 32 106 15 108 24 111
REMARK SMILES IDX 17 113 18 114 22 115 19 116 21 118 23 119 20 120 16 124
REMARK SMILES IDX 25 126 26 127 30 128 27 129 29 131 31 132 28 133
REMARK H PARENT 6 2 6 3 5 5 5 6 4 8 4 9 3 13 34 18 95 20 35 22 94 23 93 33
REMARK H PARENT 87 35 89 37 92 39 86 40 54 49 57 51 90 54 55 55 91 57 7 92
REMARK H PARENT 7 93 8 95 8 96 9 98 9 99 10 102 13 107 14 109 14 110 24 112
REMARK H PARENT 18 117 19 121 21 122 20 123 16 125 26 130 27 134 29 135 28 136
REMARK Flexibility Score: inf
ROOT
ATOM      1  C   UNL A   1      41.686  21.227  26.134  1.00  0.00    -0.052 C 
ATOM      2  H   UNL A   1      41.047  21.539  25.335  1.00  0.00     0.027 H 
ATOM      3  H   UNL A   1      42.701  21.552  26.046  1.00  0.00     0.027 H 
ENDROOT
BRANCH   1   4
ATOM      4  C   UNL A   1      41.748  19.699  26.109  1.00  0.00    -0.036 C 
ATOM      5  H   UNL A   1      41.192  19.336  26.948  1.00  0.00     0.028 H 
ATOM      6  H   UNL A   1      41.348  19.413  25.159  1.00  0.00     0.028 H 
BRANCH   4   7
ATOM      7  C   UNL A   1      43.139  19.081  26.169  1.00  0.00     0.018 C 
ATOM      8  H   UNL A   1      43.779  19.746  26.713  1.00  0.00     0.049 H 
ATOM      9  H   UNL A   1      43.034  18.129  26.647  1.00  0.00     0.049 H 
BRANCH   7  10
ATOM     10  N   UNL A   1      43.734  18.837  24.869  1.00  0.00    -0.352 N 
ATOM     11  O   UNL A   1      44.859  19.331  22.975  1.00  0.00    -0.269 OA
ATOM     12  C   UNL A   1      44.487  19.683  24.086  1.00  0.00     0.251 C 
ATOM     13  H   UNL A   1      43.577  17.940  24.493  1.00  0.00     0.163 HD
BRANCH  12  14
ATOM     14  C   UNL A   1      44.813  21.044  24.574  1.00  0.00     0.039 A 
ATOM     15  C   UNL A   1      45.469  21.241  25.791  1.00  0.00    -0.049 A 
ATOM     16  C   UNL A   1      44.441  22.143  23.794  1.00  0.00    -0.049 A 
ATOM     17  C   UNL A   1      45.621  22.529  26.295  1.00  0.00    -0.053 A 
ATOM     18  H   UNL A   1      45.841  20.433  26.315  1.00  0.00     0.063 H 
ATOM     19  C   UNL A   1      44.665  23.439  24.265  1.00  0.00    -0.053 A 
ATOM     20  H   UNL A   1      44.002  21.997  22.871  1.00  0.00     0.063 H 
ATOM     21  C   UNL A   1      45.222  23.644  25.537  1.00  0.00    -0.014 A 
ATOM     22  H   UNL A   1      46.030  22.669  27.232  1.00  0.00     0.063 H 
ATOM     23  H   UNL A   1      44.420  24.250  23.676  1.00  0.00     0.063 H 
BRANCH  21  24
ATOM     24  C   UNL A   1      45.428  25.011  26.077  1.00  0.00     0.031 A 
ATOM     25  C   UNL A   1      46.770  25.685  25.998  1.00  0.00     0.074 A 
ATOM     26  C   UNL A   1      44.382  25.658  26.623  1.00  0.00     0.049 A 
ATOM     27  N   UNL A   1      47.119  26.882  26.399  1.00  0.00    -0.248 NA
ATOM     28  C   UNL A   1      47.867  24.911  25.398  1.00  0.00    -0.034 C 
ATOM     29  C   UNL A   1      43.034  25.105  26.766  1.00  0.00    -0.036 A 
ATOM     30  N   UNL A   1      44.280  26.922  27.147  1.00  0.00    -0.354 N 
ATOM     31  C   UNL A   1      48.475  26.997  26.124  1.00  0.00     0.074 A 
ATOM     32  C   UNL A   1      48.892  25.739  25.542  1.00  0.00    -0.034 C 
ATOM     33  H   UNL A   1      47.845  23.969  24.977  1.00  0.00     0.065 H 
ATOM     34  C   UNL A   1      42.230  26.039  27.295  1.00  0.00    -0.036 A 
ATOM     35  H   UNL A   1      42.748  24.150  26.502  1.00  0.00     0.065 H 
ATOM     36  C   UNL A   1      43.015  27.235  27.578  1.00  0.00     0.049 A 
ATOM     37  H   UNL A   1      45.041  27.545  27.206  1.00  0.00     0.167 HD
ATOM     38  C   UNL A   1      49.293  28.057  26.332  1.00  0.00     0.037 A 
ATOM     39  H   UNL A   1      49.864  25.515  25.273  1.00  0.00     0.065 H 
ATOM     40  H   UNL A   1      41.219  25.929  27.472  1.00  0.00     0.065 H 
ATOM     41  C   UNL A   1      42.541  28.357  28.149  1.00  0.00     0.037 A 
ATOM     42  C   UNL A   1      48.868  29.315  26.895  1.00  0.00     0.049 A 
ATOM     43  C   UNL A   1      43.472  29.512  28.382  1.00  0.00     0.074 A 
ATOM     44  C   UNL A   1      49.611  30.465  27.101  1.00  0.00    -0.036 A 
ATOM     45  N   UNL A   1      47.584  29.584  27.348  1.00  0.00    -0.354 N 
ATOM     46  N   UNL A   1      44.742  29.623  28.080  1.00  0.00    -0.248 NA
ATOM     47  C   UNL A   1      42.903  30.695  29.039  1.00  0.00    -0.034 C 
ATOM     48  C   UNL A   1      48.789  31.413  27.720  1.00  0.00    -0.036 A 
ATOM     49  H   UNL A   1      50.601  30.599  26.844  1.00  0.00     0.065 H 
ATOM     50  C   UNL A   1      47.520  30.873  27.855  1.00  0.00     0.049 A 
ATOM     51  H   UNL A   1      46.830  28.952  27.315  1.00  0.00     0.167 HD
ATOM     52  C   UNL A   1      45.121  30.893  28.489  1.00  0.00     0.074 A 
ATOM     53  C   UNL A   1      43.941  31.520  29.049  1.00  0.00    -0.034 C 
ATOM     54  H   UNL A   1      41.947  30.845  29.399  1.00  0.00     0.065 H 
ATOM     55  H   UNL A   1      49.079  32.356  28.025  1.00  0.00     0.065 H 
ATOM     56  C   UNL A   1      46.338  31.484  28.407  1.00  0.00     0.037 A 
ATOM     57  H   UNL A   1      43.912  32.486  29.409  1.00  0.00     0.065 H 
BRANCH  38  58
ATOM     58  C   UNL A   1      50.742  27.897  25.970  1.00  0.00     0.064 A 
ATOM     59  C   UNL A   1      51.199  28.067  24.654  1.00  0.00     0.173 A 
ATOM     60  C   UNL A   1      51.692  27.600  26.959  1.00  0.00     0.173 A 
ATOM     61  F   UNL A   1      50.332  28.343  23.669  1.00  0.00    -0.203 F 
ATOM     62  C   UNL A   1      52.547  27.913  24.338  1.00  0.00     0.198 A 
ATOM     63  C   UNL A   1      53.043  27.473  26.645  1.00  0.00     0.198 A 
ATOM     64  F   UNL A   1      51.311  27.436  28.235  1.00  0.00    -0.203 F 
ATOM     65  F   UNL A   1      52.953  28.031  23.066  1.00  0.00    -0.200 F 
ATOM     66  C   UNL A   1      53.468  27.621  25.333  1.00  0.00     0.200 A 
ATOM     67  F   UNL A   1      53.932  27.204  27.610  1.00  0.00    -0.200 F 
ATOM     68  F   UNL A   1      54.764  27.475  25.028  1.00  0.00    -0.200 F 
ENDBRANCH  38  58
BRANCH  41  69
ATOM     69  C   UNL A   1      41.104  28.441  28.512  1.00  0.00     0.064 A 
ATOM     70  C   UNL A   1      40.662  28.047  29.782  1.00  0.00     0.173 A 
ATOM     71  C   UNL A   1      40.153  28.945  27.614  1.00  0.00     0.173 A 
ATOM     72  F   UNL A   1      41.534  27.543  30.669  1.00  0.00    -0.203 F 
ATOM     73  C   UNL A   1      39.319  28.151  30.139  1.00  0.00     0.198 A 
ATOM     74  C   UNL A   1      38.816  29.072  27.980  1.00  0.00     0.198 A 
ATOM     75  F   UNL A   1      40.530  29.339  26.389  1.00  0.00    -0.203 F 
ATOM     76  F   UNL A   1      38.917  27.743  31.350  1.00  0.00    -0.200 F 
ATOM     77  C   UNL A   1      38.399  28.672  29.241  1.00  0.00     0.200 A 
ATOM     78  F   UNL A   1      37.933  29.591  27.116  1.00  0.00    -0.200 F 
ATOM     79  F   UNL A   1      37.111  28.784  29.589  1.00  0.00    -0.200 F 
ENDBRANCH  41  69
BRANCH  56  80
ATOM     80  C   UNL A   1      46.443  32.896  28.905  1.00  0.00     0.064 A 
ATOM     81  C   UNL A   1      46.798  33.184  30.230  1.00  0.00     0.173 A 
ATOM     82  C   UNL A   1      46.208  33.974  28.037  1.00  0.00     0.173 A 
ATOM     83  F   UNL A   1      47.016  32.189  31.103  1.00  0.00    -0.203 F 
ATOM     84  C   UNL A   1      46.888  34.500  30.677  1.00  0.00     0.198 A 
ATOM     85  C   UNL A   1      46.324  35.288  28.480  1.00  0.00     0.198 A 
ATOM     86  F   UNL A   1      45.868  33.750  26.759  1.00  0.00    -0.203 F 
ATOM     87  F   UNL A   1      47.180  34.752  31.960  1.00  0.00    -0.200 F 
ATOM     88  C   UNL A   1      46.656  35.551  29.800  1.00  0.00     0.200 A 
ATOM     89  F   UNL A   1      46.110  36.300  27.629  1.00  0.00    -0.200 F 
ATOM     90  F   UNL A   1      46.744  36.817  30.231  1.00  0.00    -0.200 F 
ENDBRANCH  56  80
ENDBRANCH  21  24
ENDBRANCH  12  14
ENDBRANCH   7  10
ENDBRANCH   4   7
ENDBRANCH   1   4
BRANCH   1  91
ATOM     91  C   UNL A   1      41.166  21.869  27.424  1.00  0.00    -0.052 C 
ATOM     92  H   UNL A   1      41.971  22.425  27.856  1.00  0.00     0.027 H 
ATOM     93  H   UNL A   1      40.813  21.052  28.019  1.00  0.00     0.027 H 
BRANCH  91  94
ATOM     94  C   UNL A   1      39.965  22.818  27.293  1.00  0.00    -0.036 C 
ATOM     95  H   UNL A   1      40.336  23.781  27.013  1.00  0.00     0.028 H 
ATOM     96  H   UNL A   1      39.475  22.802  28.244  1.00  0.00     0.028 H 
BRANCH  94  97
ATOM     97  C   UNL A   1      38.909  22.405  26.270  1.00  0.00     0.017 C 
ATOM     98  H   UNL A   1      38.515  21.453  26.553  1.00  0.00     0.049 H 
ATOM     99  H   UNL A   1      39.388  22.373  25.314  1.00  0.00     0.049 H 
BRANCH  97 100
ATOM    100  N   UNL A   1      37.816  23.347  26.172  1.00  0.00    -0.354 N 
ATOM    101  C   UNL A   1      36.581  23.258  25.609  1.00  0.00     0.249 C 
ATOM    102  H   UNL A   1      38.001  24.217  26.593  1.00  0.00     0.163 HD
ATOM    103  O   UNL A   1      35.872  24.261  25.761  1.00  0.00    -0.272 OA
BRANCH 101 104
ATOM    104  C   UNL A   1      36.070  22.040  24.786  1.00  0.00     0.140 C 
ATOM    105  C   UNL A   1      35.440  20.846  25.478  1.00  0.00     0.019 C 
ATOM    106  O   UNL A   1      35.118  22.495  23.809  1.00  0.00    -0.357 OA
ATOM    107  H   UNL A   1      36.995  21.656  24.408  1.00  0.00     0.071 H 
ATOM    108  C   UNL A   1      34.012  20.697  24.942  1.00  0.00     0.124 C 
ATOM    109  H   UNL A   1      35.418  21.009  26.536  1.00  0.00     0.033 H 
ATOM    110  H   UNL A   1      36.007  19.959  25.287  1.00  0.00     0.033 H 
ATOM    111  C   UNL A   1      33.802  22.012  24.145  1.00  0.00     0.118 C 
ATOM    112  H   UNL A   1      33.183  21.735  23.318  1.00  0.00     0.069 H 
BRANCH 108 113
ATOM    113  C   UNL A   1      33.868  19.298  24.308  1.00  0.00     0.005 A 
ATOM    114  C   UNL A   1      34.773  18.312  24.798  1.00  0.00    -0.055 A 
ATOM    115  C   UNL A   1      32.988  18.873  23.295  1.00  0.00     0.047 A 
ATOM    116  C   UNL A   1      34.777  16.990  24.349  1.00  0.00    -0.062 A 
ATOM    117  H   UNL A   1      35.459  18.589  25.518  1.00  0.00     0.063 H 
ATOM    118  C   UNL A   1      32.972  17.528  22.873  1.00  0.00    -0.043 A 
ATOM    119  Cl  UNL A   1      31.915  19.890  22.408  1.00  0.00    -0.084 Cl
ATOM    120  C   UNL A   1      33.858  16.591  23.396  1.00  0.00    -0.061 A 
ATOM    121  H   UNL A   1      35.461  16.315  24.726  1.00  0.00     0.062 H 
ATOM    122  H   UNL A   1      32.287  17.232  22.160  1.00  0.00     0.064 H 
ATOM    123  H   UNL A   1      33.829  15.610  23.076  1.00  0.00     0.062 H 
ENDBRANCH 108 113
BRANCH 108 124
ATOM    124  O   UNL A   1      33.127  20.678  26.087  1.00  0.00    -0.382 OA
ATOM    125  H   UNL A   1      32.271  20.302  25.828  1.00  0.00     0.212 HD
ENDBRANCH 108 124
BRANCH 111 126
ATOM    126  C   UNL A   1      32.996  23.151  24.775  1.00  0.00     0.003 A 
ATOM    127  C   UNL A   1      32.719  23.170  26.156  1.00  0.00    -0.055 A 
ATOM    128  C   UNL A   1      32.538  24.250  24.019  1.00  0.00     0.046 A 
ATOM    129  C   UNL A   1      32.087  24.256  26.768  1.00  0.00    -0.062 A 
ATOM    130  H   UNL A   1      32.991  22.357  26.733  1.00  0.00     0.063 H 
ATOM    131  C   UNL A   1      31.892  25.333  24.633  1.00  0.00    -0.043 A 
ATOM    132  Cl  UNL A   1      32.700  24.342  22.297  1.00  0.00    -0.084 Cl
ATOM    133  C   UNL A   1      31.683  25.344  26.008  1.00  0.00    -0.061 A 
ATOM    134  H   UNL A   1      31.922  24.248  27.787  1.00  0.00     0.062 H 
ATOM    135  H   UNL A   1      31.569  26.128  24.060  1.00  0.00     0.064 H 
ATOM    136  H   UNL A   1      31.230  26.154  26.460  1.00  0.00     0.062 H 
ENDBRANCH 111 126
ENDBRANCH 101 104
ENDBRANCH  97 100
ENDBRANCH  94  97
ENDBRANCH  91  94
ENDBRANCH   1  91
TORSDOF 16
ENDMDL
MODEL 6
REMARK VINA RESULT:     -10.4      6.647     12.066
REMARK SMILES O=C(NCCCCCCNC(=O)[C@H]1C[C@](O)(c2ccccc2Cl)[C@@H](c2ccccc2Cl)O1)c1ccc(-c2c3nc(c(-c4c(F)c(F)c(F)c(F)c4F)c4ccc([nH]4)c(-c4c(F)c(F)c(F)c(F)c4F)c4nc(c(-c5c(F)c(F)c(F)c(F)c5F)c5ccc2[nH]5)C=C4)C=C3)cc1
REMARK SMILES IDX 6 1 5 4 4 7 3 10 1 11 2 12 33 14 34 15 95 16 35 17 94 19
REMARK SMILES IDX 36 21 37 24 38 25 88 26 39 27 93 28 87 29 89 30 40 31 92 32
REMARK SMILES IDX 86 34 85 36 41 38 73 41 53 42 72 43 54 44 57 45 71 46 90 47
REMARK SMILES IDX 55 48 56 50 70 52 91 53 58 56 42 58 43 59 51 60 44 61 45 62
REMARK SMILES IDX 49 63 52 64 46 65 47 66 50 67 48 68 74 69 75 70 83 71 76 72
REMARK SMILES IDX 77 73 81 74 84 75 78 76 79 77 82 78 80 79 59 80 60 81 68 82
REMARK SMILES IDX 61 83 62 84 66 85 69 86 63 87 64 88 67 89 65 90 7 91 8 94
REMARK SMILES IDX 9 97 10 100 11 101 12 103 13 104 14 105 32 106 15 108 24 111
REMARK SMILES IDX 17 113 18 114 22 115 19 116 21 118 23 119 20 120 16 124
REMARK SMILES IDX 25 126 26 127 30 128 27 129 29 131 31 132 28 133
REMARK H PARENT 6 2 6 3 5 5 5 6 4 8 4 9 3 13 34 18 95 20 35 22 94 23 93 33
REMARK H PARENT 87 35 89 37 92 39 86 40 54 49 57 51 90 54 55 55 91 57 7 92
REMARK H PARENT 7 93 8 95 8 96 9 98 9 99 10 102 13 107 14 109 14 110 24 112
REMARK H PARENT 18 117 19 121 21 122 20 123 16 125 26 130 27 134 29 135 28 136
REMARK Flexibility Score: inf
ROOT
ATOM      1  C   UNL A   1      41.339  21.683  26.549  1.00  0.00    -0.052 C 
ATOM      2  H   UNL A   1      41.610  22.301  25.718  1.00  0.00     0.027 H 
ATOM      3  H   UNL A   1      42.038  21.693  27.359  1.00  0.00     0.027 H 
ENDROOT
BRANCH   1   4
ATOM      4  C   UNL A   1      41.309  20.235  26.059  1.00  0.00    -0.036 C 
ATOM      5  H   UNL A   1      40.494  19.742  26.547  1.00  0.00     0.028 H 
ATOM      6  H   UNL A   1      41.213  20.295  24.995  1.00  0.00     0.028 H 
BRANCH   4   7
ATOM      7  C   UNL A   1      42.567  19.413  26.310  1.00  0.00     0.018 C 
ATOM      8  H   UNL A   1      43.217  19.979  26.946  1.00  0.00     0.049 H 
ATOM      9  H   UNL A   1      42.252  18.494  26.758  1.00  0.00     0.049 H 
BRANCH   7  10
ATOM     10  N   UNL A   1      43.296  19.067  25.105  1.00  0.00    -0.352 N 
ATOM     11  O   UNL A   1      44.665  19.395  23.340  1.00  0.00    -0.269 OA
ATOM     12  C   UNL A   1      44.186  19.827  24.379  1.00  0.00     0.251 C 
ATOM     13  H   UNL A   1      43.132  18.160  24.756  1.00  0.00     0.163 HD
BRANCH  12  14
ATOM     14  C   UNL A   1      44.531  21.194  24.836  1.00  0.00     0.039 A 
ATOM     15  C   UNL A   1      45.306  21.403  25.979  1.00  0.00    -0.049 A 
ATOM     16  C   UNL A   1      44.056  22.286  24.104  1.00  0.00    -0.049 A 
ATOM     17  C   UNL A   1      45.482  22.694  26.469  1.00  0.00    -0.053 A 
ATOM     18  H   UNL A   1      45.748  20.603  26.457  1.00  0.00     0.063 H 
ATOM     19  C   UNL A   1      44.299  23.586  24.554  1.00  0.00    -0.053 A 
ATOM     20  H   UNL A   1      43.526  22.132  23.231  1.00  0.00     0.063 H 
ATOM     21  C   UNL A   1      44.982  23.800  25.762  1.00  0.00    -0.014 A 
ATOM     22  H   UNL A   1      45.984  22.840  27.358  1.00  0.00     0.063 H 
ATOM     23  H   UNL A   1      43.976  24.392  23.997  1.00  0.00     0.063 H 
BRANCH  21  24
ATOM     24  C   UNL A   1      45.212  25.171  26.283  1.00  0.00     0.031 A 
ATOM     25  C   UNL A   1      46.563  25.825  26.180  1.00  0.00     0.074 A 
ATOM     26  C   UNL A   1      44.182  25.839  26.834  1.00  0.00     0.049 A 
ATOM     27  N   UNL A   1      46.933  27.022  26.563  1.00  0.00    -0.248 NA
ATOM     28  C   UNL A   1      47.642  25.029  25.576  1.00  0.00    -0.034 C 
ATOM     29  C   UNL A   1      42.829  25.306  26.999  1.00  0.00    -0.036 A 
ATOM     30  N   UNL A   1      44.105  27.110  27.344  1.00  0.00    -0.354 N 
ATOM     31  C   UNL A   1      48.287  27.114  26.270  1.00  0.00     0.074 A 
ATOM     32  C   UNL A   1      48.680  25.844  25.697  1.00  0.00    -0.034 C 
ATOM     33  H   UNL A   1      47.601  24.083  25.167  1.00  0.00     0.065 H 
ATOM     34  C   UNL A   1      42.044  26.257  27.527  1.00  0.00    -0.036 A 
ATOM     35  H   UNL A   1      42.527  24.352  26.750  1.00  0.00     0.065 H 
ATOM     36  C   UNL A   1      42.850  27.446  27.787  1.00  0.00     0.049 A 
ATOM     37  H   UNL A   1      44.874  27.723  27.387  1.00  0.00     0.167 HD
ATOM     38  C   UNL A   1      49.122  28.166  26.456  1.00  0.00     0.037 A 
ATOM     39  H   UNL A   1      49.645  25.604  25.420  1.00  0.00     0.065 H 
ATOM     40  H   UNL A   1      41.034  26.164  27.718  1.00  0.00     0.065 H 
ATOM     41  C   UNL A   1      42.398  28.581  28.350  1.00  0.00     0.037 A 
ATOM     42  C   UNL A   1      48.722  29.436  27.008  1.00  0.00     0.049 A 
ATOM     43  C   UNL A   1      43.348  29.725  28.559  1.00  0.00     0.074 A 
ATOM     44  C   UNL A   1      49.483  30.577  27.192  1.00  0.00    -0.036 A 
ATOM     45  N   UNL A   1      47.447  29.728  27.474  1.00  0.00    -0.354 N 
ATOM     46  N   UNL A   1      44.615  29.815  28.239  1.00  0.00    -0.248 NA
ATOM     47  C   UNL A   1      42.803  30.923  29.208  1.00  0.00    -0.034 C 
ATOM     48  C   UNL A   1      48.682  31.545  27.810  1.00  0.00    -0.036 A 
ATOM     49  H   UNL A   1      50.471  30.695  26.922  1.00  0.00     0.065 H 
ATOM     50  C   UNL A   1      47.408  31.023  27.967  1.00  0.00     0.049 A 
ATOM     51  H   UNL A   1      46.684  29.106  27.457  1.00  0.00     0.167 HD
ATOM     52  C   UNL A   1      45.016  31.084  28.629  1.00  0.00     0.074 A 
ATOM     53  C   UNL A   1      43.852  31.734  29.196  1.00  0.00    -0.034 C 
ATOM     54  H   UNL A   1      41.854  31.091  29.578  1.00  0.00     0.065 H 
ATOM     55  H   UNL A   1      48.988  32.486  28.100  1.00  0.00     0.065 H 
ATOM     56  C   UNL A   1      46.240  31.658  28.525  1.00  0.00     0.037 A 
ATOM     57  H   UNL A   1      43.841  32.705  29.544  1.00  0.00     0.065 H 
BRANCH  38  58
ATOM     58  C   UNL A   1      50.565  27.981  26.078  1.00  0.00     0.064 A 
ATOM     59  C   UNL A   1      51.547  27.680  27.034  1.00  0.00     0.173 A 
ATOM     60  C   UNL A   1      50.965  28.079  24.737  1.00  0.00     0.173 A 
ATOM     61  F   UNL A   1      51.220  27.585  28.331  1.00  0.00    -0.203 F 
ATOM     62  C   UNL A   1      52.880  27.513  26.664  1.00  0.00     0.198 A 
ATOM     63  C   UNL A   1      52.293  27.885  24.367  1.00  0.00     0.198 A 
ATOM     64  F   UNL A   1      50.065  28.356  23.781  1.00  0.00    -0.203 F 
ATOM     65  F   UNL A   1      53.808  27.275  27.600  1.00  0.00    -0.200 F 
ATOM     66  C   UNL A   1      53.251  27.612  25.331  1.00  0.00     0.200 A 
ATOM     67  F   UNL A   1      52.648  27.968  23.077  1.00  0.00    -0.200 F 
ATOM     68  F   UNL A   1      54.533  27.451  24.977  1.00  0.00    -0.200 F 
ENDBRANCH  38  58
BRANCH  41  69
ATOM     69  C   UNL A   1      40.967  28.688  28.730  1.00  0.00     0.064 A 
ATOM     70  C   UNL A   1      40.010  29.124  27.804  1.00  0.00     0.173 A 
ATOM     71  C   UNL A   1      40.523  28.327  30.010  1.00  0.00     0.173 A 
ATOM     72  F   UNL A   1      40.391  29.497  26.572  1.00  0.00    -0.203 F 
ATOM     73  C   UNL A   1      38.662  29.198  28.146  1.00  0.00     0.198 A 
ATOM     74  C   UNL A   1      39.173  28.377  30.342  1.00  0.00     0.198 A 
ATOM     75  F   UNL A   1      41.401  27.899  30.928  1.00  0.00    -0.203 F 
ATOM     76  F   UNL A   1      37.770  29.643  27.251  1.00  0.00    -0.200 F 
ATOM     77  C   UNL A   1      38.243  28.816  29.411  1.00  0.00     0.200 A 
ATOM     78  F   UNL A   1      38.770  27.991  31.561  1.00  0.00    -0.200 F 
ATOM     79  F   UNL A   1      36.945  28.874  29.735  1.00  0.00    -0.200 F 
ENDBRANCH  41  69
BRANCH  56  80
ATOM     80  C   UNL A   1      46.371  33.073  29.005  1.00  0.00     0.064 A 
ATOM     81  C   UNL A   1      46.129  34.163  28.157  1.00  0.00     0.173 A 
ATOM     82  C   UNL A   1      46.721  33.341  30.337  1.00  0.00     0.173 A 
ATOM     83  F   UNL A   1      45.809  33.960  26.870  1.00  0.00    -0.203 F 
ATOM     84  C   UNL A   1      46.259  35.471  28.618  1.00  0.00     0.198 A 
ATOM     85  C   UNL A   1      46.824  34.649  30.802  1.00  0.00     0.198 A 
ATOM     86  F   UNL A   1      46.960  32.332  31.189  1.00  0.00    -0.203 F 
ATOM     87  F   UNL A   1      46.072  36.498  27.778  1.00  0.00    -0.200 F 
ATOM     88  C   UNL A   1      46.601  35.712  29.941  1.00  0.00     0.200 A 
ATOM     89  F   UNL A   1      47.145  34.879  32.082  1.00  0.00    -0.200 F 
ATOM     90  F   UNL A   1      46.724  36.972  30.384  1.00  0.00    -0.200 F 
ENDBRANCH  56  80
ENDBRANCH  21  24
ENDBRANCH  12  14
ENDBRANCH   7  10
ENDBRANCH   4   7
ENDBRANCH   1   4
BRANCH   1  91
ATOM     91  C   UNL A   1      40.035  22.235  27.133  1.00  0.00    -0.052 C 
ATOM     92  H   UNL A   1      40.291  23.032  27.799  1.00  0.00     0.027 H 
ATOM     93  H   UNL A   1      39.561  21.395  27.598  1.00  0.00     0.027 H 
BRANCH  91  94
ATOM     94  C   UNL A   1      39.001  22.777  26.136  1.00  0.00    -0.036 C 
ATOM     95  H   UNL A   1      39.528  23.131  25.275  1.00  0.00     0.028 H 
ATOM     96  H   UNL A   1      38.462  23.540  26.658  1.00  0.00     0.028 H 
BRANCH  94  97
ATOM     97  C   UNL A   1      37.951  21.773  25.665  1.00  0.00     0.017 C 
ATOM     98  H   UNL A   1      37.155  21.753  26.378  1.00  0.00     0.049 H 
ATOM     99  H   UNL A   1      38.436  20.823  25.579  1.00  0.00     0.049 H 
BRANCH  97 100
ATOM    100  N   UNL A   1      37.401  22.094  24.366  1.00  0.00    -0.354 N 
ATOM    101  C   UNL A   1      36.469  23.000  23.968  1.00  0.00     0.249 C 
ATOM    102  H   UNL A   1      37.773  21.554  23.632  1.00  0.00     0.163 HD
ATOM    103  O   UNL A   1      36.275  23.038  22.746  1.00  0.00    -0.272 OA
BRANCH 101 104
ATOM    104  C   UNL A   1      35.645  23.903  24.931  1.00  0.00     0.140 C 
ATOM    105  C   UNL A   1      34.799  25.041  24.393  1.00  0.00     0.019 C 
ATOM    106  O   UNL A   1      34.768  23.079  25.718  1.00  0.00    -0.357 OA
ATOM    107  H   UNL A   1      36.433  24.399  25.459  1.00  0.00     0.071 H 
ATOM    108  C   UNL A   1      33.346  24.776  24.804  1.00  0.00     0.124 C 
ATOM    109  H   UNL A   1      34.876  25.079  23.327  1.00  0.00     0.033 H 
ATOM    110  H   UNL A   1      35.135  25.978  24.787  1.00  0.00     0.033 H 
ATOM    111  C   UNL A   1      33.398  23.322  25.341  1.00  0.00     0.118 C 
ATOM    112  H   UNL A   1      32.685  23.299  26.138  1.00  0.00     0.069 H 
BRANCH 108 113
ATOM    113  C   UNL A   1      32.849  25.967  25.648  1.00  0.00     0.005 A 
ATOM    114  C   UNL A   1      33.835  26.949  25.957  1.00  0.00    -0.055 A 
ATOM    115  C   UNL A   1      31.566  26.200  26.179  1.00  0.00     0.047 A 
ATOM    116  C   UNL A   1      33.561  28.100  26.698  1.00  0.00    -0.062 A 
ATOM    117  H   UNL A   1      34.798  26.803  25.615  1.00  0.00     0.063 H 
ATOM    118  C   UNL A   1      31.287  27.381  26.895  1.00  0.00    -0.043 A 
ATOM    119  Cl  UNL A   1      30.239  25.101  26.110  1.00  0.00    -0.084 Cl
ATOM    120  C   UNL A   1      32.274  28.327  27.153  1.00  0.00    -0.061 A 
ATOM    121  H   UNL A   1      34.312  28.776  26.906  1.00  0.00     0.062 H 
ATOM    122  H   UNL A   1      30.326  27.549  27.236  1.00  0.00     0.064 H 
ATOM    123  H   UNL A   1      32.049  29.187  27.677  1.00  0.00     0.062 H 
ENDBRANCH 108 113
BRANCH 108 124
ATOM    124  O   UNL A   1      32.548  24.819  23.597  1.00  0.00    -0.382 OA
ATOM    125  H   UNL A   1      33.091  25.143  22.861  1.00  0.00     0.212 HD
ENDBRANCH 108 124
BRANCH 111 126
ATOM    126  C   UNL A   1      32.912  22.175  24.450  1.00  0.00     0.003 A 
ATOM    127  C   UNL A   1      32.471  22.412  23.134  1.00  0.00    -0.055 A 
ATOM    128  C   UNL A   1      32.930  20.833  24.884  1.00  0.00     0.046 A 
ATOM    129  C   UNL A   1      32.135  21.368  22.267  1.00  0.00    -0.062 A 
ATOM    130  H   UNL A   1      32.393  23.386  22.799  1.00  0.00     0.063 H 
ATOM    131  C   UNL A   1      32.579  19.787  24.018  1.00  0.00    -0.043 A 
ATOM    132  Cl  UNL A   1      33.344  20.371  26.501  1.00  0.00    -0.084 Cl
ATOM    133  C   UNL A   1      32.200  20.053  22.706  1.00  0.00    -0.061 A 
ATOM    134  H   UNL A   1      31.839  21.576  21.301  1.00  0.00     0.062 H 
ATOM    135  H   UNL A   1      32.603  18.812  24.356  1.00  0.00     0.064 H 
ATOM    136  H   UNL A   1      31.968  19.279  22.064  1.00  0.00     0.062 H 
ENDBRANCH 111 126
ENDBRANCH 101 104
ENDBRANCH  97 100
ENDBRANCH  94  97
ENDBRANCH  91  94
ENDBRANCH   1  91
TORSDOF 16
ENDMDL
MODEL 7
REMARK VINA RESULT:     -10.4      6.078     11.775
REMARK SMILES O=C(NCCCCCCNC(=O)[C@H]1C[C@](O)(c2ccccc2Cl)[C@@H](c2ccccc2Cl)O1)c1ccc(-c2c3nc(c(-c4c(F)c(F)c(F)c(F)c4F)c4ccc([nH]4)c(-c4c(F)c(F)c(F)c(F)c4F)c4nc(c(-c5c(F)c(F)c(F)c(F)c5F)c5ccc2[nH]5)C=C4)C=C3)cc1
REMARK SMILES IDX 6 1 5 4 4 7 3 10 1 11 2 12 33 14 34 15 95 16 35 17 94 19
REMARK SMILES IDX 36 21 37 24 38 25 88 26 39 27 93 28 87 29 89 30 40 31 92 32
REMARK SMILES IDX 86 34 85 36 41 38 73 41 53 42 72 43 54 44 57 45 71 46 90 47
REMARK SMILES IDX 55 48 56 50 70 52 91 53 58 56 42 58 43 59 51 60 44 61 45 62
REMARK SMILES IDX 49 63 52 64 46 65 47 66 50 67 48 68 74 69 75 70 83 71 76 72
REMARK SMILES IDX 77 73 81 74 84 75 78 76 79 77 82 78 80 79 59 80 60 81 68 82
REMARK SMILES IDX 61 83 62 84 66 85 69 86 63 87 64 88 67 89 65 90 7 91 8 94
REMARK SMILES IDX 9 97 10 100 11 101 12 103 13 104 14 105 32 106 15 108 24 111
REMARK SMILES IDX 17 113 18 114 22 115 19 116 21 118 23 119 20 120 16 124
REMARK SMILES IDX 25 126 26 127 30 128 27 129 29 131 31 132 28 133
REMARK H PARENT 6 2 6 3 5 5 5 6 4 8 4 9 3 13 34 18 95 20 35 22 94 23 93 33
REMARK H PARENT 87 35 89 37 92 39 86 40 54 49 57 51 90 54 55 55 91 57 7 92
REMARK H PARENT 7 93 8 95 8 96 9 98 9 99 10 102 13 107 14 109 14 110 24 112
REMARK H PARENT 18 117 19 121 21 122 20 123 16 125 26 130 27 134 29 135 28 136
REMARK Flexibility Score: inf
ROOT
ATOM      1  C   UNL A   1      36.403  19.577  25.017  1.00  0.00    -0.052 C 
ATOM      2  H   UNL A   1      36.539  19.061  25.944  1.00  0.00     0.027 H 
ATOM      3  H   UNL A   1      36.170  18.945  24.186  1.00  0.00     0.027 H 
ENDROOT
BRANCH   1   4
ATOM      4  C   UNL A   1      37.733  20.242  24.657  1.00  0.00    -0.036 C 
ATOM      5  H   UNL A   1      38.194  19.655  23.891  1.00  0.00     0.028 H 
ATOM      6  H   UNL A   1      37.482  21.238  24.358  1.00  0.00     0.028 H 
BRANCH   4   7
ATOM      7  C   UNL A   1      38.737  20.396  25.793  1.00  0.00     0.018 C 
ATOM      8  H   UNL A   1      39.225  21.343  25.684  1.00  0.00     0.049 H 
ATOM      9  H   UNL A   1      38.185  20.320  26.706  1.00  0.00     0.049 H 
BRANCH   7  10
ATOM     10  N   UNL A   1      39.752  19.361  25.827  1.00  0.00    -0.352 N 
ATOM     11  O   UNL A   1      41.828  18.495  26.019  1.00  0.00    -0.269 OA
ATOM     12  C   UNL A   1      41.098  19.473  26.098  1.00  0.00     0.251 C 
ATOM     13  H   UNL A   1      39.435  18.449  25.629  1.00  0.00     0.163 HD
BRANCH  12  14
ATOM     14  C   UNL A   1      41.672  20.794  26.443  1.00  0.00     0.039 A 
ATOM     15  C   UNL A   1      41.936  21.148  27.768  1.00  0.00    -0.049 A 
ATOM     16  C   UNL A   1      41.942  21.699  25.411  1.00  0.00    -0.049 A 
ATOM     17  C   UNL A   1      42.327  22.448  28.073  1.00  0.00    -0.053 A 
ATOM     18  H   UNL A   1      41.841  20.446  28.519  1.00  0.00     0.063 H 
ATOM     19  C   UNL A   1      42.411  22.980  25.712  1.00  0.00    -0.053 A 
ATOM     20  H   UNL A   1      41.795  21.420  24.428  1.00  0.00     0.063 H 
ATOM     21  C   UNL A   1      42.570  23.379  27.049  1.00  0.00    -0.014 A 
ATOM     22  H   UNL A   1      42.441  22.731  29.058  1.00  0.00     0.063 H 
ATOM     23  H   UNL A   1      42.640  23.637  24.950  1.00  0.00     0.063 H 
BRANCH  21  24
ATOM     24  C   UNL A   1      43.024  24.750  27.394  1.00  0.00     0.031 A 
ATOM     25  C   UNL A   1      44.428  25.200  27.104  1.00  0.00     0.074 A 
ATOM     26  C   UNL A   1      42.147  25.603  27.955  1.00  0.00     0.049 A 
ATOM     27  N   UNL A   1      44.984  26.367  27.319  1.00  0.00    -0.248 NA
ATOM     28  C   UNL A   1      45.333  24.209  26.501  1.00  0.00    -0.034 C 
ATOM     29  C   UNL A   1      40.760  25.278  28.294  1.00  0.00    -0.036 A 
ATOM     30  N   UNL A   1      42.282  26.916  28.327  1.00  0.00    -0.354 N 
ATOM     31  C   UNL A   1      46.303  26.245  26.903  1.00  0.00     0.074 A 
ATOM     32  C   UNL A   1      46.472  24.884  26.441  1.00  0.00    -0.034 C 
ATOM     33  H   UNL A   1      45.132  23.242  26.202  1.00  0.00     0.065 H 
ATOM     34  C   UNL A   1      40.159  26.374  28.780  1.00  0.00    -0.036 A 
ATOM     35  H   UNL A   1      40.316  24.354  28.178  1.00  0.00     0.065 H 
ATOM     36  C   UNL A   1      41.130  27.461  28.836  1.00  0.00     0.049 A 
ATOM     37  H   UNL A   1      43.123  27.419  28.236  1.00  0.00     0.167 HD
ATOM     38  C   UNL A   1      47.279  27.186  26.899  1.00  0.00     0.037 A 
ATOM     39  H   UNL A   1      47.367  24.488  26.110  1.00  0.00     0.065 H 
ATOM     40  H   UNL A   1      39.169  26.438  29.066  1.00  0.00     0.065 H 
ATOM     41  C   UNL A   1      40.884  28.697  29.308  1.00  0.00     0.037 A 
ATOM     42  C   UNL A   1      47.099  28.547  27.341  1.00  0.00     0.049 A 
ATOM     43  C   UNL A   1      41.987  29.715  29.307  1.00  0.00     0.074 A 
ATOM     44  C   UNL A   1      48.013  29.587  27.332  1.00  0.00    -0.036 A 
ATOM     45  N   UNL A   1      45.924  29.054  27.879  1.00  0.00    -0.354 N 
ATOM     46  N   UNL A   1      43.217  29.600  28.872  1.00  0.00    -0.248 NA
ATOM     47  C   UNL A   1      41.666  31.035  29.865  1.00  0.00    -0.034 C 
ATOM     48  C   UNL A   1      47.407  30.709  27.906  1.00  0.00    -0.036 A 
ATOM     49  H   UNL A   1      48.976  29.541  26.966  1.00  0.00     0.065 H 
ATOM     50  C   UNL A   1      46.099  30.385  28.228  1.00  0.00     0.049 A 
ATOM     51  H   UNL A   1      45.091  28.544  27.997  1.00  0.00     0.167 HD
ATOM     52  C   UNL A   1      43.813  30.835  29.083  1.00  0.00     0.074 A 
ATOM     53  C   UNL A   1      42.802  31.689  29.673  1.00  0.00    -0.034 C 
ATOM     54  H   UNL A   1      40.787  31.366  30.295  1.00  0.00     0.065 H 
ATOM     55  H   UNL A   1      47.857  31.624  28.064  1.00  0.00     0.065 H 
ATOM     56  C   UNL A   1      45.083  31.223  28.812  1.00  0.00     0.037 A 
ATOM     57  H   UNL A   1      42.949  32.682  29.913  1.00  0.00     0.065 H 
BRANCH  38  58
ATOM     58  C   UNL A   1      48.641  26.771  26.421  1.00  0.00     0.064 A 
ATOM     59  C   UNL A   1      49.568  26.155  27.275  1.00  0.00     0.173 A 
ATOM     60  C   UNL A   1      49.012  26.965  25.082  1.00  0.00     0.173 A 
ATOM     61  F   UNL A   1      49.268  25.954  28.567  1.00  0.00    -0.203 F 
ATOM     62  C   UNL A   1      50.828  25.778  26.813  1.00  0.00     0.198 A 
ATOM     63  C   UNL A   1      50.262  26.563  24.617  1.00  0.00     0.198 A 
ATOM     64  F   UNL A   1      48.161  27.542  24.221  1.00  0.00    -0.203 F 
ATOM     65  F   UNL A   1      51.715  25.237  27.659  1.00  0.00    -0.200 F 
ATOM     66  C   UNL A   1      51.172  25.978  25.484  1.00  0.00     0.200 A 
ATOM     67  F   UNL A   1      50.588  26.746  23.330  1.00  0.00    -0.200 F 
ATOM     68  F   UNL A   1      52.383  25.614  25.042  1.00  0.00    -0.200 F 
ENDBRANCH  38  58
BRANCH  41  69
ATOM     69  C   UNL A   1      39.523  29.035  29.796  1.00  0.00     0.064 A 
ATOM     70  C   UNL A   1      38.565  29.577  28.929  1.00  0.00     0.173 A 
ATOM     71  C   UNL A   1      39.143  28.792  31.124  1.00  0.00     0.173 A 
ATOM     72  F   UNL A   1      38.889  29.842  27.654  1.00  0.00    -0.203 F 
ATOM     73  C   UNL A   1      37.278  29.868  29.374  1.00  0.00     0.198 A 
ATOM     74  C   UNL A   1      37.849  29.060  31.560  1.00  0.00     0.198 A 
ATOM     75  F   UNL A   1      40.024  28.269  31.989  1.00  0.00    -0.203 F 
ATOM     76  F   UNL A   1      36.388  30.411  28.532  1.00  0.00    -0.200 F 
ATOM     77  C   UNL A   1      36.918  29.601  30.686  1.00  0.00     0.200 A 
ATOM     78  F   UNL A   1      37.500  28.784  32.825  1.00  0.00    -0.200 F 
ATOM     79  F   UNL A   1      35.676  29.868  31.110  1.00  0.00    -0.200 F 
ENDBRANCH  41  69
BRANCH  56  80
ATOM     80  C   UNL A   1      45.439  32.648  29.120  1.00  0.00     0.064 A 
ATOM     81  C   UNL A   1      45.232  33.676  28.189  1.00  0.00     0.173 A 
ATOM     82  C   UNL A   1      45.973  32.991  30.372  1.00  0.00     0.173 A 
ATOM     83  F   UNL A   1      44.741  33.398  26.973  1.00  0.00    -0.203 F 
ATOM     84  C   UNL A   1      45.573  34.993  28.491  1.00  0.00     0.198 A 
ATOM     85  C   UNL A   1      46.287  34.311  30.679  1.00  0.00     0.198 A 
ATOM     86  F   UNL A   1      46.186  32.043  31.298  1.00  0.00    -0.203 F 
ATOM     87  F   UNL A   1      45.413  35.953  27.569  1.00  0.00    -0.200 F 
ATOM     88  C   UNL A   1      46.094  35.310  29.737  1.00  0.00     0.200 A 
ATOM     89  F   UNL A   1      46.781  34.616  31.887  1.00  0.00    -0.200 F 
ATOM     90  F   UNL A   1      46.419  36.578  30.026  1.00  0.00    -0.200 F 
ENDBRANCH  56  80
ENDBRANCH  21  24
ENDBRANCH  12  14
ENDBRANCH   7  10
ENDBRANCH   4   7
ENDBRANCH   1   4
BRANCH   1  91
ATOM     91  C   UNL A   1      35.194  20.505  25.172  1.00  0.00    -0.052 C 
ATOM     92  H   UNL A   1      35.280  21.274  24.433  1.00  0.00     0.027 H 
ATOM     93  H   UNL A   1      35.235  20.848  26.185  1.00  0.00     0.027 H 
BRANCH  91  94
ATOM     94  C   UNL A   1      33.806  19.868  25.019  1.00  0.00    -0.036 C 
ATOM     95  H   UNL A   1      33.669  19.178  25.825  1.00  0.00     0.028 H 
ATOM     96  H   UNL A   1      33.798  19.411  24.052  1.00  0.00     0.028 H 
BRANCH  94  97
ATOM     97  C   UNL A   1      32.630  20.843  25.030  1.00  0.00     0.017 C 
ATOM     98  H   UNL A   1      31.739  20.305  24.785  1.00  0.00     0.049 H 
ATOM     99  H   UNL A   1      32.846  21.609  24.316  1.00  0.00     0.049 H 
BRANCH  97 100
ATOM    100  N   UNL A   1      32.441  21.489  26.310  1.00  0.00    -0.354 N 
ATOM    101  C   UNL A   1      31.727  22.584  26.684  1.00  0.00     0.249 C 
ATOM    102  H   UNL A   1      32.920  21.052  27.051  1.00  0.00     0.163 HD
ATOM    103  O   UNL A   1      31.751  22.826  27.898  1.00  0.00    -0.272 OA
BRANCH 101 104
ATOM    104  C   UNL A   1      30.968  23.523  25.702  1.00  0.00     0.140 C 
ATOM    105  C   UNL A   1      30.927  25.021  25.937  1.00  0.00     0.019 C 
ATOM    106  O   UNL A   1      31.481  23.331  24.372  1.00  0.00    -0.357 OA
ATOM    107  H   UNL A   1      29.958  23.211  25.873  1.00  0.00     0.071 H 
ATOM    108  C   UNL A   1      31.562  25.700  24.718  1.00  0.00     0.124 C 
ATOM    109  H   UNL A   1      31.479  25.266  26.820  1.00  0.00     0.033 H 
ATOM    110  H   UNL A   1      29.919  25.353  26.068  1.00  0.00     0.033 H 
ATOM    111  C   UNL A   1      32.192  24.510  23.947  1.00  0.00     0.118 C 
ATOM    112  H   UNL A   1      32.090  24.769  22.914  1.00  0.00     0.069 H 
BRANCH 108 113
ATOM    113  C   UNL A   1      30.523  26.653  24.090  1.00  0.00     0.005 A 
ATOM    114  C   UNL A   1      29.161  26.281  24.284  1.00  0.00    -0.055 A 
ATOM    115  C   UNL A   1      30.739  27.817  23.329  1.00  0.00     0.047 A 
ATOM    116  C   UNL A   1      28.089  27.032  23.798  1.00  0.00    -0.062 A 
ATOM    117  H   UNL A   1      28.957  25.416  24.808  1.00  0.00     0.063 H 
ATOM    118  C   UNL A   1      29.652  28.591  22.874  1.00  0.00    -0.043 A 
ATOM    119  Cl  UNL A   1      32.273  28.397  22.798  1.00  0.00    -0.084 Cl
ATOM    120  C   UNL A   1      28.336  28.205  23.106  1.00  0.00    -0.061 A 
ATOM    121  H   UNL A   1      27.119  26.716  23.954  1.00  0.00     0.062 H 
ATOM    122  H   UNL A   1      29.837  29.465  22.356  1.00  0.00     0.064 H 
ATOM    123  H   UNL A   1      27.553  28.786  22.767  1.00  0.00     0.062 H 
ENDBRANCH 108 113
BRANCH 108 124
ATOM    124  O   UNL A   1      32.610  26.568  25.212  1.00  0.00    -0.382 OA
ATOM    125  H   UNL A   1      32.740  27.303  24.593  1.00  0.00     0.212 HD
ENDBRANCH 108 124
BRANCH 111 126
ATOM    126  C   UNL A   1      33.698  24.256  24.061  1.00  0.00     0.003 A 
ATOM    127  C   UNL A   1      34.412  24.621  25.219  1.00  0.00    -0.055 A 
ATOM    128  C   UNL A   1      34.425  23.607  23.042  1.00  0.00     0.046 A 
ATOM    129  C   UNL A   1      35.760  24.293  25.389  1.00  0.00    -0.062 A 
ATOM    130  H   UNL A   1      33.926  25.146  25.963  1.00  0.00     0.063 H 
ATOM    131  C   UNL A   1      35.781  23.291  23.209  1.00  0.00    -0.043 A 
ATOM    132  Cl  UNL A   1      33.731  23.182  21.513  1.00  0.00    -0.084 Cl
ATOM    133  C   UNL A   1      36.443  23.617  24.389  1.00  0.00    -0.061 A 
ATOM    134  H   UNL A   1      36.247  24.553  26.261  1.00  0.00     0.062 H 
ATOM    135  H   UNL A   1      36.292  22.811  22.451  1.00  0.00     0.064 H 
ATOM    136  H   UNL A   1      37.434  23.359  24.518  1.00  0.00     0.062 H 
ENDBRANCH 111 126
ENDBRANCH 101 104
ENDBRANCH  97 100
ENDBRANCH  94  97
ENDBRANCH  91  94
ENDBRANCH   1  91
TORSDOF 16
ENDMDL
MODEL 8
REMARK VINA RESULT:     -10.3      6.612     12.588
REMARK SMILES O=C(NCCCCCCNC(=O)[C@H]1C[C@](O)(c2ccccc2Cl)[C@@H](c2ccccc2Cl)O1)c1ccc(-c2c3nc(c(-c4c(F)c(F)c(F)c(F)c4F)c4ccc([nH]4)c(-c4c(F)c(F)c(F)c(F)c4F)c4nc(c(-c5c(F)c(F)c(F)c(F)c5F)c5ccc2[nH]5)C=C4)C=C3)cc1
REMARK SMILES IDX 6 1 5 4 4 7 3 10 1 11 2 12 33 14 34 15 95 16 35 17 94 19
REMARK SMILES IDX 36 21 37 24 38 25 88 26 39 27 93 28 87 29 89 30 40 31 92 32
REMARK SMILES IDX 86 34 85 36 41 38 73 41 53 42 72 43 54 44 57 45 71 46 90 47
REMARK SMILES IDX 55 48 56 50 70 52 91 53 58 56 42 58 43 59 51 60 44 61 45 62
REMARK SMILES IDX 49 63 52 64 46 65 47 66 50 67 48 68 74 69 75 70 83 71 76 72
REMARK SMILES IDX 77 73 81 74 84 75 78 76 79 77 82 78 80 79 59 80 60 81 68 82
REMARK SMILES IDX 61 83 62 84 66 85 69 86 63 87 64 88 67 89 65 90 7 91 8 94
REMARK SMILES IDX 9 97 10 100 11 101 12 103 13 104 14 105 32 106 15 108 24 111
REMARK SMILES IDX 17 113 18 114 22 115 19 116 21 118 23 119 20 120 16 124
REMARK SMILES IDX 25 126 26 127 30 128 27 129 29 131 31 132 28 133
REMARK H PARENT 6 2 6 3 5 5 5 6 4 8 4 9 3 13 34 18 95 20 35 22 94 23 93 33
REMARK H PARENT 87 35 89 37 92 39 86 40 54 49 57 51 90 54 55 55 91 57 7 92
REMARK H PARENT 7 93 8 95 8 96 9 98 9 99 10 102 13 107 14 109 14 110 24 112
REMARK H PARENT 18 117 19 121 21 122 20 123 16 125 26 130 27 134 29 135 28 136
REMARK Flexibility Score: inf
ROOT
ATOM      1  C   UNL A   1      38.485  21.425  25.372  1.00  0.00    -0.052 C 
ATOM      2  H   UNL A   1      37.431  21.397  25.556  1.00  0.00     0.027 H 
ATOM      3  H   UNL A   1      38.762  21.855  24.433  1.00  0.00     0.027 H 
ENDROOT
BRANCH   1   4
ATOM      4  C   UNL A   1      38.984  19.981  25.318  1.00  0.00    -0.036 C 
ATOM      5  H   UNL A   1      38.128  19.342  25.251  1.00  0.00     0.028 H 
ATOM      6  H   UNL A   1      39.635  19.935  24.470  1.00  0.00     0.028 H 
BRANCH   4   7
ATOM      7  C   UNL A   1      39.822  19.513  26.501  1.00  0.00     0.018 C 
ATOM      8  H   UNL A   1      40.051  20.365  27.109  1.00  0.00     0.049 H 
ATOM      9  H   UNL A   1      39.241  18.782  27.022  1.00  0.00     0.049 H 
BRANCH   7  10
ATOM     10  N   UNL A   1      41.068  18.873  26.126  1.00  0.00    -0.352 N 
ATOM     11  O   UNL A   1      43.262  18.742  25.610  1.00  0.00    -0.269 OA
ATOM     12  C   UNL A   1      42.325  19.423  26.004  1.00  0.00     0.251 C 
ATOM     13  H   UNL A   1      41.007  17.909  25.931  1.00  0.00     0.163 HD
BRANCH  12  14
ATOM     14  C   UNL A   1      42.534  20.857  26.309  1.00  0.00     0.039 A 
ATOM     15  C   UNL A   1      42.567  21.817  25.295  1.00  0.00    -0.049 A 
ATOM     16  C   UNL A   1      42.710  21.242  27.642  1.00  0.00    -0.049 A 
ATOM     17  C   UNL A   1      42.919  23.130  25.595  1.00  0.00    -0.053 A 
ATOM     18  H   UNL A   1      42.330  21.554  24.326  1.00  0.00     0.063 H 
ATOM     19  C   UNL A   1      42.986  22.576  27.951  1.00  0.00    -0.053 A 
ATOM     20  H   UNL A   1      42.635  20.541  28.395  1.00  0.00     0.063 H 
ATOM     21  C   UNL A   1      43.132  23.525  26.927  1.00  0.00    -0.014 A 
ATOM     22  H   UNL A   1      43.025  23.819  24.835  1.00  0.00     0.063 H 
ATOM     23  H   UNL A   1      43.085  22.865  28.937  1.00  0.00     0.063 H 
BRANCH  21  24
ATOM     24  C   UNL A   1      43.470  24.938  27.230  1.00  0.00     0.031 A 
ATOM     25  C   UNL A   1      44.815  25.509  26.875  1.00  0.00     0.074 A 
ATOM     26  C   UNL A   1      42.541  25.719  27.811  1.00  0.00     0.049 A 
ATOM     27  N   UNL A   1      45.269  26.726  27.048  1.00  0.00    -0.248 NA
ATOM     28  C   UNL A   1      45.783  24.592  26.253  1.00  0.00    -0.034 C 
ATOM     29  C   UNL A   1      41.204  25.275  28.212  1.00  0.00    -0.036 A 
ATOM     30  N   UNL A   1      42.569  27.046  28.155  1.00  0.00    -0.354 N 
ATOM     31  C   UNL A   1      46.577  26.716  26.580  1.00  0.00     0.074 A 
ATOM     32  C   UNL A   1      46.853  25.366  26.136  1.00  0.00    -0.034 C 
ATOM     33  H   UNL A   1      45.661  23.605  25.980  1.00  0.00     0.065 H 
ATOM     34  C   UNL A   1      40.524  26.322  28.703  1.00  0.00    -0.036 A 
ATOM     35  H   UNL A   1      40.843  24.313  28.130  1.00  0.00     0.065 H 
ATOM     36  C   UNL A   1      41.393  27.494  28.701  1.00  0.00     0.049 A 
ATOM     37  H   UNL A   1      43.356  27.622  28.021  1.00  0.00     0.167 HD
ATOM     38  C   UNL A   1      47.461  27.742  26.521  1.00  0.00     0.037 A 
ATOM     39  H   UNL A   1      47.766  25.047  25.776  1.00  0.00     0.065 H 
ATOM     40  H   UNL A   1      39.544  26.302  29.027  1.00  0.00     0.065 H 
ATOM     41  C   UNL A   1      41.052  28.712  29.161  1.00  0.00     0.037 A 
ATOM     42  C   UNL A   1      47.174  29.089  26.946  1.00  0.00     0.049 A 
ATOM     43  C   UNL A   1      42.056  29.827  29.098  1.00  0.00     0.074 A 
ATOM     44  C   UNL A   1      47.987  30.207  26.883  1.00  0.00    -0.036 A 
ATOM     45  N   UNL A   1      45.979  29.498  27.523  1.00  0.00    -0.354 N 
ATOM     46  N   UNL A   1      43.274  29.815  28.615  1.00  0.00    -0.248 NA
ATOM     47  C   UNL A   1      41.637  31.123  29.646  1.00  0.00    -0.034 C 
ATOM     48  C   UNL A   1      47.303  31.282  27.462  1.00  0.00    -0.036 A 
ATOM     49  H   UNL A   1      48.936  30.242  26.479  1.00  0.00     0.065 H 
ATOM     50  C   UNL A   1      46.044  30.846  27.842  1.00  0.00     0.049 A 
ATOM     51  H   UNL A   1      45.202  28.916  27.684  1.00  0.00     0.167 HD
ATOM     52  C   UNL A   1      43.761  31.103  28.781  1.00  0.00     0.074 A 
ATOM     53  C   UNL A   1      42.700  31.874  29.397  1.00  0.00    -0.034 C 
ATOM     54  H   UNL A   1      40.749  31.381  30.105  1.00  0.00     0.065 H 
ATOM     55  H   UNL A   1      47.673  32.237  27.585  1.00  0.00     0.065 H 
ATOM     56  C   UNL A   1      44.978  31.600  28.452  1.00  0.00     0.037 A 
ATOM     57  H   UNL A   1      42.764  32.881  29.613  1.00  0.00     0.065 H 
BRANCH  38  58
ATOM     58  C   UNL A   1      48.836  27.443  25.995  1.00  0.00     0.064 A 
ATOM     59  C   UNL A   1      49.904  27.133  26.851  1.00  0.00     0.173 A 
ATOM     60  C   UNL A   1      49.082  27.438  24.614  1.00  0.00     0.173 A 
ATOM     61  F   UNL A   1      49.726  27.133  28.181  1.00  0.00    -0.203 F 
ATOM     62  C   UNL A   1      51.173  26.859  26.345  1.00  0.00     0.198 A 
ATOM     63  C   UNL A   1      50.345  27.138  24.109  1.00  0.00     0.198 A 
ATOM     64  F   UNL A   1      48.094  27.719  23.751  1.00  0.00    -0.203 F 
ATOM     65  F   UNL A   1      52.188  26.614  27.184  1.00  0.00    -0.200 F 
ATOM     66  C   UNL A   1      51.391  26.857  24.975  1.00  0.00     0.200 A 
ATOM     67  F   UNL A   1      50.550  27.124  22.785  1.00  0.00    -0.200 F 
ATOM     68  F   UNL A   1      52.611  26.593  24.489  1.00  0.00    -0.200 F 
ENDBRANCH  38  58
BRANCH  41  69
ATOM     69  C   UNL A   1      39.686  28.935  29.698  1.00  0.00     0.064 A 
ATOM     70  C   UNL A   1      39.395  28.681  31.044  1.00  0.00     0.173 A 
ATOM     71  C   UNL A   1      38.657  29.435  28.887  1.00  0.00     0.173 A 
ATOM     72  F   UNL A   1      40.344  28.186  31.853  1.00  0.00    -0.203 F 
ATOM     73  C   UNL A   1      38.122  28.916  31.560  1.00  0.00     0.198 A 
ATOM     74  C   UNL A   1      37.393  29.694  29.409  1.00  0.00     0.198 A 
ATOM     75  F   UNL A   1      38.890  29.698  27.593  1.00  0.00    -0.203 F 
ATOM     76  F   UNL A   1      37.861  28.641  32.845  1.00  0.00    -0.200 F 
ATOM     77  C   UNL A   1      37.125  29.431  30.745  1.00  0.00     0.200 A 
ATOM     78  F   UNL A   1      36.437  30.206  28.622  1.00  0.00    -0.200 F 
ATOM     79  F   UNL A   1      35.906  29.670  31.244  1.00  0.00    -0.200 F 
ENDBRANCH  41  69
BRANCH  56  80
ATOM     80  C   UNL A   1      45.214  33.058  28.721  1.00  0.00     0.064 A 
ATOM     81  C   UNL A   1      45.825  33.498  29.904  1.00  0.00     0.173 A 
ATOM     82  C   UNL A   1      44.843  34.023  27.773  1.00  0.00     0.173 A 
ATOM     83  F   UNL A   1      46.182  32.616  30.849  1.00  0.00    -0.203 F 
ATOM     84  C   UNL A   1      46.033  34.855  30.139  1.00  0.00     0.198 A 
ATOM     85  C   UNL A   1      45.076  35.376  28.000  1.00  0.00     0.198 A 
ATOM     86  F   UNL A   1      44.258  33.652  26.624  1.00  0.00    -0.203 F 
ATOM     87  F   UNL A   1      46.573  35.258  31.298  1.00  0.00    -0.200 F 
ATOM     88  C   UNL A   1      45.663  35.792  29.185  1.00  0.00     0.200 A 
ATOM     89  F   UNL A   1      44.727  36.279  27.073  1.00  0.00    -0.200 F 
ATOM     90  F   UNL A   1      45.865  37.098  29.412  1.00  0.00    -0.200 F 
ENDBRANCH  56  80
ENDBRANCH  21  24
ENDBRANCH  12  14
ENDBRANCH   7  10
ENDBRANCH   4   7
ENDBRANCH   1   4
BRANCH   1  91
ATOM     91  C   UNL A   1      39.118  22.329  26.434  1.00  0.00    -0.052 C 
ATOM     92  H   UNL A   1      40.168  22.380  26.230  1.00  0.00     0.027 H 
ATOM     93  H   UNL A   1      38.864  21.878  27.371  1.00  0.00     0.027 H 
BRANCH  91  94
ATOM     94  C   UNL A   1      38.593  23.768  26.525  1.00  0.00    -0.036 C 
ATOM     95  H   UNL A   1      39.379  24.426  26.220  1.00  0.00     0.028 H 
ATOM     96  H   UNL A   1      38.285  23.904  27.541  1.00  0.00     0.028 H 
BRANCH  94  97
ATOM     97  C   UNL A   1      37.364  24.076  25.672  1.00  0.00     0.017 C 
ATOM     98  H   UNL A   1      37.330  23.380  24.861  1.00  0.00     0.049 H 
ATOM     99  H   UNL A   1      37.459  25.085  25.330  1.00  0.00     0.049 H 
BRANCH  97 100
ATOM    100  N   UNL A   1      36.124  23.986  26.410  1.00  0.00    -0.354 N 
ATOM    101  C   UNL A   1      35.153  23.035  26.453  1.00  0.00     0.249 C 
ATOM    102  H   UNL A   1      35.950  24.760  26.992  1.00  0.00     0.163 HD
ATOM    103  O   UNL A   1      34.237  23.268  27.251  1.00  0.00    -0.272 OA
BRANCH 101 104
ATOM    104  C   UNL A   1      35.121  21.764  25.555  1.00  0.00     0.140 C 
ATOM    105  C   UNL A   1      34.261  20.572  25.931  1.00  0.00     0.019 C 
ATOM    106  O   UNL A   1      34.740  22.137  24.219  1.00  0.00    -0.357 OA
ATOM    107  H   UNL A   1      36.121  21.406  25.683  1.00  0.00     0.071 H 
ATOM    108  C   UNL A   1      33.264  20.338  24.790  1.00  0.00     0.124 C 
ATOM    109  H   UNL A   1      33.734  20.775  26.840  1.00  0.00     0.033 H 
ATOM    110  H   UNL A   1      34.868  19.703  26.082  1.00  0.00     0.033 H 
ATOM    111  C   UNL A   1      33.434  21.609  23.917  1.00  0.00     0.118 C 
ATOM    112  H   UNL A   1      33.288  21.273  22.912  1.00  0.00     0.069 H 
BRANCH 108 113
ATOM    113  C   UNL A   1      33.468  18.910  24.243  1.00  0.00     0.005 A 
ATOM    114  C   UNL A   1      34.304  18.069  25.034  1.00  0.00    -0.055 A 
ATOM    115  C   UNL A   1      32.966  18.337  23.059  1.00  0.00     0.047 A 
ATOM    116  C   UNL A   1      34.587  16.744  24.700  1.00  0.00    -0.062 A 
ATOM    117  H   UNL A   1      34.721  18.459  25.894  1.00  0.00     0.063 H 
ATOM    118  C   UNL A   1      33.225  16.987  22.747  1.00  0.00    -0.043 A 
ATOM    119  Cl  UNL A   1      32.079  19.172  21.840  1.00  0.00    -0.084 Cl
ATOM    120  C   UNL A   1      34.028  16.193  23.561  1.00  0.00    -0.061 A 
ATOM    121  H   UNL A   1      35.209  16.178  25.299  1.00  0.00     0.062 H 
ATOM    122  H   UNL A   1      32.809  16.578  21.896  1.00  0.00     0.064 H 
ATOM    123  H   UNL A   1      34.204  15.206  23.316  1.00  0.00     0.062 H 
ENDBRANCH 108 113
BRANCH 108 124
ATOM    124  O   UNL A   1      31.941  20.325  25.376  1.00  0.00    -0.382 OA
ATOM    125  H   UNL A   1      31.899  20.977  26.094  1.00  0.00     0.212 HD
ENDBRANCH 108 124
BRANCH 111 126
ATOM    126  C   UNL A   1      32.402  22.736  24.023  1.00  0.00     0.003 A 
ATOM    127  C   UNL A   1      31.566  22.854  25.151  1.00  0.00    -0.055 A 
ATOM    128  C   UNL A   1      32.272  23.728  23.030  1.00  0.00     0.046 A 
ATOM    129  C   UNL A   1      30.701  23.939  25.321  1.00  0.00    -0.062 A 
ATOM    130  H   UNL A   1      31.594  22.117  25.874  1.00  0.00     0.063 H 
ATOM    131  C   UNL A   1      31.394  24.809  23.195  1.00  0.00    -0.043 A 
ATOM    132  Cl  UNL A   1      33.145  23.682  21.534  1.00  0.00    -0.084 Cl
ATOM    133  C   UNL A   1      30.623  24.924  24.347  1.00  0.00    -0.061 A 
ATOM    134  H   UNL A   1      30.121  24.007  26.172  1.00  0.00     0.062 H 
ATOM    135  H   UNL A   1      31.320  25.526  22.456  1.00  0.00     0.064 H 
ATOM    136  H   UNL A   1      29.998  25.735  24.476  1.00  0.00     0.062 H 
ENDBRANCH 111 126
ENDBRANCH 101 104
ENDBRANCH  97 100
ENDBRANCH  94  97
ENDBRANCH  91  94
ENDBRANCH   1  91
TORSDOF 16
ENDMDL
MODEL 9
REMARK VINA RESULT:     -10.3      4.699      8.420
REMARK SMILES O=C(NCCCCCCNC(=O)[C@H]1C[C@](O)(c2ccccc2Cl)[C@@H](c2ccccc2Cl)O1)c1ccc(-c2c3nc(c(-c4c(F)c(F)c(F)c(F)c4F)c4ccc([nH]4)c(-c4c(F)c(F)c(F)c(F)c4F)c4nc(c(-c5c(F)c(F)c(F)c(F)c5F)c5ccc2[nH]5)C=C4)C=C3)cc1
REMARK SMILES IDX 6 1 5 4 4 7 3 10 1 11 2 12 33 14 34 15 95 16 35 17 94 19
REMARK SMILES IDX 36 21 37 24 38 25 88 26 39 27 93 28 87 29 89 30 40 31 92 32
REMARK SMILES IDX 86 34 85 36 41 38 73 41 53 42 72 43 54 44 57 45 71 46 90 47
REMARK SMILES IDX 55 48 56 50 70 52 91 53 58 56 42 58 43 59 51 60 44 61 45 62
REMARK SMILES IDX 49 63 52 64 46 65 47 66 50 67 48 68 74 69 75 70 83 71 76 72
REMARK SMILES IDX 77 73 81 74 84 75 78 76 79 77 82 78 80 79 59 80 60 81 68 82
REMARK SMILES IDX 61 83 62 84 66 85 69 86 63 87 64 88 67 89 65 90 7 91 8 94
REMARK SMILES IDX 9 97 10 100 11 101 12 103 13 104 14 105 32 106 15 108 24 111
REMARK SMILES IDX 17 113 18 114 22 115 19 116 21 118 23 119 20 120 16 124
REMARK SMILES IDX 25 126 26 127 30 128 27 129 29 131 31 132 28 133
REMARK H PARENT 6 2 6 3 5 5 5 6 4 8 4 9 3 13 34 18 95 20 35 22 94 23 93 33
REMARK H PARENT 87 35 89 37 92 39 86 40 54 49 57 51 90 54 55 55 91 57 7 92
REMARK H PARENT 7 93 8 95 8 96 9 98 9 99 10 102 13 107 14 109 14 110 24 112
REMARK H PARENT 18 117 19 121 21 122 20 123 16 125 26 130 27 134 29 135 28 136
REMARK Flexibility Score: inf
ROOT
ATOM      1  C   UNL A   1      31.025  31.615  26.149  1.00  0.00    -0.052 C 
ATOM      2  H   UNL A   1      30.779  31.515  25.112  1.00  0.00     0.027 H 
ATOM      3  H   UNL A   1      30.217  31.415  26.820  1.00  0.00     0.027 H 
ENDROOT
BRANCH   1   4
ATOM      4  C   UNL A   1      31.403  33.076  26.396  1.00  0.00    -0.036 C 
ATOM      5  H   UNL A   1      31.678  33.506  25.456  1.00  0.00     0.028 H 
ATOM      6  H   UNL A   1      30.541  33.521  26.848  1.00  0.00     0.028 H 
BRANCH   4   7
ATOM      7  C   UNL A   1      32.548  33.319  27.372  1.00  0.00     0.018 C 
ATOM      8  H   UNL A   1      32.499  32.574  28.140  1.00  0.00     0.049 H 
ATOM      9  H   UNL A   1      33.454  33.267  26.805  1.00  0.00     0.049 H 
BRANCH   7  10
ATOM     10  N   UNL A   1      32.519  34.626  28.001  1.00  0.00    -0.352 N 
ATOM     11  O   UNL A   1      33.135  36.249  29.445  1.00  0.00    -0.269 OA
ATOM     12  C   UNL A   1      33.345  35.137  28.978  1.00  0.00     0.251 C 
ATOM     13  H   UNL A   1      31.810  35.233  27.686  1.00  0.00     0.163 HD
BRANCH  12  14
ATOM     14  C   UNL A   1      34.465  34.320  29.497  1.00  0.00     0.039 A 
ATOM     15  C   UNL A   1      34.264  33.360  30.492  1.00  0.00    -0.049 A 
ATOM     16  C   UNL A   1      35.747  34.532  28.979  1.00  0.00    -0.049 A 
ATOM     17  C   UNL A   1      35.358  32.720  31.067  1.00  0.00    -0.053 A 
ATOM     18  H   UNL A   1      33.307  33.125  30.797  1.00  0.00     0.063 H 
ATOM     19  C   UNL A   1      36.836  33.831  29.505  1.00  0.00    -0.053 A 
ATOM     20  H   UNL A   1      35.888  35.204  28.209  1.00  0.00     0.063 H 
ATOM     21  C   UNL A   1      36.656  32.947  30.580  1.00  0.00    -0.014 A 
ATOM     22  H   UNL A   1      35.215  32.073  31.858  1.00  0.00     0.063 H 
ATOM     23  H   UNL A   1      37.776  33.964  29.101  1.00  0.00     0.063 H 
BRANCH  21  24
ATOM     24  C   UNL A   1      37.805  32.226  31.184  1.00  0.00     0.031 A 
ATOM     25  C   UNL A   1      38.254  32.517  32.589  1.00  0.00     0.074 A 
ATOM     26  C   UNL A   1      38.433  31.281  30.460  1.00  0.00     0.049 A 
ATOM     27  N   UNL A   1      39.223  31.967  33.278  1.00  0.00    -0.248 NA
ATOM     28  C   UNL A   1      37.527  33.571  33.314  1.00  0.00    -0.034 C 
ATOM     29  C   UNL A   1      38.094  30.918  29.082  1.00  0.00    -0.036 A 
ATOM     30  N   UNL A   1      39.472  30.447  30.779  1.00  0.00    -0.354 N 
ATOM     31  C   UNL A   1      39.238  32.620  34.504  1.00  0.00     0.074 A 
ATOM     32  C   UNL A   1      38.196  33.623  34.457  1.00  0.00    -0.034 C 
ATOM     33  H   UNL A   1      36.710  34.124  33.011  1.00  0.00     0.065 H 
ATOM     34  C   UNL A   1      38.880  29.903  28.692  1.00  0.00    -0.036 A 
ATOM     35  H   UNL A   1      37.369  31.369  28.505  1.00  0.00     0.065 H 
ATOM     36  C   UNL A   1      39.810  29.582  29.769  1.00  0.00     0.049 A 
ATOM     37  H   UNL A   1      39.932  30.466  31.650  1.00  0.00     0.167 HD
ATOM     38  C   UNL A   1      40.044  32.396  35.571  1.00  0.00     0.037 A 
ATOM     39  H   UNL A   1      38.000  34.295  35.217  1.00  0.00     0.065 H 
ATOM     40  H   UNL A   1      38.832  29.425  27.778  1.00  0.00     0.065 H 
ATOM     41  C   UNL A   1      40.769  28.640  29.710  1.00  0.00     0.037 A 
ATOM     42  C   UNL A   1      41.067  31.381  35.619  1.00  0.00     0.049 A 
ATOM     43  C   UNL A   1      41.657  28.423  30.901  1.00  0.00     0.074 A 
ATOM     44  C   UNL A   1      41.902  31.045  36.671  1.00  0.00    -0.036 A 
ATOM     45  N   UNL A   1      41.399  30.543  34.564  1.00  0.00    -0.354 N 
ATOM     46  N   UNL A   1      41.635  29.017  32.068  1.00  0.00    -0.248 NA
ATOM     47  C   UNL A   1      42.706  27.405  30.763  1.00  0.00    -0.034 C 
ATOM     48  C   UNL A   1      42.770  30.036  36.238  1.00  0.00    -0.036 A 
ATOM     49  H   UNL A   1      41.889  31.467  37.612  1.00  0.00     0.065 H 
ATOM     50  C   UNL A   1      42.443  29.708  34.932  1.00  0.00     0.049 A 
ATOM     51  H   UNL A   1      40.959  30.543  33.683  1.00  0.00     0.167 HD
ATOM     52  C   UNL A   1      42.649  28.434  32.812  1.00  0.00     0.074 A 
ATOM     53  C   UNL A   1      43.260  27.427  31.967  1.00  0.00    -0.034 C 
ATOM     54  H   UNL A   1      42.949  26.824  29.945  1.00  0.00     0.065 H 
ATOM     55  H   UNL A   1      43.525  29.609  36.796  1.00  0.00     0.065 H 
ATOM     56  C   UNL A   1      43.038  28.709  34.081  1.00  0.00     0.037 A 
ATOM     57  H   UNL A   1      44.027  26.806  32.267  1.00  0.00     0.065 H 
BRANCH  38  58
ATOM     58  C   UNL A   1      39.866  33.280  36.772  1.00  0.00     0.064 A 
ATOM     59  C   UNL A   1      40.629  34.445  36.951  1.00  0.00     0.173 A 
ATOM     60  C   UNL A   1      38.900  32.975  37.742  1.00  0.00     0.173 A 
ATOM     61  F   UNL A   1      41.573  34.779  36.059  1.00  0.00    -0.203 F 
ATOM     62  C   UNL A   1      40.450  35.253  38.073  1.00  0.00     0.198 A 
ATOM     63  C   UNL A   1      38.706  33.798  38.848  1.00  0.00     0.198 A 
ATOM     64  F   UNL A   1      38.138  31.878  37.615  1.00  0.00    -0.203 F 
ATOM     65  F   UNL A   1      41.224  36.333  38.248  1.00  0.00    -0.200 F 
ATOM     66  C   UNL A   1      39.486  34.931  39.017  1.00  0.00     0.200 A 
ATOM     67  F   UNL A   1      37.765  33.493  39.753  1.00  0.00    -0.200 F 
ATOM     68  F   UNL A   1      39.316  35.709  40.094  1.00  0.00    -0.200 F 
ENDBRANCH  38  58
BRANCH  41  69
ATOM     69  C   UNL A   1      40.912  27.819  28.481  1.00  0.00     0.064 A 
ATOM     70  C   UNL A   1      40.217  26.612  28.340  1.00  0.00     0.173 A 
ATOM     71  C   UNL A   1      41.718  28.240  27.414  1.00  0.00     0.173 A 
ATOM     72  F   UNL A   1      39.447  26.161  29.343  1.00  0.00    -0.203 F 
ATOM     73  C   UNL A   1      40.324  25.853  27.177  1.00  0.00     0.198 A 
ATOM     74  C   UNL A   1      41.805  27.494  26.242  1.00  0.00     0.198 A 
ATOM     75  F   UNL A   1      42.399  29.392  27.500  1.00  0.00    -0.203 F 
ATOM     76  F   UNL A   1      39.670  24.688  27.078  1.00  0.00    -0.200 F 
ATOM     77  C   UNL A   1      41.111  26.299  26.126  1.00  0.00     0.200 A 
ATOM     78  F   UNL A   1      42.552  27.937  25.221  1.00  0.00    -0.200 F 
ATOM     79  F   UNL A   1      41.203  25.576  25.002  1.00  0.00    -0.200 F 
ENDBRANCH  41  69
BRANCH  56  80
ATOM     80  C   UNL A   1      44.157  27.882  34.644  1.00  0.00     0.064 A 
ATOM     81  C   UNL A   1      43.918  26.659  35.286  1.00  0.00     0.173 A 
ATOM     82  C   UNL A   1      45.488  28.311  34.519  1.00  0.00     0.173 A 
ATOM     83  F   UNL A   1      42.662  26.214  35.446  1.00  0.00    -0.203 F 
ATOM     84  C   UNL A   1      44.968  25.907  35.806  1.00  0.00     0.198 A 
ATOM     85  C   UNL A   1      46.537  27.544  35.016  1.00  0.00     0.198 A 
ATOM     86  F   UNL A   1      45.769  29.473  33.910  1.00  0.00    -0.203 F 
ATOM     87  F   UNL A   1      44.713  24.764  36.459  1.00  0.00    -0.200 F 
ATOM     88  C   UNL A   1      46.277  26.347  35.665  1.00  0.00     0.200 A 
ATOM     89  F   UNL A   1      47.800  27.966  34.871  1.00  0.00    -0.200 F 
ATOM     90  F   UNL A   1      47.286  25.621  36.165  1.00  0.00    -0.200 F 
ENDBRANCH  56  80
ENDBRANCH  21  24
ENDBRANCH  12  14
ENDBRANCH   7  10
ENDBRANCH   4   7
ENDBRANCH   1   4
BRANCH   1  91
ATOM     91  C   UNL A   1      32.093  30.567  26.477  1.00  0.00    -0.052 C 
ATOM     92  H   UNL A   1      31.814  30.099  27.398  1.00  0.00     0.027 H 
ATOM     93  H   UNL A   1      33.015  31.110  26.510  1.00  0.00     0.027 H 
BRANCH  91  94
ATOM     94  C   UNL A   1      32.318  29.455  25.442  1.00  0.00    -0.036 C 
ATOM     95  H   UNL A   1      31.845  29.754  24.530  1.00  0.00     0.028 H 
ATOM     96  H   UNL A   1      31.906  28.567  25.873  1.00  0.00     0.028 H 
BRANCH  94  97
ATOM     97  C   UNL A   1      33.778  29.132  25.131  1.00  0.00     0.017 C 
ATOM     98  H   UNL A   1      34.012  28.178  25.553  1.00  0.00     0.049 H 
ATOM     99  H   UNL A   1      34.373  29.914  25.553  1.00  0.00     0.049 H 
BRANCH  97 100
ATOM    100  N   UNL A   1      34.060  29.092  23.714  1.00  0.00    -0.354 N 
ATOM    101  C   UNL A   1      33.881  28.126  22.773  1.00  0.00     0.249 C 
ATOM    102  H   UNL A   1      34.457  29.922  23.363  1.00  0.00     0.163 HD
ATOM    103  O   UNL A   1      34.195  28.461  21.624  1.00  0.00    -0.272 OA
BRANCH 101 104
ATOM    104  C   UNL A   1      33.375  26.685  23.071  1.00  0.00     0.140 C 
ATOM    105  C   UNL A   1      32.991  26.274  24.480  1.00  0.00     0.019 C 
ATOM    106  O   UNL A   1      32.238  26.400  22.238  1.00  0.00    -0.357 OA
ATOM    107  H   UNL A   1      34.263  26.120  22.875  1.00  0.00     0.071 H 
ATOM    108  C   UNL A   1      31.519  25.846  24.455  1.00  0.00     0.124 C 
ATOM    109  H   UNL A   1      33.120  27.100  25.148  1.00  0.00     0.033 H 
ATOM    110  H   UNL A   1      33.610  25.469  24.818  1.00  0.00     0.033 H 
ATOM    111  C   UNL A   1      31.050  26.301  23.048  1.00  0.00     0.118 C 
ATOM    112  H   UNL A   1      30.339  25.562  22.744  1.00  0.00     0.069 H 
BRANCH 108 113
ATOM    113  C   UNL A   1      31.423  24.385  24.942  1.00  0.00     0.005 A 
ATOM    114  C   UNL A   1      30.766  24.203  26.194  1.00  0.00    -0.055 A 
ATOM    115  C   UNL A   1      31.920  23.217  24.334  1.00  0.00     0.047 A 
ATOM    116  C   UNL A   1      30.576  22.950  26.780  1.00  0.00    -0.062 A 
ATOM    117  H   UNL A   1      30.415  25.036  26.691  1.00  0.00     0.063 H 
ATOM    118  C   UNL A   1      31.692  21.952  24.913  1.00  0.00    -0.043 A 
ATOM    119  Cl  UNL A   1      32.898  23.164  22.916  1.00  0.00    -0.084 Cl
ATOM    120  C   UNL A   1      31.024  21.816  26.126  1.00  0.00    -0.061 A 
ATOM    121  H   UNL A   1      30.105  22.870  27.694  1.00  0.00     0.062 H 
ATOM    122  H   UNL A   1      32.028  21.107  24.425  1.00  0.00     0.064 H 
ATOM    123  H   UNL A   1      30.865  20.881  26.532  1.00  0.00     0.062 H 
ENDBRANCH 108 113
BRANCH 108 124
ATOM    124  O   UNL A   1      30.834  26.620  25.469  1.00  0.00    -0.382 OA
ATOM    125  H   UNL A   1      29.900  26.360  25.499  1.00  0.00     0.212 HD
ENDBRANCH 108 124
BRANCH 111 126
ATOM    126  C   UNL A   1      30.240  27.593  22.909  1.00  0.00     0.003 A 
ATOM    127  C   UNL A   1      30.818  28.761  22.376  1.00  0.00    -0.055 A 
ATOM    128  C   UNL A   1      28.875  27.661  23.259  1.00  0.00     0.046 A 
ATOM    129  C   UNL A   1      30.065  29.914  22.133  1.00  0.00    -0.062 A 
ATOM    130  H   UNL A   1      31.827  28.767  22.158  1.00  0.00     0.063 H 
ATOM    131  C   UNL A   1      28.124  28.823  23.028  1.00  0.00    -0.043 A 
ATOM    132  Cl  UNL A   1      28.032  26.354  24.022  1.00  0.00    -0.084 Cl
ATOM    133  C   UNL A   1      28.714  29.941  22.448  1.00  0.00    -0.061 A 
ATOM    134  H   UNL A   1      30.515  30.745  21.717  1.00  0.00     0.062 H 
ATOM    135  H   UNL A   1      27.126  28.848  23.288  1.00  0.00     0.064 H 
ATOM    136  H   UNL A   1      28.152  30.785  22.255  1.00  0.00     0.062 H 
ENDBRANCH 111 126
ENDBRANCH 101 104
ENDBRANCH  97 100
ENDBRANCH  94  97
ENDBRANCH  91  94
ENDBRANCH   1  91
TORSDOF 16
ENDMDL
MODEL 10
REMARK VINA RESULT:     -10.3      6.674     11.811
REMARK SMILES O=C(NCCCCCCNC(=O)[C@H]1C[C@](O)(c2ccccc2Cl)[C@@H](c2ccccc2Cl)O1)c1ccc(-c2c3nc(c(-c4c(F)c(F)c(F)c(F)c4F)c4ccc([nH]4)c(-c4c(F)c(F)c(F)c(F)c4F)c4nc(c(-c5c(F)c(F)c(F)c(F)c5F)c5ccc2[nH]5)C=C4)C=C3)cc1
REMARK SMILES IDX 6 1 5 4 4 7 3 10 1 11 2 12 33 14 34 15 95 16 35 17 94 19
REMARK SMILES IDX 36 21 37 24 38 25 88 26 39 27 93 28 87 29 89 30 40 31 92 32
REMARK SMILES IDX 86 34 85 36 41 38 73 41 53 42 72 43 54 44 57 45 71 46 90 47
REMARK SMILES IDX 55 48 56 50 70 52 91 53 58 56 42 58 43 59 51 60 44 61 45 62
REMARK SMILES IDX 49 63 52 64 46 65 47 66 50 67 48 68 74 69 75 70 83 71 76 72
REMARK SMILES IDX 77 73 81 74 84 75 78 76 79 77 82 78 80 79 59 80 60 81 68 82
REMARK SMILES IDX 61 83 62 84 66 85 69 86 63 87 64 88 67 89 65 90 7 91 8 94
REMARK SMILES IDX 9 97 10 100 11 101 12 103 13 104 14 105 32 106 15 108 24 111
REMARK SMILES IDX 17 113 18 114 22 115 19 116 21 118 23 119 20 120 16 124
REMARK SMILES IDX 25 126 26 127 30 128 27 129 29 131 31 132 28 133
REMARK H PARENT 6 2 6 3 5 5 5 6 4 8 4 9 3 13 34 18 95 20 35 22 94 23 93 33
REMARK H PARENT 87 35 89 37 92 39 86 40 54 49 57 51 90 54 55 55 91 57 7 92
REMARK H PARENT 7 93 8 95 8 96 9 98 9 99 10 102 13 107 14 109 14 110 24 112
REMARK H PARENT 18 117 19 121 21 122 20 123 16 125 26 130 27 134 29 135 28 136
REMARK Flexibility Score: inf
ROOT
ATOM      1  C   UNL A   1      37.360  20.166  24.941  1.00  0.00    -0.052 C 
ATOM      2  H   UNL A   1      36.617  20.138  25.710  1.00  0.00     0.027 H 
ATOM      3  H   UNL A   1      37.012  19.869  23.974  1.00  0.00     0.027 H 
ENDROOT
BRANCH   1   4
ATOM      4  C   UNL A   1      38.445  19.152  25.308  1.00  0.00    -0.036 C 
ATOM      5  H   UNL A   1      38.039  18.496  26.050  1.00  0.00     0.028 H 
ATOM      6  H   UNL A   1      38.708  18.670  24.390  1.00  0.00     0.028 H 
BRANCH   4   7
ATOM      7  C   UNL A   1      39.745  19.727  25.856  1.00  0.00     0.018 C 
ATOM      8  H   UNL A   1      40.056  20.525  25.214  1.00  0.00     0.049 H 
ATOM      9  H   UNL A   1      39.542  20.056  26.853  1.00  0.00     0.049 H 
BRANCH   7  10
ATOM     10  N   UNL A   1      40.826  18.763  25.943  1.00  0.00    -0.352 N 
ATOM     11  O   UNL A   1      42.955  18.046  26.165  1.00  0.00    -0.269 OA
ATOM     12  C   UNL A   1      42.163  18.978  26.191  1.00  0.00     0.251 C 
ATOM     13  H   UNL A   1      40.567  17.823  25.804  1.00  0.00     0.163 HD
BRANCH  12  14
ATOM     14  C   UNL A   1      42.653  20.352  26.449  1.00  0.00     0.039 A 
ATOM     15  C   UNL A   1      42.586  20.920  27.723  1.00  0.00    -0.049 A 
ATOM     16  C   UNL A   1      43.181  21.087  25.383  1.00  0.00    -0.049 A 
ATOM     17  C   UNL A   1      42.908  22.262  27.901  1.00  0.00    -0.053 A 
ATOM     18  H   UNL A   1      42.299  20.345  28.531  1.00  0.00     0.063 H 
ATOM     19  C   UNL A   1      43.579  22.412  25.580  1.00  0.00    -0.053 A 
ATOM     20  H   UNL A   1      43.278  20.651  24.453  1.00  0.00     0.063 H 
ATOM     21  C   UNL A   1      43.409  23.024  26.832  1.00  0.00    -0.014 A 
ATOM     22  H   UNL A   1      42.779  22.702  28.825  1.00  0.00     0.063 H 
ATOM     23  H   UNL A   1      43.998  22.944  24.801  1.00  0.00     0.063 H 
BRANCH  21  24
ATOM     24  C   UNL A   1      43.782  24.444  27.052  1.00  0.00     0.031 A 
ATOM     25  C   UNL A   1      42.788  25.434  27.590  1.00  0.00     0.074 A 
ATOM     26  C   UNL A   1      45.042  24.834  26.781  1.00  0.00     0.049 A 
ATOM     27  N   UNL A   1      42.952  26.706  27.862  1.00  0.00    -0.248 NA
ATOM     28  C   UNL A   1      41.428  24.937  27.850  1.00  0.00    -0.034 C 
ATOM     29  C   UNL A   1      46.092  23.967  26.245  1.00  0.00    -0.036 A 
ATOM     30  N   UNL A   1      45.657  26.050  26.931  1.00  0.00    -0.354 N 
ATOM     31  C   UNL A   1      41.716  27.164  28.301  1.00  0.00     0.074 A 
ATOM     32  C   UNL A   1      40.806  26.041  28.238  1.00  0.00    -0.034 C 
ATOM     33  H   UNL A   1      41.057  23.979  27.755  1.00  0.00     0.065 H 
ATOM     34  C   UNL A   1      47.234  24.665  26.155  1.00  0.00    -0.036 A 
ATOM     35  H   UNL A   1      45.974  22.978  25.979  1.00  0.00     0.065 H 
ATOM     36  C   UNL A   1      46.983  26.040  26.575  1.00  0.00     0.049 A 
ATOM     37  H   UNL A   1      45.194  26.853  27.264  1.00  0.00     0.167 HD
ATOM     38  C   UNL A   1      41.378  28.407  28.723  1.00  0.00     0.037 A 
ATOM     39  H   UNL A   1      39.800  26.093  28.465  1.00  0.00     0.065 H 
ATOM     40  H   UNL A   1      48.143  24.291  25.841  1.00  0.00     0.065 H 
ATOM     41  C   UNL A   1      47.895  27.029  26.576  1.00  0.00     0.037 A 
ATOM     42  C   UNL A   1      42.294  29.518  28.803  1.00  0.00     0.049 A 
ATOM     43  C   UNL A   1      47.489  28.400  27.034  1.00  0.00     0.074 A 
ATOM     44  C   UNL A   1      42.058  30.802  29.262  1.00  0.00    -0.036 A 
ATOM     45  N   UNL A   1      43.623  29.476  28.404  1.00  0.00    -0.354 N 
ATOM     46  N   UNL A   1      46.330  28.811  27.486  1.00  0.00    -0.248 NA
ATOM     47  C   UNL A   1      48.519  29.445  26.980  1.00  0.00    -0.034 C 
ATOM     48  C   UNL A   1      43.229  31.549  29.100  1.00  0.00    -0.036 A 
ATOM     49  H   UNL A   1      41.170  31.149  29.656  1.00  0.00     0.065 H 
ATOM     50  C   UNL A   1      44.211  30.718  28.584  1.00  0.00     0.049 A 
ATOM     51  H   UNL A   1      44.079  28.681  28.045  1.00  0.00     0.167 HD
ATOM     52  C   UNL A   1      46.494  30.154  27.790  1.00  0.00     0.074 A 
ATOM     53  C   UNL A   1      47.871  30.485  27.484  1.00  0.00    -0.034 C 
ATOM     54  H   UNL A   1      49.492  29.385  26.640  1.00  0.00     0.065 H 
ATOM     55  H   UNL A   1      43.344  32.550  29.324  1.00  0.00     0.065 H 
ATOM     56  C   UNL A   1      45.584  31.032  28.278  1.00  0.00     0.037 A 
ATOM     57  H   UNL A   1      48.293  31.414  27.639  1.00  0.00     0.065 H 
BRANCH  38  58
ATOM     58  C   UNL A   1      39.946  28.641  29.114  1.00  0.00     0.064 A 
ATOM     59  C   UNL A   1      39.486  28.398  30.417  1.00  0.00     0.173 A 
ATOM     60  C   UNL A   1      39.029  29.143  28.178  1.00  0.00     0.173 A 
ATOM     61  F   UNL A   1      40.318  27.909  31.347  1.00  0.00    -0.203 F 
ATOM     62  C   UNL A   1      38.153  28.620  30.759  1.00  0.00     0.198 A 
ATOM     63  C   UNL A   1      37.704  29.390  28.531  1.00  0.00     0.198 A 
ATOM     64  F   UNL A   1      39.418  29.401  26.921  1.00  0.00    -0.203 F 
ATOM     65  F   UNL A   1      37.725  28.334  31.996  1.00  0.00    -0.200 F 
ATOM     66  C   UNL A   1      37.266  29.120  29.818  1.00  0.00     0.200 A 
ATOM     67  F   UNL A   1      36.851  29.884  27.624  1.00  0.00    -0.200 F 
ATOM     68  F   UNL A   1      35.985  29.334  30.149  1.00  0.00    -0.200 F 
ENDBRANCH  38  58
BRANCH  41  69
ATOM     69  C   UNL A   1      49.287  26.740  26.148  1.00  0.00     0.064 A 
ATOM     70  C   UNL A   1      50.224  26.231  27.056  1.00  0.00     0.173 A 
ATOM     71  C   UNL A   1      49.697  26.933  24.821  1.00  0.00     0.173 A 
ATOM     72  F   UNL A   1      49.881  26.046  28.340  1.00  0.00    -0.203 F 
ATOM     73  C   UNL A   1      51.523  25.930  26.653  1.00  0.00     0.198 A 
ATOM     74  C   UNL A   1      50.987  26.607  24.414  1.00  0.00     0.198 A 
ATOM     75  F   UNL A   1      48.833  27.413  23.915  1.00  0.00    -0.203 F 
ATOM     76  F   UNL A   1      52.409  25.470  27.547  1.00  0.00    -0.200 F 
ATOM     77  C   UNL A   1      51.901  26.109  25.331  1.00  0.00     0.200 A 
ATOM     78  F   UNL A   1      51.343  26.767  23.132  1.00  0.00    -0.200 F 
ATOM     79  F   UNL A   1      53.146  25.806  24.941  1.00  0.00    -0.200 F 
ENDBRANCH  41  69
BRANCH  56  80
ATOM     80  C   UNL A   1      46.062  32.429  28.544  1.00  0.00     0.064 A 
ATOM     81  C   UNL A   1      45.974  33.435  27.571  1.00  0.00     0.173 A 
ATOM     82  C   UNL A   1      46.593  32.771  29.798  1.00  0.00     0.173 A 
ATOM     83  F   UNL A   1      45.491  33.155  26.352  1.00  0.00    -0.203 F 
ATOM     84  C   UNL A   1      46.426  34.726  27.834  1.00  0.00     0.198 A 
ATOM     85  C   UNL A   1      47.019  34.068  30.066  1.00  0.00     0.198 A 
ATOM     86  F   UNL A   1      46.694  31.845  30.763  1.00  0.00    -0.203 F 
ATOM     87  F   UNL A   1      46.380  35.659  26.873  1.00  0.00    -0.200 F 
ATOM     88  C   UNL A   1      46.942  35.043  29.083  1.00  0.00     0.200 A 
ATOM     89  F   UNL A   1      47.508  34.374  31.275  1.00  0.00    -0.200 F 
ATOM     90  F   UNL A   1      47.376  36.286  29.334  1.00  0.00    -0.200 F 
ENDBRANCH  56  80
ENDBRANCH  21  24
ENDBRANCH  12  14
ENDBRANCH   7  10
ENDBRANCH   4   7
ENDBRANCH   1   4
BRANCH   1  91
ATOM     91  C   UNL A   1      37.810  21.621  24.780  1.00  0.00    -0.052 C 
ATOM     92  H   UNL A   1      37.295  22.027  23.934  1.00  0.00     0.027 H 
ATOM     93  H   UNL A   1      38.875  21.574  24.678  1.00  0.00     0.027 H 
BRANCH  91  94
ATOM     94  C   UNL A   1      37.562  22.561  25.968  1.00  0.00    -0.036 C 
ATOM     95  H   UNL A   1      38.401  22.486  26.627  1.00  0.00     0.028 H 
ATOM     96  H   UNL A   1      36.639  22.244  26.405  1.00  0.00     0.028 H 
BRANCH  94  97
ATOM     97  C   UNL A   1      37.372  24.034  25.613  1.00  0.00     0.017 C 
ATOM     98  H   UNL A   1      37.524  24.153  24.561  1.00  0.00     0.049 H 
ATOM     99  H   UNL A   1      38.081  24.593  26.186  1.00  0.00     0.049 H 
BRANCH  97 100
ATOM    100  N   UNL A   1      36.058  24.534  25.950  1.00  0.00    -0.354 N 
ATOM    101  C   UNL A   1      34.808  24.069  25.683  1.00  0.00     0.249 C 
ATOM    102  H   UNL A   1      36.070  25.369  26.471  1.00  0.00     0.163 HD
ATOM    103  O   UNL A   1      33.892  24.737  26.181  1.00  0.00    -0.272 OA
BRANCH 101 104
ATOM    104  C   UNL A   1      34.495  22.834  24.790  1.00  0.00     0.140 C 
ATOM    105  C   UNL A   1      33.980  21.545  25.402  1.00  0.00     0.019 C 
ATOM    106  O   UNL A   1      33.549  23.211  23.775  1.00  0.00    -0.357 OA
ATOM    107  H   UNL A   1      35.479  22.581  24.453  1.00  0.00     0.071 H 
ATOM    108  C   UNL A   1      32.612  21.247  24.777  1.00  0.00     0.124 C 
ATOM    109  H   UNL A   1      33.881  21.659  26.461  1.00  0.00     0.033 H 
ATOM    110  H   UNL A   1      34.661  20.742  25.213  1.00  0.00     0.033 H 
ATOM    111  C   UNL A   1      32.286  22.559  24.016  1.00  0.00     0.118 C 
ATOM    112  H   UNL A   1      31.751  22.244  23.145  1.00  0.00     0.069 H 
BRANCH 108 113
ATOM    113  C   UNL A   1      32.676  19.869  24.088  1.00  0.00     0.005 A 
ATOM    114  C   UNL A   1      33.228  18.818  24.877  1.00  0.00    -0.055 A 
ATOM    115  C   UNL A   1      32.292  19.516  22.780  1.00  0.00     0.047 A 
ATOM    116  C   UNL A   1      33.350  17.504  24.421  1.00  0.00    -0.062 A 
ATOM    117  H   UNL A   1      33.554  19.039  25.831  1.00  0.00     0.063 H 
ATOM    118  C   UNL A   1      32.384  18.181  22.339  1.00  0.00    -0.043 A 
ATOM    119  Cl  UNL A   1      31.760  20.613  21.562  1.00  0.00    -0.084 Cl
ATOM    120  C   UNL A   1      32.907  17.180  23.151  1.00  0.00    -0.061 A 
ATOM    121  H   UNL A   1      33.768  16.781  25.026  1.00  0.00     0.062 H 
ATOM    122  H   UNL A   1      32.054  17.940  21.391  1.00  0.00     0.064 H 
ATOM    123  H   UNL A   1      32.963  16.207  22.811  1.00  0.00     0.062 H 
ENDBRANCH 108 113
BRANCH 108 124
ATOM    124  O   UNL A   1      31.676  21.073  25.867  1.00  0.00    -0.382 OA
ATOM    125  H   UNL A   1      31.062  20.353  25.655  1.00  0.00     0.212 HD
ENDBRANCH 108 124
BRANCH 111 126
ATOM    126  C   UNL A   1      31.313  23.565  24.637  1.00  0.00     0.003 A 
ATOM    127  C   UNL A   1      30.762  23.351  25.916  1.00  0.00    -0.055 A 
ATOM    128  C   UNL A   1      30.963  24.766  23.987  1.00  0.00     0.046 A 
ATOM    129  C   UNL A   1      29.965  24.310  26.548  1.00  0.00    -0.062 A 
ATOM    130  H   UNL A   1      30.952  22.458  26.400  1.00  0.00     0.063 H 
ATOM    131  C   UNL A   1      30.153  25.722  24.617  1.00  0.00    -0.043 A 
ATOM    132  Cl  UNL A   1      31.466  25.145  22.373  1.00  0.00    -0.084 Cl
ATOM    133  C   UNL A   1      29.670  25.502  25.903  1.00  0.00    -0.061 A 
ATOM    134  H   UNL A   1      29.598  24.131  27.495  1.00  0.00     0.062 H 
ATOM    135  H   UNL A   1      29.914  26.596  24.123  1.00  0.00     0.064 H 
ATOM    136  H   UNL A   1      29.095  26.219  26.373  1.00  0.00     0.062 H 
ENDBRANCH 111 126
ENDBRANCH 101 104
ENDBRANCH  97 100
ENDBRANCH  94  97
ENDBRANCH  91  94
ENDBRANCH   1  91
TORSDOF 16
ENDMDL
