MODEL 1
REMARK VINA RESULT:     -12.0      0.000      0.000
REMARK SMILES CCc1cc(C(=O)c2[nH]c3cc(Cl)ccc3c2CC(=O)NCCCCCCNC(=O)c2ccc(-c3c4nc(c(-c5c(F)c(F)c(F)c(F)c5F)c5ccc([nH]5)c(-c5c(F)c(F)c(F)c(F)c5F)c5nc(c(-c6c(F)c(F)c(F)c(F)c6F)c6ccc3[nH]6)C=C5)C=C4)cc2)ncc1Cl
REMARK SMILES IDX 23 1 22 4 21 7 19 8 20 9 18 11 17 14 8 15 9 16 10 17 16 19
REMARK SMILES IDX 11 20 15 21 12 22 14 24 13 26 6 28 7 29 5 30 3 31 4 32 96 33
REMARK SMILES IDX 95 35 97 36 94 37 2 39 1 42 24 46 25 49 26 52 27 55 28 58
REMARK SMILES IDX 29 59 30 61 31 62 32 63 93 64 33 65 92 67 34 69 35 72 36 73
REMARK SMILES IDX 86 74 37 75 91 76 85 77 87 78 38 79 90 80 84 82 83 84 39 86
REMARK SMILES IDX 71 89 51 90 70 91 52 92 55 93 69 94 88 95 53 96 54 98 68 100
REMARK SMILES IDX 89 101 56 104 40 106 41 107 49 108 42 109 43 110 47 111
REMARK SMILES IDX 50 112 44 113 45 114 48 115 46 116 72 117 73 118 81 119
REMARK SMILES IDX 74 120 75 121 79 122 82 123 76 124 77 125 80 126 78 127
REMARK SMILES IDX 57 128 58 129 66 130 59 131 60 132 64 133 67 134 61 135
REMARK SMILES IDX 62 136 65 137 63 138
REMARK H PARENT 23 2 23 3 22 5 22 6 21 10 18 12 18 13 9 18 11 23 15 25 14 27
REMARK H PARENT 4 34 95 38 2 40 2 41 1 43 1 44 1 45 24 47 24 48 25 50 25 51
REMARK H PARENT 26 53 26 54 27 56 27 57 28 60 32 66 93 68 33 70 92 71 91 81
REMARK H PARENT 85 83 87 85 90 87 84 88 52 97 55 99 88 102 53 103 89 105
REMARK Flexibility Score: inf
ROOT
ATOM      1  C   UNL A   1      32.436  23.994  26.502  1.00  0.00    -0.036 C 
ATOM      2  H   UNL A   1      33.334  23.601  26.071  1.00  0.00     0.028 H 
ATOM      3  H   UNL A   1      32.360  23.825  27.555  1.00  0.00     0.028 H 
ENDROOT
BRANCH   1   4
ATOM      4  C   UNL A   1      31.249  23.270  25.866  1.00  0.00     0.017 C 
ATOM      5  H   UNL A   1      30.375  23.469  26.450  1.00  0.00     0.049 H 
ATOM      6  H   UNL A   1      31.147  23.634  24.865  1.00  0.00     0.049 H 
BRANCH   4   7
ATOM      7  N   UNL A   1      31.442  21.836  25.794  1.00  0.00    -0.356 N 
ATOM      8  C   UNL A   1      31.923  21.075  24.767  1.00  0.00     0.224 C 
ATOM      9  O   UNL A   1      32.098  19.870  24.964  1.00  0.00    -0.275 OA
ATOM     10  H   UNL A   1      31.191  21.338  26.604  1.00  0.00     0.163 HD
BRANCH   8  11
ATOM     11  C   UNL A   1      32.337  21.714  23.450  1.00  0.00     0.055 C 
ATOM     12  H   UNL A   1      32.459  20.934  22.727  1.00  0.00     0.042 H 
ATOM     13  H   UNL A   1      31.563  22.408  23.197  1.00  0.00     0.042 H 
BRANCH  11  14
ATOM     14  C   UNL A   1      33.613  22.505  23.503  1.00  0.00    -0.002 A 
ATOM     15  C   UNL A   1      33.900  23.697  22.843  1.00  0.00     0.093 A 
ATOM     16  N   UNL A   1      35.139  24.114  23.267  1.00  0.00    -0.351 N 
ATOM     17  C   UNL A   1      35.735  23.153  24.044  1.00  0.00     0.048 A 
ATOM     18  H   UNL A   1      35.544  24.983  23.043  1.00  0.00     0.167 HD
ATOM     19  C   UNL A   1      34.804  22.128  24.211  1.00  0.00     0.004 A 
ATOM     20  C   UNL A   1      37.012  23.122  24.616  1.00  0.00    -0.019 A 
ATOM     21  C   UNL A   1      35.173  21.009  24.988  1.00  0.00    -0.051 A 
ATOM     22  C   UNL A   1      37.349  21.999  25.377  1.00  0.00     0.043 A 
ATOM     23  H   UNL A   1      37.679  23.898  24.480  1.00  0.00     0.066 H 
ATOM     24  C   UNL A   1      36.449  20.955  25.564  1.00  0.00    -0.043 A 
ATOM     25  H   UNL A   1      34.506  20.235  25.133  1.00  0.00     0.063 H 
ATOM     26  Cl  UNL A   1      38.911  21.910  26.096  1.00  0.00    -0.084 Cl
ATOM     27  H   UNL A   1      36.723  20.137  26.130  1.00  0.00     0.064 H 
BRANCH  15  28
ATOM     28  C   UNL A   1      33.085  24.473  21.928  1.00  0.00     0.227 C 
ATOM     29  O   UNL A   1      32.940  24.123  20.760  1.00  0.00    -0.285 OA
BRANCH  28  30
ATOM     30  C   UNL A   1      32.359  25.683  22.472  1.00  0.00     0.113 A 
ATOM     31  C   UNL A   1      30.443  26.743  23.534  1.00  0.00    -0.026 A 
ATOM     32  C   UNL A   1      31.112  25.583  23.097  1.00  0.00    -0.028 A 
ATOM     33  C   UNL A   1      31.084  27.974  23.349  1.00  0.00     0.062 A 
ATOM     34  H   UNL A   1      30.681  24.656  23.238  1.00  0.00     0.065 H 
ATOM     35  C   UNL A   1      32.328  27.983  22.726  1.00  0.00     0.047 A 
ATOM     36  Cl  UNL A   1      30.404  29.475  23.846  1.00  0.00    -0.082 Cl
ATOM     37  N   UNL A   1      32.968  26.878  22.276  1.00  0.00    -0.251 NA
ATOM     38  H   UNL A   1      32.795  28.894  22.599  1.00  0.00     0.086 H 
BRANCH  31  39
ATOM     39  C   UNL A   1      29.064  26.602  24.139  1.00  0.00    -0.029 C 
ATOM     40  H   UNL A   1      28.762  25.578  24.060  1.00  0.00     0.031 H 
ATOM     41  H   UNL A   1      29.129  26.924  25.158  1.00  0.00     0.031 H 
BRANCH  39  42
ATOM     42  C   UNL A   1      28.018  27.470  23.454  1.00  0.00    -0.061 C 
ATOM     43  H   UNL A   1      28.482  28.361  23.082  1.00  0.00     0.023 H 
ATOM     44  H   UNL A   1      27.256  27.732  24.156  1.00  0.00     0.023 H 
ATOM     45  H   UNL A   1      27.583  26.930  22.639  1.00  0.00     0.023 H 
ENDBRANCH  39  42
ENDBRANCH  31  39
ENDBRANCH  28  30
ENDBRANCH  15  28
ENDBRANCH  11  14
ENDBRANCH   8  11
ENDBRANCH   4   7
ENDBRANCH   1   4
BRANCH   1  46
ATOM     46  C   UNL A   1      32.446  25.516  26.312  1.00  0.00    -0.052 C 
ATOM     47  H   UNL A   1      32.237  25.965  27.261  1.00  0.00     0.027 H 
ATOM     48  H   UNL A   1      31.712  25.717  25.560  1.00  0.00     0.027 H 
BRANCH  46  49
ATOM     49  C   UNL A   1      33.752  26.121  25.785  1.00  0.00    -0.052 C 
ATOM     50  H   UNL A   1      33.809  25.910  24.738  1.00  0.00     0.027 H 
ATOM     51  H   UNL A   1      34.530  25.674  26.367  1.00  0.00     0.027 H 
BRANCH  49  52
ATOM     52  C   UNL A   1      33.917  27.634  25.967  1.00  0.00    -0.036 C 
ATOM     53  H   UNL A   1      33.316  28.121  25.229  1.00  0.00     0.028 H 
ATOM     54  H   UNL A   1      34.966  27.824  25.873  1.00  0.00     0.028 H 
BRANCH  52  55
ATOM     55  C   UNL A   1      33.517  28.187  27.335  1.00  0.00     0.018 C 
ATOM     56  H   UNL A   1      34.243  27.873  28.057  1.00  0.00     0.049 H 
ATOM     57  H   UNL A   1      32.542  27.810  27.564  1.00  0.00     0.049 H 
BRANCH  55  58
ATOM     58  N   UNL A   1      33.441  29.637  27.355  1.00  0.00    -0.352 N 
ATOM     59  C   UNL A   1      34.358  30.557  27.800  1.00  0.00     0.251 C 
ATOM     60  H   UNL A   1      32.607  30.018  26.996  1.00  0.00     0.163 HD
ATOM     61  O   UNL A   1      34.056  31.747  27.851  1.00  0.00    -0.269 OA
BRANCH  59  62
ATOM     62  C   UNL A   1      35.707  30.135  28.245  1.00  0.00     0.039 A 
ATOM     63  C   UNL A   1      36.747  30.136  27.307  1.00  0.00    -0.049 A 
ATOM     64  C   UNL A   1      35.944  29.679  29.545  1.00  0.00    -0.049 A 
ATOM     65  C   UNL A   1      38.031  29.731  27.682  1.00  0.00    -0.053 A 
ATOM     66  H   UNL A   1      36.565  30.436  26.338  1.00  0.00     0.063 H 
ATOM     67  C   UNL A   1      37.233  29.298  29.927  1.00  0.00    -0.053 A 
ATOM     68  H   UNL A   1      35.167  29.626  30.223  1.00  0.00     0.063 H 
ATOM     69  C   UNL A   1      38.285  29.323  29.000  1.00  0.00    -0.014 A 
ATOM     70  H   UNL A   1      38.794  29.732  26.988  1.00  0.00     0.063 H 
ATOM     71  H   UNL A   1      37.411  28.995  30.897  1.00  0.00     0.063 H 
BRANCH  69  72
ATOM     72  C   UNL A   1      39.649  28.926  29.422  1.00  0.00     0.031 A 
ATOM     73  C   UNL A   1      40.464  29.825  30.305  1.00  0.00     0.074 A 
ATOM     74  C   UNL A   1      40.179  27.777  28.964  1.00  0.00     0.049 A 
ATOM     75  N   UNL A   1      41.706  29.690  30.700  1.00  0.00    -0.248 NA
ATOM     76  C   UNL A   1      39.802  31.042  30.796  1.00  0.00    -0.034 C 
ATOM     77  C   UNL A   1      39.502  26.827  28.081  1.00  0.00    -0.036 A 
ATOM     78  N   UNL A   1      41.418  27.223  29.168  1.00  0.00    -0.354 N 
ATOM     79  C   UNL A   1      41.986  30.817  31.457  1.00  0.00     0.074 A 
ATOM     80  C   UNL A   1      40.783  31.625  31.474  1.00  0.00    -0.034 C 
ATOM     81  H   UNL A   1      38.831  31.359  30.652  1.00  0.00     0.065 H 
ATOM     82  C   UNL A   1      40.335  25.808  27.816  1.00  0.00    -0.036 A 
ATOM     83  H   UNL A   1      38.541  26.925  27.720  1.00  0.00     0.065 H 
ATOM     84  C   UNL A   1      41.606  26.041  28.497  1.00  0.00     0.049 A 
ATOM     85  H   UNL A   1      42.105  27.633  29.742  1.00  0.00     0.167 HD
ATOM     86  C   UNL A   1      43.141  31.151  32.080  1.00  0.00     0.037 A 
ATOM     87  H   UNL A   1      40.699  32.536  31.951  1.00  0.00     0.065 H 
ATOM     88  H   UNL A   1      40.114  24.990  27.227  1.00  0.00     0.065 H 
ATOM     89  C   UNL A   1      42.687  25.243  28.430  1.00  0.00     0.037 A 
ATOM     90  C   UNL A   1      44.327  30.338  32.105  1.00  0.00     0.049 A 
ATOM     91  C   UNL A   1      43.937  25.607  29.175  1.00  0.00     0.074 A 
ATOM     92  C   UNL A   1      45.525  30.576  32.758  1.00  0.00    -0.036 A 
ATOM     93  N   UNL A   1      44.462  29.123  31.452  1.00  0.00    -0.354 N 
ATOM     94  N   UNL A   1      44.181  26.665  29.905  1.00  0.00    -0.248 NA
ATOM     95  C   UNL A   1      45.063  24.664  29.084  1.00  0.00    -0.034 C 
ATOM     96  C   UNL A   1      46.390  29.507  32.492  1.00  0.00    -0.036 A 
ATOM     97  H   UNL A   1      45.742  31.399  33.342  1.00  0.00     0.065 H 
ATOM     98  C   UNL A   1      45.725  28.602  31.681  1.00  0.00     0.049 A 
ATOM     99  H   UNL A   1      43.764  28.695  30.905  1.00  0.00     0.167 HD
ATOM    100  C   UNL A   1      45.481  26.517  30.365  1.00  0.00     0.074 A 
ATOM    101  C   UNL A   1      45.974  25.262  29.838  1.00  0.00    -0.034 C 
ATOM    102  H   UNL A   1      45.125  23.771  28.570  1.00  0.00     0.065 H 
ATOM    103  H   UNL A   1      47.357  29.411  32.839  1.00  0.00     0.065 H 
ATOM    104  C   UNL A   1      46.200  27.352  31.152  1.00  0.00     0.037 A 
ATOM    105  H   UNL A   1      46.916  24.882  30.025  1.00  0.00     0.065 H 
BRANCH  86 106
ATOM    106  C   UNL A   1      43.181  32.469  32.781  1.00  0.00     0.064 A 
ATOM    107  C   UNL A   1      42.855  32.583  34.138  1.00  0.00     0.173 A 
ATOM    108  C   UNL A   1      43.581  33.623  32.093  1.00  0.00     0.173 A 
ATOM    109  F   UNL A   1      42.456  31.506  34.829  1.00  0.00    -0.203 F 
ATOM    110  C   UNL A   1      42.920  33.816  34.784  1.00  0.00     0.198 A 
ATOM    111  C   UNL A   1      43.655  34.852  32.743  1.00  0.00     0.198 A 
ATOM    112  F   UNL A   1      43.899  33.558  30.792  1.00  0.00    -0.203 F 
ATOM    113  F   UNL A   1      42.587  33.911  36.078  1.00  0.00    -0.200 F 
ATOM    114  C   UNL A   1      43.323  34.947  34.087  1.00  0.00     0.200 A 
ATOM    115  F   UNL A   1      44.043  35.944  32.071  1.00  0.00    -0.200 F 
ATOM    116  F   UNL A   1      43.385  36.132  34.711  1.00  0.00    -0.200 F 
ENDBRANCH  86 106
BRANCH  89 117
ATOM    117  C   UNL A   1      42.626  24.006  27.617  1.00  0.00     0.064 A 
ATOM    118  C   UNL A   1      42.930  24.032  26.251  1.00  0.00     0.173 A 
ATOM    119  C   UNL A   1      42.278  22.779  28.197  1.00  0.00     0.173 A 
ATOM    120  F   UNL A   1      43.249  25.190  25.658  1.00  0.00    -0.203 F 
ATOM    121  C   UNL A   1      42.888  22.867  25.489  1.00  0.00     0.198 A 
ATOM    122  C   UNL A   1      42.246  21.614  27.436  1.00  0.00     0.198 A 
ATOM    123  F   UNL A   1      41.976  22.715  29.502  1.00  0.00    -0.203 F 
ATOM    124  F   UNL A   1      43.168  22.915  24.179  1.00  0.00    -0.200 F 
ATOM    125  C   UNL A   1      42.549  21.659  26.081  1.00  0.00     0.200 A 
ATOM    126  F   UNL A   1      41.919  20.449  28.010  1.00  0.00    -0.200 F 
ATOM    127  F   UNL A   1      42.511  20.539  25.348  1.00  0.00    -0.200 F 
ENDBRANCH  89 117
BRANCH 104 128
ATOM    128  C   UNL A   1      47.593  26.931  31.496  1.00  0.00     0.064 A 
ATOM    129  C   UNL A   1      47.839  26.053  32.560  1.00  0.00     0.173 A 
ATOM    130  C   UNL A   1      48.682  27.381  30.738  1.00  0.00     0.173 A 
ATOM    131  F   UNL A   1      46.825  25.612  33.318  1.00  0.00    -0.203 F 
ATOM    132  C   UNL A   1      49.135  25.644  32.858  1.00  0.00     0.198 A 
ATOM    133  C   UNL A   1      49.977  26.964  31.035  1.00  0.00     0.198 A 
ATOM    134  F   UNL A   1      48.490  28.228  29.715  1.00  0.00    -0.203 F 
ATOM    135  F   UNL A   1      49.354  24.817  33.891  1.00  0.00    -0.200 F 
ATOM    136  C   UNL A   1      50.202  26.096  32.095  1.00  0.00     0.200 A 
ATOM    137  F   UNL A   1      51.007  27.404  30.300  1.00  0.00    -0.200 F 
ATOM    138  F   UNL A   1      51.449  25.703  32.386  1.00  0.00    -0.200 F 
ENDBRANCH 104 128
ENDBRANCH  69  72
ENDBRANCH  59  62
ENDBRANCH  55  58
ENDBRANCH  52  55
ENDBRANCH  49  52
ENDBRANCH  46  49
ENDBRANCH   1  46
TORSDOF 18
ENDMDL
MODEL 2
REMARK VINA RESULT:     -12.0      3.971      6.822
REMARK SMILES CCc1cc(C(=O)c2[nH]c3cc(Cl)ccc3c2CC(=O)NCCCCCCNC(=O)c2ccc(-c3c4nc(c(-c5c(F)c(F)c(F)c(F)c5F)c5ccc([nH]5)c(-c5c(F)c(F)c(F)c(F)c5F)c5nc(c(-c6c(F)c(F)c(F)c(F)c6F)c6ccc3[nH]6)C=C5)C=C4)cc2)ncc1Cl
REMARK SMILES IDX 23 1 22 4 21 7 19 8 20 9 18 11 17 14 8 15 9 16 10 17 16 19
REMARK SMILES IDX 11 20 15 21 12 22 14 24 13 26 6 28 7 29 5 30 3 31 4 32 96 33
REMARK SMILES IDX 95 35 97 36 94 37 2 39 1 42 24 46 25 49 26 52 27 55 28 58
REMARK SMILES IDX 29 59 30 61 31 62 32 63 93 64 33 65 92 67 34 69 35 72 36 73
REMARK SMILES IDX 86 74 37 75 91 76 85 77 87 78 38 79 90 80 84 82 83 84 39 86
REMARK SMILES IDX 71 89 51 90 70 91 52 92 55 93 69 94 88 95 53 96 54 98 68 100
REMARK SMILES IDX 89 101 56 104 40 106 41 107 49 108 42 109 43 110 47 111
REMARK SMILES IDX 50 112 44 113 45 114 48 115 46 116 72 117 73 118 81 119
REMARK SMILES IDX 74 120 75 121 79 122 82 123 76 124 77 125 80 126 78 127
REMARK SMILES IDX 57 128 58 129 66 130 59 131 60 132 64 133 67 134 61 135
REMARK SMILES IDX 62 136 65 137 63 138
REMARK H PARENT 23 2 23 3 22 5 22 6 21 10 18 12 18 13 9 18 11 23 15 25 14 27
REMARK H PARENT 4 34 95 38 2 40 2 41 1 43 1 44 1 45 24 47 24 48 25 50 25 51
REMARK H PARENT 26 53 26 54 27 56 27 57 28 60 32 66 93 68 33 70 92 71 91 81
REMARK H PARENT 85 83 87 85 90 87 84 88 52 97 55 99 88 102 53 103 89 105
REMARK Flexibility Score: inf
ROOT
ATOM      1  C   UNL A   1      35.050  31.572  28.141  1.00  0.00    -0.036 C 
ATOM      2  H   UNL A   1      35.957  31.360  27.613  1.00  0.00     0.028 H 
ATOM      3  H   UNL A   1      35.113  31.377  29.190  1.00  0.00     0.028 H 
ENDROOT
BRANCH   1   4
ATOM      4  C   UNL A   1      33.959  30.648  27.599  1.00  0.00     0.017 C 
ATOM      5  H   UNL A   1      33.656  29.982  28.380  1.00  0.00     0.049 H 
ATOM      6  H   UNL A   1      33.149  31.263  27.268  1.00  0.00     0.049 H 
BRANCH   4   7
ATOM      7  N   UNL A   1      34.405  29.861  26.467  1.00  0.00    -0.356 N 
ATOM      8  C   UNL A   1      33.931  28.670  25.997  1.00  0.00     0.224 C 
ATOM      9  O   UNL A   1      34.402  28.226  24.947  1.00  0.00    -0.275 OA
ATOM     10  H   UNL A   1      35.159  30.242  25.962  1.00  0.00     0.163 HD
BRANCH   8  11
ATOM     11  C   UNL A   1      32.777  27.962  26.690  1.00  0.00     0.055 C 
ATOM     12  H   UNL A   1      33.177  27.139  27.245  1.00  0.00     0.042 H 
ATOM     13  H   UNL A   1      32.300  28.696  27.305  1.00  0.00     0.042 H 
BRANCH  11  14
ATOM     14  C   UNL A   1      31.716  27.429  25.768  1.00  0.00    -0.002 A 
ATOM     15  C   UNL A   1      31.322  26.105  25.605  1.00  0.00     0.093 A 
ATOM     16  N   UNL A   1      30.251  26.097  24.742  1.00  0.00    -0.351 N 
ATOM     17  C   UNL A   1      30.047  27.346  24.212  1.00  0.00     0.048 A 
ATOM     18  H   UNL A   1      29.706  25.304  24.533  1.00  0.00     0.167 HD
ATOM     19  C   UNL A   1      30.950  28.206  24.834  1.00  0.00     0.004 A 
ATOM     20  C   UNL A   1      29.128  27.774  23.246  1.00  0.00    -0.019 A 
ATOM     21  C   UNL A   1      30.938  29.569  24.466  1.00  0.00    -0.051 A 
ATOM     22  C   UNL A   1      29.144  29.128  22.900  1.00  0.00     0.043 A 
ATOM     23  H   UNL A   1      28.467  27.115  22.806  1.00  0.00     0.066 H 
ATOM     24  C   UNL A   1      30.032  30.017  23.496  1.00  0.00    -0.043 A 
ATOM     25  H   UNL A   1      31.593  30.232  24.909  1.00  0.00     0.063 H 
ATOM     26  Cl  UNL A   1      28.038  29.703  21.712  1.00  0.00    -0.084 Cl
ATOM     27  H   UNL A   1      30.023  31.012  23.223  1.00  0.00     0.064 H 
BRANCH  15  28
ATOM     28  C   UNL A   1      31.825  24.899  26.236  1.00  0.00     0.227 C 
ATOM     29  O   UNL A   1      31.297  24.451  27.251  1.00  0.00    -0.285 OA
BRANCH  28  30
ATOM     30  C   UNL A   1      32.969  24.170  25.569  1.00  0.00     0.113 A 
ATOM     31  C   UNL A   1      34.073  22.138  24.810  1.00  0.00    -0.026 A 
ATOM     32  C   UNL A   1      32.958  22.785  25.380  1.00  0.00    -0.028 A 
ATOM     33  C   UNL A   1      35.156  22.932  24.417  1.00  0.00     0.062 A 
ATOM     34  H   UNL A   1      32.132  22.234  25.661  1.00  0.00     0.065 H 
ATOM     35  C   UNL A   1      35.081  24.305  24.632  1.00  0.00     0.047 A 
ATOM     36  Cl  UNL A   1      36.579  22.293  23.689  1.00  0.00    -0.082 Cl
ATOM     37  N   UNL A   1      34.028  24.934  25.206  1.00  0.00    -0.251 NA
ATOM     38  H   UNL A   1      35.882  24.882  24.335  1.00  0.00     0.086 H 
BRANCH  31  39
ATOM     39  C   UNL A   1      34.054  20.630  24.690  1.00  0.00    -0.029 C 
ATOM     40  H   UNL A   1      34.960  20.316  24.215  1.00  0.00     0.031 H 
ATOM     41  H   UNL A   1      33.961  20.234  25.680  1.00  0.00     0.031 H 
BRANCH  39  42
ATOM     42  C   UNL A   1      32.876  20.109  23.879  1.00  0.00    -0.061 C 
ATOM     43  H   UNL A   1      32.876  19.039  23.896  1.00  0.00     0.023 H 
ATOM     44  H   UNL A   1      32.960  20.449  22.868  1.00  0.00     0.023 H 
ATOM     45  H   UNL A   1      31.962  20.471  24.303  1.00  0.00     0.023 H 
ENDBRANCH  39  42
ENDBRANCH  31  39
ENDBRANCH  28  30
ENDBRANCH  15  28
ENDBRANCH  11  14
ENDBRANCH   8  11
ENDBRANCH   4   7
ENDBRANCH   1   4
BRANCH   1  46
ATOM     46  C   UNL A   1      34.759  33.071  28.001  1.00  0.00    -0.052 C 
ATOM     47  H   UNL A   1      34.085  33.198  27.178  1.00  0.00     0.027 H 
ATOM     48  H   UNL A   1      35.711  33.538  27.863  1.00  0.00     0.027 H 
BRANCH  46  49
ATOM     49  C   UNL A   1      34.138  33.754  29.224  1.00  0.00    -0.052 C 
ATOM     50  H   UNL A   1      34.924  34.251  29.754  1.00  0.00     0.027 H 
ATOM     51  H   UNL A   1      33.659  32.974  29.776  1.00  0.00     0.027 H 
BRANCH  49  52
ATOM     52  C   UNL A   1      33.043  34.788  28.936  1.00  0.00    -0.036 C 
ATOM     53  H   UNL A   1      32.126  34.417  29.344  1.00  0.00     0.028 H 
ATOM     54  H   UNL A   1      33.030  34.909  27.873  1.00  0.00     0.028 H 
BRANCH  52  55
ATOM     55  C   UNL A   1      33.278  36.185  29.509  1.00  0.00     0.018 C 
ATOM     56  H   UNL A   1      33.039  36.909  28.757  1.00  0.00     0.049 H 
ATOM     57  H   UNL A   1      34.306  36.244  29.803  1.00  0.00     0.049 H 
BRANCH  55  58
ATOM     58  N   UNL A   1      32.470  36.455  30.685  1.00  0.00    -0.352 N 
ATOM     59  C   UNL A   1      32.607  35.987  31.969  1.00  0.00     0.251 C 
ATOM     60  H   UNL A   1      31.710  37.064  30.540  1.00  0.00     0.163 HD
ATOM     61  O   UNL A   1      31.740  36.231  32.804  1.00  0.00    -0.269 OA
BRANCH  59  62
ATOM     62  C   UNL A   1      33.778  35.168  32.360  1.00  0.00     0.039 A 
ATOM     63  C   UNL A   1      35.058  35.699  32.162  1.00  0.00    -0.049 A 
ATOM     64  C   UNL A   1      33.633  33.868  32.855  1.00  0.00    -0.049 A 
ATOM     65  C   UNL A   1      36.189  34.953  32.504  1.00  0.00    -0.053 A 
ATOM     66  H   UNL A   1      35.166  36.644  31.762  1.00  0.00     0.063 H 
ATOM     67  C   UNL A   1      34.763  33.131  33.221  1.00  0.00    -0.053 A 
ATOM     68  H   UNL A   1      32.693  33.453  32.951  1.00  0.00     0.063 H 
ATOM     69  C   UNL A   1      36.047  33.669  33.050  1.00  0.00    -0.014 A 
ATOM     70  H   UNL A   1      37.130  35.348  32.356  1.00  0.00     0.063 H 
ATOM     71  H   UNL A   1      34.651  32.186  33.618  1.00  0.00     0.063 H 
BRANCH  69  72
ATOM     72  C   UNL A   1      37.236  32.880  33.453  1.00  0.00     0.031 A 
ATOM     73  C   UNL A   1      37.925  33.154  34.757  1.00  0.00     0.074 A 
ATOM     74  C   UNL A   1      37.731  31.950  32.616  1.00  0.00     0.049 A 
ATOM     75  N   UNL A   1      39.029  32.632  35.234  1.00  0.00    -0.248 NA
ATOM     76  C   UNL A   1      37.302  34.155  35.634  1.00  0.00    -0.034 C 
ATOM     77  C   UNL A   1      37.171  31.604  31.310  1.00  0.00    -0.036 A 
ATOM     78  N   UNL A   1      38.830  31.136  32.737  1.00  0.00    -0.354 N 
ATOM     79  C   UNL A   1      39.250  33.264  36.449  1.00  0.00     0.074 A 
ATOM     80  C   UNL A   1      38.163  34.203  36.641  1.00  0.00    -0.034 C 
ATOM     81  H   UNL A   1      36.424  34.682  35.501  1.00  0.00     0.065 H 
ATOM     82  C   UNL A   1      37.932  30.651  30.747  1.00  0.00    -0.036 A 
ATOM     83  H   UNL A   1      36.329  32.025  30.889  1.00  0.00     0.065 H 
ATOM     84  C   UNL A   1      39.038  30.332  31.646  1.00  0.00     0.049 A 
ATOM     85  H   UNL A   1      39.412  31.130  33.531  1.00  0.00     0.167 HD
ATOM     86  C   UNL A   1      40.267  33.080  37.323  1.00  0.00     0.037 A 
ATOM     87  H   UNL A   1      38.072  34.829  37.457  1.00  0.00     0.065 H 
ATOM     88  H   UNL A   1      37.761  30.213  29.828  1.00  0.00     0.065 H 
ATOM     89  C   UNL A   1      40.018  29.445  31.393  1.00  0.00     0.037 A 
ATOM     90  C   UNL A   1      41.328  32.122  37.162  1.00  0.00     0.049 A 
ATOM     91  C   UNL A   1      41.103  29.218  32.404  1.00  0.00     0.074 A 
ATOM     92  C   UNL A   1      42.370  31.832  38.027  1.00  0.00    -0.036 A 
ATOM     93  N   UNL A   1      41.476  31.290  36.064  1.00  0.00    -0.354 N 
ATOM     94  N   UNL A   1      41.289  29.807  33.558  1.00  0.00    -0.248 NA
ATOM     95  C   UNL A   1      42.117  28.204  32.074  1.00  0.00    -0.034 C 
ATOM     96  C   UNL A   1      43.156  30.829  37.446  1.00  0.00    -0.036 A 
ATOM     97  H   UNL A   1      42.537  32.277  38.943  1.00  0.00     0.065 H 
ATOM     98  C   UNL A   1      42.596  30.490  36.225  1.00  0.00     0.049 A 
ATOM     99  H   UNL A   1      40.875  31.271  35.284  1.00  0.00     0.167 HD
ATOM    100  C   UNL A   1      42.433  29.235  34.096  1.00  0.00     0.074 A 
ATOM    101  C   UNL A   1      42.897  28.247  33.145  1.00  0.00    -0.034 C 
ATOM    102  H   UNL A   1      42.198  27.615  31.230  1.00  0.00     0.065 H 
ATOM    103  H   UNL A   1      44.008  30.415  37.856  1.00  0.00     0.065 H 
ATOM    104  C   UNL A   1      43.043  29.512  35.272  1.00  0.00     0.037 A 
ATOM    105  H   UNL A   1      43.729  27.652  33.283  1.00  0.00     0.065 H 
BRANCH  86 106
ATOM    106  C   UNL A   1      40.289  33.950  38.536  1.00  0.00     0.064 A 
ATOM    107  C   UNL A   1      39.630  33.575  39.715  1.00  0.00     0.173 A 
ATOM    108  C   UNL A   1      41.003  35.156  38.529  1.00  0.00     0.173 A 
ATOM    109  F   UNL A   1      38.926  32.435  39.760  1.00  0.00    -0.203 F 
ATOM    110  C   UNL A   1      39.679  34.386  40.845  1.00  0.00     0.198 A 
ATOM    111  C   UNL A   1      41.058  35.960  39.664  1.00  0.00     0.198 A 
ATOM    112  F   UNL A   1      41.645  35.554  37.421  1.00  0.00    -0.203 F 
ATOM    113  F   UNL A   1      39.028  34.022  41.958  1.00  0.00    -0.200 F 
ATOM    114  C   UNL A   1      40.395  35.575  40.820  1.00  0.00     0.200 A 
ATOM    115  F   UNL A   1      41.749  37.108  39.639  1.00  0.00    -0.200 F 
ATOM    116  F   UNL A   1      40.441  36.354  41.910  1.00  0.00    -0.200 F 
ENDBRANCH  86 106
BRANCH  89 117
ATOM    117  C   UNL A   1      40.009  28.697  30.115  1.00  0.00     0.064 A 
ATOM    118  C   UNL A   1      40.607  29.234  28.968  1.00  0.00     0.173 A 
ATOM    119  C   UNL A   1      39.418  27.430  30.024  1.00  0.00     0.173 A 
ATOM    120  F   UNL A   1      41.164  30.452  29.012  1.00  0.00    -0.203 F 
ATOM    121  C   UNL A   1      40.612  28.527  27.769  1.00  0.00     0.198 A 
ATOM    122  C   UNL A   1      39.434  26.720  28.827  1.00  0.00     0.198 A 
ATOM    123  F   UNL A   1      38.833  26.884  31.100  1.00  0.00    -0.203 F 
ATOM    124  F   UNL A   1      41.176  29.064  26.679  1.00  0.00    -0.200 F 
ATOM    125  C   UNL A   1      40.030  27.269  27.700  1.00  0.00     0.200 A 
ATOM    126  F   UNL A   1      38.872  25.506  28.763  1.00  0.00    -0.200 F 
ATOM    127  F   UNL A   1      40.037  26.588  26.546  1.00  0.00    -0.200 F 
ENDBRANCH  89 117
BRANCH 104 128
ATOM    128  C   UNL A   1      44.274  28.729  35.599  1.00  0.00     0.064 A 
ATOM    129  C   UNL A   1      44.195  27.524  36.311  1.00  0.00     0.173 A 
ATOM    130  C   UNL A   1      45.534  29.167  35.171  1.00  0.00     0.173 A 
ATOM    131  F   UNL A   1      43.009  27.077  36.750  1.00  0.00    -0.203 F 
ATOM    132  C   UNL A   1      45.342  26.786  36.588  1.00  0.00     0.198 A 
ATOM    133  C   UNL A   1      46.678  28.423  35.445  1.00  0.00     0.198 A 
ATOM    134  F   UNL A   1      45.655  30.319  34.493  1.00  0.00    -0.203 F 
ATOM    135  F   UNL A   1      45.249  25.645  37.286  1.00  0.00    -0.200 F 
ATOM    136  C   UNL A   1      46.581  27.233  36.154  1.00  0.00     0.200 A 
ATOM    137  F   UNL A   1      47.876  28.857  35.028  1.00  0.00    -0.200 F 
ATOM    138  F   UNL A   1      47.684  26.523  36.425  1.00  0.00    -0.200 F 
ENDBRANCH 104 128
ENDBRANCH  69  72
ENDBRANCH  59  62
ENDBRANCH  55  58
ENDBRANCH  52  55
ENDBRANCH  49  52
ENDBRANCH  46  49
ENDBRANCH   1  46
TORSDOF 18
ENDMDL
MODEL 3
REMARK VINA RESULT:     -11.9      3.685      7.133
REMARK SMILES CCc1cc(C(=O)c2[nH]c3cc(Cl)ccc3c2CC(=O)NCCCCCCNC(=O)c2ccc(-c3c4nc(c(-c5c(F)c(F)c(F)c(F)c5F)c5ccc([nH]5)c(-c5c(F)c(F)c(F)c(F)c5F)c5nc(c(-c6c(F)c(F)c(F)c(F)c6F)c6ccc3[nH]6)C=C5)C=C4)cc2)ncc1Cl
REMARK SMILES IDX 23 1 22 4 21 7 19 8 20 9 18 11 17 14 8 15 9 16 10 17 16 19
REMARK SMILES IDX 11 20 15 21 12 22 14 24 13 26 6 28 7 29 5 30 3 31 4 32 96 33
REMARK SMILES IDX 95 35 97 36 94 37 2 39 1 42 24 46 25 49 26 52 27 55 28 58
REMARK SMILES IDX 29 59 30 61 31 62 32 63 93 64 33 65 92 67 34 69 35 72 36 73
REMARK SMILES IDX 86 74 37 75 91 76 85 77 87 78 38 79 90 80 84 82 83 84 39 86
REMARK SMILES IDX 71 89 51 90 70 91 52 92 55 93 69 94 88 95 53 96 54 98 68 100
REMARK SMILES IDX 89 101 56 104 40 106 41 107 49 108 42 109 43 110 47 111
REMARK SMILES IDX 50 112 44 113 45 114 48 115 46 116 72 117 73 118 81 119
REMARK SMILES IDX 74 120 75 121 79 122 82 123 76 124 77 125 80 126 78 127
REMARK SMILES IDX 57 128 58 129 66 130 59 131 60 132 64 133 67 134 61 135
REMARK SMILES IDX 62 136 65 137 63 138
REMARK H PARENT 23 2 23 3 22 5 22 6 21 10 18 12 18 13 9 18 11 23 15 25 14 27
REMARK H PARENT 4 34 95 38 2 40 2 41 1 43 1 44 1 45 24 47 24 48 25 50 25 51
REMARK H PARENT 26 53 26 54 27 56 27 57 28 60 32 66 93 68 33 70 92 71 91 81
REMARK H PARENT 85 83 87 85 90 87 84 88 52 97 55 99 88 102 53 103 89 105
REMARK Flexibility Score: inf
ROOT
ATOM      1  C   UNL A   1      37.037  22.943  24.945  1.00  0.00    -0.036 C 
ATOM      2  H   UNL A   1      37.818  22.578  25.579  1.00  0.00     0.028 H 
ATOM      3  H   UNL A   1      37.387  23.580  24.161  1.00  0.00     0.028 H 
ENDROOT
BRANCH   1   4
ATOM      4  C   UNL A   1      36.091  23.791  25.795  1.00  0.00     0.017 C 
ATOM      5  H   UNL A   1      36.652  24.588  26.238  1.00  0.00     0.049 H 
ATOM      6  H   UNL A   1      35.320  24.160  25.152  1.00  0.00     0.049 H 
BRANCH   4   7
ATOM      7  N   UNL A   1      35.456  23.030  26.851  1.00  0.00    -0.356 N 
ATOM      8  C   UNL A   1      34.142  22.990  27.222  1.00  0.00     0.224 C 
ATOM      9  O   UNL A   1      33.805  22.186  28.095  1.00  0.00    -0.275 OA
ATOM     10  H   UNL A   1      36.058  22.458  27.378  1.00  0.00     0.163 HD
BRANCH   8  11
ATOM     11  C   UNL A   1      33.102  23.835  26.503  1.00  0.00     0.055 C 
ATOM     12  H   UNL A   1      32.185  23.772  27.052  1.00  0.00     0.042 H 
ATOM     13  H   UNL A   1      33.500  24.827  26.458  1.00  0.00     0.042 H 
BRANCH  11  14
ATOM     14  C   UNL A   1      32.824  23.426  25.084  1.00  0.00    -0.002 A 
ATOM     15  C   UNL A   1      32.616  24.258  23.987  1.00  0.00     0.093 A 
ATOM     16  N   UNL A   1      32.507  23.455  22.877  1.00  0.00    -0.351 N 
ATOM     17  C   UNL A   1      32.468  22.131  23.237  1.00  0.00     0.048 A 
ATOM     18  H   UNL A   1      32.463  23.784  21.949  1.00  0.00     0.167 HD
ATOM     19  C   UNL A   1      32.663  22.078  24.616  1.00  0.00     0.004 A 
ATOM     20  C   UNL A   1      32.289  20.989  22.448  1.00  0.00    -0.019 A 
ATOM     21  C   UNL A   1      32.675  20.813  25.242  1.00  0.00    -0.051 A 
ATOM     22  C   UNL A   1      32.301  19.752  23.097  1.00  0.00     0.043 A 
ATOM     23  H   UNL A   1      32.152  21.058  21.428  1.00  0.00     0.066 H 
ATOM     24  C   UNL A   1      32.490  19.658  24.472  1.00  0.00    -0.043 A 
ATOM     25  H   UNL A   1      32.819  20.739  26.261  1.00  0.00     0.063 H 
ATOM     26  Cl  UNL A   1      32.078  18.316  22.172  1.00  0.00    -0.084 Cl
ATOM     27  H   UNL A   1      32.495  18.731  24.927  1.00  0.00     0.064 H 
BRANCH  15  28
ATOM     28  C   UNL A   1      32.582  25.706  23.911  1.00  0.00     0.227 C 
ATOM     29  O   UNL A   1      33.620  26.363  23.923  1.00  0.00    -0.285 OA
BRANCH  28  30
ATOM     30  C   UNL A   1      31.238  26.379  23.740  1.00  0.00     0.113 A 
ATOM     31  C   UNL A   1      29.846  28.348  23.410  1.00  0.00    -0.026 A 
ATOM     32  C   UNL A   1      31.120  27.751  23.501  1.00  0.00    -0.028 A 
ATOM     33  C   UNL A   1      28.728  27.516  23.534  1.00  0.00     0.062 A 
ATOM     34  H   UNL A   1      31.968  28.329  23.392  1.00  0.00     0.065 H 
ATOM     35  C   UNL A   1      28.935  26.159  23.761  1.00  0.00     0.047 A 
ATOM     36  Cl  UNL A   1      27.108  28.092  23.427  1.00  0.00    -0.082 Cl
ATOM     37  N   UNL A   1      30.153  25.579  23.880  1.00  0.00    -0.251 NA
ATOM     38  H   UNL A   1      28.104  25.554  23.845  1.00  0.00     0.086 H 
BRANCH  31  39
ATOM     39  C   UNL A   1      29.758  29.846  23.225  1.00  0.00    -0.029 C 
ATOM     40  H   UNL A   1      28.943  30.214  23.813  1.00  0.00     0.031 H 
ATOM     41  H   UNL A   1      30.696  30.260  23.534  1.00  0.00     0.031 H 
BRANCH  39  42
ATOM     42  C   UNL A   1      29.535  30.258  21.776  1.00  0.00    -0.061 C 
ATOM     43  H   UNL A   1      30.201  31.058  21.526  1.00  0.00     0.023 H 
ATOM     44  H   UNL A   1      28.525  30.583  21.649  1.00  0.00     0.023 H 
ATOM     45  H   UNL A   1      29.726  29.423  21.135  1.00  0.00     0.023 H 
ENDBRANCH  39  42
ENDBRANCH  31  39
ENDBRANCH  28  30
ENDBRANCH  15  28
ENDBRANCH  11  14
ENDBRANCH   8  11
ENDBRANCH   4   7
ENDBRANCH   1   4
BRANCH   1  46
ATOM     46  C   UNL A   1      36.385  21.738  24.255  1.00  0.00    -0.052 C 
ATOM     47  H   UNL A   1      36.851  21.615  23.300  1.00  0.00     0.027 H 
ATOM     48  H   UNL A   1      35.340  21.964  24.207  1.00  0.00     0.027 H 
BRANCH  46  49
ATOM     49  C   UNL A   1      36.483  20.401  24.999  1.00  0.00    -0.052 C 
ATOM     50  H   UNL A   1      35.700  19.769  24.638  1.00  0.00     0.027 H 
ATOM     51  H   UNL A   1      36.407  20.645  26.038  1.00  0.00     0.027 H 
BRANCH  49  52
ATOM     52  C   UNL A   1      37.806  19.641  24.850  1.00  0.00    -0.036 C 
ATOM     53  H   UNL A   1      38.130  19.743  23.836  1.00  0.00     0.028 H 
ATOM     54  H   UNL A   1      37.596  18.633  25.142  1.00  0.00     0.028 H 
BRANCH  52  55
ATOM     55  C   UNL A   1      38.947  20.105  25.755  1.00  0.00     0.018 C 
ATOM     56  H   UNL A   1      38.562  20.256  26.742  1.00  0.00     0.049 H 
ATOM     57  H   UNL A   1      39.340  21.011  25.341  1.00  0.00     0.049 H 
BRANCH  55  58
ATOM     58  N   UNL A   1      40.036  19.148  25.823  1.00  0.00    -0.352 N 
ATOM     59  C   UNL A   1      41.372  19.354  26.065  1.00  0.00     0.251 C 
ATOM     60  H   UNL A   1      39.779  18.209  25.673  1.00  0.00     0.163 HD
ATOM     61  O   UNL A   1      42.165  18.423  25.955  1.00  0.00    -0.269 OA
BRANCH  59  62
ATOM     62  C   UNL A   1      41.880  20.696  26.435  1.00  0.00     0.039 A 
ATOM     63  C   UNL A   1      42.117  21.623  25.413  1.00  0.00    -0.049 A 
ATOM     64  C   UNL A   1      42.187  21.027  27.759  1.00  0.00    -0.049 A 
ATOM     65  C   UNL A   1      42.611  22.895  25.719  1.00  0.00    -0.053 A 
ATOM     66  H   UNL A   1      41.926  21.367  24.433  1.00  0.00     0.063 H 
ATOM     67  C   UNL A   1      42.657  22.306  28.068  1.00  0.00    -0.053 A 
ATOM     68  H   UNL A   1      42.066  20.326  28.508  1.00  0.00     0.063 H 
ATOM     69  C   UNL A   1      42.870  23.249  27.051  1.00  0.00    -0.014 A 
ATOM     70  H   UNL A   1      42.784  23.575  24.963  1.00  0.00     0.063 H 
ATOM     71  H   UNL A   1      42.849  22.558  29.049  1.00  0.00     0.063 H 
BRANCH  69  72
ATOM     72  C   UNL A   1      43.358  24.606  27.394  1.00  0.00     0.031 A 
ATOM     73  C   UNL A   1      42.428  25.620  27.991  1.00  0.00     0.074 A 
ATOM     74  C   UNL A   1      44.630  24.944  27.117  1.00  0.00     0.049 A 
ATOM     75  N   UNL A   1      42.650  26.882  28.269  1.00  0.00    -0.248 NA
ATOM     76  C   UNL A   1      41.066  25.164  28.302  1.00  0.00    -0.034 C 
ATOM     77  C   UNL A   1      45.628  24.060  26.515  1.00  0.00    -0.036 A 
ATOM     78  N   UNL A   1      45.295  26.132  27.292  1.00  0.00    -0.354 N 
ATOM     79  C   UNL A   1      41.450  27.377  28.757  1.00  0.00     0.074 A 
ATOM     80  C   UNL A   1      40.503  26.281  28.743  1.00  0.00    -0.034 C 
ATOM     81  H   UNL A   1      40.656  24.222  28.204  1.00  0.00     0.065 H 
ATOM     82  C   UNL A   1      46.779  24.737  26.368  1.00  0.00    -0.036 A 
ATOM     83  H   UNL A   1      45.473  23.076  26.247  1.00  0.00     0.065 H 
ATOM     84  C   UNL A   1      46.593  26.103  26.849  1.00  0.00     0.049 A 
ATOM     85  H   UNL A   1      44.881  26.928  27.697  1.00  0.00     0.167 HD
ATOM     86  C   UNL A   1      41.163  28.633  29.174  1.00  0.00     0.037 A 
ATOM     87  H   UNL A   1      39.517  26.359  29.039  1.00  0.00     0.065 H 
ATOM     88  H   UNL A   1      47.654  24.353  25.978  1.00  0.00     0.065 H 
ATOM     89  C   UNL A   1      47.525  27.073  26.825  1.00  0.00     0.037 A 
ATOM     90  C   UNL A   1      42.105  29.717  29.231  1.00  0.00     0.049 A 
ATOM     91  C   UNL A   1      47.198  28.441  27.346  1.00  0.00     0.074 A 
ATOM     92  C   UNL A   1      41.911  31.009  29.693  1.00  0.00    -0.036 A 
ATOM     93  N   UNL A   1      43.425  29.634  28.819  1.00  0.00    -0.354 N 
ATOM     94  N   UNL A   1      46.066  28.891  27.823  1.00  0.00    -0.248 NA
ATOM     95  C   UNL A   1      48.281  29.437  27.322  1.00  0.00    -0.034 C 
ATOM     96  C   UNL A   1      43.114  31.711  29.551  1.00  0.00    -0.036 A 
ATOM     97  H   UNL A   1      41.032  31.387  30.078  1.00  0.00     0.065 H 
ATOM     98  C   UNL A   1      44.057  30.852  29.010  1.00  0.00     0.049 A 
ATOM     99  H   UNL A   1      43.851  28.829  28.445  1.00  0.00     0.167 HD
ATOM    100  C   UNL A   1      46.296  30.217  28.162  1.00  0.00     0.074 A 
ATOM    101  C   UNL A   1      47.680  30.499  27.842  1.00  0.00    -0.034 C 
ATOM    102  H   UNL A   1      49.253  29.336  26.989  1.00  0.00     0.065 H 
ATOM    103  H   UNL A   1      43.271  32.699  29.804  1.00  0.00     0.065 H 
ATOM    104  C   UNL A   1      45.433  31.117  28.688  1.00  0.00     0.037 A 
ATOM    105  H   UNL A   1      48.139  31.410  27.998  1.00  0.00     0.065 H 
BRANCH  86 106
ATOM    106  C   UNL A   1      39.756  28.906  29.594  1.00  0.00     0.064 A 
ATOM    107  C   UNL A   1      39.335  28.696  30.914  1.00  0.00     0.173 A 
ATOM    108  C   UNL A   1      38.829  29.413  28.674  1.00  0.00     0.173 A 
ATOM    109  F   UNL A   1      40.187  28.200  31.823  1.00  0.00    -0.203 F 
ATOM    110  C   UNL A   1      38.025  28.977  31.296  1.00  0.00     0.198 A 
ATOM    111  C   UNL A   1      37.524  29.703  29.061  1.00  0.00     0.198 A 
ATOM    112  F   UNL A   1      39.190  29.627  27.399  1.00  0.00    -0.203 F 
ATOM    113  F   UNL A   1      37.635  28.753  32.557  1.00  0.00    -0.200 F 
ATOM    114  C   UNL A   1      37.123  29.483  30.371  1.00  0.00     0.200 A 
ATOM    115  F   UNL A   1      36.652  30.191  28.167  1.00  0.00    -0.200 F 
ATOM    116  F   UNL A   1      35.863  29.754  30.741  1.00  0.00    -0.200 F 
ENDBRANCH  86 106
BRANCH  89 117
ATOM    117  C   UNL A   1      48.870  26.774  26.282  1.00  0.00     0.064 A 
ATOM    118  C   UNL A   1      49.857  26.199  27.093  1.00  0.00     0.173 A 
ATOM    119  C   UNL A   1      49.185  27.043  24.944  1.00  0.00     0.173 A 
ATOM    120  F   UNL A   1      49.599  25.946  28.383  1.00  0.00    -0.203 F 
ATOM    121  C   UNL A   1      51.117  25.903  26.581  1.00  0.00     0.198 A 
ATOM    122  C   UNL A   1      50.442  26.737  24.431  1.00  0.00     0.198 A 
ATOM    123  F   UNL A   1      48.268  27.596  24.137  1.00  0.00    -0.203 F 
ATOM    124  F   UNL A   1      52.053  25.367  27.377  1.00  0.00    -0.200 F 
ATOM    125  C   UNL A   1      51.409  26.168  25.250  1.00  0.00     0.200 A 
ATOM    126  F   UNL A   1      50.721  26.993  23.146  1.00  0.00    -0.200 F 
ATOM    127  F   UNL A   1      52.621  25.881  24.758  1.00  0.00    -0.200 F 
ENDBRANCH  89 117
BRANCH 104 128
ATOM    128  C   UNL A   1      45.963  32.489  28.957  1.00  0.00     0.064 A 
ATOM    129  C   UNL A   1      46.576  32.800  30.178  1.00  0.00     0.173 A 
ATOM    130  C   UNL A   1      45.888  33.488  27.977  1.00  0.00     0.173 A 
ATOM    131  F   UNL A   1      46.654  31.875  31.147  1.00  0.00    -0.203 F 
ATOM    132  C   UNL A   1      47.091  34.071  30.412  1.00  0.00     0.198 A 
ATOM    133  C   UNL A   1      46.411  34.757  28.212  1.00  0.00     0.198 A 
ATOM    134  F   UNL A   1      45.304  33.234  26.796  1.00  0.00    -0.203 F 
ATOM    135  F   UNL A   1      47.658  34.355  31.593  1.00  0.00    -0.200 F 
ATOM    136  C   UNL A   1      47.011  35.047  29.429  1.00  0.00     0.200 A 
ATOM    137  F   UNL A   1      46.330  35.700  27.264  1.00  0.00    -0.200 F 
ATOM    138  F   UNL A   1      47.505  36.271  29.658  1.00  0.00    -0.200 F 
ENDBRANCH 104 128
ENDBRANCH  69  72
ENDBRANCH  59  62
ENDBRANCH  55  58
ENDBRANCH  52  55
ENDBRANCH  49  52
ENDBRANCH  46  49
ENDBRANCH   1  46
TORSDOF 18
ENDMDL
MODEL 4
REMARK VINA RESULT:     -11.9      3.983      6.090
REMARK SMILES CCc1cc(C(=O)c2[nH]c3cc(Cl)ccc3c2CC(=O)NCCCCCCNC(=O)c2ccc(-c3c4nc(c(-c5c(F)c(F)c(F)c(F)c5F)c5ccc([nH]5)c(-c5c(F)c(F)c(F)c(F)c5F)c5nc(c(-c6c(F)c(F)c(F)c(F)c6F)c6ccc3[nH]6)C=C5)C=C4)cc2)ncc1Cl
REMARK SMILES IDX 23 1 22 4 21 7 19 8 20 9 18 11 17 14 8 15 9 16 10 17 16 19
REMARK SMILES IDX 11 20 15 21 12 22 14 24 13 26 6 28 7 29 5 30 3 31 4 32 96 33
REMARK SMILES IDX 95 35 97 36 94 37 2 39 1 42 24 46 25 49 26 52 27 55 28 58
REMARK SMILES IDX 29 59 30 61 31 62 32 63 93 64 33 65 92 67 34 69 35 72 36 73
REMARK SMILES IDX 86 74 37 75 91 76 85 77 87 78 38 79 90 80 84 82 83 84 39 86
REMARK SMILES IDX 71 89 51 90 70 91 52 92 55 93 69 94 88 95 53 96 54 98 68 100
REMARK SMILES IDX 89 101 56 104 40 106 41 107 49 108 42 109 43 110 47 111
REMARK SMILES IDX 50 112 44 113 45 114 48 115 46 116 72 117 73 118 81 119
REMARK SMILES IDX 74 120 75 121 79 122 82 123 76 124 77 125 80 126 78 127
REMARK SMILES IDX 57 128 58 129 66 130 59 131 60 132 64 133 67 134 61 135
REMARK SMILES IDX 62 136 65 137 63 138
REMARK H PARENT 23 2 23 3 22 5 22 6 21 10 18 12 18 13 9 18 11 23 15 25 14 27
REMARK H PARENT 4 34 95 38 2 40 2 41 1 43 1 44 1 45 24 47 24 48 25 50 25 51
REMARK H PARENT 26 53 26 54 27 56 27 57 28 60 32 66 93 68 33 70 92 71 91 81
REMARK H PARENT 85 83 87 85 90 87 84 88 52 97 55 99 88 102 53 103 89 105
REMARK Flexibility Score: inf
ROOT
ATOM      1  C   UNL A   1      34.742  31.269  28.624  1.00  0.00    -0.036 C 
ATOM      2  H   UNL A   1      35.693  31.409  29.094  1.00  0.00     0.028 H 
ATOM      3  H   UNL A   1      33.965  31.000  29.307  1.00  0.00     0.028 H 
ENDROOT
BRANCH   1   4
ATOM      4  C   UNL A   1      34.866  30.107  27.639  1.00  0.00     0.017 C 
ATOM      5  H   UNL A   1      35.002  30.505  26.655  1.00  0.00     0.049 H 
ATOM      6  H   UNL A   1      35.701  29.512  27.944  1.00  0.00     0.049 H 
BRANCH   4   7
ATOM      7  N   UNL A   1      33.696  29.252  27.634  1.00  0.00    -0.356 N 
ATOM      8  C   UNL A   1      33.315  28.307  26.724  1.00  0.00     0.224 C 
ATOM      9  O   UNL A   1      32.322  27.620  26.975  1.00  0.00    -0.275 OA
ATOM     10  H   UNL A   1      33.088  29.368  28.399  1.00  0.00     0.163 HD
BRANCH   8  11
ATOM     11  C   UNL A   1      34.155  28.033  25.486  1.00  0.00     0.055 C 
ATOM     12  H   UNL A   1      34.136  28.909  24.872  1.00  0.00     0.042 H 
ATOM     13  H   UNL A   1      35.134  27.782  25.837  1.00  0.00     0.042 H 
BRANCH  11  14
ATOM     14  C   UNL A   1      33.695  26.870  24.653  1.00  0.00    -0.002 A 
ATOM     15  C   UNL A   1      32.811  26.894  23.578  1.00  0.00     0.093 A 
ATOM     16  N   UNL A   1      32.766  25.624  23.053  1.00  0.00    -0.351 N 
ATOM     17  C   UNL A   1      33.453  24.745  23.852  1.00  0.00     0.048 A 
ATOM     18  H   UNL A   1      32.303  25.379  22.219  1.00  0.00     0.167 HD
ATOM     19  C   UNL A   1      34.048  25.495  24.866  1.00  0.00     0.004 A 
ATOM     20  C   UNL A   1      33.601  23.357  23.743  1.00  0.00    -0.019 A 
ATOM     21  C   UNL A   1      34.829  24.818  25.827  1.00  0.00    -0.051 A 
ATOM     22  C   UNL A   1      34.377  22.716  24.712  1.00  0.00     0.043 A 
ATOM     23  H   UNL A   1      33.154  22.829  22.978  1.00  0.00     0.066 H 
ATOM     24  C   UNL A   1      34.984  23.429  25.741  1.00  0.00    -0.043 A 
ATOM     25  H   UNL A   1      35.284  25.344  26.590  1.00  0.00     0.063 H 
ATOM     26  Cl  UNL A   1      34.584  21.008  24.627  1.00  0.00    -0.084 Cl
ATOM     27  H   UNL A   1      35.552  22.931  26.445  1.00  0.00     0.064 H 
BRANCH  15  28
ATOM     28  C   UNL A   1      32.088  28.008  22.992  1.00  0.00     0.227 C 
ATOM     29  O   UNL A   1      32.677  28.876  22.353  1.00  0.00    -0.285 OA
BRANCH  28  30
ATOM     30  C   UNL A   1      30.582  28.028  23.127  1.00  0.00     0.113 A 
ATOM     31  C   UNL A   1      28.424  29.139  22.956  1.00  0.00    -0.026 A 
ATOM     32  C   UNL A   1      29.818  29.139  22.756  1.00  0.00    -0.028 A 
ATOM     33  C   UNL A   1      27.844  27.988  23.501  1.00  0.00     0.062 A 
ATOM     34  H   UNL A   1      30.278  29.961  22.335  1.00  0.00     0.065 H 
ATOM     35  C   UNL A   1      28.675  26.923  23.833  1.00  0.00     0.047 A 
ATOM     36  Cl  UNL A   1      26.153  27.828  23.787  1.00  0.00    -0.082 Cl
ATOM     37  N   UNL A   1      30.020  26.922  23.673  1.00  0.00    -0.251 NA
ATOM     38  H   UNL A   1      28.238  26.077  24.229  1.00  0.00     0.086 H 
BRANCH  31  39
ATOM     39  C   UNL A   1      27.641  30.387  22.611  1.00  0.00    -0.029 C 
ATOM     40  H   UNL A   1      27.851  30.650  21.595  1.00  0.00     0.031 H 
ATOM     41  H   UNL A   1      26.605  30.164  22.763  1.00  0.00     0.031 H 
BRANCH  39  42
ATOM     42  C   UNL A   1      27.986  31.574  23.500  1.00  0.00    -0.061 C 
ATOM     43  H   UNL A   1      28.101  32.450  22.897  1.00  0.00     0.023 H 
ATOM     44  H   UNL A   1      28.899  31.377  24.021  1.00  0.00     0.023 H 
ATOM     45  H   UNL A   1      27.198  31.731  24.207  1.00  0.00     0.023 H 
ENDBRANCH  39  42
ENDBRANCH  31  39
ENDBRANCH  28  30
ENDBRANCH  15  28
ENDBRANCH  11  14
ENDBRANCH   8  11
ENDBRANCH   4   7
ENDBRANCH   1   4
BRANCH   1  46
ATOM     46  C   UNL A   1      34.319  32.606  28.001  1.00  0.00    -0.052 C 
ATOM     47  H   UNL A   1      33.317  32.496  27.640  1.00  0.00     0.027 H 
ATOM     48  H   UNL A   1      35.040  32.808  27.236  1.00  0.00     0.027 H 
BRANCH  46  49
ATOM     49  C   UNL A   1      34.352  33.823  28.931  1.00  0.00    -0.052 C 
ATOM     50  H   UNL A   1      35.169  34.443  28.627  1.00  0.00     0.027 H 
ATOM     51  H   UNL A   1      34.444  33.426  29.920  1.00  0.00     0.027 H 
BRANCH  49  52
ATOM     52  C   UNL A   1      33.089  34.691  28.951  1.00  0.00    -0.036 C 
ATOM     53  H   UNL A   1      32.373  34.215  29.588  1.00  0.00     0.028 H 
ATOM     54  H   UNL A   1      32.778  34.774  27.930  1.00  0.00     0.028 H 
BRANCH  52  55
ATOM     55  C   UNL A   1      33.274  36.126  29.445  1.00  0.00     0.018 C 
ATOM     56  H   UNL A   1      32.987  36.798  28.662  1.00  0.00     0.049 H 
ATOM     57  H   UNL A   1      34.304  36.245  29.711  1.00  0.00     0.049 H 
BRANCH  55  58
ATOM     58  N   UNL A   1      32.481  36.422  30.624  1.00  0.00    -0.352 N 
ATOM     59  C   UNL A   1      32.628  35.977  31.915  1.00  0.00     0.251 C 
ATOM     60  H   UNL A   1      31.722  37.033  30.477  1.00  0.00     0.163 HD
ATOM     61  O   UNL A   1      31.772  36.241  32.755  1.00  0.00    -0.269 OA
BRANCH  59  62
ATOM     62  C   UNL A   1      33.798  35.158  32.309  1.00  0.00     0.039 A 
ATOM     63  C   UNL A   1      35.078  35.701  32.141  1.00  0.00    -0.049 A 
ATOM     64  C   UNL A   1      33.655  33.847  32.776  1.00  0.00    -0.049 A 
ATOM     65  C   UNL A   1      36.208  34.955  32.486  1.00  0.00    -0.053 A 
ATOM     66  H   UNL A   1      35.186  36.654  31.761  1.00  0.00     0.063 H 
ATOM     67  C   UNL A   1      34.784  33.111  33.145  1.00  0.00    -0.053 A 
ATOM     68  H   UNL A   1      32.716  33.425  32.849  1.00  0.00     0.063 H 
ATOM     69  C   UNL A   1      36.067  33.660  33.005  1.00  0.00    -0.014 A 
ATOM     70  H   UNL A   1      37.149  35.359  32.360  1.00  0.00     0.063 H 
ATOM     71  H   UNL A   1      34.672  32.157  33.522  1.00  0.00     0.063 H 
BRANCH  69  72
ATOM     72  C   UNL A   1      37.255  32.871  33.411  1.00  0.00     0.031 A 
ATOM     73  C   UNL A   1      37.937  33.142  34.719  1.00  0.00     0.074 A 
ATOM     74  C   UNL A   1      37.754  31.943  32.574  1.00  0.00     0.049 A 
ATOM     75  N   UNL A   1      39.039  32.620  35.199  1.00  0.00    -0.248 NA
ATOM     76  C   UNL A   1      37.309  34.140  35.595  1.00  0.00    -0.034 C 
ATOM     77  C   UNL A   1      37.200  31.600  31.264  1.00  0.00    -0.036 A 
ATOM     78  N   UNL A   1      38.853  31.130  32.698  1.00  0.00    -0.354 N 
ATOM     79  C   UNL A   1      39.254  33.248  36.417  1.00  0.00     0.074 A 
ATOM     80  C   UNL A   1      38.166  34.187  36.607  1.00  0.00    -0.034 C 
ATOM     81  H   UNL A   1      36.432  34.667  35.460  1.00  0.00     0.065 H 
ATOM     82  C   UNL A   1      37.964  30.649  30.702  1.00  0.00    -0.036 A 
ATOM     83  H   UNL A   1      36.359  32.022  30.841  1.00  0.00     0.065 H 
ATOM     84  C   UNL A   1      39.067  30.329  31.605  1.00  0.00     0.049 A 
ATOM     85  H   UNL A   1      39.431  31.122  33.494  1.00  0.00     0.167 HD
ATOM     86  C   UNL A   1      40.268  33.063  37.295  1.00  0.00     0.037 A 
ATOM     87  H   UNL A   1      38.071  34.810  37.424  1.00  0.00     0.065 H 
ATOM     88  H   UNL A   1      37.798  30.213  29.781  1.00  0.00     0.065 H 
ATOM     89  C   UNL A   1      40.048  29.443  31.355  1.00  0.00     0.037 A 
ATOM     90  C   UNL A   1      41.330  32.106  37.136  1.00  0.00     0.049 A 
ATOM     91  C   UNL A   1      41.129  29.215  32.370  1.00  0.00     0.074 A 
ATOM     92  C   UNL A   1      42.368  31.815  38.005  1.00  0.00    -0.036 A 
ATOM     93  N   UNL A   1      41.484  31.277  36.037  1.00  0.00    -0.354 N 
ATOM     94  N   UNL A   1      41.310  29.801  33.526  1.00  0.00    -0.248 NA
ATOM     95  C   UNL A   1      42.145  28.203  32.042  1.00  0.00    -0.034 C 
ATOM     96  C   UNL A   1      43.158  30.814  37.425  1.00  0.00    -0.036 A 
ATOM     97  H   UNL A   1      42.531  32.258  38.923  1.00  0.00     0.065 H 
ATOM     98  C   UNL A   1      42.603  30.478  36.201  1.00  0.00     0.049 A 
ATOM     99  H   UNL A   1      40.886  31.260  35.254  1.00  0.00     0.167 HD
ATOM    100  C   UNL A   1      42.452  29.229  34.067  1.00  0.00     0.074 A 
ATOM    101  C   UNL A   1      42.920  28.243  33.116  1.00  0.00    -0.034 C 
ATOM    102  H   UNL A   1      42.231  27.615  31.197  1.00  0.00     0.065 H 
ATOM    103  H   UNL A   1      44.008  30.399  37.838  1.00  0.00     0.065 H 
ATOM    104  C   UNL A   1      43.056  29.502  35.247  1.00  0.00     0.037 A 
ATOM    105  H   UNL A   1      43.752  27.648  33.257  1.00  0.00     0.065 H 
BRANCH  86 106
ATOM    106  C   UNL A   1      40.283  33.930  38.511  1.00  0.00     0.064 A 
ATOM    107  C   UNL A   1      39.575  33.578  39.667  1.00  0.00     0.173 A 
ATOM    108  C   UNL A   1      41.042  35.109  38.529  1.00  0.00     0.173 A 
ATOM    109  F   UNL A   1      38.828  32.465  39.687  1.00  0.00    -0.203 F 
ATOM    110  C   UNL A   1      39.618  34.385  40.801  1.00  0.00     0.198 A 
ATOM    111  C   UNL A   1      41.091  35.909  39.667  1.00  0.00     0.198 A 
ATOM    112  F   UNL A   1      41.733  35.485  37.442  1.00  0.00    -0.203 F 
ATOM    113  F   UNL A   1      38.919  34.043  41.891  1.00  0.00    -0.200 F 
ATOM    114  C   UNL A   1      40.378  35.547  40.801  1.00  0.00     0.200 A 
ATOM    115  F   UNL A   1      41.823  37.030  39.667  1.00  0.00    -0.200 F 
ATOM    116  F   UNL A   1      40.418  36.322  41.894  1.00  0.00    -0.200 F 
ENDBRANCH  86 106
BRANCH  89 117
ATOM    117  C   UNL A   1      40.046  28.699  30.075  1.00  0.00     0.064 A 
ATOM    118  C   UNL A   1      40.655  29.236  28.934  1.00  0.00     0.173 A 
ATOM    119  C   UNL A   1      39.449  27.435  29.976  1.00  0.00     0.173 A 
ATOM    120  F   UNL A   1      41.219  30.450  28.986  1.00  0.00    -0.203 F 
ATOM    121  C   UNL A   1      40.667  28.531  27.733  1.00  0.00     0.198 A 
ATOM    122  C   UNL A   1      39.470  26.728  28.777  1.00  0.00     0.198 A 
ATOM    123  F   UNL A   1      38.852  26.890  31.046  1.00  0.00    -0.203 F 
ATOM    124  F   UNL A   1      41.242  29.069  26.649  1.00  0.00    -0.200 F 
ATOM    125  C   UNL A   1      40.078  27.277  27.656  1.00  0.00     0.200 A 
ATOM    126  F   UNL A   1      38.902  25.517  28.705  1.00  0.00    -0.200 F 
ATOM    127  F   UNL A   1      40.092  26.599  26.501  1.00  0.00    -0.200 F 
ENDBRANCH  89 117
BRANCH 104 128
ATOM    128  C   UNL A   1      44.286  28.719  35.578  1.00  0.00     0.064 A 
ATOM    129  C   UNL A   1      45.556  29.177  35.200  1.00  0.00     0.173 A 
ATOM    130  C   UNL A   1      44.198  27.524  36.304  1.00  0.00     0.173 A 
ATOM    131  F   UNL A   1      45.681  30.309  34.491  1.00  0.00    -0.203 F 
ATOM    132  C   UNL A   1      46.699  28.457  35.535  1.00  0.00     0.198 A 
ATOM    133  C   UNL A   1      45.345  26.811  36.643  1.00  0.00     0.198 A 
ATOM    134  F   UNL A   1      43.002  27.048  36.680  1.00  0.00    -0.203 F 
ATOM    135  F   UNL A   1      47.904  28.901  35.149  1.00  0.00    -0.200 F 
ATOM    136  C   UNL A   1      46.594  27.278  36.257  1.00  0.00     0.200 A 
ATOM    137  F   UNL A   1      45.243  25.670  37.338  1.00  0.00    -0.200 F 
ATOM    138  F   UNL A   1      47.696  26.585  36.575  1.00  0.00    -0.200 F 
ENDBRANCH 104 128
ENDBRANCH  69  72
ENDBRANCH  59  62
ENDBRANCH  55  58
ENDBRANCH  52  55
ENDBRANCH  49  52
ENDBRANCH  46  49
ENDBRANCH   1  46
TORSDOF 18
ENDMDL
MODEL 5
REMARK VINA RESULT:     -11.8      3.236      4.512
REMARK SMILES CCc1cc(C(=O)c2[nH]c3cc(Cl)ccc3c2CC(=O)NCCCCCCNC(=O)c2ccc(-c3c4nc(c(-c5c(F)c(F)c(F)c(F)c5F)c5ccc([nH]5)c(-c5c(F)c(F)c(F)c(F)c5F)c5nc(c(-c6c(F)c(F)c(F)c(F)c6F)c6ccc3[nH]6)C=C5)C=C4)cc2)ncc1Cl
REMARK SMILES IDX 23 1 22 4 21 7 19 8 20 9 18 11 17 14 8 15 9 16 10 17 16 19
REMARK SMILES IDX 11 20 15 21 12 22 14 24 13 26 6 28 7 29 5 30 3 31 4 32 96 33
REMARK SMILES IDX 95 35 97 36 94 37 2 39 1 42 24 46 25 49 26 52 27 55 28 58
REMARK SMILES IDX 29 59 30 61 31 62 32 63 93 64 33 65 92 67 34 69 35 72 36 73
REMARK SMILES IDX 86 74 37 75 91 76 85 77 87 78 38 79 90 80 84 82 83 84 39 86
REMARK SMILES IDX 71 89 51 90 70 91 52 92 55 93 69 94 88 95 53 96 54 98 68 100
REMARK SMILES IDX 89 101 56 104 40 106 41 107 49 108 42 109 43 110 47 111
REMARK SMILES IDX 50 112 44 113 45 114 48 115 46 116 72 117 73 118 81 119
REMARK SMILES IDX 74 120 75 121 79 122 82 123 76 124 77 125 80 126 78 127
REMARK SMILES IDX 57 128 58 129 66 130 59 131 60 132 64 133 67 134 61 135
REMARK SMILES IDX 62 136 65 137 63 138
REMARK H PARENT 23 2 23 3 22 5 22 6 21 10 18 12 18 13 9 18 11 23 15 25 14 27
REMARK H PARENT 4 34 95 38 2 40 2 41 1 43 1 44 1 45 24 47 24 48 25 50 25 51
REMARK H PARENT 26 53 26 54 27 56 27 57 28 60 32 66 93 68 33 70 92 71 91 81
REMARK H PARENT 85 83 87 85 90 87 84 88 52 97 55 99 88 102 53 103 89 105
REMARK Flexibility Score: inf
ROOT
ATOM      1  C   UNL A   1      31.721  28.420  27.402  1.00  0.00    -0.036 C 
ATOM      2  H   UNL A   1      32.494  28.192  28.106  1.00  0.00     0.028 H 
ATOM      3  H   UNL A   1      30.742  28.429  27.832  1.00  0.00     0.028 H 
ENDROOT
BRANCH   1   4
ATOM      4  C   UNL A   1      31.709  27.322  26.338  1.00  0.00     0.017 C 
ATOM      5  H   UNL A   1      31.108  27.649  25.515  1.00  0.00     0.049 H 
ATOM      6  H   UNL A   1      32.722  27.147  26.042  1.00  0.00     0.049 H 
BRANCH   4   7
ATOM      7  N   UNL A   1      31.175  26.070  26.833  1.00  0.00    -0.356 N 
ATOM      8  C   UNL A   1      31.632  24.797  26.647  1.00  0.00     0.224 C 
ATOM      9  O   UNL A   1      31.071  23.880  27.252  1.00  0.00    -0.275 OA
ATOM     10  H   UNL A   1      30.364  26.149  27.385  1.00  0.00     0.163 HD
BRANCH   8  11
ATOM     11  C   UNL A   1      32.869  24.527  25.804  1.00  0.00     0.055 C 
ATOM     12  H   UNL A   1      33.342  25.465  25.600  1.00  0.00     0.042 H 
ATOM     13  H   UNL A   1      33.480  23.859  26.373  1.00  0.00     0.042 H 
BRANCH  11  14
ATOM     14  C   UNL A   1      32.604  23.844  24.492  1.00  0.00    -0.002 A 
ATOM     15  C   UNL A   1      32.333  24.440  23.264  1.00  0.00     0.093 A 
ATOM     16  N   UNL A   1      32.265  23.438  22.325  1.00  0.00    -0.351 N 
ATOM     17  C   UNL A   1      32.312  22.206  22.927  1.00  0.00     0.048 A 
ATOM     18  H   UNL A   1      32.191  23.585  21.354  1.00  0.00     0.167 HD
ATOM     19  C   UNL A   1      32.524  22.425  24.288  1.00  0.00     0.004 A 
ATOM     20  C   UNL A   1      32.198  20.927  22.369  1.00  0.00    -0.019 A 
ATOM     21  C   UNL A   1      32.620  21.302  25.138  1.00  0.00    -0.051 A 
ATOM     22  C   UNL A   1      32.294  19.837  23.238  1.00  0.00     0.043 A 
ATOM     23  H   UNL A   1      32.047  20.796  21.357  1.00  0.00     0.066 H 
ATOM     24  C   UNL A   1      32.501  20.014  24.602  1.00  0.00    -0.043 A 
ATOM     25  H   UNL A   1      32.778  21.429  26.150  1.00  0.00     0.063 H 
ATOM     26  Cl  UNL A   1      32.152  18.243  22.602  1.00  0.00    -0.084 Cl
ATOM     27  H   UNL A   1      32.569  19.191  25.221  1.00  0.00     0.064 H 
BRANCH  15  28
ATOM     28  C   UNL A   1      32.208  25.844  22.919  1.00  0.00     0.227 C 
ATOM     29  O   UNL A   1      33.163  26.470  22.468  1.00  0.00    -0.285 OA
BRANCH  28  30
ATOM     30  C   UNL A   1      30.850  26.494  23.061  1.00  0.00     0.113 A 
ATOM     31  C   UNL A   1      29.330  28.377  22.806  1.00  0.00    -0.026 A 
ATOM     32  C   UNL A   1      30.593  27.787  22.597  1.00  0.00    -0.028 A 
ATOM     33  C   UNL A   1      28.354  27.614  23.455  1.00  0.00     0.062 A 
ATOM     34  H   UNL A   1      31.330  28.311  22.102  1.00  0.00     0.065 H 
ATOM     35  C   UNL A   1      28.690  26.331  23.876  1.00  0.00     0.047 A 
ATOM     36  Cl  UNL A   1      26.760  28.188  23.765  1.00  0.00    -0.082 Cl
ATOM     37  N   UNL A   1      29.908  25.764  23.708  1.00  0.00    -0.251 NA
ATOM     38  H   UNL A   1      27.962  25.774  24.349  1.00  0.00     0.086 H 
BRANCH  31  39
ATOM     39  C   UNL A   1      29.113  29.805  22.355  1.00  0.00    -0.029 C 
ATOM     40  H   UNL A   1      29.880  30.060  21.653  1.00  0.00     0.031 H 
ATOM     41  H   UNL A   1      28.137  29.856  21.920  1.00  0.00     0.031 H 
BRANCH  39  42
ATOM     42  C   UNL A   1      29.153  30.806  23.502  1.00  0.00    -0.061 C 
ATOM     43  H   UNL A   1      28.161  30.967  23.870  1.00  0.00     0.023 H 
ATOM     44  H   UNL A   1      29.558  31.732  23.153  1.00  0.00     0.023 H 
ATOM     45  H   UNL A   1      29.767  30.422  24.290  1.00  0.00     0.023 H 
ENDBRANCH  39  42
ENDBRANCH  31  39
ENDBRANCH  28  30
ENDBRANCH  15  28
ENDBRANCH  11  14
ENDBRANCH   8  11
ENDBRANCH   4   7
ENDBRANCH   1   4
BRANCH   1  46
ATOM     46  C   UNL A   1      31.967  29.837  26.869  1.00  0.00    -0.052 C 
ATOM     47  H   UNL A   1      31.192  30.469  27.250  1.00  0.00     0.027 H 
ATOM     48  H   UNL A   1      31.975  29.747  25.803  1.00  0.00     0.027 H 
BRANCH  46  49
ATOM     49  C   UNL A   1      33.312  30.472  27.239  1.00  0.00    -0.052 C 
ATOM     50  H   UNL A   1      34.063  30.029  26.620  1.00  0.00     0.027 H 
ATOM     51  H   UNL A   1      33.439  30.287  28.285  1.00  0.00     0.027 H 
BRANCH  49  52
ATOM     52  C   UNL A   1      33.408  31.993  27.075  1.00  0.00    -0.036 C 
ATOM     53  H   UNL A   1      33.493  32.206  26.031  1.00  0.00     0.028 H 
ATOM     54  H   UNL A   1      34.258  32.294  27.653  1.00  0.00     0.028 H 
BRANCH  52  55
ATOM     55  C   UNL A   1      32.230  32.798  27.624  1.00  0.00     0.018 C 
ATOM     56  H   UNL A   1      31.968  32.410  28.587  1.00  0.00     0.049 H 
ATOM     57  H   UNL A   1      31.423  32.705  26.926  1.00  0.00     0.049 H 
BRANCH  55  58
ATOM     58  N   UNL A   1      32.530  34.212  27.760  1.00  0.00    -0.352 N 
ATOM     59  C   UNL A   1      33.533  34.832  28.463  1.00  0.00     0.251 C 
ATOM     60  H   UNL A   1      31.922  34.818  27.276  1.00  0.00     0.163 HD
ATOM     61  O   UNL A   1      33.546  36.057  28.560  1.00  0.00    -0.269 OA
BRANCH  59  62
ATOM     62  C   UNL A   1      34.595  34.044  29.131  1.00  0.00     0.039 A 
ATOM     63  C   UNL A   1      35.916  34.202  28.694  1.00  0.00    -0.049 A 
ATOM     64  C   UNL A   1      34.300  33.110  30.129  1.00  0.00    -0.049 A 
ATOM     65  C   UNL A   1      36.945  33.466  29.288  1.00  0.00    -0.053 A 
ATOM     66  H   UNL A   1      36.129  34.864  27.932  1.00  0.00     0.063 H 
ATOM     67  C   UNL A   1      35.332  32.392  30.740  1.00  0.00    -0.053 A 
ATOM     68  H   UNL A   1      33.321  32.951  30.414  1.00  0.00     0.063 H 
ATOM     69  C   UNL A   1      36.660  32.567  30.325  1.00  0.00    -0.014 A 
ATOM     70  H   UNL A   1      37.917  33.585  28.962  1.00  0.00     0.063 H 
ATOM     71  H   UNL A   1      35.114  31.729  31.499  1.00  0.00     0.063 H 
BRANCH  69  72
ATOM     72  C   UNL A   1      37.746  31.806  30.990  1.00  0.00     0.031 A 
ATOM     73  C   UNL A   1      38.142  32.123  32.402  1.00  0.00     0.074 A 
ATOM     74  C   UNL A   1      38.415  30.864  30.301  1.00  0.00     0.049 A 
ATOM     75  N   UNL A   1      39.125  31.630  33.114  1.00  0.00    -0.248 NA
ATOM     76  C   UNL A   1      37.337  33.135  33.101  1.00  0.00    -0.034 C 
ATOM     77  C   UNL A   1      38.147  30.478  28.916  1.00  0.00    -0.036 A 
ATOM     78  N   UNL A   1      39.473  30.071  30.672  1.00  0.00    -0.354 N 
ATOM     79  C   UNL A   1      39.079  32.294  34.331  1.00  0.00     0.074 A 
ATOM     80  C   UNL A   1      37.967  33.221  34.265  1.00  0.00    -0.034 C 
ATOM     81  H   UNL A   1      36.502  33.645  32.772  1.00  0.00     0.065 H 
ATOM     82  C   UNL A   1      39.019  29.524  28.552  1.00  0.00    -0.036 A 
ATOM     83  H   UNL A   1      37.407  30.876  28.316  1.00  0.00     0.065 H 
ATOM     84  C   UNL A   1      39.914  29.244  29.671  1.00  0.00     0.049 A 
ATOM     85  H   UNL A   1      39.874  30.093  31.571  1.00  0.00     0.167 HD
ATOM     86  C   UNL A   1      39.892  32.148  35.404  1.00  0.00     0.037 A 
ATOM     87  H   UNL A   1      37.699  33.865  35.026  1.00  0.00     0.065 H 
ATOM     88  H   UNL A   1      39.050  29.061  27.630  1.00  0.00     0.065 H 
ATOM     89  C   UNL A   1      40.934  28.367  29.655  1.00  0.00     0.037 A 
ATOM     90  C   UNL A   1      40.972  31.203  35.495  1.00  0.00     0.049 A 
ATOM     91  C   UNL A   1      41.785  28.182  30.876  1.00  0.00     0.074 A 
ATOM     92  C   UNL A   1      41.812  30.950  36.568  1.00  0.00    -0.036 A 
ATOM     93  N   UNL A   1      41.357  30.347  34.476  1.00  0.00    -0.354 N 
ATOM     94  N   UNL A   1      41.718  28.801  32.027  1.00  0.00    -0.248 NA
ATOM     95  C   UNL A   1      42.856  27.177  30.794  1.00  0.00    -0.034 C 
ATOM     96  C   UNL A   1      42.713  29.946  36.192  1.00  0.00    -0.036 A 
ATOM     97  H   UNL A   1      41.778  31.420  37.486  1.00  0.00     0.065 H 
ATOM     98  C   UNL A   1      42.426  29.569  34.891  1.00  0.00     0.049 A 
ATOM     99  H   UNL A   1      40.934  30.300  33.588  1.00  0.00     0.167 HD
ATOM    100  C   UNL A   1      42.728  28.261  32.809  1.00  0.00     0.074 A 
ATOM    101  C   UNL A   1      43.392  27.257  32.004  1.00  0.00    -0.034 C 
ATOM    102  H   UNL A   1      43.119  26.568  30.003  1.00  0.00     0.065 H 
ATOM    103  H   UNL A   1      43.463  29.556  36.783  1.00  0.00     0.065 H 
ATOM    104  C   UNL A   1      43.074  28.575  34.079  1.00  0.00     0.037 A 
ATOM    105  H   UNL A   1      44.183  26.679  32.330  1.00  0.00     0.065 H 
BRANCH  86 106
ATOM    106  C   UNL A   1      39.648  33.047  36.571  1.00  0.00     0.064 A 
ATOM    107  C   UNL A   1      38.725  32.712  37.570  1.00  0.00     0.173 A 
ATOM    108  C   UNL A   1      40.370  34.241  36.707  1.00  0.00     0.173 A 
ATOM    109  F   UNL A   1      38.004  31.585  37.472  1.00  0.00    -0.203 F 
ATOM    110  C   UNL A   1      38.526  33.550  38.664  1.00  0.00     0.198 A 
ATOM    111  C   UNL A   1      40.177  35.071  37.806  1.00  0.00     0.198 A 
ATOM    112  F   UNL A   1      41.262  34.601  35.771  1.00  0.00    -0.203 F 
ATOM    113  F   UNL A   1      37.625  33.224  39.600  1.00  0.00    -0.200 F 
ATOM    114  C   UNL A   1      39.253  34.726  38.783  1.00  0.00     0.200 A 
ATOM    115  F   UNL A   1      40.879  36.207  37.921  1.00  0.00    -0.200 F 
ATOM    116  F   UNL A   1      39.060  35.531  39.838  1.00  0.00    -0.200 F 
ENDBRANCH  86 106
BRANCH  89 117
ATOM    117  C   UNL A   1      41.203  27.589  28.424  1.00  0.00     0.064 A 
ATOM    118  C   UNL A   1      42.128  28.045  27.476  1.00  0.00     0.173 A 
ATOM    119  C   UNL A   1      40.552  26.372  28.183  1.00  0.00     0.173 A 
ATOM    120  F   UNL A   1      42.755  29.214  27.663  1.00  0.00    -0.203 F 
ATOM    121  C   UNL A   1      42.392  27.308  26.325  1.00  0.00     0.198 A 
ATOM    122  C   UNL A   1      40.825  25.631  27.037  1.00  0.00     0.198 A 
ATOM    123  F   UNL A   1      39.657  25.904  29.065  1.00  0.00    -0.203 F 
ATOM    124  F   UNL A   1      43.270  27.768  25.424  1.00  0.00    -0.200 F 
ATOM    125  C   UNL A   1      41.744  26.100  26.108  1.00  0.00     0.200 A 
ATOM    126  F   UNL A   1      40.199  24.465  26.829  1.00  0.00    -0.200 F 
ATOM    127  F   UNL A   1      42.001  25.390  25.001  1.00  0.00    -0.200 F 
ENDBRANCH  89 117
BRANCH 104 128
ATOM    128  C   UNL A   1      44.217  27.820  34.679  1.00  0.00     0.064 A 
ATOM    129  C   UNL A   1      44.009  26.599  35.336  1.00  0.00     0.173 A 
ATOM    130  C   UNL A   1      45.528  28.302  34.568  1.00  0.00     0.173 A 
ATOM    131  F   UNL A   1      42.768  26.111  35.476  1.00  0.00    -0.203 F 
ATOM    132  C   UNL A   1      45.080  25.888  35.868  1.00  0.00     0.198 A 
ATOM    133  C   UNL A   1      46.597  27.583  35.096  1.00  0.00     0.198 A 
ATOM    134  F   UNL A   1      45.769  29.469  33.952  1.00  0.00    -0.203 F 
ATOM    135  F   UNL A   1      44.862  24.731  36.508  1.00  0.00    -0.200 F 
ATOM    136  C   UNL A   1      46.373  26.378  35.745  1.00  0.00     0.200 A 
ATOM    137  F   UNL A   1      47.845  28.059  34.980  1.00  0.00    -0.200 F 
ATOM    138  F   UNL A   1      47.402  25.693  36.261  1.00  0.00    -0.200 F 
ENDBRANCH 104 128
ENDBRANCH  69  72
ENDBRANCH  59  62
ENDBRANCH  55  58
ENDBRANCH  52  55
ENDBRANCH  49  52
ENDBRANCH  46  49
ENDBRANCH   1  46
TORSDOF 18
ENDMDL
MODEL 6
REMARK VINA RESULT:     -11.7      3.591      8.479
REMARK SMILES CCc1cc(C(=O)c2[nH]c3cc(Cl)ccc3c2CC(=O)NCCCCCCNC(=O)c2ccc(-c3c4nc(c(-c5c(F)c(F)c(F)c(F)c5F)c5ccc([nH]5)c(-c5c(F)c(F)c(F)c(F)c5F)c5nc(c(-c6c(F)c(F)c(F)c(F)c6F)c6ccc3[nH]6)C=C5)C=C4)cc2)ncc1Cl
REMARK SMILES IDX 23 1 22 4 21 7 19 8 20 9 18 11 17 14 8 15 9 16 10 17 16 19
REMARK SMILES IDX 11 20 15 21 12 22 14 24 13 26 6 28 7 29 5 30 3 31 4 32 96 33
REMARK SMILES IDX 95 35 97 36 94 37 2 39 1 42 24 46 25 49 26 52 27 55 28 58
REMARK SMILES IDX 29 59 30 61 31 62 32 63 93 64 33 65 92 67 34 69 35 72 36 73
REMARK SMILES IDX 86 74 37 75 91 76 85 77 87 78 38 79 90 80 84 82 83 84 39 86
REMARK SMILES IDX 71 89 51 90 70 91 52 92 55 93 69 94 88 95 53 96 54 98 68 100
REMARK SMILES IDX 89 101 56 104 40 106 41 107 49 108 42 109 43 110 47 111
REMARK SMILES IDX 50 112 44 113 45 114 48 115 46 116 72 117 73 118 81 119
REMARK SMILES IDX 74 120 75 121 79 122 82 123 76 124 77 125 80 126 78 127
REMARK SMILES IDX 57 128 58 129 66 130 59 131 60 132 64 133 67 134 61 135
REMARK SMILES IDX 62 136 65 137 63 138
REMARK H PARENT 23 2 23 3 22 5 22 6 21 10 18 12 18 13 9 18 11 23 15 25 14 27
REMARK H PARENT 4 34 95 38 2 40 2 41 1 43 1 44 1 45 24 47 24 48 25 50 25 51
REMARK H PARENT 26 53 26 54 27 56 27 57 28 60 32 66 93 68 33 70 92 71 91 81
REMARK H PARENT 85 83 87 85 90 87 84 88 52 97 55 99 88 102 53 103 89 105
REMARK Flexibility Score: inf
ROOT
ATOM      1  C   UNL A   1      34.058  28.686  27.075  1.00  0.00    -0.036 C 
ATOM      2  H   UNL A   1      35.069  28.944  26.834  1.00  0.00     0.028 H 
ATOM      3  H   UNL A   1      33.962  28.152  27.996  1.00  0.00     0.028 H 
ENDROOT
BRANCH   1   4
ATOM      4  C   UNL A   1      33.534  27.752  25.983  1.00  0.00     0.017 C 
ATOM      5  H   UNL A   1      33.157  28.346  25.176  1.00  0.00     0.049 H 
ATOM      6  H   UNL A   1      34.348  27.132  25.670  1.00  0.00     0.049 H 
BRANCH   4   7
ATOM      7  N   UNL A   1      32.475  26.883  26.453  1.00  0.00    -0.356 N 
ATOM      8  C   UNL A   1      32.348  25.528  26.337  1.00  0.00     0.224 C 
ATOM      9  O   UNL A   1      31.402  24.978  26.906  1.00  0.00    -0.275 OA
ATOM     10  H   UNL A   1      31.740  27.334  26.925  1.00  0.00     0.163 HD
BRANCH   8  11
ATOM     11  C   UNL A   1      33.405  24.704  25.617  1.00  0.00     0.055 C 
ATOM     12  H   UNL A   1      34.200  25.361  25.331  1.00  0.00     0.042 H 
ATOM     13  H   UNL A   1      33.712  23.943  26.304  1.00  0.00     0.042 H 
BRANCH  11  14
ATOM     14  C   UNL A   1      32.923  23.991  24.385  1.00  0.00    -0.002 A 
ATOM     15  C   UNL A   1      32.451  24.561  23.207  1.00  0.00     0.093 A 
ATOM     16  N   UNL A   1      32.224  23.538  22.317  1.00  0.00    -0.351 N 
ATOM     17  C   UNL A   1      32.370  22.320  22.931  1.00  0.00     0.048 A 
ATOM     18  H   UNL A   1      31.988  23.662  21.368  1.00  0.00     0.167 HD
ATOM     19  C   UNL A   1      32.808  22.569  24.231  1.00  0.00     0.004 A 
ATOM     20  C   UNL A   1      32.162  21.029  22.431  1.00  0.00    -0.019 A 
ATOM     21  C   UNL A   1      33.045  21.466  25.080  1.00  0.00    -0.051 A 
ATOM     22  C   UNL A   1      32.401  19.958  23.296  1.00  0.00     0.043 A 
ATOM     23  H   UNL A   1      31.843  20.874  21.462  1.00  0.00     0.066 H 
ATOM     24  C   UNL A   1      32.835  20.166  24.602  1.00  0.00    -0.043 A 
ATOM     25  H   UNL A   1      33.371  21.616  26.047  1.00  0.00     0.063 H 
ATOM     26  Cl  UNL A   1      32.153  18.350  22.731  1.00  0.00    -0.084 Cl
ATOM     27  H   UNL A   1      33.005  19.357  25.221  1.00  0.00     0.064 H 
BRANCH  15  28
ATOM     28  C   UNL A   1      32.271  25.957  22.854  1.00  0.00     0.227 C 
ATOM     29  O   UNL A   1      33.194  26.611  22.375  1.00  0.00    -0.285 OA
BRANCH  28  30
ATOM     30  C   UNL A   1      30.896  26.563  23.024  1.00  0.00     0.113 A 
ATOM     31  C   UNL A   1      29.313  28.398  22.805  1.00  0.00    -0.026 A 
ATOM     32  C   UNL A   1      30.589  27.849  22.571  1.00  0.00    -0.028 A 
ATOM     33  C   UNL A   1      28.373  27.602  23.468  1.00  0.00     0.062 A 
ATOM     34  H   UNL A   1      31.301  28.399  22.064  1.00  0.00     0.065 H 
ATOM     35  C   UNL A   1      28.757  26.328  23.876  1.00  0.00     0.047 A 
ATOM     36  Cl  UNL A   1      26.768  28.123  23.809  1.00  0.00    -0.082 Cl
ATOM     37  N   UNL A   1      29.989  25.801  23.684  1.00  0.00    -0.251 NA
ATOM     38  H   UNL A   1      28.055  25.746  24.360  1.00  0.00     0.086 H 
BRANCH  31  39
ATOM     39  C   UNL A   1      29.043  29.820  22.365  1.00  0.00    -0.029 C 
ATOM     40  H   UNL A   1      29.751  30.082  21.607  1.00  0.00     0.031 H 
ATOM     41  H   UNL A   1      28.036  29.856  22.003  1.00  0.00     0.031 H 
BRANCH  39  42
ATOM     42  C   UNL A   1      29.153  30.828  23.501  1.00  0.00    -0.061 C 
ATOM     43  H   UNL A   1      29.051  31.820  23.110  1.00  0.00     0.023 H 
ATOM     44  H   UNL A   1      30.106  30.729  23.976  1.00  0.00     0.023 H 
ATOM     45  H   UNL A   1      28.377  30.647  24.215  1.00  0.00     0.023 H 
ENDBRANCH  39  42
ENDBRANCH  31  39
ENDBRANCH  28  30
ENDBRANCH  15  28
ENDBRANCH  11  14
ENDBRANCH   8  11
ENDBRANCH   4   7
ENDBRANCH   1   4
BRANCH   1  46
ATOM     46  C   UNL A   1      33.265  29.987  27.250  1.00  0.00    -0.052 C 
ATOM     47  H   UNL A   1      32.445  29.784  27.907  1.00  0.00     0.027 H 
ATOM     48  H   UNL A   1      32.974  30.283  26.264  1.00  0.00     0.027 H 
BRANCH  46  49
ATOM     49  C   UNL A   1      34.042  31.177  27.825  1.00  0.00    -0.052 C 
ATOM     50  H   UNL A   1      35.082  31.006  27.643  1.00  0.00     0.027 H 
ATOM     51  H   UNL A   1      33.777  31.219  28.860  1.00  0.00     0.027 H 
BRANCH  49  52
ATOM     52  C   UNL A   1      33.687  32.554  27.252  1.00  0.00    -0.036 C 
ATOM     53  H   UNL A   1      33.773  32.499  26.188  1.00  0.00     0.028 H 
ATOM     54  H   UNL A   1      34.368  33.242  27.710  1.00  0.00     0.028 H 
BRANCH  52  55
ATOM     55  C   UNL A   1      32.288  33.074  27.584  1.00  0.00     0.018 C 
ATOM     56  H   UNL A   1      31.913  32.533  28.428  1.00  0.00     0.049 H 
ATOM     57  H   UNL A   1      31.677  32.930  26.717  1.00  0.00     0.049 H 
BRANCH  55  58
ATOM     58  N   UNL A   1      32.275  34.491  27.899  1.00  0.00    -0.352 N 
ATOM     59  C   UNL A   1      33.079  35.208  28.750  1.00  0.00     0.251 C 
ATOM     60  H   UNL A   1      31.586  35.018  27.432  1.00  0.00     0.163 HD
ATOM     61  O   UNL A   1      32.828  36.388  28.981  1.00  0.00    -0.269 OA
BRANCH  59  62
ATOM     62  C   UNL A   1      34.238  34.572  29.419  1.00  0.00     0.039 A 
ATOM     63  C   UNL A   1      34.021  33.896  30.627  1.00  0.00    -0.049 A 
ATOM     64  C   UNL A   1      35.536  34.688  28.911  1.00  0.00    -0.049 A 
ATOM     65  C   UNL A   1      35.091  33.296  31.297  1.00  0.00    -0.053 A 
ATOM     66  H   UNL A   1      33.070  33.842  31.022  1.00  0.00     0.063 H 
ATOM     67  C   UNL A   1      36.601  34.066  29.568  1.00  0.00    -0.053 A 
ATOM     68  H   UNL A   1      35.706  35.232  28.051  1.00  0.00     0.063 H 
ATOM     69  C   UNL A   1      36.385  33.365  30.764  1.00  0.00    -0.014 A 
ATOM     70  H   UNL A   1      34.927  32.800  32.187  1.00  0.00     0.063 H 
ATOM     71  H   UNL A   1      37.551  34.125  29.172  1.00  0.00     0.063 H 
BRANCH  69  72
ATOM     72  C   UNL A   1      37.523  32.701  31.444  1.00  0.00     0.031 A 
ATOM     73  C   UNL A   1      38.237  31.555  30.790  1.00  0.00     0.074 A 
ATOM     74  C   UNL A   1      37.881  33.095  32.679  1.00  0.00     0.049 A 
ATOM     75  N   UNL A   1      39.189  30.793  31.269  1.00  0.00    -0.248 NA
ATOM     76  C   UNL A   1      37.816  31.209  29.424  1.00  0.00    -0.034 C 
ATOM     77  C   UNL A   1      37.253  34.179  33.435  1.00  0.00    -0.036 A 
ATOM     78  N   UNL A   1      38.852  32.615  33.522  1.00  0.00    -0.354 N 
ATOM     79  C   UNL A   1      39.459  29.859  30.280  1.00  0.00     0.074 A 
ATOM     80  C   UNL A   1      38.575  30.152  29.169  1.00  0.00    -0.034 C 
ATOM     81  H   UNL A   1      37.114  31.669  28.823  1.00  0.00     0.065 H 
ATOM     82  C   UNL A   1      37.853  34.280  34.633  1.00  0.00    -0.036 A 
ATOM     83  H   UNL A   1      36.475  34.769  33.103  1.00  0.00     0.065 H 
ATOM     84  C   UNL A   1      38.894  33.260  34.732  1.00  0.00     0.049 A 
ATOM     85  H   UNL A   1      39.461  31.880  33.281  1.00  0.00     0.167 HD
ATOM     86  C   UNL A   1      40.359  28.848  30.297  1.00  0.00     0.037 A 
ATOM     87  H   UNL A   1      38.540  29.607  28.293  1.00  0.00     0.065 H 
ATOM     88  H   UNL A   1      37.617  34.968  35.365  1.00  0.00     0.065 H 
ATOM     89  C   UNL A   1      39.676  33.045  35.806  1.00  0.00     0.037 A 
ATOM     90  C   UNL A   1      41.269  28.573  31.376  1.00  0.00     0.049 A 
ATOM     91  C   UNL A   1      40.704  31.953  35.778  1.00  0.00     0.074 A 
ATOM     92  C   UNL A   1      42.252  27.601  31.452  1.00  0.00    -0.036 A 
ATOM     93  N   UNL A   1      41.313  29.281  32.566  1.00  0.00    -0.354 N 
ATOM     94  N   UNL A   1      40.964  31.090  34.828  1.00  0.00    -0.248 NA
ATOM     95  C   UNL A   1      41.549  31.805  36.973  1.00  0.00    -0.034 C 
ATOM     96  C   UNL A   1      42.886  27.714  32.695  1.00  0.00    -0.036 A 
ATOM     97  H   UNL A   1      42.479  26.912  30.718  1.00  0.00     0.065 H 
ATOM     98  C   UNL A   1      42.302  28.763  33.386  1.00  0.00     0.049 A 
ATOM     99  H   UNL A   1      40.728  30.039  32.795  1.00  0.00     0.167 HD
ATOM    100  C   UNL A   1      42.000  30.301  35.304  1.00  0.00     0.074 A 
ATOM    101  C   UNL A   1      42.329  30.791  36.627  1.00  0.00    -0.034 C 
ATOM    102  H   UNL A   1      41.536  32.349  37.851  1.00  0.00     0.065 H 
ATOM    103  H   UNL A   1      43.655  27.117  33.039  1.00  0.00     0.065 H 
ATOM    104  C   UNL A   1      42.618  29.261  34.698  1.00  0.00     0.037 A 
ATOM    105  H   UNL A   1      43.075  30.400  37.223  1.00  0.00     0.065 H 
BRANCH  86 106
ATOM    106  C   UNL A   1      40.393  27.946  29.106  1.00  0.00     0.064 A 
ATOM    107  C   UNL A   1      39.642  26.765  29.064  1.00  0.00     0.173 A 
ATOM    108  C   UNL A   1      41.161  28.287  27.983  1.00  0.00     0.173 A 
ATOM    109  F   UNL A   1      38.904  26.396  30.121  1.00  0.00    -0.203 F 
ATOM    110  C   UNL A   1      39.666  25.946  27.937  1.00  0.00     0.198 A 
ATOM    111  C   UNL A   1      41.175  27.472  26.855  1.00  0.00     0.198 A 
ATOM    112  F   UNL A   1      41.897  29.408  27.983  1.00  0.00    -0.203 F 
ATOM    113  F   UNL A   1      38.957  24.810  27.921  1.00  0.00    -0.200 F 
ATOM    114  C   UNL A   1      40.429  26.302  26.834  1.00  0.00     0.200 A 
ATOM    115  F   UNL A   1      41.912  27.815  25.790  1.00  0.00    -0.200 F 
ATOM    116  F   UNL A   1      40.451  25.513  25.750  1.00  0.00    -0.200 F 
ENDBRANCH  86 106
BRANCH  89 117
ATOM    117  C   UNL A   1      39.512  33.896  37.006  1.00  0.00     0.064 A 
ATOM    118  C   UNL A   1      38.723  33.471  38.082  1.00  0.00     0.173 A 
ATOM    119  C   UNL A   1      40.152  35.138  37.103  1.00  0.00     0.173 A 
ATOM    120  F   UNL A   1      38.079  32.298  38.017  1.00  0.00    -0.203 F 
ATOM    121  C   UNL A   1      38.578  34.263  39.218  1.00  0.00     0.198 A 
ATOM    122  C   UNL A   1      40.015  35.924  38.243  1.00  0.00     0.198 A 
ATOM    123  F   UNL A   1      40.913  35.581  36.092  1.00  0.00    -0.203 F 
ATOM    124  F   UNL A   1      37.807  33.845  40.231  1.00  0.00    -0.200 F 
ATOM    125  C   UNL A   1      39.227  35.487  39.300  1.00  0.00     0.200 A 
ATOM    126  F   UNL A   1      40.643  37.105  38.321  1.00  0.00    -0.200 F 
ATOM    127  F   UNL A   1      39.090  36.248  40.394  1.00  0.00    -0.200 F 
ENDBRANCH  89 117
BRANCH 104 128
ATOM    128  C   UNL A   1      43.718  28.588  35.455  1.00  0.00     0.064 A 
ATOM    129  C   UNL A   1      45.053  28.982  35.291  1.00  0.00     0.173 A 
ATOM    130  C   UNL A   1      43.433  27.569  36.373  1.00  0.00     0.173 A 
ATOM    131  F   UNL A   1      45.369  29.944  34.411  1.00  0.00    -0.203 F 
ATOM    132  C   UNL A   1      46.068  28.370  36.019  1.00  0.00     0.198 A 
ATOM    133  C   UNL A   1      44.451  26.964  37.105  1.00  0.00     0.198 A 
ATOM    134  F   UNL A   1      42.169  27.158  36.556  1.00  0.00    -0.203 F 
ATOM    135  F   UNL A   1      47.342  28.748  35.836  1.00  0.00    -0.200 F 
ATOM    136  C   UNL A   1      45.768  27.365  36.927  1.00  0.00     0.200 A 
ATOM    137  F   UNL A   1      44.160  25.991  37.979  1.00  0.00    -0.200 F 
ATOM    138  F   UNL A   1      46.748  26.776  37.624  1.00  0.00    -0.200 F 
ENDBRANCH 104 128
ENDBRANCH  69  72
ENDBRANCH  59  62
ENDBRANCH  55  58
ENDBRANCH  52  55
ENDBRANCH  49  52
ENDBRANCH  46  49
ENDBRANCH   1  46
TORSDOF 18
ENDMDL
MODEL 7
REMARK VINA RESULT:     -11.6      3.567      8.042
REMARK SMILES CCc1cc(C(=O)c2[nH]c3cc(Cl)ccc3c2CC(=O)NCCCCCCNC(=O)c2ccc(-c3c4nc(c(-c5c(F)c(F)c(F)c(F)c5F)c5ccc([nH]5)c(-c5c(F)c(F)c(F)c(F)c5F)c5nc(c(-c6c(F)c(F)c(F)c(F)c6F)c6ccc3[nH]6)C=C5)C=C4)cc2)ncc1Cl
REMARK SMILES IDX 23 1 22 4 21 7 19 8 20 9 18 11 17 14 8 15 9 16 10 17 16 19
REMARK SMILES IDX 11 20 15 21 12 22 14 24 13 26 6 28 7 29 5 30 3 31 4 32 96 33
REMARK SMILES IDX 95 35 97 36 94 37 2 39 1 42 24 46 25 49 26 52 27 55 28 58
REMARK SMILES IDX 29 59 30 61 31 62 32 63 93 64 33 65 92 67 34 69 35 72 36 73
REMARK SMILES IDX 86 74 37 75 91 76 85 77 87 78 38 79 90 80 84 82 83 84 39 86
REMARK SMILES IDX 71 89 51 90 70 91 52 92 55 93 69 94 88 95 53 96 54 98 68 100
REMARK SMILES IDX 89 101 56 104 40 106 41 107 49 108 42 109 43 110 47 111
REMARK SMILES IDX 50 112 44 113 45 114 48 115 46 116 72 117 73 118 81 119
REMARK SMILES IDX 74 120 75 121 79 122 82 123 76 124 77 125 80 126 78 127
REMARK SMILES IDX 57 128 58 129 66 130 59 131 60 132 64 133 67 134 61 135
REMARK SMILES IDX 62 136 65 137 63 138
REMARK H PARENT 23 2 23 3 22 5 22 6 21 10 18 12 18 13 9 18 11 23 15 25 14 27
REMARK H PARENT 4 34 95 38 2 40 2 41 1 43 1 44 1 45 24 47 24 48 25 50 25 51
REMARK H PARENT 26 53 26 54 27 56 27 57 28 60 32 66 93 68 33 70 92 71 91 81
REMARK H PARENT 85 83 87 85 90 87 84 88 52 97 55 99 88 102 53 103 89 105
REMARK Flexibility Score: inf
ROOT
ATOM      1  C   UNL A   1      37.165  22.904  25.348  1.00  0.00    -0.036 C 
ATOM      2  H   UNL A   1      37.599  22.418  26.197  1.00  0.00     0.028 H 
ATOM      3  H   UNL A   1      37.828  23.590  24.864  1.00  0.00     0.028 H 
ENDROOT
BRANCH   1   4
ATOM      4  C   UNL A   1      35.974  23.731  25.832  1.00  0.00     0.017 C 
ATOM      5  H   UNL A   1      36.340  24.650  26.242  1.00  0.00     0.049 H 
ATOM      6  H   UNL A   1      35.334  23.900  24.992  1.00  0.00     0.049 H 
BRANCH   4   7
ATOM      7  N   UNL A   1      35.196  23.049  26.847  1.00  0.00    -0.356 N 
ATOM      8  C   UNL A   1      33.860  23.131  27.117  1.00  0.00     0.224 C 
ATOM      9  O   UNL A   1      33.389  22.376  27.971  1.00  0.00    -0.275 OA
ATOM     10  H   UNL A   1      35.705  22.437  27.425  1.00  0.00     0.163 HD
BRANCH   8  11
ATOM     11  C   UNL A   1      32.956  24.049  26.309  1.00  0.00     0.055 C 
ATOM     12  H   UNL A   1      32.014  24.115  26.814  1.00  0.00     0.042 H 
ATOM     13  H   UNL A   1      33.465  24.987  26.239  1.00  0.00     0.042 H 
BRANCH  11  14
ATOM     14  C   UNL A   1      32.698  23.602  24.898  1.00  0.00    -0.002 A 
ATOM     15  C   UNL A   1      32.483  24.404  23.780  1.00  0.00     0.093 A 
ATOM     16  N   UNL A   1      32.398  23.574  22.688  1.00  0.00    -0.351 N 
ATOM     17  C   UNL A   1      32.380  22.259  23.078  1.00  0.00     0.048 A 
ATOM     18  H   UNL A   1      32.356  23.882  21.753  1.00  0.00     0.167 HD
ATOM     19  C   UNL A   1      32.565  22.241  24.460  1.00  0.00     0.004 A 
ATOM     20  C   UNL A   1      32.228  21.096  22.314  1.00  0.00    -0.019 A 
ATOM     21  C   UNL A   1      32.594  20.991  25.115  1.00  0.00    -0.051 A 
ATOM     22  C   UNL A   1      32.257  19.874  22.992  1.00  0.00     0.043 A 
ATOM     23  H   UNL A   1      32.098  21.139  21.292  1.00  0.00     0.066 H 
ATOM     24  C   UNL A   1      32.436  19.815  24.370  1.00  0.00    -0.043 A 
ATOM     25  H   UNL A   1      32.730  20.943  26.136  1.00  0.00     0.063 H 
ATOM     26  Cl  UNL A   1      32.067  18.414  22.099  1.00  0.00    -0.084 Cl
ATOM     27  H   UNL A   1      32.454  18.899  24.847  1.00  0.00     0.064 H 
BRANCH  15  28
ATOM     28  C   UNL A   1      32.424  25.850  23.670  1.00  0.00     0.227 C 
ATOM     29  O   UNL A   1      33.452  26.522  23.637  1.00  0.00    -0.285 OA
BRANCH  28  30
ATOM     30  C   UNL A   1      31.066  26.498  23.522  1.00  0.00     0.113 A 
ATOM     31  C   UNL A   1      29.628  28.358  22.893  1.00  0.00    -0.026 A 
ATOM     32  C   UNL A   1      30.905  27.766  22.955  1.00  0.00    -0.028 A 
ATOM     33  C   UNL A   1      28.544  27.621  23.384  1.00  0.00     0.062 A 
ATOM     34  H   UNL A   1      31.725  28.269  22.582  1.00  0.00     0.065 H 
ATOM     35  C   UNL A   1      28.791  26.363  23.922  1.00  0.00     0.047 A 
ATOM     36  Cl  UNL A   1      26.923  28.200  23.360  1.00  0.00    -0.082 Cl
ATOM     37  N   UNL A   1      30.017  25.795  24.014  1.00  0.00    -0.251 NA
ATOM     38  H   UNL A   1      27.984  25.825  24.276  1.00  0.00     0.086 H 
BRANCH  31  39
ATOM     39  C   UNL A   1      29.505  29.761  22.341  1.00  0.00    -0.029 C 
ATOM     40  H   UNL A   1      30.457  30.058  21.953  1.00  0.00     0.031 H 
ATOM     41  H   UNL A   1      28.751  29.739  21.582  1.00  0.00     0.031 H 
BRANCH  39  42
ATOM     42  C   UNL A   1      29.068  30.779  23.386  1.00  0.00    -0.061 C 
ATOM     43  H   UNL A   1      28.020  30.669  23.575  1.00  0.00     0.023 H 
ATOM     44  H   UNL A   1      29.264  31.766  23.026  1.00  0.00     0.023 H 
ATOM     45  H   UNL A   1      29.612  30.614  24.293  1.00  0.00     0.023 H 
ENDBRANCH  39  42
ENDBRANCH  31  39
ENDBRANCH  28  30
ENDBRANCH  15  28
ENDBRANCH  11  14
ENDBRANCH   8  11
ENDBRANCH   4   7
ENDBRANCH   1   4
BRANCH   1  46
ATOM     46  C   UNL A   1      36.828  21.829  24.306  1.00  0.00    -0.052 C 
ATOM     47  H   UNL A   1      37.605  21.832  23.570  1.00  0.00     0.027 H 
ATOM     48  H   UNL A   1      35.863  22.090  23.925  1.00  0.00     0.027 H 
BRANCH  46  49
ATOM     49  C   UNL A   1      36.689  20.398  24.836  1.00  0.00    -0.052 C 
ATOM     50  H   UNL A   1      35.990  19.885  24.209  1.00  0.00     0.027 H 
ATOM     51  H   UNL A   1      36.375  20.498  25.854  1.00  0.00     0.027 H 
BRANCH  49  52
ATOM     52  C   UNL A   1      37.976  19.567  24.881  1.00  0.00    -0.036 C 
ATOM     53  H   UNL A   1      38.421  19.598  23.909  1.00  0.00     0.028 H 
ATOM     54  H   UNL A   1      37.678  18.587  25.193  1.00  0.00     0.028 H 
BRANCH  52  55
ATOM     55  C   UNL A   1      39.028  20.021  25.893  1.00  0.00     0.018 C 
ATOM     56  H   UNL A   1      38.583  20.034  26.867  1.00  0.00     0.049 H 
ATOM     57  H   UNL A   1      39.361  20.995  25.597  1.00  0.00     0.049 H 
BRANCH  55  58
ATOM     58  N   UNL A   1      40.190  19.152  25.925  1.00  0.00    -0.352 N 
ATOM     59  C   UNL A   1      41.515  19.466  26.098  1.00  0.00     0.251 C 
ATOM     60  H   UNL A   1      40.000  18.193  25.805  1.00  0.00     0.163 HD
ATOM     61  O   UNL A   1      42.373  18.596  25.967  1.00  0.00    -0.269 OA
BRANCH  59  62
ATOM     62  C   UNL A   1      41.935  20.850  26.418  1.00  0.00     0.039 A 
ATOM     63  C   UNL A   1      42.126  21.749  25.361  1.00  0.00    -0.049 A 
ATOM     64  C   UNL A   1      42.204  21.253  27.730  1.00  0.00    -0.049 A 
ATOM     65  C   UNL A   1      42.536  23.060  25.619  1.00  0.00    -0.053 A 
ATOM     66  H   UNL A   1      41.964  21.442  24.390  1.00  0.00     0.063 H 
ATOM     67  C   UNL A   1      42.590  22.571  27.990  1.00  0.00    -0.053 A 
ATOM     68  H   UNL A   1      42.117  20.577  28.505  1.00  0.00     0.063 H 
ATOM     69  C   UNL A   1      42.756  23.483  26.937  1.00  0.00    -0.014 A 
ATOM     70  H   UNL A   1      42.676  23.718  24.837  1.00  0.00     0.063 H 
ATOM     71  H   UNL A   1      42.754  22.874  28.962  1.00  0.00     0.063 H 
BRANCH  69  72
ATOM     72  C   UNL A   1      43.155  24.881  27.230  1.00  0.00     0.031 A 
ATOM     73  C   UNL A   1      44.558  25.343  26.966  1.00  0.00     0.074 A 
ATOM     74  C   UNL A   1      42.266  25.723  27.787  1.00  0.00     0.049 A 
ATOM     75  N   UNL A   1      45.113  26.497  27.243  1.00  0.00    -0.248 NA
ATOM     76  C   UNL A   1      45.458  24.379  26.319  1.00  0.00    -0.034 C 
ATOM     77  C   UNL A   1      40.880  25.392  28.116  1.00  0.00    -0.036 A 
ATOM     78  N   UNL A   1      42.404  27.028  28.189  1.00  0.00    -0.354 N 
ATOM     79  C   UNL A   1      46.434  26.387  26.836  1.00  0.00     0.074 A 
ATOM     80  C   UNL A   1      46.598  25.056  26.286  1.00  0.00    -0.034 C 
ATOM     81  H   UNL A   1      45.257  23.425  25.979  1.00  0.00     0.065 H 
ATOM     82  C   UNL A   1      40.295  26.465  28.674  1.00  0.00    -0.036 A 
ATOM     83  H   UNL A   1      40.425  24.481  27.948  1.00  0.00     0.065 H 
ATOM     84  C   UNL A   1      41.269  27.550  28.754  1.00  0.00     0.049 A 
ATOM     85  H   UNL A   1      43.238  27.540  28.081  1.00  0.00     0.167 HD
ATOM     86  C   UNL A   1      47.422  27.310  26.916  1.00  0.00     0.037 A 
ATOM     87  H   UNL A   1      47.487  24.684  25.916  1.00  0.00     0.065 H 
ATOM     88  H   UNL A   1      39.315  26.515  28.993  1.00  0.00     0.065 H 
ATOM     89  C   UNL A   1      41.042  28.765  29.287  1.00  0.00     0.037 A 
ATOM     90  C   UNL A   1      47.261  28.646  27.422  1.00  0.00     0.049 A 
ATOM     91  C   UNL A   1      42.138  29.789  29.312  1.00  0.00     0.074 A 
ATOM     92  C   UNL A   1      48.197  29.665  27.489  1.00  0.00    -0.036 A 
ATOM     93  N   UNL A   1      46.081  29.153  27.941  1.00  0.00    -0.354 N 
ATOM     94  N   UNL A   1      43.377  29.680  28.905  1.00  0.00    -0.248 NA
ATOM     95  C   UNL A   1      41.803  31.106  29.875  1.00  0.00    -0.034 C 
ATOM     96  C   UNL A   1      47.585  30.787  28.059  1.00  0.00    -0.036 A 
ATOM     97  H   UNL A   1      49.178  29.606  27.172  1.00  0.00     0.065 H 
ATOM     98  C   UNL A   1      46.265  30.469  28.336  1.00  0.00     0.049 A 
ATOM     99  H   UNL A   1      45.236  28.653  28.018  1.00  0.00     0.167 HD
ATOM    100  C   UNL A   1      43.969  30.909  29.155  1.00  0.00     0.074 A 
ATOM    101  C   UNL A   1      42.952  31.755  29.743  1.00  0.00    -0.034 C 
ATOM    102  H   UNL A   1      40.908  31.439  30.267  1.00  0.00     0.065 H 
ATOM    103  H   UNL A   1      48.038  31.696  28.242  1.00  0.00     0.065 H 
ATOM    104  C   UNL A   1      45.244  31.296  28.919  1.00  0.00     0.037 A 
ATOM    105  H   UNL A   1      43.102  32.736  30.025  1.00  0.00     0.065 H 
BRANCH  86 106
ATOM    106  C   UNL A   1      48.781  26.895  26.454  1.00  0.00     0.064 A 
ATOM    107  C   UNL A   1      49.709  26.326  27.336  1.00  0.00     0.173 A 
ATOM    108  C   UNL A   1      49.144  27.040  25.108  1.00  0.00     0.173 A 
ATOM    109  F   UNL A   1      49.405  26.181  28.634  1.00  0.00    -0.203 F 
ATOM    110  C   UNL A   1      50.963  25.924  26.885  1.00  0.00     0.198 A 
ATOM    111  C   UNL A   1      50.395  26.628  24.659  1.00  0.00     0.198 A 
ATOM    112  F   UNL A   1      48.286  27.583  24.231  1.00  0.00    -0.203 F 
ATOM    113  F   UNL A   1      51.846  25.399  27.746  1.00  0.00    -0.200 F 
ATOM    114  C   UNL A   1      51.304  26.071  25.548  1.00  0.00     0.200 A 
ATOM    115  F   UNL A   1      50.724  26.771  23.368  1.00  0.00    -0.200 F 
ATOM    116  F   UNL A   1      52.512  25.683  25.116  1.00  0.00    -0.200 F 
ENDBRANCH  86 106
BRANCH  89 117
ATOM    117  C   UNL A   1      39.705  29.076  29.841  1.00  0.00     0.064 A 
ATOM    118  C   UNL A   1      38.692  29.587  29.021  1.00  0.00     0.173 A 
ATOM    119  C   UNL A   1      39.415  28.854  31.193  1.00  0.00     0.173 A 
ATOM    120  F   UNL A   1      38.938  29.831  27.726  1.00  0.00    -0.203 F 
ATOM    121  C   UNL A   1      37.429  29.866  29.536  1.00  0.00     0.198 A 
ATOM    122  C   UNL A   1      38.149  29.125  31.705  1.00  0.00     0.198 A 
ATOM    123  F   UNL A   1      40.360  28.370  32.011  1.00  0.00    -0.203 F 
ATOM    124  F   UNL A   1      36.477  30.369  28.738  1.00  0.00    -0.200 F 
ATOM    125  C   UNL A   1      37.157  29.632  30.877  1.00  0.00     0.200 A 
ATOM    126  F   UNL A   1      37.889  28.897  32.999  1.00  0.00    -0.200 F 
ATOM    127  F   UNL A   1      35.942  29.899  31.372  1.00  0.00    -0.200 F 
ENDBRANCH  89 117
BRANCH 104 128
ATOM    128  C   UNL A   1      45.608  32.698  29.290  1.00  0.00     0.064 A 
ATOM    129  C   UNL A   1      46.136  32.995  30.554  1.00  0.00     0.173 A 
ATOM    130  C   UNL A   1      45.459  33.743  28.369  1.00  0.00     0.173 A 
ATOM    131  F   UNL A   1      46.281  32.026  31.470  1.00  0.00    -0.203 F 
ATOM    132  C   UNL A   1      46.498  34.298  30.884  1.00  0.00     0.198 A 
ATOM    133  C   UNL A   1      45.830  35.043  28.701  1.00  0.00     0.198 A 
ATOM    134  F   UNL A   1      44.952  33.502  27.150  1.00  0.00    -0.203 F 
ATOM    135  F   UNL A   1      46.986  34.567  32.104  1.00  0.00    -0.200 F 
ATOM    136  C   UNL A   1      46.348  35.320  29.958  1.00  0.00     0.200 A 
ATOM    137  F   UNL A   1      45.680  36.031  27.806  1.00  0.00    -0.200 F 
ATOM    138  F   UNL A   1      46.694  36.573  30.279  1.00  0.00    -0.200 F 
ENDBRANCH 104 128
ENDBRANCH  69  72
ENDBRANCH  59  62
ENDBRANCH  55  58
ENDBRANCH  52  55
ENDBRANCH  49  52
ENDBRANCH  46  49
ENDBRANCH   1  46
TORSDOF 18
ENDMDL
MODEL 8
REMARK VINA RESULT:     -11.5      3.195      8.691
REMARK SMILES CCc1cc(C(=O)c2[nH]c3cc(Cl)ccc3c2CC(=O)NCCCCCCNC(=O)c2ccc(-c3c4nc(c(-c5c(F)c(F)c(F)c(F)c5F)c5ccc([nH]5)c(-c5c(F)c(F)c(F)c(F)c5F)c5nc(c(-c6c(F)c(F)c(F)c(F)c6F)c6ccc3[nH]6)C=C5)C=C4)cc2)ncc1Cl
REMARK SMILES IDX 23 1 22 4 21 7 19 8 20 9 18 11 17 14 8 15 9 16 10 17 16 19
REMARK SMILES IDX 11 20 15 21 12 22 14 24 13 26 6 28 7 29 5 30 3 31 4 32 96 33
REMARK SMILES IDX 95 35 97 36 94 37 2 39 1 42 24 46 25 49 26 52 27 55 28 58
REMARK SMILES IDX 29 59 30 61 31 62 32 63 93 64 33 65 92 67 34 69 35 72 36 73
REMARK SMILES IDX 86 74 37 75 91 76 85 77 87 78 38 79 90 80 84 82 83 84 39 86
REMARK SMILES IDX 71 89 51 90 70 91 52 92 55 93 69 94 88 95 53 96 54 98 68 100
REMARK SMILES IDX 89 101 56 104 40 106 41 107 49 108 42 109 43 110 47 111
REMARK SMILES IDX 50 112 44 113 45 114 48 115 46 116 72 117 73 118 81 119
REMARK SMILES IDX 74 120 75 121 79 122 82 123 76 124 77 125 80 126 78 127
REMARK SMILES IDX 57 128 58 129 66 130 59 131 60 132 64 133 67 134 61 135
REMARK SMILES IDX 62 136 65 137 63 138
REMARK H PARENT 23 2 23 3 22 5 22 6 21 10 18 12 18 13 9 18 11 23 15 25 14 27
REMARK H PARENT 4 34 95 38 2 40 2 41 1 43 1 44 1 45 24 47 24 48 25 50 25 51
REMARK H PARENT 26 53 26 54 27 56 27 57 28 60 32 66 93 68 33 70 92 71 91 81
REMARK H PARENT 85 83 87 85 90 87 84 88 52 97 55 99 88 102 53 103 89 105
REMARK Flexibility Score: inf
ROOT
ATOM      1  C   UNL A   1      33.013  27.983  26.198  1.00  0.00    -0.036 C 
ATOM      2  H   UNL A   1      33.834  28.377  26.760  1.00  0.00     0.028 H 
ATOM      3  H   UNL A   1      32.753  26.982  26.469  1.00  0.00     0.028 H 
ENDROOT
BRANCH   1   4
ATOM      4  C   UNL A   1      33.426  27.933  24.727  1.00  0.00     0.017 C 
ATOM      5  H   UNL A   1      32.566  28.137  24.123  1.00  0.00     0.049 H 
ATOM      6  H   UNL A   1      34.194  28.664  24.581  1.00  0.00     0.049 H 
BRANCH   4   7
ATOM      7  N   UNL A   1      33.967  26.646  24.342  1.00  0.00    -0.356 N 
ATOM      8  C   UNL A   1      33.670  25.868  23.259  1.00  0.00     0.224 C 
ATOM      9  O   UNL A   1      34.333  24.845  23.074  1.00  0.00    -0.275 OA
ATOM     10  H   UNL A   1      34.648  26.278  24.949  1.00  0.00     0.163 HD
BRANCH   8  11
ATOM     11  C   UNL A   1      32.625  26.308  22.245  1.00  0.00     0.055 C 
ATOM     12  H   UNL A   1      32.938  27.244  21.830  1.00  0.00     0.042 H 
ATOM     13  H   UNL A   1      32.561  25.524  21.520  1.00  0.00     0.042 H 
BRANCH  11  14
ATOM     14  C   UNL A   1      31.239  26.484  22.800  1.00  0.00    -0.002 A 
ATOM     15  C   UNL A   1      30.420  25.508  23.359  1.00  0.00     0.093 A 
ATOM     16  N   UNL A   1      29.291  26.137  23.828  1.00  0.00    -0.351 N 
ATOM     17  C   UNL A   1      29.274  27.453  23.442  1.00  0.00     0.048 A 
ATOM     18  H   UNL A   1      28.590  25.702  24.366  1.00  0.00     0.167 HD
ATOM     19  C   UNL A   1      30.482  27.704  22.793  1.00  0.00     0.004 A 
ATOM     20  C   UNL A   1      28.292  28.433  23.629  1.00  0.00    -0.019 A 
ATOM     21  C   UNL A   1      30.720  29.005  22.300  1.00  0.00    -0.051 A 
ATOM     22  C   UNL A   1      28.555  29.710  23.126  1.00  0.00     0.043 A 
ATOM     23  H   UNL A   1      27.409  28.220  24.118  1.00  0.00     0.066 H 
ATOM     24  C   UNL A   1      29.747  29.998  22.470  1.00  0.00    -0.043 A 
ATOM     25  H   UNL A   1      31.605  29.224  21.817  1.00  0.00     0.063 H 
ATOM     26  Cl  UNL A   1      27.375  30.949  23.325  1.00  0.00    -0.084 Cl
ATOM     27  H   UNL A   1      29.916  30.950  22.109  1.00  0.00     0.064 H 
BRANCH  15  28
ATOM     28  C   UNL A   1      30.653  24.086  23.536  1.00  0.00     0.227 C 
ATOM     29  O   UNL A   1      30.182  23.268  22.751  1.00  0.00    -0.285 OA
BRANCH  28  30
ATOM     30  C   UNL A   1      31.553  23.648  24.670  1.00  0.00     0.113 A 
ATOM     31  C   UNL A   1      33.007  22.028  25.757  1.00  0.00    -0.026 A 
ATOM     32  C   UNL A   1      32.228  22.424  24.652  1.00  0.00    -0.028 A 
ATOM     33  C   UNL A   1      33.100  22.911  26.838  1.00  0.00     0.062 A 
ATOM     34  H   UNL A   1      32.154  21.809  23.827  1.00  0.00     0.065 H 
ATOM     35  C   UNL A   1      32.404  24.113  26.771  1.00  0.00     0.047 A 
ATOM     36  Cl  UNL A   1      34.028  22.578  28.250  1.00  0.00    -0.082 Cl
ATOM     37  N   UNL A   1      31.629  24.493  25.727  1.00  0.00    -0.251 NA
ATOM     38  H   UNL A   1      32.484  24.761  27.570  1.00  0.00     0.086 H 
BRANCH  31  39
ATOM     39  C   UNL A   1      33.662  20.664  25.731  1.00  0.00    -0.029 C 
ATOM     40  H   UNL A   1      33.823  20.346  26.740  1.00  0.00     0.031 H 
ATOM     41  H   UNL A   1      33.005  20.006  25.202  1.00  0.00     0.031 H 
BRANCH  39  42
ATOM     42  C   UNL A   1      34.998  20.656  25.001  1.00  0.00    -0.061 C 
ATOM     43  H   UNL A   1      35.708  21.242  25.549  1.00  0.00     0.023 H 
ATOM     44  H   UNL A   1      34.873  21.070  24.023  1.00  0.00     0.023 H 
ATOM     45  H   UNL A   1      35.354  19.651  24.920  1.00  0.00     0.023 H 
ENDBRANCH  39  42
ENDBRANCH  31  39
ENDBRANCH  28  30
ENDBRANCH  15  28
ENDBRANCH  11  14
ENDBRANCH   8  11
ENDBRANCH   4   7
ENDBRANCH   1   4
BRANCH   1  46
ATOM     46  C   UNL A   1      31.778  28.842  26.497  1.00  0.00    -0.052 C 
ATOM     47  H   UNL A   1      31.807  29.107  27.534  1.00  0.00     0.027 H 
ATOM     48  H   UNL A   1      30.936  28.241  26.222  1.00  0.00     0.027 H 
BRANCH  46  49
ATOM     49  C   UNL A   1      31.644  30.135  25.686  1.00  0.00    -0.052 C 
ATOM     50  H   UNL A   1      30.813  30.019  25.023  1.00  0.00     0.027 H 
ATOM     51  H   UNL A   1      32.585  30.264  25.194  1.00  0.00     0.027 H 
BRANCH  49  52
ATOM     52  C   UNL A   1      31.423  31.419  26.495  1.00  0.00    -0.036 C 
ATOM     53  H   UNL A   1      30.915  31.154  27.398  1.00  0.00     0.028 H 
ATOM     54  H   UNL A   1      30.865  32.071  25.855  1.00  0.00     0.028 H 
BRANCH  52  55
ATOM     55  C   UNL A   1      32.685  32.192  26.876  1.00  0.00     0.018 C 
ATOM     56  H   UNL A   1      33.309  32.277  26.011  1.00  0.00     0.049 H 
ATOM     57  H   UNL A   1      33.169  31.652  27.663  1.00  0.00     0.049 H 
BRANCH  55  58
ATOM     58  N   UNL A   1      32.399  33.526  27.373  1.00  0.00    -0.352 N 
ATOM     59  C   UNL A   1      33.010  34.238  28.375  1.00  0.00     0.251 C 
ATOM     60  H   UNL A   1      31.654  33.989  26.925  1.00  0.00     0.163 HD
ATOM     61  O   UNL A   1      32.538  35.312  28.738  1.00  0.00    -0.269 OA
BRANCH  59  62
ATOM     62  C   UNL A   1      34.224  33.719  29.047  1.00  0.00     0.039 A 
ATOM     63  C   UNL A   1      34.068  32.754  30.050  1.00  0.00    -0.049 A 
ATOM     64  C   UNL A   1      35.498  34.214  28.751  1.00  0.00    -0.049 A 
ATOM     65  C   UNL A   1      35.187  32.249  30.719  1.00  0.00    -0.053 A 
ATOM     66  H   UNL A   1      33.126  32.415  30.295  1.00  0.00     0.063 H 
ATOM     67  C   UNL A   1      36.619  33.692  29.402  1.00  0.00    -0.053 A 
ATOM     68  H   UNL A   1      35.610  34.965  28.052  1.00  0.00     0.063 H 
ATOM     69  C   UNL A   1      36.471  32.705  30.388  1.00  0.00    -0.014 A 
ATOM     70  H   UNL A   1      35.068  31.539  31.457  1.00  0.00     0.063 H 
ATOM     71  H   UNL A   1      37.560  34.035  29.157  1.00  0.00     0.063 H 
BRANCH  69  72
ATOM     72  C   UNL A   1      37.670  32.152  31.062  1.00  0.00     0.031 A 
ATOM     73  C   UNL A   1      38.481  31.073  30.408  1.00  0.00     0.074 A 
ATOM     74  C   UNL A   1      37.999  32.584  32.293  1.00  0.00     0.049 A 
ATOM     75  N   UNL A   1      39.503  30.404  30.884  1.00  0.00    -0.248 NA
ATOM     76  C   UNL A   1      38.084  30.683  29.048  1.00  0.00    -0.034 C 
ATOM     77  C   UNL A   1      37.280  33.609  33.050  1.00  0.00    -0.036 A 
ATOM     78  N   UNL A   1      39.016  32.200  33.131  1.00  0.00    -0.354 N 
ATOM     79  C   UNL A   1      39.850  29.494  29.897  1.00  0.00     0.074 A 
ATOM     80  C   UNL A   1      38.935  29.698  28.791  1.00  0.00    -0.034 C 
ATOM     81  H   UNL A   1      37.339  31.073  28.449  1.00  0.00     0.065 H 
ATOM     82  C   UNL A   1      37.876  33.771  34.242  1.00  0.00    -0.036 A 
ATOM     83  H   UNL A   1      36.449  34.124  32.720  1.00  0.00     0.065 H 
ATOM     84  C   UNL A   1      39.007  32.852  34.338  1.00  0.00     0.049 A 
ATOM     85  H   UNL A   1      39.688  31.523  32.889  1.00  0.00     0.167 HD
ATOM     86  C   UNL A   1      40.839  28.570  29.911  1.00  0.00     0.037 A 
ATOM     87  H   UNL A   1      38.944  29.148  27.918  1.00  0.00     0.065 H 
ATOM     88  H   UNL A   1      37.584  34.439  34.973  1.00  0.00     0.065 H 
ATOM     89  C   UNL A   1      39.814  32.715  35.406  1.00  0.00     0.037 A 
ATOM     90  C   UNL A   1      41.779  28.386  30.984  1.00  0.00     0.049 A 
ATOM     91  C   UNL A   1      40.938  31.722  35.375  1.00  0.00     0.074 A 
ATOM     92  C   UNL A   1      42.848  27.508  31.057  1.00  0.00    -0.036 A 
ATOM     93  N   UNL A   1      41.767  29.100  32.171  1.00  0.00    -0.354 N 
ATOM     94  N   UNL A   1      41.268  30.882  34.428  1.00  0.00    -0.248 NA
ATOM     95  C   UNL A   1      41.801  31.659  36.565  1.00  0.00    -0.034 C 
ATOM     96  C   UNL A   1      43.477  27.685  32.295  1.00  0.00    -0.036 A 
ATOM     97  H   UNL A   1      43.132  26.839  30.324  1.00  0.00     0.065 H 
ATOM     98  C   UNL A   1      42.805  28.680  32.986  1.00  0.00     0.049 A 
ATOM     99  H   UNL A   1      41.116  29.802  32.401  1.00  0.00     0.167 HD
ATOM    100  C   UNL A   1      42.376  30.194  34.900  1.00  0.00     0.074 A 
ATOM    101  C   UNL A   1      42.668  30.718  36.217  1.00  0.00    -0.034 C 
ATOM    102  H   UNL A   1      41.745  32.203  37.440  1.00  0.00     0.065 H 
ATOM    103  H   UNL A   1      44.300  27.163  32.636  1.00  0.00     0.065 H 
ATOM    104  C   UNL A   1      43.083  29.212  34.292  1.00  0.00     0.037 A 
ATOM    105  H   UNL A   1      43.451  30.401  36.809  1.00  0.00     0.065 H 
BRANCH  86 106
ATOM    106  C   UNL A   1      40.948  27.669  28.724  1.00  0.00     0.064 A 
ATOM    107  C   UNL A   1      40.141  26.531  28.596  1.00  0.00     0.173 A 
ATOM    108  C   UNL A   1      41.845  27.967  27.690  1.00  0.00     0.173 A 
ATOM    109  F   UNL A   1      39.278  26.203  29.569  1.00  0.00    -0.203 F 
ATOM    110  C   UNL A   1      40.238  25.714  27.473  1.00  0.00     0.198 A 
ATOM    111  C   UNL A   1      41.932  27.155  26.563  1.00  0.00     0.198 A 
ATOM    112  F   UNL A   1      42.638  29.047  27.773  1.00  0.00    -0.203 F 
ATOM    113  F   UNL A   1      39.472  24.619  27.375  1.00  0.00    -0.200 F 
ATOM    114  C   UNL A   1      41.130  26.028  26.457  1.00  0.00     0.200 A 
ATOM    115  F   UNL A   1      42.794  27.457  25.583  1.00  0.00    -0.200 F 
ATOM    116  F   UNL A   1      41.220  25.240  25.376  1.00  0.00    -0.200 F 
ENDBRANCH  86 106
BRANCH  89 117
ATOM    117  C   UNL A   1      39.580  33.554  36.604  1.00  0.00     0.064 A 
ATOM    118  C   UNL A   1      40.158  34.824  36.711  1.00  0.00     0.173 A 
ATOM    119  C   UNL A   1      38.765  33.105  37.651  1.00  0.00     0.173 A 
ATOM    120  F   UNL A   1      40.960  35.279  35.738  1.00  0.00    -0.203 F 
ATOM    121  C   UNL A   1      39.929  35.621  37.830  1.00  0.00     0.198 A 
ATOM    122  C   UNL A   1      38.528  33.906  38.764  1.00  0.00     0.198 A 
ATOM    123  F   UNL A   1      38.197  31.892  37.587  1.00  0.00    -0.203 F 
ATOM    124  F   UNL A   1      40.503  36.828  37.920  1.00  0.00    -0.200 F 
ATOM    125  C   UNL A   1      39.111  35.163  38.854  1.00  0.00     0.200 A 
ATOM    126  F   UNL A   1      37.738  33.464  39.751  1.00  0.00    -0.200 F 
ATOM    127  F   UNL A   1      38.888  35.931  39.929  1.00  0.00    -0.200 F 
ENDBRANCH  89 117
BRANCH 104 128
ATOM    128  C   UNL A   1      44.246  28.647  35.045  1.00  0.00     0.064 A 
ATOM    129  C   UNL A   1      44.089  27.539  35.888  1.00  0.00     0.173 A 
ATOM    130  C   UNL A   1      45.527  29.195  34.896  1.00  0.00     0.173 A 
ATOM    131  F   UNL A   1      42.877  26.995  36.069  1.00  0.00    -0.203 F 
ATOM    132  C   UNL A   1      45.180  27.001  36.564  1.00  0.00     0.198 A 
ATOM    133  C   UNL A   1      46.617  28.650  35.569  1.00  0.00     0.198 A 
ATOM    134  F   UNL A   1      45.718  30.260  34.103  1.00  0.00    -0.203 F 
ATOM    135  F   UNL A   1      45.009  25.952  37.381  1.00  0.00    -0.200 F 
ATOM    136  C   UNL A   1      46.442  27.554  36.402  1.00  0.00     0.200 A 
ATOM    137  F   UNL A   1      47.835  29.186  35.415  1.00  0.00    -0.200 F 
ATOM    138  F   UNL A   1      47.490  27.036  37.057  1.00  0.00    -0.200 F 
ENDBRANCH 104 128
ENDBRANCH  69  72
ENDBRANCH  59  62
ENDBRANCH  55  58
ENDBRANCH  52  55
ENDBRANCH  49  52
ENDBRANCH  46  49
ENDBRANCH   1  46
TORSDOF 18
ENDMDL
MODEL 9
REMARK VINA RESULT:     -11.5      3.388      6.314
REMARK SMILES CCc1cc(C(=O)c2[nH]c3cc(Cl)ccc3c2CC(=O)NCCCCCCNC(=O)c2ccc(-c3c4nc(c(-c5c(F)c(F)c(F)c(F)c5F)c5ccc([nH]5)c(-c5c(F)c(F)c(F)c(F)c5F)c5nc(c(-c6c(F)c(F)c(F)c(F)c6F)c6ccc3[nH]6)C=C5)C=C4)cc2)ncc1Cl
REMARK SMILES IDX 23 1 22 4 21 7 19 8 20 9 18 11 17 14 8 15 9 16 10 17 16 19
REMARK SMILES IDX 11 20 15 21 12 22 14 24 13 26 6 28 7 29 5 30 3 31 4 32 96 33
REMARK SMILES IDX 95 35 97 36 94 37 2 39 1 42 24 46 25 49 26 52 27 55 28 58
REMARK SMILES IDX 29 59 30 61 31 62 32 63 93 64 33 65 92 67 34 69 35 72 36 73
REMARK SMILES IDX 86 74 37 75 91 76 85 77 87 78 38 79 90 80 84 82 83 84 39 86
REMARK SMILES IDX 71 89 51 90 70 91 52 92 55 93 69 94 88 95 53 96 54 98 68 100
REMARK SMILES IDX 89 101 56 104 40 106 41 107 49 108 42 109 43 110 47 111
REMARK SMILES IDX 50 112 44 113 45 114 48 115 46 116 72 117 73 118 81 119
REMARK SMILES IDX 74 120 75 121 79 122 82 123 76 124 77 125 80 126 78 127
REMARK SMILES IDX 57 128 58 129 66 130 59 131 60 132 64 133 67 134 61 135
REMARK SMILES IDX 62 136 65 137 63 138
REMARK H PARENT 23 2 23 3 22 5 22 6 21 10 18 12 18 13 9 18 11 23 15 25 14 27
REMARK H PARENT 4 34 95 38 2 40 2 41 1 43 1 44 1 45 24 47 24 48 25 50 25 51
REMARK H PARENT 26 53 26 54 27 56 27 57 28 60 32 66 93 68 33 70 92 71 91 81
REMARK H PARENT 85 83 87 85 90 87 84 88 52 97 55 99 88 102 53 103 89 105
REMARK Flexibility Score: inf
ROOT
ATOM      1  C   UNL A   1      35.014  30.518  27.640  1.00  0.00    -0.036 C 
ATOM      2  H   UNL A   1      35.814  30.695  26.951  1.00  0.00     0.028 H 
ATOM      3  H   UNL A   1      35.224  29.742  28.346  1.00  0.00     0.028 H 
ENDROOT
BRANCH   1   4
ATOM      4  C   UNL A   1      33.797  30.050  26.842  1.00  0.00     0.017 C 
ATOM      5  H   UNL A   1      33.351  30.900  26.369  1.00  0.00     0.049 H 
ATOM      6  H   UNL A   1      34.136  29.332  26.125  1.00  0.00     0.049 H 
BRANCH   4   7
ATOM      7  N   UNL A   1      32.799  29.405  27.671  1.00  0.00    -0.356 N 
ATOM      8  C   UNL A   1      32.138  28.226  27.476  1.00  0.00     0.224 C 
ATOM      9  O   UNL A   1      31.396  27.816  28.371  1.00  0.00    -0.275 OA
ATOM     10  H   UNL A   1      32.565  29.886  28.497  1.00  0.00     0.163 HD
BRANCH   8  11
ATOM     11  C   UNL A   1      32.393  27.386  26.234  1.00  0.00     0.055 C 
ATOM     12  H   UNL A   1      33.092  27.910  25.616  1.00  0.00     0.042 H 
ATOM     13  H   UNL A   1      32.758  26.442  26.580  1.00  0.00     0.042 H 
BRANCH  11  14
ATOM     14  C   UNL A   1      31.173  27.088  25.409  1.00  0.00    -0.002 A 
ATOM     15  C   UNL A   1      30.447  25.902  25.366  1.00  0.00     0.093 A 
ATOM     16  N   UNL A   1      29.354  26.117  24.560  1.00  0.00    -0.351 N 
ATOM     17  C   UNL A   1      29.437  27.341  23.946  1.00  0.00     0.048 A 
ATOM     18  H   UNL A   1      28.613  25.479  24.439  1.00  0.00     0.167 HD
ATOM     19  C   UNL A   1      30.568  27.977  24.456  1.00  0.00     0.004 A 
ATOM     20  C   UNL A   1      28.594  27.931  22.996  1.00  0.00    -0.019 A 
ATOM     21  C   UNL A   1      30.877  29.271  23.986  1.00  0.00    -0.051 A 
ATOM     22  C   UNL A   1      28.929  29.211  22.548  1.00  0.00     0.043 A 
ATOM     23  H   UNL A   1      27.760  27.438  22.641  1.00  0.00     0.066 H 
ATOM     24  C   UNL A   1      30.051  29.877  23.030  1.00  0.00    -0.043 A 
ATOM     25  H   UNL A   1      31.706  29.770  24.345  1.00  0.00     0.063 H 
ATOM     26  Cl  UNL A   1      27.928  29.977  21.374  1.00  0.00    -0.084 Cl
ATOM     27  H   UNL A   1      30.276  30.822  22.683  1.00  0.00     0.064 H 
BRANCH  15  28
ATOM     28  C   UNL A   1      30.669  24.649  26.063  1.00  0.00     0.227 C 
ATOM     29  O   UNL A   1      29.911  24.280  26.956  1.00  0.00    -0.285 OA
BRANCH  28  30
ATOM     30  C   UNL A   1      31.817  23.775  25.608  1.00  0.00     0.113 A 
ATOM     31  C   UNL A   1      32.727  21.913  24.333  1.00  0.00    -0.026 A 
ATOM     32  C   UNL A   1      31.643  22.742  24.682  1.00  0.00    -0.028 A 
ATOM     33  C   UNL A   1      33.969  22.185  24.916  1.00  0.00     0.062 A 
ATOM     34  H   UNL A   1      30.717  22.586  24.254  1.00  0.00     0.065 H 
ATOM     35  C   UNL A   1      34.058  23.238  25.821  1.00  0.00     0.047 A 
ATOM     36  Cl  UNL A   1      35.391  21.275  24.576  1.00  0.00    -0.082 Cl
ATOM     37  N   UNL A   1      33.017  24.024  26.187  1.00  0.00    -0.251 NA
ATOM     38  H   UNL A   1      34.979  23.435  26.242  1.00  0.00     0.086 H 
BRANCH  31  39
ATOM     39  C   UNL A   1      32.483  20.760  23.385  1.00  0.00    -0.029 C 
ATOM     40  H   UNL A   1      31.543  20.914  22.897  1.00  0.00     0.031 H 
ATOM     41  H   UNL A   1      33.297  20.741  22.690  1.00  0.00     0.031 H 
BRANCH  39  42
ATOM     42  C   UNL A   1      32.451  19.407  24.084  1.00  0.00    -0.061 C 
ATOM     43  H   UNL A   1      33.119  19.422  24.920  1.00  0.00     0.023 H 
ATOM     44  H   UNL A   1      32.753  18.644  23.399  1.00  0.00     0.023 H 
ATOM     45  H   UNL A   1      31.457  19.207  24.427  1.00  0.00     0.023 H 
ENDBRANCH  39  42
ENDBRANCH  31  39
ENDBRANCH  28  30
ENDBRANCH  15  28
ENDBRANCH  11  14
ENDBRANCH   8  11
ENDBRANCH   4   7
ENDBRANCH   1   4
BRANCH   1  46
ATOM     46  C   UNL A   1      34.801  31.796  28.460  1.00  0.00    -0.052 C 
ATOM     47  H   UNL A   1      35.238  31.642  29.425  1.00  0.00     0.027 H 
ATOM     48  H   UNL A   1      33.743  31.953  28.478  1.00  0.00     0.027 H 
BRANCH  46  49
ATOM     49  C   UNL A   1      35.399  33.080  27.875  1.00  0.00    -0.052 C 
ATOM     50  H   UNL A   1      35.687  32.874  26.865  1.00  0.00     0.027 H 
ATOM     51  H   UNL A   1      36.212  33.338  28.520  1.00  0.00     0.027 H 
BRANCH  49  52
ATOM     52  C   UNL A   1      34.479  34.306  27.859  1.00  0.00    -0.036 C 
ATOM     53  H   UNL A   1      34.360  34.614  26.842  1.00  0.00     0.028 H 
ATOM     54  H   UNL A   1      34.956  35.034  28.482  1.00  0.00     0.028 H 
BRANCH  52  55
ATOM     55  C   UNL A   1      33.086  34.102  28.453  1.00  0.00     0.018 C 
ATOM     56  H   UNL A   1      33.039  33.126  28.890  1.00  0.00     0.049 H 
ATOM     57  H   UNL A   1      32.376  34.216  27.660  1.00  0.00     0.049 H 
BRANCH  55  58
ATOM     58  N   UNL A   1      32.761  35.082  29.474  1.00  0.00    -0.352 N 
ATOM     59  C   UNL A   1      33.281  35.241  30.735  1.00  0.00     0.251 C 
ATOM     60  H   UNL A   1      32.062  35.730  29.226  1.00  0.00     0.163 HD
ATOM     61  O   UNL A   1      32.783  36.057  31.505  1.00  0.00    -0.269 OA
BRANCH  59  62
ATOM     62  C   UNL A   1      34.427  34.421  31.194  1.00  0.00     0.039 A 
ATOM     63  C   UNL A   1      35.723  34.894  30.952  1.00  0.00    -0.049 A 
ATOM     64  C   UNL A   1      34.244  33.172  31.797  1.00  0.00    -0.049 A 
ATOM     65  C   UNL A   1      36.831  34.144  31.357  1.00  0.00    -0.053 A 
ATOM     66  H   UNL A   1      35.859  35.798  30.474  1.00  0.00     0.063 H 
ATOM     67  C   UNL A   1      35.351  32.435  32.224  1.00  0.00    -0.053 A 
ATOM     68  H   UNL A   1      33.291  32.797  31.927  1.00  0.00     0.063 H 
ATOM     69  C   UNL A   1      36.651  32.916  32.008  1.00  0.00    -0.014 A 
ATOM     70  H   UNL A   1      37.784  34.496  31.176  1.00  0.00     0.063 H 
ATOM     71  H   UNL A   1      35.211  31.530  32.699  1.00  0.00     0.063 H 
BRANCH  69  72
ATOM     72  C   UNL A   1      37.816  32.127  32.477  1.00  0.00     0.031 A 
ATOM     73  C   UNL A   1      38.466  32.439  33.792  1.00  0.00     0.074 A 
ATOM     74  C   UNL A   1      38.325  31.163  31.689  1.00  0.00     0.049 A 
ATOM     75  N   UNL A   1      39.547  31.921  34.322  1.00  0.00    -0.248 NA
ATOM     76  C   UNL A   1      37.828  33.477  34.613  1.00  0.00    -0.034 C 
ATOM     77  C   UNL A   1      37.803  30.778  30.378  1.00  0.00    -0.036 A 
ATOM     78  N   UNL A   1      39.409  30.341  31.873  1.00  0.00    -0.354 N 
ATOM     79  C   UNL A   1      39.737  32.592  35.521  1.00  0.00     0.074 A 
ATOM     80  C   UNL A   1      38.658  33.550  35.646  1.00  0.00    -0.034 C 
ATOM     81  H   UNL A   1      36.963  34.010  34.434  1.00  0.00     0.065 H 
ATOM     82  C   UNL A   1      38.568  29.797  29.873  1.00  0.00    -0.036 A 
ATOM     83  H   UNL A   1      36.980  31.194  29.916  1.00  0.00     0.065 H 
ATOM     84  C   UNL A   1      39.641  29.496  30.818  1.00  0.00     0.049 A 
ATOM     85  H   UNL A   1      39.965  30.355  32.685  1.00  0.00     0.167 HD
ATOM     86  C   UNL A   1      40.724  32.426  36.433  1.00  0.00     0.037 A 
ATOM     87  H   UNL A   1      38.549  34.206  36.436  1.00  0.00     0.065 H 
ATOM     88  H   UNL A   1      38.422  29.329  28.965  1.00  0.00     0.065 H 
ATOM     89  C   UNL A   1      40.617  28.589  30.628  1.00  0.00     0.037 A 
ATOM     90  C   UNL A   1      41.777  31.450  36.340  1.00  0.00     0.049 A 
ATOM     91  C   UNL A   1      41.666  28.385  31.681  1.00  0.00     0.074 A 
ATOM     92  C   UNL A   1      42.787  31.178  37.248  1.00  0.00    -0.036 A 
ATOM     93  N   UNL A   1      41.949  30.579  35.277  1.00  0.00    -0.354 N 
ATOM     94  N   UNL A   1      41.823  29.011  32.819  1.00  0.00    -0.248 NA
ATOM     95  C   UNL A   1      42.676  27.348  31.419  1.00  0.00    -0.034 C 
ATOM     96  C   UNL A   1      43.577  30.146  36.728  1.00  0.00    -0.036 A 
ATOM     97  H   UNL A   1      42.930  31.653  38.153  1.00  0.00     0.065 H 
ATOM     98  C   UNL A   1      43.052  29.772  35.502  1.00  0.00     0.049 A 
ATOM     99  H   UNL A   1      41.373  30.540  34.479  1.00  0.00     0.167 HD
ATOM    100  C   UNL A   1      42.941  28.445  33.413  1.00  0.00     0.074 A 
ATOM    101  C   UNL A   1      43.422  27.419  32.513  1.00  0.00    -0.034 C 
ATOM    102  H   UNL A   1      42.777  26.728  30.600  1.00  0.00     0.065 H 
ATOM    103  H   UNL A   1      44.410  29.736  37.180  1.00  0.00     0.065 H 
ATOM    104  C   UNL A   1      43.517  28.755  34.598  1.00  0.00     0.037 A 
ATOM    105  H   UNL A   1      44.242  26.819  32.698  1.00  0.00     0.065 H 
BRANCH  86 106
ATOM    106  C   UNL A   1      40.718  33.338  37.616  1.00  0.00     0.064 A 
ATOM    107  C   UNL A   1      41.586  34.435  37.695  1.00  0.00     0.173 A 
ATOM    108  C   UNL A   1      39.812  33.130  38.666  1.00  0.00     0.173 A 
ATOM    109  F   UNL A   1      42.476  34.663  36.719  1.00  0.00    -0.203 F 
ATOM    110  C   UNL A   1      41.553  35.290  38.794  1.00  0.00     0.198 A 
ATOM    111  C   UNL A   1      39.774  33.992  39.758  1.00  0.00     0.198 A 
ATOM    112  F   UNL A   1      38.966  32.090  38.631  1.00  0.00    -0.203 F 
ATOM    113  F   UNL A   1      42.402  36.324  38.863  1.00  0.00    -0.200 F 
ATOM    114  C   UNL A   1      40.646  35.070  39.822  1.00  0.00     0.200 A 
ATOM    115  F   UNL A   1      38.900  33.779  40.750  1.00  0.00    -0.200 F 
ATOM    116  F   UNL A   1      40.615  35.895  40.878  1.00  0.00    -0.200 F 
ENDBRANCH  86 106
BRANCH  89 117
ATOM    117  C   UNL A   1      40.639  27.797  29.377  1.00  0.00     0.064 A 
ATOM    118  C   UNL A   1      39.762  26.721  29.196  1.00  0.00     0.173 A 
ATOM    119  C   UNL A   1      41.524  28.114  28.339  1.00  0.00     0.173 A 
ATOM    120  F   UNL A   1      38.915  26.376  30.175  1.00  0.00    -0.203 F 
ATOM    121  C   UNL A   1      39.771  25.985  28.014  1.00  0.00     0.198 A 
ATOM    122  C   UNL A   1      41.525  27.383  27.154  1.00  0.00     0.198 A 
ATOM    123  F   UNL A   1      42.382  29.136  28.476  1.00  0.00    -0.203 F 
ATOM    124  F   UNL A   1      38.934  24.949  27.866  1.00  0.00    -0.200 F 
ATOM    125  C   UNL A   1      40.649  26.318  26.993  1.00  0.00     0.200 A 
ATOM    126  F   UNL A   1      42.373  27.708  26.169  1.00  0.00    -0.200 F 
ATOM    127  F   UNL A   1      40.656  25.611  25.855  1.00  0.00    -0.200 F 
ENDBRANCH  89 117
BRANCH 104 128
ATOM    128  C   UNL A   1      44.727  27.969  34.992  1.00  0.00     0.064 A 
ATOM    129  C   UNL A   1      46.015  28.416  34.666  1.00  0.00     0.173 A 
ATOM    130  C   UNL A   1      44.600  26.783  35.726  1.00  0.00     0.173 A 
ATOM    131  F   UNL A   1      46.178  29.539  33.952  1.00  0.00    -0.203 F 
ATOM    132  C   UNL A   1      47.137  27.694  35.059  1.00  0.00     0.198 A 
ATOM    133  C   UNL A   1      45.726  26.067  36.124  1.00  0.00     0.198 A 
ATOM    134  F   UNL A   1      43.384  26.317  36.054  1.00  0.00    -0.203 F 
ATOM    135  F   UNL A   1      48.361  28.127  34.724  1.00  0.00    -0.200 F 
ATOM    136  C   UNL A   1      46.993  26.523  35.790  1.00  0.00     0.200 A 
ATOM    137  F   UNL A   1      45.586  24.934  36.826  1.00  0.00    -0.200 F 
ATOM    138  F   UNL A   1      48.076  25.828  36.164  1.00  0.00    -0.200 F 
ENDBRANCH 104 128
ENDBRANCH  69  72
ENDBRANCH  59  62
ENDBRANCH  55  58
ENDBRANCH  52  55
ENDBRANCH  49  52
ENDBRANCH  46  49
ENDBRANCH   1  46
TORSDOF 18
ENDMDL
MODEL 10
REMARK VINA RESULT:     -11.5      0.720      2.010
REMARK SMILES CCc1cc(C(=O)c2[nH]c3cc(Cl)ccc3c2CC(=O)NCCCCCCNC(=O)c2ccc(-c3c4nc(c(-c5c(F)c(F)c(F)c(F)c5F)c5ccc([nH]5)c(-c5c(F)c(F)c(F)c(F)c5F)c5nc(c(-c6c(F)c(F)c(F)c(F)c6F)c6ccc3[nH]6)C=C5)C=C4)cc2)ncc1Cl
REMARK SMILES IDX 23 1 22 4 21 7 19 8 20 9 18 11 17 14 8 15 9 16 10 17 16 19
REMARK SMILES IDX 11 20 15 21 12 22 14 24 13 26 6 28 7 29 5 30 3 31 4 32 96 33
REMARK SMILES IDX 95 35 97 36 94 37 2 39 1 42 24 46 25 49 26 52 27 55 28 58
REMARK SMILES IDX 29 59 30 61 31 62 32 63 93 64 33 65 92 67 34 69 35 72 36 73
REMARK SMILES IDX 86 74 37 75 91 76 85 77 87 78 38 79 90 80 84 82 83 84 39 86
REMARK SMILES IDX 71 89 51 90 70 91 52 92 55 93 69 94 88 95 53 96 54 98 68 100
REMARK SMILES IDX 89 101 56 104 40 106 41 107 49 108 42 109 43 110 47 111
REMARK SMILES IDX 50 112 44 113 45 114 48 115 46 116 72 117 73 118 81 119
REMARK SMILES IDX 74 120 75 121 79 122 82 123 76 124 77 125 80 126 78 127
REMARK SMILES IDX 57 128 58 129 66 130 59 131 60 132 64 133 67 134 61 135
REMARK SMILES IDX 62 136 65 137 63 138
REMARK H PARENT 23 2 23 3 22 5 22 6 21 10 18 12 18 13 9 18 11 23 15 25 14 27
REMARK H PARENT 4 34 95 38 2 40 2 41 1 43 1 44 1 45 24 47 24 48 25 50 25 51
REMARK H PARENT 26 53 26 54 27 56 27 57 28 60 32 66 93 68 33 70 92 71 91 81
REMARK H PARENT 85 83 87 85 90 87 84 88 52 97 55 99 88 102 53 103 89 105
REMARK Flexibility Score: inf
ROOT
ATOM      1  C   UNL A   1      31.457  23.890  26.540  1.00  0.00    -0.036 C 
ATOM      2  H   UNL A   1      31.817  23.230  27.301  1.00  0.00     0.028 H 
ATOM      3  H   UNL A   1      30.586  24.439  26.829  1.00  0.00     0.028 H 
ENDROOT
BRANCH   1   4
ATOM      4  C   UNL A   1      31.046  23.044  25.334  1.00  0.00     0.017 C 
ATOM      5  H   UNL A   1      29.985  23.113  25.213  1.00  0.00     0.049 H 
ATOM      6  H   UNL A   1      31.568  23.422  24.480  1.00  0.00     0.049 H 
BRANCH   4   7
ATOM      7  N   UNL A   1      31.405  21.648  25.484  1.00  0.00    -0.356 N 
ATOM      8  C   UNL A   1      32.156  20.852  24.667  1.00  0.00     0.224 C 
ATOM      9  O   UNL A   1      32.419  19.709  25.046  1.00  0.00    -0.275 OA
ATOM     10  H   UNL A   1      31.056  21.209  26.293  1.00  0.00     0.163 HD
BRANCH   8  11
ATOM     11  C   UNL A   1      32.746  21.397  23.375  1.00  0.00     0.055 C 
ATOM     12  H   UNL A   1      33.126  20.571  22.810  1.00  0.00     0.042 H 
ATOM     13  H   UNL A   1      31.955  21.920  22.881  1.00  0.00     0.042 H 
BRANCH  11  14
ATOM     14  C   UNL A   1      33.860  22.389  23.556  1.00  0.00    -0.002 A 
ATOM     15  C   UNL A   1      33.977  23.648  22.974  1.00  0.00     0.093 A 
ATOM     16  N   UNL A   1      35.096  24.245  23.505  1.00  0.00    -0.351 N 
ATOM     17  C   UNL A   1      35.799  23.356  24.278  1.00  0.00     0.048 A 
ATOM     18  H   UNL A   1      35.358  25.182  23.350  1.00  0.00     0.167 HD
ATOM     19  C   UNL A   1      35.051  22.180  24.331  1.00  0.00     0.004 A 
ATOM     20  C   UNL A   1      37.023  23.510  24.940  1.00  0.00    -0.019 A 
ATOM     21  C   UNL A   1      35.558  21.098  25.082  1.00  0.00    -0.051 A 
ATOM     22  C   UNL A   1      37.501  22.419  25.671  1.00  0.00     0.043 A 
ATOM     23  H   UNL A   1      37.553  24.394  24.888  1.00  0.00     0.066 H 
ATOM     24  C   UNL A   1      36.785  21.229  25.745  1.00  0.00    -0.043 A 
ATOM     25  H   UNL A   1      35.028  20.215  25.142  1.00  0.00     0.063 H 
ATOM     26  Cl  UNL A   1      39.006  22.556  26.496  1.00  0.00    -0.084 Cl
ATOM     27  H   UNL A   1      37.160  20.438  26.292  1.00  0.00     0.064 H 
BRANCH  15  28
ATOM     28  C   UNL A   1      33.100  24.325  22.038  1.00  0.00     0.227 C 
ATOM     29  O   UNL A   1      32.861  23.843  20.934  1.00  0.00    -0.285 OA
BRANCH  28  30
ATOM     30  C   UNL A   1      32.429  25.604  22.489  1.00  0.00     0.113 A 
ATOM     31  C   UNL A   1      30.551  26.829  23.434  1.00  0.00    -0.026 A 
ATOM     32  C   UNL A   1      31.165  25.610  23.086  1.00  0.00    -0.028 A 
ATOM     33  C   UNL A   1      31.262  28.009  23.191  1.00  0.00     0.062 A 
ATOM     34  H   UNL A   1      30.681  24.718  23.271  1.00  0.00     0.065 H 
ATOM     35  C   UNL A   1      32.519  27.914  22.602  1.00  0.00     0.047 A 
ATOM     36  Cl  UNL A   1      30.655  29.573  23.578  1.00  0.00    -0.082 Cl
ATOM     37  N   UNL A   1      33.108  26.750  22.236  1.00  0.00    -0.251 NA
ATOM     38  H   UNL A   1      33.038  28.789  22.432  1.00  0.00     0.086 H 
BRANCH  31  39
ATOM     39  C   UNL A   1      29.153  26.799  24.010  1.00  0.00    -0.029 C 
ATOM     40  H   UNL A   1      28.811  25.785  24.019  1.00  0.00     0.031 H 
ATOM     41  H   UNL A   1      29.206  27.214  24.995  1.00  0.00     0.031 H 
BRANCH  39  42
ATOM     42  C   UNL A   1      28.161  27.638  23.216  1.00  0.00    -0.061 C 
ATOM     43  H   UNL A   1      27.493  26.992  22.684  1.00  0.00     0.023 H 
ATOM     44  H   UNL A   1      28.690  28.254  22.522  1.00  0.00     0.023 H 
ATOM     45  H   UNL A   1      27.599  28.255  23.886  1.00  0.00     0.023 H 
ENDBRANCH  39  42
ENDBRANCH  31  39
ENDBRANCH  28  30
ENDBRANCH  15  28
ENDBRANCH  11  14
ENDBRANCH   8  11
ENDBRANCH   4   7
ENDBRANCH   1   4
BRANCH   1  46
ATOM     46  C   UNL A   1      32.546  24.932  26.260  1.00  0.00    -0.052 C 
ATOM     47  H   UNL A   1      32.587  25.088  25.202  1.00  0.00     0.027 H 
ATOM     48  H   UNL A   1      33.445  24.529  26.678  1.00  0.00     0.027 H 
BRANCH  46  49
ATOM     49  C   UNL A   1      32.358  26.299  26.927  1.00  0.00    -0.052 C 
ATOM     50  H   UNL A   1      32.921  26.298  27.837  1.00  0.00     0.027 H 
ATOM     51  H   UNL A   1      31.303  26.410  27.063  1.00  0.00     0.027 H 
BRANCH  49  52
ATOM     52  C   UNL A   1      32.799  27.517  26.107  1.00  0.00    -0.036 C 
ATOM     53  H   UNL A   1      32.002  28.230  26.123  1.00  0.00     0.028 H 
ATOM     54  H   UNL A   1      33.028  27.141  25.131  1.00  0.00     0.028 H 
BRANCH  52  55
ATOM     55  C   UNL A   1      34.067  28.221  26.587  1.00  0.00     0.018 C 
ATOM     56  H   UNL A   1      34.743  28.312  25.762  1.00  0.00     0.049 H 
ATOM     57  H   UNL A   1      34.484  27.631  27.377  1.00  0.00     0.049 H 
BRANCH  55  58
ATOM     58  N   UNL A   1      33.808  29.546  27.122  1.00  0.00    -0.352 N 
ATOM     59  C   UNL A   1      34.594  30.339  27.921  1.00  0.00     0.251 C 
ATOM     60  H   UNL A   1      32.936  29.934  26.875  1.00  0.00     0.163 HD
ATOM     61  O   UNL A   1      34.143  31.386  28.377  1.00  0.00    -0.269 OA
BRANCH  59  62
ATOM     62  C   UNL A   1      35.979  29.940  28.263  1.00  0.00     0.039 A 
ATOM     63  C   UNL A   1      36.980  30.116  27.299  1.00  0.00    -0.049 A 
ATOM     64  C   UNL A   1      36.291  29.338  29.486  1.00  0.00    -0.049 A 
ATOM     65  C   UNL A   1      38.297  29.739  27.577  1.00  0.00    -0.053 A 
ATOM     66  H   UNL A   1      36.744  30.526  26.382  1.00  0.00     0.063 H 
ATOM     67  C   UNL A   1      37.611  28.984  29.773  1.00  0.00    -0.053 A 
ATOM     68  H   UNL A   1      35.545  29.156  30.177  1.00  0.00     0.063 H 
ATOM     69  C   UNL A   1      38.623  29.183  28.822  1.00  0.00    -0.014 A 
ATOM     70  H   UNL A   1      39.030  29.870  26.864  1.00  0.00     0.063 H 
ATOM     71  H   UNL A   1      37.843  28.571  30.690  1.00  0.00     0.063 H 
BRANCH  69  72
ATOM     72  C   UNL A   1      40.022  28.813  29.145  1.00  0.00     0.031 A 
ATOM     73  C   UNL A   1      40.908  29.765  29.892  1.00  0.00     0.074 A 
ATOM     74  C   UNL A   1      40.513  27.636  28.716  1.00  0.00     0.049 A 
ATOM     75  N   UNL A   1      42.181  29.654  30.182  1.00  0.00    -0.248 NA
ATOM     76  C   UNL A   1      40.287  31.011  30.363  1.00  0.00    -0.034 C 
ATOM     77  C   UNL A   1      39.765  26.632  27.960  1.00  0.00    -0.036 A 
ATOM     78  N   UNL A   1      41.768  27.094  28.843  1.00  0.00    -0.354 N 
ATOM     79  C   UNL A   1      42.522  30.827  30.838  1.00  0.00     0.074 A 
ATOM     80  C   UNL A   1      41.322  31.636  30.911  1.00  0.00    -0.034 C 
ATOM     81  H   UNL A   1      39.305  31.320  30.286  1.00  0.00     0.065 H 
ATOM     82  C   UNL A   1      40.576  25.597  27.686  1.00  0.00    -0.036 A 
ATOM     83  H   UNL A   1      38.775  26.708  27.681  1.00  0.00     0.065 H 
ATOM     84  C   UNL A   1      41.901  25.872  28.234  1.00  0.00     0.049 A 
ATOM     85  H   UNL A   1      42.502  27.539  29.326  1.00  0.00     0.167 HD
ATOM     86  C   UNL A   1      43.727  31.198  31.332  1.00  0.00     0.037 A 
ATOM     87  H   UNL A   1      41.277  32.576  31.335  1.00  0.00     0.065 H 
ATOM     88  H   UNL A   1      40.306  24.743  27.173  1.00  0.00     0.065 H 
ATOM     89  C   UNL A   1      42.975  25.070  28.121  1.00  0.00     0.037 A 
ATOM     90  C   UNL A   1      44.914  30.388  31.303  1.00  0.00     0.049 A 
ATOM     91  C   UNL A   1      44.285  25.479  28.727  1.00  0.00     0.074 A 
ATOM     92  C   UNL A   1      46.165  30.665  31.829  1.00  0.00    -0.036 A 
ATOM     93  N   UNL A   1      44.996  29.134  30.719  1.00  0.00    -0.354 N 
ATOM     94  N   UNL A   1      44.589  26.582  29.363  1.00  0.00    -0.248 NA
ATOM     95  C   UNL A   1      45.403  24.531  28.596  1.00  0.00    -0.034 C 
ATOM     96  C   UNL A   1      47.007  29.581  31.556  1.00  0.00    -0.036 A 
ATOM     97  H   UNL A   1      46.430  31.524  32.338  1.00  0.00     0.065 H 
ATOM     98  C   UNL A   1      46.276  28.626  30.867  1.00  0.00     0.049 A 
ATOM     99  H   UNL A   1      44.253  28.672  30.266  1.00  0.00     0.167 HD
ATOM    100  C   UNL A   1      45.926  26.462  29.714  1.00  0.00     0.074 A 
ATOM    101  C   UNL A   1      46.376  25.176  29.226  1.00  0.00    -0.034 C 
ATOM    102  H   UNL A   1      45.423  23.607  28.136  1.00  0.00     0.065 H 
ATOM    103  H   UNL A   1      48.002  29.506  31.820  1.00  0.00     0.065 H 
ATOM    104  C   UNL A   1      46.708  27.345  30.378  1.00  0.00     0.037 A 
ATOM    105  H   UNL A   1      47.331  24.807  29.351  1.00  0.00     0.065 H 
BRANCH  86 106
ATOM    106  C   UNL A   1      43.823  32.559  31.941  1.00  0.00     0.064 A 
ATOM    107  C   UNL A   1      44.130  33.685  31.166  1.00  0.00     0.173 A 
ATOM    108  C   UNL A   1      43.574  32.741  33.309  1.00  0.00     0.173 A 
ATOM    109  F   UNL A   1      44.387  33.552  29.856  1.00  0.00    -0.203 F 
ATOM    110  C   UNL A   1      44.194  34.950  31.744  1.00  0.00     0.198 A 
ATOM    111  C   UNL A   1      43.629  34.008  33.881  1.00  0.00     0.198 A 
ATOM    112  F   UNL A   1      43.280  31.689  34.088  1.00  0.00    -0.203 F 
ATOM    113  F   UNL A   1      44.507  36.013  30.991  1.00  0.00    -0.200 F 
ATOM    114  C   UNL A   1      43.940  35.111  33.099  1.00  0.00     0.200 A 
ATOM    115  F   UNL A   1      43.385  34.163  35.189  1.00  0.00    -0.200 F 
ATOM    116  F   UNL A   1      44.002  36.330  33.653  1.00  0.00    -0.200 F 
ENDBRANCH  86 106
BRANCH  89 117
ATOM    117  C   UNL A   1      42.847  23.784  27.398  1.00  0.00     0.064 A 
ATOM    118  C   UNL A   1      42.370  22.641  28.051  1.00  0.00     0.173 A 
ATOM    119  C   UNL A   1      43.185  23.682  26.043  1.00  0.00     0.173 A 
ATOM    120  F   UNL A   1      42.055  22.696  29.352  1.00  0.00    -0.203 F 
ATOM    121  C   UNL A   1      42.235  21.434  27.370  1.00  0.00     0.198 A 
ATOM    122  C   UNL A   1      43.040  22.477  25.360  1.00  0.00     0.198 A 
ATOM    123  F   UNL A   1      43.649  24.753  25.384  1.00  0.00    -0.203 F 
ATOM    124  F   UNL A   1      41.790  20.348  28.016  1.00  0.00    -0.200 F 
ATOM    125  C   UNL A   1      42.566  21.354  26.024  1.00  0.00     0.200 A 
ATOM    126  F   UNL A   1      43.359  22.402  24.061  1.00  0.00    -0.200 F 
ATOM    127  F   UNL A   1      42.434  20.193  25.368  1.00  0.00    -0.200 F 
ENDBRANCH  89 117
BRANCH 104 128
ATOM    128  C   UNL A   1      48.128  26.945  30.622  1.00  0.00     0.064 A 
ATOM    129  C   UNL A   1      49.151  27.351  29.754  1.00  0.00     0.173 A 
ATOM    130  C   UNL A   1      48.472  26.182  31.745  1.00  0.00     0.173 A 
ATOM    131  F   UNL A   1      48.861  28.071  28.660  1.00  0.00    -0.203 F 
ATOM    132  C   UNL A   1      50.474  26.999  30.002  1.00  0.00     0.198 A 
ATOM    133  C   UNL A   1      49.798  25.837  31.993  1.00  0.00     0.198 A 
ATOM    134  F   UNL A   1      47.522  25.768  32.598  1.00  0.00    -0.203 F 
ATOM    135  F   UNL A   1      51.437  27.381  29.151  1.00  0.00    -0.200 F 
ATOM    136  C   UNL A   1      50.797  26.246  31.121  1.00  0.00     0.200 A 
ATOM    137  F   UNL A   1      50.109  25.106  33.072  1.00  0.00    -0.200 F 
ATOM    138  F   UNL A   1      52.071  25.905  31.355  1.00  0.00    -0.200 F 
ENDBRANCH 104 128
ENDBRANCH  69  72
ENDBRANCH  59  62
ENDBRANCH  55  58
ENDBRANCH  52  55
ENDBRANCH  49  52
ENDBRANCH  46  49
ENDBRANCH   1  46
TORSDOF 18
ENDMDL
