MODEL 1
REMARK VINA RESULT:     -12.1      0.000      0.000
REMARK SMILES CS(=O)(=O)c1ccc(-c2cc(Cl)cnc2-c2ccc(C(=O)NCCCCCCNC(=O)c3ccc(-c4c5nc(c(-c6c(F)c(F)c(F)c(F)c6F)c6ccc([nH]6)c(-c6c(F)c(F)c(F)c(F)c6F)c6nc(c(-c7c(F)c(F)c(F)c(F)c7F)c7ccc4[nH]7)C=C6)C=C5)cc3)nc2)cc1
REMARK SMILES IDX 24 1 23 4 22 7 20 8 21 9 19 11 16 12 17 13 96 14 18 15 95 17
REMARK SMILES IDX 15 20 9 21 10 22 11 23 14 25 12 26 13 27 8 29 5 30 6 31
REMARK SMILES IDX 98 32 7 33 97 35 2 39 3 40 4 41 1 42 25 46 26 49 27 52 28 55
REMARK SMILES IDX 29 58 30 59 31 61 32 62 33 63 94 64 34 65 93 67 35 69 36 72
REMARK SMILES IDX 37 73 87 74 38 75 92 76 86 77 88 78 39 79 91 80 85 82 84 84
REMARK SMILES IDX 40 86 72 89 52 90 71 91 53 92 56 93 70 94 89 95 54 96 55 98
REMARK SMILES IDX 69 100 90 101 57 104 41 106 42 107 50 108 43 109 44 110
REMARK SMILES IDX 48 111 51 112 45 113 46 114 49 115 47 116 73 117 74 118
REMARK SMILES IDX 82 119 75 120 76 121 80 122 83 123 77 124 78 125 81 126
REMARK SMILES IDX 79 127 58 128 59 129 67 130 60 131 61 132 65 133 68 134
REMARK SMILES IDX 62 135 63 136 66 137 64 138
REMARK H PARENT 24 2 24 3 23 5 23 6 22 10 17 16 96 18 18 19 10 24 13 28 6 34
REMARK H PARENT 98 36 7 37 97 38 1 43 1 44 1 45 25 47 25 48 26 50 26 51 27 53
REMARK H PARENT 27 54 28 56 28 57 29 60 33 66 94 68 34 70 93 71 92 81 86 83
REMARK H PARENT 88 85 91 87 85 88 53 97 56 99 89 102 54 103 90 105
REMARK Flexibility Score: inf
ROOT
ATOM      1  C   UNL A   1      31.743  32.688  27.071  1.00  0.00    -0.036 C 
ATOM      2  H   UNL A   1      31.045  32.770  27.878  1.00  0.00     0.028 H 
ATOM      3  H   UNL A   1      31.347  33.062  26.150  1.00  0.00     0.028 H 
ENDROOT
BRANCH   1   4
ATOM      4  C   UNL A   1      32.058  31.205  26.855  1.00  0.00     0.018 C 
ATOM      5  H   UNL A   1      31.258  30.614  27.248  1.00  0.00     0.049 H 
ATOM      6  H   UNL A   1      32.168  31.024  25.805  1.00  0.00     0.049 H 
BRANCH   4   7
ATOM      7  N   UNL A   1      33.291  30.850  27.526  1.00  0.00    -0.351 N 
ATOM      8  C   UNL A   1      33.996  29.670  27.625  1.00  0.00     0.269 C 
ATOM      9  O   UNL A   1      35.041  29.710  28.277  1.00  0.00    -0.268 OA
ATOM     10  H   UNL A   1      33.708  31.600  28.008  1.00  0.00     0.163 HD
BRANCH   8  11
ATOM     11  C   UNL A   1      33.577  28.394  26.950  1.00  0.00     0.128 A 
ATOM     12  C   UNL A   1      32.955  26.112  25.503  1.00  0.00     0.019 A 
ATOM     13  C   UNL A   1      32.032  26.640  26.411  1.00  0.00    -0.049 A 
ATOM     14  C   UNL A   1      34.191  26.741  25.435  1.00  0.00     0.037 A 
ATOM     15  C   UNL A   1      32.355  27.770  27.165  1.00  0.00    -0.030 A 
ATOM     16  H   UNL A   1      31.108  26.193  26.524  1.00  0.00     0.063 H 
ATOM     17  N   UNL A   1      34.508  27.874  26.105  1.00  0.00    -0.250 NA
ATOM     18  H   UNL A   1      34.915  26.317  24.834  1.00  0.00     0.085 H 
ATOM     19  H   UNL A   1      31.697  28.136  27.871  1.00  0.00     0.065 H 
BRANCH  12  20
ATOM     20  C   UNL A   1      32.627  24.973  24.646  1.00  0.00     0.080 A 
ATOM     21  C   UNL A   1      31.569  25.001  23.712  1.00  0.00     0.010 A 
ATOM     22  C   UNL A   1      31.312  23.815  23.002  1.00  0.00    -0.032 A 
ATOM     23  C   UNL A   1      32.089  22.684  23.223  1.00  0.00     0.060 A 
ATOM     24  H   UNL A   1      30.544  23.785  22.313  1.00  0.00     0.065 H 
ATOM     25  N   UNL A   1      33.404  23.877  24.858  1.00  0.00    -0.254 NA
ATOM     26  Cl  UNL A   1      31.773  21.227  22.375  1.00  0.00    -0.083 Cl
ATOM     27  C   UNL A   1      33.117  22.762  24.146  1.00  0.00     0.046 A 
ATOM     28  H   UNL A   1      33.698  21.924  24.299  1.00  0.00     0.086 H 
BRANCH  21  29
ATOM     29  C   UNL A   1      30.747  26.197  23.462  1.00  0.00    -0.016 A 
ATOM     30  C   UNL A   1      29.173  28.479  22.993  1.00  0.00     0.067 A 
ATOM     31  C   UNL A   1      30.494  28.447  22.543  1.00  0.00    -0.043 A 
ATOM     32  C   UNL A   1      28.624  27.383  23.660  1.00  0.00    -0.043 A 
ATOM     33  C   UNL A   1      31.272  27.310  22.780  1.00  0.00    -0.053 A 
ATOM     34  H   UNL A   1      30.892  29.256  22.040  1.00  0.00     0.064 H 
ATOM     35  C   UNL A   1      29.409  26.249  23.890  1.00  0.00    -0.053 A 
ATOM     36  H   UNL A   1      27.644  27.409  23.983  1.00  0.00     0.064 H 
ATOM     37  H   UNL A   1      32.249  27.287  22.449  1.00  0.00     0.063 H 
ATOM     38  H   UNL A   1      29.000  25.439  24.381  1.00  0.00     0.063 H 
BRANCH  30  39
ATOM     39  S   UNL A   1      28.170  29.913  22.679  1.00  0.00     0.175 S 
ATOM     40  O   UNL A   1      26.903  29.713  23.354  1.00  0.00    -0.224 OA
ATOM     41  O   UNL A   1      28.230  30.159  21.250  1.00  0.00    -0.224 OA
BRANCH  39  42
ATOM     42  C   UNL A   1      29.001  31.240  23.511  1.00  0.00     0.043 C 
ATOM     43  H   UNL A   1      29.184  32.035  22.819  1.00  0.00     0.040 H 
ATOM     44  H   UNL A   1      29.931  30.888  23.905  1.00  0.00     0.040 H 
ATOM     45  H   UNL A   1      28.387  31.598  24.311  1.00  0.00     0.040 H 
ENDBRANCH  39  42
ENDBRANCH  30  39
ENDBRANCH  21  29
ENDBRANCH  12  20
ENDBRANCH   8  11
ENDBRANCH   4   7
ENDBRANCH   1   4
BRANCH   1  46
ATOM     46  C   UNL A   1      32.976  33.538  27.409  1.00  0.00    -0.052 C 
ATOM     47  H   UNL A   1      33.099  34.267  26.634  1.00  0.00     0.027 H 
ATOM     48  H   UNL A   1      33.796  32.855  27.486  1.00  0.00     0.027 H 
BRANCH  46  49
ATOM     49  C   UNL A   1      32.909  34.279  28.751  1.00  0.00    -0.052 C 
ATOM     50  H   UNL A   1      33.779  34.017  29.317  1.00  0.00     0.027 H 
ATOM     51  H   UNL A   1      31.992  33.975  29.211  1.00  0.00     0.027 H 
BRANCH  49  52
ATOM     52  C   UNL A   1      32.851  35.805  28.653  1.00  0.00    -0.036 C 
ATOM     53  H   UNL A   1      31.833  36.090  28.490  1.00  0.00     0.028 H 
ATOM     54  H   UNL A   1      33.499  36.082  27.847  1.00  0.00     0.028 H 
BRANCH  52  55
ATOM     55  C   UNL A   1      33.361  36.542  29.889  1.00  0.00     0.018 C 
ATOM     56  H   UNL A   1      33.506  37.572  29.640  1.00  0.00     0.049 H 
ATOM     57  H   UNL A   1      34.279  36.084  30.193  1.00  0.00     0.049 H 
BRANCH  55  58
ATOM     58  N   UNL A   1      32.426  36.454  30.998  1.00  0.00    -0.352 N 
ATOM     59  C   UNL A   1      32.476  35.664  32.118  1.00  0.00     0.251 C 
ATOM     60  H   UNL A   1      31.643  37.047  30.937  1.00  0.00     0.163 HD
ATOM     61  O   UNL A   1      31.496  35.571  32.852  1.00  0.00    -0.269 OA
BRANCH  59  62
ATOM     62  C   UNL A   1      33.707  34.910  32.441  1.00  0.00     0.039 A 
ATOM     63  C   UNL A   1      34.944  35.539  32.278  1.00  0.00    -0.049 A 
ATOM     64  C   UNL A   1      33.645  33.579  32.865  1.00  0.00    -0.049 A 
ATOM     65  C   UNL A   1      36.119  34.848  32.587  1.00  0.00    -0.053 A 
ATOM     66  H   UNL A   1      34.991  36.510  31.932  1.00  0.00     0.063 H 
ATOM     67  C   UNL A   1      34.811  32.912  33.228  1.00  0.00    -0.053 A 
ATOM     68  H   UNL A   1      32.735  33.093  32.909  1.00  0.00     0.063 H 
ATOM     69  C   UNL A   1      36.060  33.537  33.085  1.00  0.00    -0.014 A 
ATOM     70  H   UNL A   1      37.035  35.304  32.447  1.00  0.00     0.063 H 
ATOM     71  H   UNL A   1      34.757  31.952  33.605  1.00  0.00     0.063 H 
BRANCH  69  72
ATOM     72  C   UNL A   1      37.294  32.797  33.444  1.00  0.00     0.031 A 
ATOM     73  C   UNL A   1      38.008  33.102  34.730  1.00  0.00     0.074 A 
ATOM     74  C   UNL A   1      37.804  31.893  32.586  1.00  0.00     0.049 A 
ATOM     75  N   UNL A   1      39.135  32.618  35.189  1.00  0.00    -0.248 NA
ATOM     76  C   UNL A   1      37.386  34.106  35.608  1.00  0.00    -0.034 C 
ATOM     77  C   UNL A   1      37.227  31.542  31.288  1.00  0.00    -0.036 A 
ATOM     78  N   UNL A   1      38.931  31.115  32.671  1.00  0.00    -0.354 N 
ATOM     79  C   UNL A   1      39.364  33.270  36.393  1.00  0.00     0.074 A 
ATOM     80  C   UNL A   1      38.286  34.216  36.575  1.00  0.00    -0.034 C 
ATOM     81  H   UNL A   1      36.485  34.597  35.498  1.00  0.00     0.065 H 
ATOM     82  C   UNL A   1      37.993  30.606  30.706  1.00  0.00    -0.036 A 
ATOM     83  H   UNL A   1      36.368  31.949  30.885  1.00  0.00     0.065 H 
ATOM     84  C   UNL A   1      39.130  30.313  31.574  1.00  0.00     0.049 A 
ATOM     85  H   UNL A   1      39.539  31.130  33.444  1.00  0.00     0.167 HD
ATOM     86  C   UNL A   1      40.373  33.080  37.278  1.00  0.00     0.037 A 
ATOM     87  H   UNL A   1      38.224  34.890  37.354  1.00  0.00     0.065 H 
ATOM     88  H   UNL A   1      37.808  30.163  29.792  1.00  0.00     0.065 H 
ATOM     89  C   UNL A   1      40.121  29.444  31.300  1.00  0.00     0.037 A 
ATOM     90  C   UNL A   1      41.426  32.113  37.110  1.00  0.00     0.049 A 
ATOM     91  C   UNL A   1      41.221  29.243  32.305  1.00  0.00     0.074 A 
ATOM     92  C   UNL A   1      42.458  31.802  37.978  1.00  0.00    -0.036 A 
ATOM     93  N   UNL A   1      41.578  31.298  35.999  1.00  0.00    -0.354 N 
ATOM     94  N   UNL A   1      41.394  29.820  33.468  1.00  0.00    -0.248 NA
ATOM     95  C   UNL A   1      42.259  28.260  31.961  1.00  0.00    -0.034 C 
ATOM     96  C   UNL A   1      43.256  30.822  37.375  1.00  0.00    -0.036 A 
ATOM     97  H   UNL A   1      42.613  32.219  38.908  1.00  0.00     0.065 H 
ATOM     98  C   UNL A   1      42.697  30.495  36.150  1.00  0.00     0.049 A 
ATOM     99  H   UNL A   1      40.980  31.291  35.217  1.00  0.00     0.167 HD
ATOM    100  C   UNL A   1      42.543  29.257  34.006  1.00  0.00     0.074 A 
ATOM    101  C   UNL A   1      43.018  28.280  33.048  1.00  0.00    -0.034 C 
ATOM    102  H   UNL A   1      42.368  27.702  31.101  1.00  0.00     0.065 H 
ATOM    103  H   UNL A   1      44.115  30.414  37.775  1.00  0.00     0.065 H 
ATOM    104  C   UNL A   1      43.149  29.522  35.189  1.00  0.00     0.037 A 
ATOM    105  H   UNL A   1      43.844  27.677  33.192  1.00  0.00     0.065 H 
BRANCH  86 106
ATOM    106  C   UNL A   1      40.381  33.933  38.512  1.00  0.00     0.064 A 
ATOM    107  C   UNL A   1      41.084  35.147  38.561  1.00  0.00     0.173 A 
ATOM    108  C   UNL A   1      39.653  33.550  39.648  1.00  0.00     0.173 A 
ATOM    109  F   UNL A   1      41.806  35.551  37.505  1.00  0.00    -0.203 F 
ATOM    110  C   UNL A   1      41.080  35.931  39.711  1.00  0.00     0.198 A 
ATOM    111  C   UNL A   1      39.628  34.351  40.787  1.00  0.00     0.198 A 
ATOM    112  F   UNL A   1      38.960  32.401  39.652  1.00  0.00    -0.203 F 
ATOM    113  F   UNL A   1      41.797  37.063  39.751  1.00  0.00    -0.200 F 
ATOM    114  C   UNL A   1      40.348  35.536  40.820  1.00  0.00     0.200 A 
ATOM    115  F   UNL A   1      38.911  33.974  41.855  1.00  0.00    -0.200 F 
ATOM    116  F   UNL A   1      40.341  36.295  41.926  1.00  0.00    -0.200 F 
ENDBRANCH  86 106
BRANCH  89 117
ATOM    117  C   UNL A   1      40.098  28.674  30.029  1.00  0.00     0.064 A 
ATOM    118  C   UNL A   1      39.471  27.423  29.961  1.00  0.00     0.173 A 
ATOM    119  C   UNL A   1      40.697  29.171  28.863  1.00  0.00     0.173 A 
ATOM    120  F   UNL A   1      38.904  26.898  31.057  1.00  0.00    -0.203 F 
ATOM    121  C   UNL A   1      39.458  26.688  28.777  1.00  0.00     0.198 A 
ATOM    122  C   UNL A   1      40.662  28.447  27.674  1.00  0.00     0.198 A 
ATOM    123  F   UNL A   1      41.304  30.367  28.877  1.00  0.00    -0.203 F 
ATOM    124  F   UNL A   1      38.888  25.477  28.749  1.00  0.00    -0.200 F 
ATOM    125  C   UNL A   1      40.049  27.204  27.633  1.00  0.00     0.200 A 
ATOM    126  F   UNL A   1      41.224  28.954  26.567  1.00  0.00    -0.200 F 
ATOM    127  F   UNL A   1      40.033  26.499  26.494  1.00  0.00    -0.200 F 
ENDBRANCH  89 117
BRANCH 104 128
ATOM    128  C   UNL A   1      44.373  28.726  35.527  1.00  0.00     0.064 A 
ATOM    129  C   UNL A   1      45.656  29.166  35.171  1.00  0.00     0.173 A 
ATOM    130  C   UNL A   1      44.264  27.529  36.251  1.00  0.00     0.173 A 
ATOM    131  F   UNL A   1      45.811  30.296  34.466  1.00  0.00    -0.203 F 
ATOM    132  C   UNL A   1      46.785  28.424  35.511  1.00  0.00     0.198 A 
ATOM    133  C   UNL A   1      45.395  26.804  36.610  1.00  0.00     0.198 A 
ATOM    134  F   UNL A   1      43.058  27.069  36.619  1.00  0.00    -0.203 F 
ATOM    135  F   UNL A   1      47.999  28.842  35.126  1.00  0.00    -0.200 F 
ATOM    136  C   UNL A   1      46.655  27.248  36.235  1.00  0.00     0.200 A 
ATOM    137  F   UNL A   1      45.268  25.675  37.321  1.00  0.00    -0.200 F 
ATOM    138  F   UNL A   1      47.742  26.540  36.566  1.00  0.00    -0.200 F 
ENDBRANCH 104 128
ENDBRANCH  69  72
ENDBRANCH  59  62
ENDBRANCH  55  58
ENDBRANCH  52  55
ENDBRANCH  49  52
ENDBRANCH  46  49
ENDBRANCH   1  46
TORSDOF 17
ENDMDL
MODEL 2
REMARK VINA RESULT:     -12.0      5.191      7.662
REMARK SMILES CS(=O)(=O)c1ccc(-c2cc(Cl)cnc2-c2ccc(C(=O)NCCCCCCNC(=O)c3ccc(-c4c5nc(c(-c6c(F)c(F)c(F)c(F)c6F)c6ccc([nH]6)c(-c6c(F)c(F)c(F)c(F)c6F)c6nc(c(-c7c(F)c(F)c(F)c(F)c7F)c7ccc4[nH]7)C=C6)C=C5)cc3)nc2)cc1
REMARK SMILES IDX 24 1 23 4 22 7 20 8 21 9 19 11 16 12 17 13 96 14 18 15 95 17
REMARK SMILES IDX 15 20 9 21 10 22 11 23 14 25 12 26 13 27 8 29 5 30 6 31
REMARK SMILES IDX 98 32 7 33 97 35 2 39 3 40 4 41 1 42 25 46 26 49 27 52 28 55
REMARK SMILES IDX 29 58 30 59 31 61 32 62 33 63 94 64 34 65 93 67 35 69 36 72
REMARK SMILES IDX 37 73 87 74 38 75 92 76 86 77 88 78 39 79 91 80 85 82 84 84
REMARK SMILES IDX 40 86 72 89 52 90 71 91 53 92 56 93 70 94 89 95 54 96 55 98
REMARK SMILES IDX 69 100 90 101 57 104 41 106 42 107 50 108 43 109 44 110
REMARK SMILES IDX 48 111 51 112 45 113 46 114 49 115 47 116 73 117 74 118
REMARK SMILES IDX 82 119 75 120 76 121 80 122 83 123 77 124 78 125 81 126
REMARK SMILES IDX 79 127 58 128 59 129 67 130 60 131 61 132 65 133 68 134
REMARK SMILES IDX 62 135 63 136 66 137 64 138
REMARK H PARENT 24 2 24 3 23 5 23 6 22 10 17 16 96 18 18 19 10 24 13 28 6 34
REMARK H PARENT 98 36 7 37 97 38 1 43 1 44 1 45 25 47 25 48 26 50 26 51 27 53
REMARK H PARENT 27 54 28 56 28 57 29 60 33 66 94 68 34 70 93 71 92 81 86 83
REMARK H PARENT 88 85 91 87 85 88 53 97 56 99 89 102 54 103 90 105
REMARK Flexibility Score: inf
ROOT
ATOM      1  C   UNL A   1      36.552  29.332  28.624  1.00  0.00    -0.036 C 
ATOM      2  H   UNL A   1      37.011  28.452  28.226  1.00  0.00     0.028 H 
ATOM      3  H   UNL A   1      35.578  29.139  29.023  1.00  0.00     0.028 H 
ENDROOT
BRANCH   1   4
ATOM      4  C   UNL A   1      36.378  30.343  27.487  1.00  0.00     0.018 C 
ATOM      5  H   UNL A   1      37.124  31.105  27.577  1.00  0.00     0.049 H 
ATOM      6  H   UNL A   1      36.483  29.834  26.551  1.00  0.00     0.049 H 
BRANCH   4   7
ATOM      7  N   UNL A   1      35.064  30.950  27.549  1.00  0.00    -0.351 N 
ATOM      8  C   UNL A   1      33.810  30.503  27.196  1.00  0.00     0.269 C 
ATOM      9  O   UNL A   1      32.875  31.281  27.394  1.00  0.00    -0.268 OA
ATOM     10  H   UNL A   1      35.069  31.863  27.917  1.00  0.00     0.163 HD
BRANCH   8  11
ATOM     11  C   UNL A   1      33.543  29.130  26.642  1.00  0.00     0.128 A 
ATOM     12  C   UNL A   1      33.089  26.702  25.383  1.00  0.00     0.019 A 
ATOM     13  C   UNL A   1      32.462  26.990  26.599  1.00  0.00    -0.049 A 
ATOM     14  C   UNL A   1      33.984  27.651  24.904  1.00  0.00     0.037 A 
ATOM     15  C   UNL A   1      32.714  28.198  27.252  1.00  0.00    -0.030 A 
ATOM     16  H   UNL A   1      31.810  26.307  27.016  1.00  0.00     0.063 H 
ATOM     17  N   UNL A   1      34.199  28.856  25.482  1.00  0.00    -0.250 NA
ATOM     18  H   UNL A   1      34.521  27.421  24.053  1.00  0.00     0.085 H 
ATOM     19  H   UNL A   1      32.291  28.395  28.172  1.00  0.00     0.065 H 
BRANCH  12  20
ATOM     20  C   UNL A   1      32.797  25.479  24.636  1.00  0.00     0.080 A 
ATOM     21  C   UNL A   1      31.725  25.380  23.724  1.00  0.00     0.010 A 
ATOM     22  C   UNL A   1      31.508  24.127  23.126  1.00  0.00    -0.032 A 
ATOM     23  C   UNL A   1      32.337  23.053  23.430  1.00  0.00     0.060 A 
ATOM     24  H   UNL A   1      30.731  24.004  22.458  1.00  0.00     0.065 H 
ATOM     25  N   UNL A   1      33.625  24.440  24.928  1.00  0.00    -0.254 NA
ATOM     26  Cl  UNL A   1      32.070  21.515  22.720  1.00  0.00    -0.083 Cl
ATOM     27  C   UNL A   1      33.375  23.255  24.322  1.00  0.00     0.046 A 
ATOM     28  H   UNL A   1      33.994  22.459  24.537  1.00  0.00     0.086 H 
BRANCH  21  29
ATOM     29  C   UNL A   1      30.847  26.514  23.387  1.00  0.00    -0.016 A 
ATOM     30  C   UNL A   1      29.169  28.678  22.751  1.00  0.00     0.067 A 
ATOM     31  C   UNL A   1      30.470  28.642  22.247  1.00  0.00    -0.043 A 
ATOM     32  C   UNL A   1      28.691  27.643  23.555  1.00  0.00    -0.043 A 
ATOM     33  C   UNL A   1      31.300  27.564  22.567  1.00  0.00    -0.053 A 
ATOM     34  H   UNL A   1      30.815  29.405  21.643  1.00  0.00     0.064 H 
ATOM     35  C   UNL A   1      29.528  26.567  23.868  1.00  0.00    -0.053 A 
ATOM     36  H   UNL A   1      27.724  27.670  23.918  1.00  0.00     0.064 H 
ATOM     37  H   UNL A   1      32.262  27.538  22.195  1.00  0.00     0.063 H 
ATOM     38  H   UNL A   1      29.171  25.801  24.460  1.00  0.00     0.063 H 
BRANCH  30  39
ATOM     39  S   UNL A   1      28.099  30.035  22.333  1.00  0.00     0.175 S 
ATOM     40  O   UNL A   1      26.903  29.910  23.141  1.00  0.00    -0.224 OA
ATOM     41  O   UNL A   1      28.027  30.077  20.884  1.00  0.00    -0.224 OA
BRANCH  39  42
ATOM     42  C   UNL A   1      28.959  31.481  22.893  1.00  0.00     0.043 C 
ATOM     43  H   UNL A   1      29.256  32.068  22.050  1.00  0.00     0.040 H 
ATOM     44  H   UNL A   1      29.825  31.189  23.448  1.00  0.00     0.040 H 
ATOM     45  H   UNL A   1      28.312  32.059  23.520  1.00  0.00     0.040 H 
ENDBRANCH  39  42
ENDBRANCH  30  39
ENDBRANCH  21  29
ENDBRANCH  12  20
ENDBRANCH   8  11
ENDBRANCH   4   7
ENDBRANCH   1   4
BRANCH   1  46
ATOM     46  C   UNL A   1      37.418  29.848  29.782  1.00  0.00    -0.052 C 
ATOM     47  H   UNL A   1      37.731  30.844  29.543  1.00  0.00     0.027 H 
ATOM     48  H   UNL A   1      38.230  29.158  29.876  1.00  0.00     0.027 H 
BRANCH  46  49
ATOM     49  C   UNL A   1      36.725  29.883  31.150  1.00  0.00    -0.052 C 
ATOM     50  H   UNL A   1      37.480  29.813  31.905  1.00  0.00     0.027 H 
ATOM     51  H   UNL A   1      36.038  29.062  31.154  1.00  0.00     0.027 H 
BRANCH  49  52
ATOM     52  C   UNL A   1      35.892  31.136  31.429  1.00  0.00    -0.036 C 
ATOM     53  H   UNL A   1      34.869  30.911  31.213  1.00  0.00     0.028 H 
ATOM     54  H   UNL A   1      36.292  31.911  30.808  1.00  0.00     0.028 H 
BRANCH  52  55
ATOM     55  C   UNL A   1      35.974  31.648  32.864  1.00  0.00     0.018 C 
ATOM     56  H   UNL A   1      36.808  31.185  33.349  1.00  0.00     0.049 H 
ATOM     57  H   UNL A   1      35.056  31.403  33.357  1.00  0.00     0.049 H 
BRANCH  55  58
ATOM     58  N   UNL A   1      36.141  33.091  32.918  1.00  0.00    -0.352 N 
ATOM     59  C   UNL A   1      37.239  33.852  32.610  1.00  0.00     0.251 C 
ATOM     60  H   UNL A   1      35.350  33.595  33.219  1.00  0.00     0.163 HD
ATOM     61  O   UNL A   1      37.269  35.043  32.910  1.00  0.00    -0.269 OA
BRANCH  59  62
ATOM     62  C   UNL A   1      38.400  33.240  31.927  1.00  0.00     0.039 A 
ATOM     63  C   UNL A   1      39.320  32.510  32.685  1.00  0.00    -0.049 A 
ATOM     64  C   UNL A   1      38.601  33.417  30.555  1.00  0.00    -0.049 A 
ATOM     65  C   UNL A   1      40.418  31.916  32.058  1.00  0.00    -0.053 A 
ATOM     66  H   UNL A   1      39.188  32.410  33.703  1.00  0.00     0.063 H 
ATOM     67  C   UNL A   1      39.662  32.775  29.922  1.00  0.00    -0.053 A 
ATOM     68  H   UNL A   1      37.964  34.021  30.013  1.00  0.00     0.063 H 
ATOM     69  C   UNL A   1      40.585  32.026  30.668  1.00  0.00    -0.014 A 
ATOM     70  H   UNL A   1      41.109  31.394  32.619  1.00  0.00     0.063 H 
ATOM     71  H   UNL A   1      39.771  32.851  28.898  1.00  0.00     0.063 H 
BRANCH  69  72
ATOM     72  C   UNL A   1      41.729  31.379  29.981  1.00  0.00     0.031 A 
ATOM     73  C   UNL A   1      42.983  32.159  29.707  1.00  0.00     0.074 A 
ATOM     74  C   UNL A   1      41.615  30.108  29.549  1.00  0.00     0.049 A 
ATOM     75  N   UNL A   1      44.061  31.797  29.059  1.00  0.00    -0.248 NA
ATOM     76  C   UNL A   1      43.022  33.542  30.208  1.00  0.00    -0.034 C 
ATOM     77  C   UNL A   1      40.432  29.262  29.714  1.00  0.00    -0.036 A 
ATOM     78  N   UNL A   1      42.503  29.311  28.870  1.00  0.00    -0.354 N 
ATOM     79  C   UNL A   1      44.894  32.908  29.057  1.00  0.00     0.074 A 
ATOM     80  C   UNL A   1      44.181  33.971  29.729  1.00  0.00    -0.034 C 
ATOM     81  H   UNL A   1      42.327  34.046  30.782  1.00  0.00     0.065 H 
ATOM     82  C   UNL A   1      40.674  28.060  29.169  1.00  0.00    -0.036 A 
ATOM     83  H   UNL A   1      39.554  29.545  30.177  1.00  0.00     0.065 H 
ATOM     84  C   UNL A   1      42.014  28.059  28.589  1.00  0.00     0.049 A 
ATOM     85  H   UNL A   1      43.404  29.608  28.610  1.00  0.00     0.167 HD
ATOM     86  C   UNL A   1      46.149  33.022  28.560  1.00  0.00     0.037 A 
ATOM     87  H   UNL A   1      44.528  34.939  29.824  1.00  0.00     0.065 H 
ATOM     88  H   UNL A   1      40.017  27.262  29.161  1.00  0.00     0.065 H 
ATOM     89  C   UNL A   1      42.583  27.030  27.934  1.00  0.00     0.037 A 
ATOM     90  C   UNL A   1      46.868  31.951  27.922  1.00  0.00     0.049 A 
ATOM     91  C   UNL A   1      43.982  27.180  27.402  1.00  0.00     0.074 A 
ATOM     92  C   UNL A   1      48.166  31.950  27.439  1.00  0.00    -0.036 A 
ATOM     93  N   UNL A   1      46.350  30.688  27.681  1.00  0.00    -0.354 N 
ATOM     94  N   UNL A   1      44.782  28.215  27.461  1.00  0.00    -0.248 NA
ATOM     95  C   UNL A   1      44.558  26.012  26.721  1.00  0.00    -0.034 C 
ATOM     96  C   UNL A   1      48.420  30.695  26.874  1.00  0.00    -0.036 A 
ATOM     97  H   UNL A   1      48.830  32.737  27.487  1.00  0.00     0.065 H 
ATOM     98  C   UNL A   1      47.296  29.902  27.041  1.00  0.00     0.049 A 
ATOM     99  H   UNL A   1      45.444  30.392  27.927  1.00  0.00     0.167 HD
ATOM    100  C   UNL A   1      45.963  27.819  26.849  1.00  0.00     0.074 A 
ATOM    101  C   UNL A   1      45.780  26.443  26.438  1.00  0.00    -0.034 C 
ATOM    102  H   UNL A   1      44.127  25.098  26.517  1.00  0.00     0.065 H 
ATOM    103  H   UNL A   1      49.297  30.409  26.410  1.00  0.00     0.065 H 
ATOM    104  C   UNL A   1      47.098  28.531  26.648  1.00  0.00     0.037 A 
ATOM    105  H   UNL A   1      46.507  25.870  25.981  1.00  0.00     0.065 H 
BRANCH  86 106
ATOM    106  C   UNL A   1      46.826  34.354  28.691  1.00  0.00     0.064 A 
ATOM    107  C   UNL A   1      47.612  34.671  29.810  1.00  0.00     0.173 A 
ATOM    108  C   UNL A   1      46.716  35.314  27.674  1.00  0.00     0.173 A 
ATOM    109  F   UNL A   1      47.739  33.793  30.816  1.00  0.00    -0.203 F 
ATOM    110  C   UNL A   1      48.239  35.910  29.917  1.00  0.00     0.198 A 
ATOM    111  C   UNL A   1      47.367  36.541  27.772  1.00  0.00     0.198 A 
ATOM    112  F   UNL A   1      45.980  35.059  26.581  1.00  0.00    -0.203 F 
ATOM    113  F   UNL A   1      48.945  36.208  31.017  1.00  0.00    -0.200 F 
ATOM    114  C   UNL A   1      48.121  36.841  28.896  1.00  0.00     0.200 A 
ATOM    115  F   UNL A   1      47.261  37.435  26.779  1.00  0.00    -0.200 F 
ATOM    116  F   UNL A   1      48.729  38.032  28.999  1.00  0.00    -0.200 F 
ENDBRANCH  86 106
BRANCH  89 117
ATOM    117  C   UNL A   1      41.838  25.754  27.773  1.00  0.00     0.064 A 
ATOM    118  C   UNL A   1      42.182  24.624  28.527  1.00  0.00     0.173 A 
ATOM    119  C   UNL A   1      40.773  25.639  26.869  1.00  0.00     0.173 A 
ATOM    120  F   UNL A   1      43.208  24.682  29.389  1.00  0.00    -0.203 F 
ATOM    121  C   UNL A   1      41.498  23.420  28.372  1.00  0.00     0.198 A 
ATOM    122  C   UNL A   1      40.074  24.442  26.732  1.00  0.00     0.198 A 
ATOM    123  F   UNL A   1      40.403  26.694  26.128  1.00  0.00    -0.203 F 
ATOM    124  F   UNL A   1      41.872  22.344  29.076  1.00  0.00    -0.200 F 
ATOM    125  C   UNL A   1      40.441  23.332  27.478  1.00  0.00     0.200 A 
ATOM    126  F   UNL A   1      39.046  24.363  25.876  1.00  0.00    -0.200 F 
ATOM    127  F   UNL A   1      39.782  22.175  27.332  1.00  0.00    -0.200 F 
ENDBRANCH  89 117
BRANCH 104 128
ATOM    128  C   UNL A   1      48.241  27.827  25.980  1.00  0.00     0.064 A 
ATOM    129  C   UNL A   1      48.313  27.704  24.585  1.00  0.00     0.173 A 
ATOM    130  C   UNL A   1      49.296  27.304  26.744  1.00  0.00     0.173 A 
ATOM    131  F   UNL A   1      47.322  28.175  23.814  1.00  0.00    -0.203 F 
ATOM    132  C   UNL A   1      49.392  27.064  23.980  1.00  0.00     0.198 A 
ATOM    133  C   UNL A   1      50.384  26.688  26.134  1.00  0.00     0.198 A 
ATOM    134  F   UNL A   1      49.274  27.401  28.082  1.00  0.00    -0.203 F 
ATOM    135  F   UNL A   1      49.422  26.922  22.647  1.00  0.00    -0.200 F 
ATOM    136  C   UNL A   1      50.429  26.563  24.753  1.00  0.00     0.200 A 
ATOM    137  F   UNL A   1      51.390  26.215  26.882  1.00  0.00    -0.200 F 
ATOM    138  F   UNL A   1      51.468  25.953  24.168  1.00  0.00    -0.200 F 
ENDBRANCH 104 128
ENDBRANCH  69  72
ENDBRANCH  59  62
ENDBRANCH  55  58
ENDBRANCH  52  55
ENDBRANCH  49  52
ENDBRANCH  46  49
ENDBRANCH   1  46
TORSDOF 17
ENDMDL
MODEL 3
REMARK VINA RESULT:     -11.8      4.262      9.166
REMARK SMILES CS(=O)(=O)c1ccc(-c2cc(Cl)cnc2-c2ccc(C(=O)NCCCCCCNC(=O)c3ccc(-c4c5nc(c(-c6c(F)c(F)c(F)c(F)c6F)c6ccc([nH]6)c(-c6c(F)c(F)c(F)c(F)c6F)c6nc(c(-c7c(F)c(F)c(F)c(F)c7F)c7ccc4[nH]7)C=C6)C=C5)cc3)nc2)cc1
REMARK SMILES IDX 24 1 23 4 22 7 20 8 21 9 19 11 16 12 17 13 96 14 18 15 95 17
REMARK SMILES IDX 15 20 9 21 10 22 11 23 14 25 12 26 13 27 8 29 5 30 6 31
REMARK SMILES IDX 98 32 7 33 97 35 2 39 3 40 4 41 1 42 25 46 26 49 27 52 28 55
REMARK SMILES IDX 29 58 30 59 31 61 32 62 33 63 94 64 34 65 93 67 35 69 36 72
REMARK SMILES IDX 37 73 87 74 38 75 92 76 86 77 88 78 39 79 91 80 85 82 84 84
REMARK SMILES IDX 40 86 72 89 52 90 71 91 53 92 56 93 70 94 89 95 54 96 55 98
REMARK SMILES IDX 69 100 90 101 57 104 41 106 42 107 50 108 43 109 44 110
REMARK SMILES IDX 48 111 51 112 45 113 46 114 49 115 47 116 73 117 74 118
REMARK SMILES IDX 82 119 75 120 76 121 80 122 83 123 77 124 78 125 81 126
REMARK SMILES IDX 79 127 58 128 59 129 67 130 60 131 61 132 65 133 68 134
REMARK SMILES IDX 62 135 63 136 66 137 64 138
REMARK H PARENT 24 2 24 3 23 5 23 6 22 10 17 16 96 18 18 19 10 24 13 28 6 34
REMARK H PARENT 98 36 7 37 97 38 1 43 1 44 1 45 25 47 25 48 26 50 26 51 27 53
REMARK H PARENT 27 54 28 56 28 57 29 60 33 66 94 68 34 70 93 71 92 81 86 83
REMARK H PARENT 88 85 91 87 85 88 53 97 56 99 89 102 54 103 90 105
REMARK Flexibility Score: inf
ROOT
ATOM      1  C   UNL A   1      40.378  24.834  27.878  1.00  0.00    -0.036 C 
ATOM      2  H   UNL A   1      40.627  24.208  28.709  1.00  0.00     0.028 H 
ATOM      3  H   UNL A   1      40.351  25.870  28.142  1.00  0.00     0.028 H 
ENDROOT
BRANCH   1   4
ATOM      4  C   UNL A   1      38.975  24.458  27.394  1.00  0.00     0.018 C 
ATOM      5  H   UNL A   1      38.316  24.398  28.235  1.00  0.00     0.049 H 
ATOM      6  H   UNL A   1      38.632  25.207  26.711  1.00  0.00     0.049 H 
BRANCH   4   7
ATOM      7  N   UNL A   1      39.003  23.179  26.715  1.00  0.00    -0.351 N 
ATOM      8  C   UNL A   1      38.112  22.545  25.877  1.00  0.00     0.269 C 
ATOM      9  O   UNL A   1      38.452  21.441  25.450  1.00  0.00    -0.268 OA
ATOM     10  H   UNL A   1      39.821  22.659  26.887  1.00  0.00     0.163 HD
BRANCH   8  11
ATOM     11  C   UNL A   1      36.806  23.152  25.442  1.00  0.00     0.128 A 
ATOM     12  C   UNL A   1      34.290  24.154  24.847  1.00  0.00     0.019 A 
ATOM     13  C   UNL A   1      35.206  23.903  23.821  1.00  0.00    -0.049 A 
ATOM     14  C   UNL A   1      34.738  23.947  26.145  1.00  0.00     0.037 A 
ATOM     15  C   UNL A   1      36.485  23.430  24.120  1.00  0.00    -0.030 A 
ATOM     16  H   UNL A   1      34.936  24.068  22.838  1.00  0.00     0.063 H 
ATOM     17  N   UNL A   1      35.948  23.429  26.461  1.00  0.00    -0.250 NA
ATOM     18  H   UNL A   1      34.107  24.206  26.919  1.00  0.00     0.085 H 
ATOM     19  H   UNL A   1      37.181  23.288  23.370  1.00  0.00     0.065 H 
BRANCH  12  20
ATOM     20  C   UNL A   1      32.920  24.583  24.568  1.00  0.00     0.080 A 
ATOM     21  C   UNL A   1      31.905  23.686  24.173  1.00  0.00     0.010 A 
ATOM     22  C   UNL A   1      30.649  24.236  23.865  1.00  0.00    -0.032 A 
ATOM     23  C   UNL A   1      30.443  25.608  23.965  1.00  0.00     0.060 A 
ATOM     24  H   UNL A   1      29.878  23.621  23.565  1.00  0.00     0.065 H 
ATOM     25  N   UNL A   1      32.724  25.924  24.686  1.00  0.00    -0.254 NA
ATOM     26  Cl  UNL A   1      28.919  26.292  23.574  1.00  0.00    -0.083 Cl
ATOM     27  C   UNL A   1      31.495  26.403  24.381  1.00  0.00     0.046 A 
ATOM     28  H   UNL A   1      31.335  27.419  24.464  1.00  0.00     0.086 H 
BRANCH  21  29
ATOM     29  C   UNL A   1      32.110  22.230  24.074  1.00  0.00    -0.016 A 
ATOM     30  C   UNL A   1      32.507  19.454  23.878  1.00  0.00     0.067 A 
ATOM     31  C   UNL A   1      32.552  20.071  25.129  1.00  0.00    -0.043 A 
ATOM     32  C   UNL A   1      32.253  20.201  22.728  1.00  0.00    -0.043 A 
ATOM     33  C   UNL A   1      32.355  21.452  25.221  1.00  0.00    -0.053 A 
ATOM     34  H   UNL A   1      32.729  19.512  25.979  1.00  0.00     0.064 H 
ATOM     35  C   UNL A   1      32.055  21.581  22.829  1.00  0.00    -0.053 A 
ATOM     36  H   UNL A   1      32.212  19.738  21.805  1.00  0.00     0.064 H 
ATOM     37  H   UNL A   1      32.389  21.908  26.145  1.00  0.00     0.063 H 
ATOM     38  H   UNL A   1      31.864  22.132  21.977  1.00  0.00     0.063 H 
BRANCH  30  39
ATOM     39  S   UNL A   1      32.737  17.695  23.755  1.00  0.00     0.175 S 
ATOM     40  O   UNL A   1      32.518  17.325  22.371  1.00  0.00    -0.224 OA
ATOM     41  O   UNL A   1      31.959  17.097  24.825  1.00  0.00    -0.224 OA
BRANCH  39  42
ATOM     42  C   UNL A   1      34.456  17.436  24.099  1.00  0.00     0.043 C 
ATOM     43  H   UNL A   1      34.876  18.328  24.512  1.00  0.00     0.040 H 
ATOM     44  H   UNL A   1      34.968  17.186  23.194  1.00  0.00     0.040 H 
ATOM     45  H   UNL A   1      34.561  16.634  24.801  1.00  0.00     0.040 H 
ENDBRANCH  39  42
ENDBRANCH  30  39
ENDBRANCH  21  29
ENDBRANCH  12  20
ENDBRANCH   8  11
ENDBRANCH   4   7
ENDBRANCH   1   4
BRANCH   1  46
ATOM     46  C   UNL A   1      41.465  24.671  26.806  1.00  0.00    -0.052 C 
ATOM     47  H   UNL A   1      42.305  25.271  27.091  1.00  0.00     0.027 H 
ATOM     48  H   UNL A   1      41.019  24.974  25.882  1.00  0.00     0.027 H 
BRANCH  46  49
ATOM     49  C   UNL A   1      41.959  23.234  26.592  1.00  0.00    -0.052 C 
ATOM     50  H   UNL A   1      41.105  22.589  26.578  1.00  0.00     0.027 H 
ATOM     51  H   UNL A   1      42.635  23.031  27.396  1.00  0.00     0.027 H 
BRANCH  49  52
ATOM     52  C   UNL A   1      42.750  23.001  25.302  1.00  0.00    -0.036 C 
ATOM     53  H   UNL A   1      42.059  22.982  24.486  1.00  0.00     0.028 H 
ATOM     54  H   UNL A   1      43.273  22.076  25.431  1.00  0.00     0.028 H 
BRANCH  52  55
ATOM     55  C   UNL A   1      43.809  24.058  25.005  1.00  0.00     0.018 C 
ATOM     56  H   UNL A   1      43.523  24.975  25.475  1.00  0.00     0.049 H 
ATOM     57  H   UNL A   1      43.875  24.173  23.942  1.00  0.00     0.049 H 
BRANCH  55  58
ATOM     58  N   UNL A   1      45.120  23.668  25.496  1.00  0.00    -0.352 N 
ATOM     59  C   UNL A   1      45.821  24.141  26.576  1.00  0.00     0.251 C 
ATOM     60  H   UNL A   1      45.570  22.961  24.979  1.00  0.00     0.163 HD
ATOM     61  O   UNL A   1      47.002  23.841  26.724  1.00  0.00    -0.269 OA
BRANCH  59  62
ATOM     62  C   UNL A   1      45.161  25.025  27.561  1.00  0.00     0.039 A 
ATOM     63  C   UNL A   1      44.515  24.448  28.657  1.00  0.00    -0.049 A 
ATOM     64  C   UNL A   1      45.147  26.412  27.386  1.00  0.00    -0.049 A 
ATOM     65  C   UNL A   1      43.893  25.266  29.605  1.00  0.00    -0.053 A 
ATOM     66  H   UNL A   1      44.496  23.422  28.767  1.00  0.00     0.063 H 
ATOM     67  C   UNL A   1      44.579  27.228  28.361  1.00  0.00    -0.053 A 
ATOM     68  H   UNL A   1      45.557  26.830  26.536  1.00  0.00     0.063 H 
ATOM     69  C   UNL A   1      43.939  26.663  29.475  1.00  0.00    -0.014 A 
ATOM     70  H   UNL A   1      43.397  24.840  30.404  1.00  0.00     0.063 H 
ATOM     71  H   UNL A   1      44.629  28.254  28.263  1.00  0.00     0.063 H 
BRANCH  69  72
ATOM     72  C   UNL A   1      43.310  27.548  30.484  1.00  0.00     0.031 A 
ATOM     73  C   UNL A   1      43.924  27.691  31.848  1.00  0.00     0.074 A 
ATOM     74  C   UNL A   1      42.154  28.175  30.194  1.00  0.00     0.049 A 
ATOM     75  N   UNL A   1      43.489  28.357  32.888  1.00  0.00    -0.248 NA
ATOM     76  C   UNL A   1      45.183  26.968  32.084  1.00  0.00    -0.034 C 
ATOM     77  C   UNL A   1      41.438  28.079  28.921  1.00  0.00    -0.036 A 
ATOM     78  N   UNL A   1      41.371  29.007  30.955  1.00  0.00    -0.354 N 
ATOM     79  C   UNL A   1      44.407  28.119  33.902  1.00  0.00     0.074 A 
ATOM     80  C   UNL A   1      45.399  27.211  33.369  1.00  0.00    -0.034 C 
ATOM     81  H   UNL A   1      45.750  26.415  31.422  1.00  0.00     0.065 H 
ATOM     82  C   UNL A   1      40.332  28.836  28.982  1.00  0.00    -0.036 A 
ATOM     83  H   UNL A   1      41.737  27.519  28.107  1.00  0.00     0.065 H 
ATOM     84  C   UNL A   1      40.244  29.446  30.307  1.00  0.00     0.049 A 
ATOM     85  H   UNL A   1      41.597  29.264  31.877  1.00  0.00     0.167 HD
ATOM     86  C   UNL A   1      44.432  28.628  35.157  1.00  0.00     0.037 A 
ATOM     87  H   UNL A   1      46.174  26.805  33.916  1.00  0.00     0.065 H 
ATOM     88  H   UNL A   1      39.651  28.968  28.217  1.00  0.00     0.065 H 
ATOM     89  C   UNL A   1      39.250  30.247  30.735  1.00  0.00     0.037 A 
ATOM     90  C   UNL A   1      43.461  29.558  35.672  1.00  0.00     0.049 A 
ATOM     91  C   UNL A   1      39.308  30.809  32.129  1.00  0.00     0.074 A 
ATOM     92  C   UNL A   1      43.433  30.179  36.909  1.00  0.00    -0.036 A 
ATOM     93  N   UNL A   1      42.348  30.003  34.976  1.00  0.00    -0.354 N 
ATOM     94  N   UNL A   1      40.214  30.625  33.058  1.00  0.00    -0.248 NA
ATOM     95  C   UNL A   1      38.209  31.699  32.529  1.00  0.00    -0.034 C 
ATOM     96  C   UNL A   1      42.282  30.973  36.974  1.00  0.00    -0.036 A 
ATOM     97  H   UNL A   1      44.138  30.075  37.655  1.00  0.00     0.065 H 
ATOM     98  C   UNL A   1      41.616  30.878  35.763  1.00  0.00     0.049 A 
ATOM     99  H   UNL A   1      42.112  29.735  34.058  1.00  0.00     0.167 HD
ATOM    100  C   UNL A   1      39.810  31.392  34.142  1.00  0.00     0.074 A 
ATOM    101  C   UNL A   1      38.584  32.056  33.750  1.00  0.00    -0.034 C 
ATOM    102  H   UNL A   1      37.367  31.974  32.000  1.00  0.00     0.065 H 
ATOM    103  H   UNL A   1      41.980  31.533  37.786  1.00  0.00     0.065 H 
ATOM    104  C   UNL A   1      40.402  31.535  35.352  1.00  0.00     0.037 A 
ATOM    105  H   UNL A   1      38.066  32.721  34.346  1.00  0.00     0.065 H 
BRANCH  86 106
ATOM    106  C   UNL A   1      45.549  28.194  36.059  1.00  0.00     0.064 A 
ATOM    107  C   UNL A   1      46.764  28.894  36.112  1.00  0.00     0.173 A 
ATOM    108  C   UNL A   1      45.394  27.085  36.903  1.00  0.00     0.173 A 
ATOM    109  F   UNL A   1      46.968  29.954  35.315  1.00  0.00    -0.203 F 
ATOM    110  C   UNL A   1      47.792  28.483  36.956  1.00  0.00     0.198 A 
ATOM    111  C   UNL A   1      46.413  26.693  37.767  1.00  0.00     0.198 A 
ATOM    112  F   UNL A   1      44.249  26.383  36.895  1.00  0.00    -0.203 F 
ATOM    113  F   UNL A   1      48.962  29.138  36.954  1.00  0.00    -0.200 F 
ATOM    114  C   UNL A   1      47.614  27.387  37.787  1.00  0.00     0.200 A 
ATOM    115  F   UNL A   1      46.235  25.641  38.578  1.00  0.00    -0.200 F 
ATOM    116  F   UNL A   1      48.602  26.994  38.603  1.00  0.00    -0.200 F 
ENDBRANCH  86 106
BRANCH  89 117
ATOM    117  C   UNL A   1      38.130  30.590  29.821  1.00  0.00     0.064 A 
ATOM    118  C   UNL A   1      38.036  31.866  29.251  1.00  0.00     0.173 A 
ATOM    119  C   UNL A   1      37.138  29.654  29.497  1.00  0.00     0.173 A 
ATOM    120  F   UNL A   1      38.951  32.801  29.549  1.00  0.00    -0.203 F 
ATOM    121  C   UNL A   1      36.982  32.200  28.404  1.00  0.00     0.198 A 
ATOM    122  C   UNL A   1      36.098  29.981  28.631  1.00  0.00     0.198 A 
ATOM    123  F   UNL A   1      37.188  28.416  30.013  1.00  0.00    -0.203 F 
ATOM    124  F   UNL A   1      36.893  33.440  27.904  1.00  0.00    -0.200 F 
ATOM    125  C   UNL A   1      36.016  31.255  28.091  1.00  0.00     0.200 A 
ATOM    126  F   UNL A   1      35.173  29.061  28.321  1.00  0.00    -0.200 F 
ATOM    127  F   UNL A   1      35.004  31.576  27.273  1.00  0.00    -0.200 F 
ENDBRANCH  89 117
BRANCH 104 128
ATOM    128  C   UNL A   1      39.751  32.467  36.329  1.00  0.00     0.064 A 
ATOM    129  C   UNL A   1      38.668  32.060  37.122  1.00  0.00     0.173 A 
ATOM    130  C   UNL A   1      40.241  33.771  36.502  1.00  0.00     0.173 A 
ATOM    131  F   UNL A   1      38.155  30.829  36.982  1.00  0.00    -0.203 F 
ATOM    132  C   UNL A   1      38.087  32.932  38.039  1.00  0.00     0.198 A 
ATOM    133  C   UNL A   1      39.674  34.630  37.437  1.00  0.00     0.198 A 
ATOM    134  F   UNL A   1      41.279  34.205  35.770  1.00  0.00    -0.203 F 
ATOM    135  F   UNL A   1      37.028  32.535  38.758  1.00  0.00    -0.200 F 
ATOM    136  C   UNL A   1      38.594  34.213  38.201  1.00  0.00     0.200 A 
ATOM    137  F   UNL A   1      40.173  35.863  37.601  1.00  0.00    -0.200 F 
ATOM    138  F   UNL A   1      38.037  35.047  39.089  1.00  0.00    -0.200 F 
ENDBRANCH 104 128
ENDBRANCH  69  72
ENDBRANCH  59  62
ENDBRANCH  55  58
ENDBRANCH  52  55
ENDBRANCH  49  52
ENDBRANCH  46  49
ENDBRANCH   1  46
TORSDOF 17
ENDMDL
MODEL 4
REMARK VINA RESULT:     -11.7      6.355     10.979
REMARK SMILES CS(=O)(=O)c1ccc(-c2cc(Cl)cnc2-c2ccc(C(=O)NCCCCCCNC(=O)c3ccc(-c4c5nc(c(-c6c(F)c(F)c(F)c(F)c6F)c6ccc([nH]6)c(-c6c(F)c(F)c(F)c(F)c6F)c6nc(c(-c7c(F)c(F)c(F)c(F)c7F)c7ccc4[nH]7)C=C6)C=C5)cc3)nc2)cc1
REMARK SMILES IDX 24 1 23 4 22 7 20 8 21 9 19 11 16 12 17 13 96 14 18 15 95 17
REMARK SMILES IDX 15 20 9 21 10 22 11 23 14 25 12 26 13 27 8 29 5 30 6 31
REMARK SMILES IDX 98 32 7 33 97 35 2 39 3 40 4 41 1 42 25 46 26 49 27 52 28 55
REMARK SMILES IDX 29 58 30 59 31 61 32 62 33 63 94 64 34 65 93 67 35 69 36 72
REMARK SMILES IDX 37 73 87 74 38 75 92 76 86 77 88 78 39 79 91 80 85 82 84 84
REMARK SMILES IDX 40 86 72 89 52 90 71 91 53 92 56 93 70 94 89 95 54 96 55 98
REMARK SMILES IDX 69 100 90 101 57 104 41 106 42 107 50 108 43 109 44 110
REMARK SMILES IDX 48 111 51 112 45 113 46 114 49 115 47 116 73 117 74 118
REMARK SMILES IDX 82 119 75 120 76 121 80 122 83 123 77 124 78 125 81 126
REMARK SMILES IDX 79 127 58 128 59 129 67 130 60 131 61 132 65 133 68 134
REMARK SMILES IDX 62 135 63 136 66 137 64 138
REMARK H PARENT 24 2 24 3 23 5 23 6 22 10 17 16 96 18 18 19 10 24 13 28 6 34
REMARK H PARENT 98 36 7 37 97 38 1 43 1 44 1 45 25 47 25 48 26 50 26 51 27 53
REMARK H PARENT 27 54 28 56 28 57 29 60 33 66 94 68 34 70 93 71 92 81 86 83
REMARK H PARENT 88 85 91 87 85 88 53 97 56 99 89 102 54 103 90 105
REMARK Flexibility Score: inf
ROOT
ATOM      1  C   UNL A   1      40.067  24.947  27.997  1.00  0.00    -0.036 C 
ATOM      2  H   UNL A   1      39.773  24.150  28.647  1.00  0.00     0.028 H 
ATOM      3  H   UNL A   1      39.814  25.909  28.391  1.00  0.00     0.028 H 
ENDROOT
BRANCH   1   4
ATOM      4  C   UNL A   1      39.313  24.793  26.673  1.00  0.00     0.018 C 
ATOM      5  H   UNL A   1      38.331  25.206  26.776  1.00  0.00     0.049 H 
ATOM      6  H   UNL A   1      39.851  25.312  25.905  1.00  0.00     0.049 H 
BRANCH   4   7
ATOM      7  N   UNL A   1      39.210  23.394  26.312  1.00  0.00    -0.351 N 
ATOM      8  C   UNL A   1      38.198  22.645  25.752  1.00  0.00     0.269 C 
ATOM      9  O   UNL A   1      38.443  21.453  25.557  1.00  0.00    -0.268 OA
ATOM     10  H   UNL A   1      40.024  22.876  26.505  1.00  0.00     0.163 HD
BRANCH   8  11
ATOM     11  C   UNL A   1      36.871  23.219  25.339  1.00  0.00     0.128 A 
ATOM     12  C   UNL A   1      34.329  24.190  24.806  1.00  0.00     0.019 A 
ATOM     13  C   UNL A   1      35.163  23.794  23.756  1.00  0.00    -0.049 A 
ATOM     14  C   UNL A   1      34.870  24.138  26.084  1.00  0.00     0.037 A 
ATOM     15  C   UNL A   1      36.456  23.336  24.019  1.00  0.00    -0.030 A 
ATOM     16  H   UNL A   1      34.823  23.841  22.782  1.00  0.00     0.063 H 
ATOM     17  N   UNL A   1      36.095  23.639  26.374  1.00  0.00    -0.250 NA
ATOM     18  H   UNL A   1      34.302  24.505  26.863  1.00  0.00     0.085 H 
ATOM     19  H   UNL A   1      37.092  23.087  23.245  1.00  0.00     0.065 H 
BRANCH  12  20
ATOM     20  C   UNL A   1      32.947  24.609  24.575  1.00  0.00     0.080 A 
ATOM     21  C   UNL A   1      31.923  23.702  24.229  1.00  0.00     0.010 A 
ATOM     22  C   UNL A   1      30.653  24.243  23.963  1.00  0.00    -0.032 A 
ATOM     23  C   UNL A   1      30.443  25.614  24.056  1.00  0.00     0.060 A 
ATOM     24  H   UNL A   1      29.874  23.620  23.699  1.00  0.00     0.065 H 
ATOM     25  N   UNL A   1      32.748  25.950  24.686  1.00  0.00    -0.254 NA
ATOM     26  Cl  UNL A   1      28.902  26.287  23.717  1.00  0.00    -0.083 Cl
ATOM     27  C   UNL A   1      31.505  26.420  24.423  1.00  0.00     0.046 A 
ATOM     28  H   UNL A   1      31.343  27.435  24.502  1.00  0.00     0.086 H 
BRANCH  21  29
ATOM     29  C   UNL A   1      32.132  22.247  24.138  1.00  0.00    -0.016 A 
ATOM     30  C   UNL A   1      32.528  19.469  23.970  1.00  0.00     0.067 A 
ATOM     31  C   UNL A   1      32.342  20.211  22.803  1.00  0.00    -0.043 A 
ATOM     32  C   UNL A   1      32.533  20.096  25.216  1.00  0.00    -0.043 A 
ATOM     33  C   UNL A   1      32.145  21.592  22.892  1.00  0.00    -0.053 A 
ATOM     34  H   UNL A   1      32.351  19.744  21.882  1.00  0.00     0.064 H 
ATOM     35  C   UNL A   1      32.338  21.478  25.296  1.00  0.00    -0.053 A 
ATOM     36  H   UNL A   1      32.680  19.542  26.076  1.00  0.00     0.064 H 
ATOM     37  H   UNL A   1      32.007  22.141  22.030  1.00  0.00     0.063 H 
ATOM     38  H   UNL A   1      32.345  21.940  26.218  1.00  0.00     0.063 H 
BRANCH  30  39
ATOM     39  S   UNL A   1      32.799  17.715  23.864  1.00  0.00     0.175 S 
ATOM     40  O   UNL A   1      32.624  17.331  22.477  1.00  0.00    -0.224 OA
ATOM     41  O   UNL A   1      32.008  17.107  24.918  1.00  0.00    -0.224 OA
BRANCH  39  42
ATOM     42  C   UNL A   1      34.514  17.494  24.254  1.00  0.00     0.043 C 
ATOM     43  H   UNL A   1      34.605  17.038  25.217  1.00  0.00     0.040 H 
ATOM     44  H   UNL A   1      35.004  18.445  24.261  1.00  0.00     0.040 H 
ATOM     45  H   UNL A   1      34.969  16.865  23.517  1.00  0.00     0.040 H 
ENDBRANCH  39  42
ENDBRANCH  30  39
ENDBRANCH  21  29
ENDBRANCH  12  20
ENDBRANCH   8  11
ENDBRANCH   4   7
ENDBRANCH   1   4
BRANCH   1  46
ATOM     46  C   UNL A   1      41.594  24.911  27.845  1.00  0.00    -0.052 C 
ATOM     47  H   UNL A   1      41.995  25.786  28.315  1.00  0.00     0.027 H 
ATOM     48  H   UNL A   1      41.788  24.865  26.794  1.00  0.00     0.027 H 
BRANCH  46  49
ATOM     49  C   UNL A   1      42.281  23.685  28.460  1.00  0.00    -0.052 C 
ATOM     50  H   UNL A   1      41.611  23.253  29.174  1.00  0.00     0.027 H 
ATOM     51  H   UNL A   1      43.193  24.043  28.892  1.00  0.00     0.027 H 
BRANCH  49  52
ATOM     52  C   UNL A   1      42.682  22.593  27.466  1.00  0.00    -0.036 C 
ATOM     53  H   UNL A   1      42.092  21.724  27.670  1.00  0.00     0.028 H 
ATOM     54  H   UNL A   1      43.731  22.430  27.600  1.00  0.00     0.028 H 
BRANCH  52  55
ATOM     55  C   UNL A   1      42.488  22.965  25.999  1.00  0.00     0.018 C 
ATOM     56  H   UNL A   1      42.113  23.966  25.943  1.00  0.00     0.049 H 
ATOM     57  H   UNL A   1      41.797  22.270  25.568  1.00  0.00     0.049 H 
BRANCH  55  58
ATOM     58  N   UNL A   1      43.730  22.887  25.249  1.00  0.00    -0.352 N 
ATOM     59  C   UNL A   1      44.628  23.879  24.945  1.00  0.00     0.251 C 
ATOM     60  H   UNL A   1      43.962  21.992  24.910  1.00  0.00     0.163 HD
ATOM     61  O   UNL A   1      45.521  23.674  24.128  1.00  0.00    -0.269 OA
BRANCH  59  62
ATOM     62  C   UNL A   1      44.517  25.205  25.591  1.00  0.00     0.039 A 
ATOM     63  C   UNL A   1      45.141  25.408  26.825  1.00  0.00    -0.049 A 
ATOM     64  C   UNL A   1      43.770  26.231  25.004  1.00  0.00    -0.049 A 
ATOM     65  C   UNL A   1      45.057  26.655  27.449  1.00  0.00    -0.053 A 
ATOM     66  H   UNL A   1      45.663  24.639  27.274  1.00  0.00     0.063 H 
ATOM     67  C   UNL A   1      43.736  27.490  25.596  1.00  0.00    -0.053 A 
ATOM     68  H   UNL A   1      43.245  26.054  24.133  1.00  0.00     0.063 H 
ATOM     69  C   UNL A   1      44.372  27.712  26.828  1.00  0.00    -0.014 A 
ATOM     70  H   UNL A   1      45.499  26.800  28.370  1.00  0.00     0.063 H 
ATOM     71  H   UNL A   1      43.241  28.264  25.127  1.00  0.00     0.063 H 
BRANCH  69  72
ATOM     72  C   UNL A   1      44.295  29.051  27.460  1.00  0.00     0.031 A 
ATOM     73  C   UNL A   1      45.461  29.994  27.373  1.00  0.00     0.074 A 
ATOM     74  C   UNL A   1      43.199  29.395  28.163  1.00  0.00     0.049 A 
ATOM     75  N   UNL A   1      45.617  31.175  27.917  1.00  0.00    -0.248 NA
ATOM     76  C   UNL A   1      46.621  29.538  26.590  1.00  0.00    -0.034 C 
ATOM     77  C   UNL A   1      42.021  28.549  28.358  1.00  0.00    -0.036 A 
ATOM     78  N   UNL A   1      42.904  30.543  28.857  1.00  0.00    -0.354 N 
ATOM     79  C   UNL A   1      46.892  31.592  27.559  1.00  0.00     0.074 A 
ATOM     80  C   UNL A   1      47.487  30.522  26.790  1.00  0.00    -0.034 C 
ATOM     81  H   UNL A   1      46.731  28.677  26.032  1.00  0.00     0.065 H 
ATOM     82  C   UNL A   1      41.123  29.212  29.104  1.00  0.00    -0.036 A 
ATOM     83  H   UNL A   1      41.900  27.596  27.982  1.00  0.00     0.065 H 
ATOM     84  C   UNL A   1      41.674  30.516  29.466  1.00  0.00     0.049 A 
ATOM     85  H   UNL A   1      43.515  31.311  28.911  1.00  0.00     0.167 HD
ATOM     86  C   UNL A   1      47.502  32.771  27.829  1.00  0.00     0.037 A 
ATOM     87  H   UNL A   1      48.458  30.522  26.442  1.00  0.00     0.065 H 
ATOM     88  H   UNL A   1      40.193  28.859  29.378  1.00  0.00     0.065 H 
ATOM     89  C   UNL A   1      41.062  31.438  30.233  1.00  0.00     0.037 A 
ATOM     90  C   UNL A   1      46.893  33.848  28.566  1.00  0.00     0.049 A 
ATOM     91  C   UNL A   1      41.757  32.744  30.507  1.00  0.00     0.074 A 
ATOM     92  C   UNL A   1      47.406  35.104  28.839  1.00  0.00    -0.036 A 
ATOM     93  N   UNL A   1      45.634  33.795  29.143  1.00  0.00    -0.354 N 
ATOM     94  N   UNL A   1      42.938  33.151  30.112  1.00  0.00    -0.248 NA
ATOM     95  C   UNL A   1      41.027  33.721  31.327  1.00  0.00    -0.034 C 
ATOM     96  C   UNL A   1      46.470  35.799  29.614  1.00  0.00    -0.036 A 
ATOM     97  H   UNL A   1      48.320  35.466  28.528  1.00  0.00     0.065 H 
ATOM     98  C   UNL A   1      45.358  34.991  29.787  1.00  0.00     0.049 A 
ATOM     99  H   UNL A   1      45.026  33.022  29.102  1.00  0.00     0.167 HD
ATOM    100  C   UNL A   1      43.085  34.437  30.612  1.00  0.00     0.074 A 
ATOM    101  C   UNL A   1      41.865  34.749  31.328  1.00  0.00    -0.034 C 
ATOM    102  H   UNL A   1      40.106  33.632  31.782  1.00  0.00     0.065 H 
ATOM    103  H   UNL A   1      46.588  36.751  29.993  1.00  0.00     0.065 H 
ATOM    104  C   UNL A   1      44.134  35.285  30.487  1.00  0.00     0.037 A 
ATOM    105  H   UNL A   1      41.673  35.655  31.783  1.00  0.00     0.065 H 
BRANCH  86 106
ATOM    106  C   UNL A   1      48.900  32.960  27.320  1.00  0.00     0.064 A 
ATOM    107  C   UNL A   1      50.005  32.403  27.983  1.00  0.00     0.173 A 
ATOM    108  C   UNL A   1      49.138  33.677  26.138  1.00  0.00     0.173 A 
ATOM    109  F   UNL A   1      49.832  31.719  29.124  1.00  0.00    -0.203 F 
ATOM    110  C   UNL A   1      51.297  32.582  27.497  1.00  0.00     0.198 A 
ATOM    111  C   UNL A   1      50.429  33.830  25.639  1.00  0.00     0.198 A 
ATOM    112  F   UNL A   1      48.116  34.226  25.463  1.00  0.00    -0.203 F 
ATOM    113  F   UNL A   1      52.341  32.082  28.173  1.00  0.00    -0.200 F 
ATOM    114  C   UNL A   1      51.507  33.290  26.323  1.00  0.00     0.200 A 
ATOM    115  F   UNL A   1      50.630  34.505  24.498  1.00  0.00    -0.200 F 
ATOM    116  F   UNL A   1      52.752  33.458  25.853  1.00  0.00    -0.200 F 
ENDBRANCH  86 106
BRANCH  89 117
ATOM    117  C   UNL A   1      39.703  31.170  30.769  1.00  0.00     0.064 A 
ATOM    118  C   UNL A   1      38.565  31.661  30.115  1.00  0.00     0.173 A 
ATOM    119  C   UNL A   1      39.513  30.421  31.938  1.00  0.00     0.173 A 
ATOM    120  F   UNL A   1      38.699  32.401  29.004  1.00  0.00    -0.203 F 
ATOM    121  C   UNL A   1      37.288  31.427  30.619  1.00  0.00     0.198 A 
ATOM    122  C   UNL A   1      38.235  30.166  32.428  1.00  0.00     0.198 A 
ATOM    123  F   UNL A   1      40.571  29.925  32.597  1.00  0.00    -0.203 F 
ATOM    124  F   UNL A   1      36.219  31.941  29.996  1.00  0.00    -0.200 F 
ATOM    125  C   UNL A   1      37.124  30.674  31.772  1.00  0.00     0.200 A 
ATOM    126  F   UNL A   1      38.079  29.429  33.537  1.00  0.00    -0.200 F 
ATOM    127  F   UNL A   1      35.894  30.446  32.255  1.00  0.00    -0.200 F 
ENDBRANCH  89 117
BRANCH 104 128
ATOM    128  C   UNL A   1      43.999  36.641  31.112  1.00  0.00     0.064 A 
ATOM    129  C   UNL A   1      43.681  37.773  30.348  1.00  0.00     0.173 A 
ATOM    130  C   UNL A   1      44.151  36.802  32.498  1.00  0.00     0.173 A 
ATOM    131  F   UNL A   1      43.541  37.672  29.018  1.00  0.00    -0.203 F 
ATOM    132  C   UNL A   1      43.539  39.022  30.947  1.00  0.00     0.198 A 
ATOM    133  C   UNL A   1      43.983  38.047  33.096  1.00  0.00     0.198 A 
ATOM    134  F   UNL A   1      44.450  35.748  33.272  1.00  0.00    -0.203 F 
ATOM    135  F   UNL A   1      43.275  40.098  30.193  1.00  0.00    -0.200 F 
ATOM    136  C   UNL A   1      43.683  39.157  32.320  1.00  0.00     0.200 A 
ATOM    137  F   UNL A   1      44.111  38.174  34.424  1.00  0.00    -0.200 F 
ATOM    138  F   UNL A   1      43.540  40.359  32.895  1.00  0.00    -0.200 F 
ENDBRANCH 104 128
ENDBRANCH  69  72
ENDBRANCH  59  62
ENDBRANCH  55  58
ENDBRANCH  52  55
ENDBRANCH  49  52
ENDBRANCH  46  49
ENDBRANCH   1  46
TORSDOF 17
ENDMDL
MODEL 5
REMARK VINA RESULT:     -11.7      3.817      5.916
REMARK SMILES CS(=O)(=O)c1ccc(-c2cc(Cl)cnc2-c2ccc(C(=O)NCCCCCCNC(=O)c3ccc(-c4c5nc(c(-c6c(F)c(F)c(F)c(F)c6F)c6ccc([nH]6)c(-c6c(F)c(F)c(F)c(F)c6F)c6nc(c(-c7c(F)c(F)c(F)c(F)c7F)c7ccc4[nH]7)C=C6)C=C5)cc3)nc2)cc1
REMARK SMILES IDX 24 1 23 4 22 7 20 8 21 9 19 11 16 12 17 13 96 14 18 15 95 17
REMARK SMILES IDX 15 20 9 21 10 22 11 23 14 25 12 26 13 27 8 29 5 30 6 31
REMARK SMILES IDX 98 32 7 33 97 35 2 39 3 40 4 41 1 42 25 46 26 49 27 52 28 55
REMARK SMILES IDX 29 58 30 59 31 61 32 62 33 63 94 64 34 65 93 67 35 69 36 72
REMARK SMILES IDX 37 73 87 74 38 75 92 76 86 77 88 78 39 79 91 80 85 82 84 84
REMARK SMILES IDX 40 86 72 89 52 90 71 91 53 92 56 93 70 94 89 95 54 96 55 98
REMARK SMILES IDX 69 100 90 101 57 104 41 106 42 107 50 108 43 109 44 110
REMARK SMILES IDX 48 111 51 112 45 113 46 114 49 115 47 116 73 117 74 118
REMARK SMILES IDX 82 119 75 120 76 121 80 122 83 123 77 124 78 125 81 126
REMARK SMILES IDX 79 127 58 128 59 129 67 130 60 131 61 132 65 133 68 134
REMARK SMILES IDX 62 135 63 136 66 137 64 138
REMARK H PARENT 24 2 24 3 23 5 23 6 22 10 17 16 96 18 18 19 10 24 13 28 6 34
REMARK H PARENT 98 36 7 37 97 38 1 43 1 44 1 45 25 47 25 48 26 50 26 51 27 53
REMARK H PARENT 27 54 28 56 28 57 29 60 33 66 94 68 34 70 93 71 92 81 86 83
REMARK H PARENT 88 85 91 87 85 88 53 97 56 99 89 102 54 103 90 105
REMARK Flexibility Score: inf
ROOT
ATOM      1  C   UNL A   1      30.146  26.816  24.239  1.00  0.00    -0.036 C 
ATOM      2  H   UNL A   1      29.130  27.152  24.255  1.00  0.00     0.028 H 
ATOM      3  H   UNL A   1      30.245  25.837  23.820  1.00  0.00     0.028 H 
ENDROOT
BRANCH   1   4
ATOM      4  C   UNL A   1      30.653  26.741  25.681  1.00  0.00     0.018 C 
ATOM      5  H   UNL A   1      31.722  26.686  25.677  1.00  0.00     0.049 H 
ATOM      6  H   UNL A   1      30.333  27.616  26.208  1.00  0.00     0.049 H 
BRANCH   4   7
ATOM      7  N   UNL A   1      30.117  25.569  26.343  1.00  0.00    -0.351 N 
ATOM      8  C   UNL A   1      30.659  24.344  26.661  1.00  0.00     0.269 C 
ATOM      9  O   UNL A   1      29.920  23.554  27.251  1.00  0.00    -0.268 OA
ATOM     10  H   UNL A   1      29.178  25.669  26.621  1.00  0.00     0.163 HD
BRANCH   8  11
ATOM     11  C   UNL A   1      32.085  23.965  26.368  1.00  0.00     0.128 A 
ATOM     12  C   UNL A   1      34.756  23.279  26.085  1.00  0.00     0.019 A 
ATOM     13  C   UNL A   1      34.098  23.972  25.065  1.00  0.00    -0.049 A 
ATOM     14  C   UNL A   1      33.987  22.903  27.179  1.00  0.00     0.037 A 
ATOM     15  C   UNL A   1      32.745  24.290  25.190  1.00  0.00    -0.030 A 
ATOM     16  H   UNL A   1      34.615  24.250  24.215  1.00  0.00     0.063 H 
ATOM     17  N   UNL A   1      32.691  23.253  27.356  1.00  0.00    -0.250 NA
ATOM     18  H   UNL A   1      34.432  22.318  27.903  1.00  0.00     0.085 H 
ATOM     19  H   UNL A   1      32.242  24.760  24.420  1.00  0.00     0.065 H 
BRANCH  12  20
ATOM     20  C   UNL A   1      36.189  22.990  26.020  1.00  0.00     0.080 A 
ATOM     21  C   UNL A   1      36.696  21.738  25.611  1.00  0.00     0.010 A 
ATOM     22  C   UNL A   1      38.090  21.565  25.664  1.00  0.00    -0.032 A 
ATOM     23  C   UNL A   1      38.908  22.604  26.093  1.00  0.00     0.060 A 
ATOM     24  H   UNL A   1      38.507  20.664  25.381  1.00  0.00     0.065 H 
ATOM     25  N   UNL A   1      36.981  24.018  26.425  1.00  0.00    -0.254 NA
ATOM     26  Cl  UNL A   1      40.609  22.398  26.177  1.00  0.00    -0.083 Cl
ATOM     27  C   UNL A   1      38.317  23.801  26.454  1.00  0.00     0.046 A 
ATOM     28  H   UNL A   1      38.929  24.573  26.761  1.00  0.00     0.086 H 
BRANCH  21  29
ATOM     29  C   UNL A   1      35.838  20.634  25.145  1.00  0.00    -0.016 A 
ATOM     30  C   UNL A   1      34.198  18.533  24.251  1.00  0.00     0.067 A 
ATOM     31  C   UNL A   1      35.536  18.282  24.558  1.00  0.00    -0.043 A 
ATOM     32  C   UNL A   1      33.666  19.814  24.398  1.00  0.00    -0.043 A 
ATOM     33  C   UNL A   1      36.348  19.330  25.001  1.00  0.00    -0.053 A 
ATOM     34  H   UNL A   1      35.923  17.330  24.458  1.00  0.00     0.064 H 
ATOM     35  C   UNL A   1      34.484  20.856  24.845  1.00  0.00    -0.053 A 
ATOM     36  H   UNL A   1      32.673  19.993  24.178  1.00  0.00     0.064 H 
ATOM     37  H   UNL A   1      37.337  19.145  25.227  1.00  0.00     0.063 H 
ATOM     38  H   UNL A   1      34.087  21.803  24.956  1.00  0.00     0.063 H 
BRANCH  30  39
ATOM     39  S   UNL A   1      33.155  17.202  23.705  1.00  0.00     0.175 S 
ATOM     40  O   UNL A   1      32.266  16.869  24.801  1.00  0.00    -0.224 OA
ATOM     41  O   UNL A   1      34.028  16.203  23.115  1.00  0.00    -0.224 OA
BRANCH  39  42
ATOM     42  C   UNL A   1      32.157  17.903  22.419  1.00  0.00     0.043 C 
ATOM     43  H   UNL A   1      32.641  17.762  21.475  1.00  0.00     0.040 H 
ATOM     44  H   UNL A   1      32.025  18.949  22.599  1.00  0.00     0.040 H 
ATOM     45  H   UNL A   1      31.202  17.420  22.405  1.00  0.00     0.040 H 
ENDBRANCH  39  42
ENDBRANCH  30  39
ENDBRANCH  21  29
ENDBRANCH  12  20
ENDBRANCH   8  11
ENDBRANCH   4   7
ENDBRANCH   1   4
BRANCH   1  46
ATOM     46  C   UNL A   1      30.957  27.769  23.349  1.00  0.00    -0.052 C 
ATOM     47  H   UNL A   1      30.302  28.158  22.596  1.00  0.00     0.027 H 
ATOM     48  H   UNL A   1      31.765  27.191  22.953  1.00  0.00     0.027 H 
BRANCH  46  49
ATOM     49  C   UNL A   1      31.597  28.956  24.080  1.00  0.00    -0.052 C 
ATOM     50  H   UNL A   1      31.181  29.002  25.065  1.00  0.00     0.027 H 
ATOM     51  H   UNL A   1      31.384  29.820  23.485  1.00  0.00     0.027 H 
BRANCH  49  52
ATOM     52  C   UNL A   1      33.121  28.897  24.212  1.00  0.00    -0.036 C 
ATOM     53  H   UNL A   1      33.544  29.590  23.515  1.00  0.00     0.028 H 
ATOM     54  H   UNL A   1      33.403  27.882  24.020  1.00  0.00     0.028 H 
BRANCH  52  55
ATOM     55  C   UNL A   1      33.652  29.236  25.602  1.00  0.00     0.018 C 
ATOM     56  H   UNL A   1      34.721  29.259  25.567  1.00  0.00     0.049 H 
ATOM     57  H   UNL A   1      33.304  28.487  26.283  1.00  0.00     0.049 H 
BRANCH  55  58
ATOM     58  N   UNL A   1      33.171  30.526  26.069  1.00  0.00    -0.352 N 
ATOM     59  C   UNL A   1      33.590  31.278  27.137  1.00  0.00     0.251 C 
ATOM     60  H   UNL A   1      32.437  30.917  25.541  1.00  0.00     0.163 HD
ATOM     61  O   UNL A   1      32.933  32.247  27.505  1.00  0.00    -0.269 OA
BRANCH  59  62
ATOM     62  C   UNL A   1      34.830  30.917  27.858  1.00  0.00     0.039 A 
ATOM     63  C   UNL A   1      35.831  31.881  28.001  1.00  0.00    -0.049 A 
ATOM     64  C   UNL A   1      35.021  29.625  28.357  1.00  0.00    -0.049 A 
ATOM     65  C   UNL A   1      37.007  31.564  28.687  1.00  0.00    -0.053 A 
ATOM     66  H   UNL A   1      35.703  32.824  27.602  1.00  0.00     0.063 H 
ATOM     67  C   UNL A   1      36.166  29.328  29.091  1.00  0.00    -0.053 A 
ATOM     68  H   UNL A   1      34.314  28.893  28.182  1.00  0.00     0.063 H 
ATOM     69  C   UNL A   1      37.173  30.292  29.256  1.00  0.00    -0.014 A 
ATOM     70  H   UNL A   1      37.756  32.269  28.775  1.00  0.00     0.063 H 
ATOM     71  H   UNL A   1      36.274  28.394  29.517  1.00  0.00     0.063 H 
BRANCH  69  72
ATOM     72  C   UNL A   1      38.401  29.945  30.012  1.00  0.00     0.031 A 
ATOM     73  C   UNL A   1      38.587  30.444  31.417  1.00  0.00     0.074 A 
ATOM     74  C   UNL A   1      39.374  29.232  29.414  1.00  0.00     0.049 A 
ATOM     75  N   UNL A   1      39.616  30.311  32.216  1.00  0.00    -0.248 NA
ATOM     76  C   UNL A   1      37.478  31.221  31.993  1.00  0.00    -0.034 C 
ATOM     77  C   UNL A   1      39.329  28.729  28.040  1.00  0.00    -0.036 A 
ATOM     78  N   UNL A   1      40.596  28.817  29.880  1.00  0.00    -0.354 N 
ATOM     79  C   UNL A   1      39.287  30.999  33.376  1.00  0.00     0.074 A 
ATOM     80  C   UNL A   1      37.983  31.588  33.163  1.00  0.00    -0.034 C 
ATOM     81  H   UNL A   1      36.550  31.426  31.591  1.00  0.00     0.065 H 
ATOM     82  C   UNL A   1      40.463  28.059  27.781  1.00  0.00    -0.036 A 
ATOM     83  H   UNL A   1      38.550  28.867  27.377  1.00  0.00     0.065 H 
ATOM     84  C   UNL A   1      41.327  28.111  28.957  1.00  0.00     0.049 A 
ATOM     85  H   UNL A   1      40.918  29.008  30.790  1.00  0.00     0.167 HD
ATOM     86  C   UNL A   1      40.000  31.111  34.523  1.00  0.00     0.037 A 
ATOM     87  H   UNL A   1      37.508  32.212  33.832  1.00  0.00     0.065 H 
ATOM     88  H   UNL A   1      40.689  27.583  26.893  1.00  0.00     0.065 H 
ATOM     89  C   UNL A   1      42.556  27.570  29.050  1.00  0.00     0.037 A 
ATOM     90  C   UNL A   1      41.282  30.494  34.743  1.00  0.00     0.049 A 
ATOM     91  C   UNL A   1      43.320  27.698  30.339  1.00  0.00     0.074 A 
ATOM     92  C   UNL A   1      42.055  30.498  35.891  1.00  0.00    -0.036 A 
ATOM     93  N   UNL A   1      41.977  29.762  33.794  1.00  0.00    -0.354 N 
ATOM     94  N   UNL A   1      42.973  28.299  31.450  1.00  0.00    -0.248 NA
ATOM     95  C   UNL A   1      44.645  27.063  30.388  1.00  0.00    -0.034 C 
ATOM     96  C   UNL A   1      43.236  29.796  35.624  1.00  0.00    -0.036 A 
ATOM     97  H   UNL A   1      41.805  30.941  36.788  1.00  0.00     0.065 H 
ATOM     98  C   UNL A   1      43.180  29.321  34.324  1.00  0.00     0.049 A 
ATOM     99  H   UNL A   1      41.665  29.582  32.878  1.00  0.00     0.167 HD
ATOM    100  C   UNL A   1      44.021  28.096  32.337  1.00  0.00     0.074 A 
ATOM    101  C   UNL A   1      45.011  27.303  31.640  1.00  0.00    -0.034 C 
ATOM    102  H   UNL A   1      45.156  26.562  29.645  1.00  0.00     0.065 H 
ATOM    103  H   UNL A   1      44.017  29.657  36.284  1.00  0.00     0.065 H 
ATOM    104  C   UNL A   1      44.149  28.525  33.616  1.00  0.00     0.037 A 
ATOM    105  H   UNL A   1      45.891  26.968  32.062  1.00  0.00     0.065 H 
BRANCH  86 106
ATOM    106  C   UNL A   1      39.403  31.927  35.631  1.00  0.00     0.064 A 
ATOM    107  C   UNL A   1      38.519  31.364  36.564  1.00  0.00     0.173 A 
ATOM    108  C   UNL A   1      39.743  33.279  35.782  1.00  0.00     0.173 A 
ATOM    109  F   UNL A   1      38.152  30.078  36.455  1.00  0.00    -0.203 F 
ATOM    110  C   UNL A   1      37.976  32.132  37.590  1.00  0.00     0.198 A 
ATOM    111  C   UNL A   1      39.219  34.037  36.826  1.00  0.00     0.198 A 
ATOM    112  F   UNL A   1      40.588  33.866  34.920  1.00  0.00    -0.203 F 
ATOM    113  F   UNL A   1      37.096  31.584  38.441  1.00  0.00    -0.200 F 
ATOM    114  C   UNL A   1      38.331  33.465  37.724  1.00  0.00     0.200 A 
ATOM    115  F   UNL A   1      39.572  35.324  36.962  1.00  0.00    -0.200 F 
ATOM    116  F   UNL A   1      37.811  34.203  38.716  1.00  0.00    -0.200 F 
ENDBRANCH  86 106
BRANCH  89 117
ATOM    117  C   UNL A   1      43.127  26.830  27.896  1.00  0.00     0.064 A 
ATOM    118  C   UNL A   1      42.996  25.438  27.802  1.00  0.00     0.173 A 
ATOM    119  C   UNL A   1      43.809  27.494  26.867  1.00  0.00     0.173 A 
ATOM    120  F   UNL A   1      42.370  24.757  28.773  1.00  0.00    -0.203 F 
ATOM    121  C   UNL A   1      43.541  24.734  26.730  1.00  0.00     0.198 A 
ATOM    122  C   UNL A   1      44.332  26.792  25.783  1.00  0.00     0.198 A 
ATOM    123  F   UNL A   1      43.956  28.826  26.909  1.00  0.00    -0.203 F 
ATOM    124  F   UNL A   1      43.436  23.400  26.684  1.00  0.00    -0.200 F 
ATOM    125  C   UNL A   1      44.204  25.413  25.718  1.00  0.00     0.200 A 
ATOM    126  F   UNL A   1      44.963  27.453  24.801  1.00  0.00    -0.200 F 
ATOM    127  F   UNL A   1      44.724  24.736  24.685  1.00  0.00    -0.200 F 
ENDBRANCH  89 117
BRANCH 104 128
ATOM    128  C   UNL A   1      45.391  28.122  34.354  1.00  0.00     0.064 A 
ATOM    129  C   UNL A   1      46.539  28.925  34.352  1.00  0.00     0.173 A 
ATOM    130  C   UNL A   1      45.416  26.936  35.105  1.00  0.00     0.173 A 
ATOM    131  F   UNL A   1      46.568  30.060  33.637  1.00  0.00    -0.203 F 
ATOM    132  C   UNL A   1      47.678  28.546  35.059  1.00  0.00     0.198 A 
ATOM    133  C   UNL A   1      46.546  26.573  35.830  1.00  0.00     0.198 A 
ATOM    134  F   UNL A   1      44.339  26.136  35.142  1.00  0.00    -0.203 F 
ATOM    135  F   UNL A   1      48.779  29.308  35.010  1.00  0.00    -0.200 F 
ATOM    136  C   UNL A   1      47.678  27.375  35.802  1.00  0.00     0.200 A 
ATOM    137  F   UNL A   1      46.541  25.448  36.557  1.00  0.00    -0.200 F 
ATOM    138  F   UNL A   1      48.772  27.015  36.487  1.00  0.00    -0.200 F 
ENDBRANCH 104 128
ENDBRANCH  69  72
ENDBRANCH  59  62
ENDBRANCH  55  58
ENDBRANCH  52  55
ENDBRANCH  49  52
ENDBRANCH  46  49
ENDBRANCH   1  46
TORSDOF 17
ENDMDL
MODEL 6
REMARK VINA RESULT:     -11.6      3.802      8.876
REMARK SMILES CS(=O)(=O)c1ccc(-c2cc(Cl)cnc2-c2ccc(C(=O)NCCCCCCNC(=O)c3ccc(-c4c5nc(c(-c6c(F)c(F)c(F)c(F)c6F)c6ccc([nH]6)c(-c6c(F)c(F)c(F)c(F)c6F)c6nc(c(-c7c(F)c(F)c(F)c(F)c7F)c7ccc4[nH]7)C=C6)C=C5)cc3)nc2)cc1
REMARK SMILES IDX 24 1 23 4 22 7 20 8 21 9 19 11 16 12 17 13 96 14 18 15 95 17
REMARK SMILES IDX 15 20 9 21 10 22 11 23 14 25 12 26 13 27 8 29 5 30 6 31
REMARK SMILES IDX 98 32 7 33 97 35 2 39 3 40 4 41 1 42 25 46 26 49 27 52 28 55
REMARK SMILES IDX 29 58 30 59 31 61 32 62 33 63 94 64 34 65 93 67 35 69 36 72
REMARK SMILES IDX 37 73 87 74 38 75 92 76 86 77 88 78 39 79 91 80 85 82 84 84
REMARK SMILES IDX 40 86 72 89 52 90 71 91 53 92 56 93 70 94 89 95 54 96 55 98
REMARK SMILES IDX 69 100 90 101 57 104 41 106 42 107 50 108 43 109 44 110
REMARK SMILES IDX 48 111 51 112 45 113 46 114 49 115 47 116 73 117 74 118
REMARK SMILES IDX 82 119 75 120 76 121 80 122 83 123 77 124 78 125 81 126
REMARK SMILES IDX 79 127 58 128 59 129 67 130 60 131 61 132 65 133 68 134
REMARK SMILES IDX 62 135 63 136 66 137 64 138
REMARK H PARENT 24 2 24 3 23 5 23 6 22 10 17 16 96 18 18 19 10 24 13 28 6 34
REMARK H PARENT 98 36 7 37 97 38 1 43 1 44 1 45 25 47 25 48 26 50 26 51 27 53
REMARK H PARENT 27 54 28 56 28 57 29 60 33 66 94 68 34 70 93 71 92 81 86 83
REMARK H PARENT 88 85 91 87 85 88 53 97 56 99 89 102 54 103 90 105
REMARK Flexibility Score: inf
ROOT
ATOM      1  C   UNL A   1      29.817  27.192  23.548  1.00  0.00    -0.036 C 
ATOM      2  H   UNL A   1      29.087  27.382  24.306  1.00  0.00     0.028 H 
ATOM      3  H   UNL A   1      29.414  27.286  22.561  1.00  0.00     0.028 H 
ENDROOT
BRANCH   1   4
ATOM      4  C   UNL A   1      30.305  25.749  23.698  1.00  0.00     0.018 C 
ATOM      5  H   UNL A   1      29.867  25.147  22.929  1.00  0.00     0.049 H 
ATOM      6  H   UNL A   1      31.372  25.733  23.614  1.00  0.00     0.049 H 
BRANCH   4   7
ATOM      7  N   UNL A   1      29.927  25.221  24.992  1.00  0.00    -0.351 N 
ATOM      8  C   UNL A   1      30.602  24.472  25.931  1.00  0.00     0.269 C 
ATOM      9  O   UNL A   1      29.981  24.193  26.958  1.00  0.00    -0.268 OA
ATOM     10  H   UNL A   1      29.004  25.441  25.253  1.00  0.00     0.163 HD
BRANCH   8  11
ATOM     11  C   UNL A   1      32.034  24.040  25.775  1.00  0.00     0.128 A 
ATOM     12  C   UNL A   1      34.706  23.302  25.740  1.00  0.00     0.019 A 
ATOM     13  C   UNL A   1      34.101  23.798  24.582  1.00  0.00    -0.049 A 
ATOM     14  C   UNL A   1      33.887  23.137  26.849  1.00  0.00     0.037 A 
ATOM     15  C   UNL A   1      32.747  24.140  24.587  1.00  0.00    -0.030 A 
ATOM     16  H   UNL A   1      34.656  23.913  23.719  1.00  0.00     0.063 H 
ATOM     17  N   UNL A   1      32.589  23.519  26.902  1.00  0.00    -0.250 NA
ATOM     18  H   UNL A   1      34.294  22.693  27.687  1.00  0.00     0.085 H 
ATOM     19  H   UNL A   1      32.283  24.462  23.723  1.00  0.00     0.065 H 
BRANCH  12  20
ATOM     20  C   UNL A   1      36.136  22.999  25.792  1.00  0.00     0.080 A 
ATOM     21  C   UNL A   1      36.654  21.714  25.520  1.00  0.00     0.010 A 
ATOM     22  C   UNL A   1      38.040  21.538  25.677  1.00  0.00    -0.032 A 
ATOM     23  C   UNL A   1      38.841  22.603  26.072  1.00  0.00     0.060 A 
ATOM     24  H   UNL A   1      38.464  20.615  25.497  1.00  0.00     0.065 H 
ATOM     25  N   UNL A   1      36.913  24.052  26.162  1.00  0.00    -0.254 NA
ATOM     26  Cl  UNL A   1      40.530  22.394  26.283  1.00  0.00    -0.083 Cl
ATOM     27  C   UNL A   1      38.242  23.830  26.295  1.00  0.00     0.046 A 
ATOM     28  H   UNL A   1      38.841  24.620  26.578  1.00  0.00     0.086 H 
BRANCH  21  29
ATOM     29  C   UNL A   1      35.816  20.582  25.091  1.00  0.00    -0.016 A 
ATOM     30  C   UNL A   1      34.219  18.415  24.277  1.00  0.00     0.067 A 
ATOM     31  C   UNL A   1      33.654  19.687  24.385  1.00  0.00    -0.043 A 
ATOM     32  C   UNL A   1      35.571  18.214  24.557  1.00  0.00    -0.043 A 
ATOM     33  C   UNL A   1      34.453  20.761  24.791  1.00  0.00    -0.053 A 
ATOM     34  H   UNL A   1      32.656  19.833  24.166  1.00  0.00     0.064 H 
ATOM     35  C   UNL A   1      36.363  19.294  24.960  1.00  0.00    -0.053 A 
ATOM     36  H   UNL A   1      35.986  17.272  24.467  1.00  0.00     0.064 H 
ATOM     37  H   UNL A   1      34.035  21.701  24.871  1.00  0.00     0.063 H 
ATOM     38  H   UNL A   1      37.363  19.143  25.163  1.00  0.00     0.063 H 
BRANCH  30  39
ATOM     39  S   UNL A   1      33.216  17.049  23.743  1.00  0.00     0.175 S 
ATOM     40  O   UNL A   1      34.095  16.087  23.108  1.00  0.00    -0.224 OA
ATOM     41  O   UNL A   1      32.083  17.615  23.034  1.00  0.00    -0.224 OA
BRANCH  39  42
ATOM     42  C   UNL A   1      32.625  16.305  25.240  1.00  0.00     0.043 C 
ATOM     43  H   UNL A   1      33.241  16.612  26.058  1.00  0.00     0.040 H 
ATOM     44  H   UNL A   1      32.658  15.240  25.147  1.00  0.00     0.040 H 
ATOM     45  H   UNL A   1      31.616  16.616  25.417  1.00  0.00     0.040 H 
ENDBRANCH  39  42
ENDBRANCH  30  39
ENDBRANCH  21  29
ENDBRANCH  12  20
ENDBRANCH   8  11
ENDBRANCH   4   7
ENDBRANCH   1   4
BRANCH   1  46
ATOM     46  C   UNL A   1      30.934  28.238  23.679  1.00  0.00    -0.052 C 
ATOM     47  H   UNL A   1      30.745  28.817  24.559  1.00  0.00     0.027 H 
ATOM     48  H   UNL A   1      30.910  28.812  22.777  1.00  0.00     0.027 H 
BRANCH  46  49
ATOM     49  C   UNL A   1      32.353  27.665  23.784  1.00  0.00    -0.052 C 
ATOM     50  H   UNL A   1      32.982  28.211  23.111  1.00  0.00     0.027 H 
ATOM     51  H   UNL A   1      32.271  26.625  23.543  1.00  0.00     0.027 H 
BRANCH  49  52
ATOM     52  C   UNL A   1      32.983  27.731  25.177  1.00  0.00    -0.036 C 
ATOM     53  H   UNL A   1      33.528  26.825  25.340  1.00  0.00     0.028 H 
ATOM     54  H   UNL A   1      32.177  27.867  25.869  1.00  0.00     0.028 H 
BRANCH  52  55
ATOM     55  C   UNL A   1      33.935  28.904  25.390  1.00  0.00     0.018 C 
ATOM     56  H   UNL A   1      34.416  29.132  24.462  1.00  0.00     0.049 H 
ATOM     57  H   UNL A   1      34.650  28.621  26.136  1.00  0.00     0.049 H 
BRANCH  55  58
ATOM     58  N   UNL A   1      33.240  30.090  25.862  1.00  0.00    -0.352 N 
ATOM     59  C   UNL A   1      33.514  30.887  26.945  1.00  0.00     0.251 C 
ATOM     60  H   UNL A   1      32.459  30.361  25.327  1.00  0.00     0.163 HD
ATOM     61  O   UNL A   1      32.700  31.729  27.312  1.00  0.00    -0.269 OA
BRANCH  59  62
ATOM     62  C   UNL A   1      34.786  30.728  27.682  1.00  0.00     0.039 A 
ATOM     63  C   UNL A   1      35.648  31.823  27.784  1.00  0.00    -0.049 A 
ATOM     64  C   UNL A   1      35.146  29.496  28.236  1.00  0.00    -0.049 A 
ATOM     65  C   UNL A   1      36.850  31.697  28.484  1.00  0.00    -0.053 A 
ATOM     66  H   UNL A   1      35.397  32.723  27.345  1.00  0.00     0.063 H 
ATOM     67  C   UNL A   1      36.316  29.387  28.983  1.00  0.00    -0.053 A 
ATOM     68  H   UNL A   1      34.546  28.669  28.091  1.00  0.00     0.063 H 
ATOM     69  C   UNL A   1      37.183  30.484  29.107  1.00  0.00    -0.014 A 
ATOM     70  H   UNL A   1      37.497  32.499  28.542  1.00  0.00     0.063 H 
ATOM     71  H   UNL A   1      36.546  28.495  29.448  1.00  0.00     0.063 H 
BRANCH  69  72
ATOM     72  C   UNL A   1      38.442  30.338  29.878  1.00  0.00     0.031 A 
ATOM     73  C   UNL A   1      39.593  29.564  29.301  1.00  0.00     0.074 A 
ATOM     74  C   UNL A   1      38.526  30.850  31.120  1.00  0.00     0.049 A 
ATOM     75  N   UNL A   1      40.746  29.264  29.845  1.00  0.00    -0.248 NA
ATOM     76  C   UNL A   1      39.416  29.034  27.941  1.00  0.00    -0.034 C 
ATOM     77  C   UNL A   1      37.460  31.582  31.806  1.00  0.00    -0.036 A 
ATOM     78  N   UNL A   1      39.551  30.821  32.033  1.00  0.00    -0.354 N 
ATOM     79  C   UNL A   1      41.420  28.497  28.903  1.00  0.00     0.074 A 
ATOM     80  C   UNL A   1      40.532  28.339  27.773  1.00  0.00    -0.034 C 
ATOM     81  H   UNL A   1      38.627  29.167  27.288  1.00  0.00     0.065 H 
ATOM     82  C   UNL A   1      37.893  31.949  33.023  1.00  0.00    -0.036 A 
ATOM     83  H   UNL A   1      36.527  31.785  31.416  1.00  0.00     0.065 H 
ATOM     84  C   UNL A   1      39.252  31.452  33.216  1.00  0.00     0.049 A 
ATOM     85  H   UNL A   1      40.417  30.390  31.856  1.00  0.00     0.167 HD
ATOM     86  C   UNL A   1      42.675  27.991  28.968  1.00  0.00     0.037 A 
ATOM     87  H   UNL A   1      40.739  27.761  26.944  1.00  0.00     0.065 H 
ATOM     88  H   UNL A   1      37.352  32.495  33.713  1.00  0.00     0.065 H 
ATOM     89  C   UNL A   1      39.992  31.607  34.330  1.00  0.00     0.037 A 
ATOM     90  C   UNL A   1      43.568  28.180  30.081  1.00  0.00     0.049 A 
ATOM     91  C   UNL A   1      41.387  31.045  34.371  1.00  0.00     0.074 A 
ATOM     92  C   UNL A   1      44.880  27.758  30.216  1.00  0.00    -0.036 A 
ATOM     93  N   UNL A   1      43.240  28.849  31.250  1.00  0.00    -0.354 N 
ATOM     94  N   UNL A   1      42.035  30.375  33.450  1.00  0.00    -0.248 NA
ATOM     95  C   UNL A   1      42.154  31.271  35.604  1.00  0.00    -0.034 C 
ATOM     96  C   UNL A   1      45.334  28.143  31.483  1.00  0.00    -0.036 A 
ATOM     97  H   UNL A   1      45.428  27.249  29.507  1.00  0.00     0.065 H 
ATOM     98  C   UNL A   1      44.319  28.839  32.120  1.00  0.00     0.049 A 
ATOM     99  H   UNL A   1      42.369  29.269  31.435  1.00  0.00     0.167 HD
ATOM    100  C   UNL A   1      43.293  30.119  33.980  1.00  0.00     0.074 A 
ATOM    101  C   UNL A   1      43.321  30.720  35.297  1.00  0.00    -0.034 C 
ATOM    102  H   UNL A   1      41.863  31.735  36.477  1.00  0.00     0.065 H 
ATOM    103  H   UNL A   1      46.266  27.942  31.876  1.00  0.00     0.065 H 
ATOM    104  C   UNL A   1      44.331  29.450  33.424  1.00  0.00     0.037 A 
ATOM    105  H   UNL A   1      44.144  30.718  35.920  1.00  0.00     0.065 H 
BRANCH  86 106
ATOM    106  C   UNL A   1      43.158  27.186  27.798  1.00  0.00     0.064 A 
ATOM    107  C   UNL A   1      43.808  27.789  26.710  1.00  0.00     0.173 A 
ATOM    108  C   UNL A   1      42.998  25.793  27.775  1.00  0.00     0.173 A 
ATOM    109  F   UNL A   1      43.975  29.120  26.677  1.00  0.00    -0.203 F 
ATOM    110  C   UNL A   1      44.255  27.031  25.632  1.00  0.00     0.198 A 
ATOM    111  C   UNL A   1      43.470  25.034  26.708  1.00  0.00     0.198 A 
ATOM    112  F   UNL A   1      42.386  25.166  28.793  1.00  0.00    -0.203 F 
ATOM    113  F   UNL A   1      44.831  27.634  24.583  1.00  0.00    -0.200 F 
ATOM    114  C   UNL A   1      44.091  25.654  25.635  1.00  0.00     0.200 A 
ATOM    115  F   UNL A   1      43.322  23.702  26.717  1.00  0.00    -0.200 F 
ATOM    116  F   UNL A   1      44.526  24.923  24.597  1.00  0.00    -0.200 F 
ENDBRANCH  86 106
BRANCH  89 117
ATOM    117  C   UNL A   1      39.437  32.355  35.487  1.00  0.00     0.064 A 
ATOM    118  C   UNL A   1      38.650  31.706  36.448  1.00  0.00     0.173 A 
ATOM    119  C   UNL A   1      39.684  33.724  35.659  1.00  0.00     0.173 A 
ATOM    120  F   UNL A   1      38.370  30.401  36.314  1.00  0.00    -0.203 F 
ATOM    121  C   UNL A   1      38.114  32.403  37.529  1.00  0.00     0.198 A 
ATOM    122  C   UNL A   1      39.168  34.415  36.753  1.00  0.00     0.198 A 
ATOM    123  F   UNL A   1      40.436  34.388  34.769  1.00  0.00    -0.203 F 
ATOM    124  F   UNL A   1      37.331  31.769  38.411  1.00  0.00    -0.200 F 
ATOM    125  C   UNL A   1      38.378  33.756  37.683  1.00  0.00     0.200 A 
ATOM    126  F   UNL A   1      39.435  35.720  36.905  1.00  0.00    -0.200 F 
ATOM    127  F   UNL A   1      37.866  34.425  38.725  1.00  0.00    -0.200 F 
ENDBRANCH  89 117
BRANCH 104 128
ATOM    128  C   UNL A   1      45.595  29.357  34.224  1.00  0.00     0.064 A 
ATOM    129  C   UNL A   1      46.599  30.331  34.127  1.00  0.00     0.173 A 
ATOM    130  C   UNL A   1      45.786  28.301  35.130  1.00  0.00     0.173 A 
ATOM    131  F   UNL A   1      46.469  31.350  33.265  1.00  0.00    -0.203 F 
ATOM    132  C   UNL A   1      47.759  30.240  34.893  1.00  0.00     0.198 A 
ATOM    133  C   UNL A   1      46.934  28.228  35.911  1.00  0.00     0.198 A 
ATOM    134  F   UNL A   1      44.851  27.348  35.263  1.00  0.00    -0.203 F 
ATOM    135  F   UNL A   1      48.724  31.160  34.754  1.00  0.00    -0.200 F 
ATOM    136  C   UNL A   1      47.923  29.194  35.788  1.00  0.00     0.200 A 
ATOM    137  F   UNL A   1      47.086  27.223  36.785  1.00  0.00    -0.200 F 
ATOM    138  F   UNL A   1      49.037  29.112  36.528  1.00  0.00    -0.200 F 
ENDBRANCH 104 128
ENDBRANCH  69  72
ENDBRANCH  59  62
ENDBRANCH  55  58
ENDBRANCH  52  55
ENDBRANCH  49  52
ENDBRANCH  46  49
ENDBRANCH   1  46
TORSDOF 17
ENDMDL
MODEL 7
REMARK VINA RESULT:     -11.5      3.853      6.088
REMARK SMILES CS(=O)(=O)c1ccc(-c2cc(Cl)cnc2-c2ccc(C(=O)NCCCCCCNC(=O)c3ccc(-c4c5nc(c(-c6c(F)c(F)c(F)c(F)c6F)c6ccc([nH]6)c(-c6c(F)c(F)c(F)c(F)c6F)c6nc(c(-c7c(F)c(F)c(F)c(F)c7F)c7ccc4[nH]7)C=C6)C=C5)cc3)nc2)cc1
REMARK SMILES IDX 24 1 23 4 22 7 20 8 21 9 19 11 16 12 17 13 96 14 18 15 95 17
REMARK SMILES IDX 15 20 9 21 10 22 11 23 14 25 12 26 13 27 8 29 5 30 6 31
REMARK SMILES IDX 98 32 7 33 97 35 2 39 3 40 4 41 1 42 25 46 26 49 27 52 28 55
REMARK SMILES IDX 29 58 30 59 31 61 32 62 33 63 94 64 34 65 93 67 35 69 36 72
REMARK SMILES IDX 37 73 87 74 38 75 92 76 86 77 88 78 39 79 91 80 85 82 84 84
REMARK SMILES IDX 40 86 72 89 52 90 71 91 53 92 56 93 70 94 89 95 54 96 55 98
REMARK SMILES IDX 69 100 90 101 57 104 41 106 42 107 50 108 43 109 44 110
REMARK SMILES IDX 48 111 51 112 45 113 46 114 49 115 47 116 73 117 74 118
REMARK SMILES IDX 82 119 75 120 76 121 80 122 83 123 77 124 78 125 81 126
REMARK SMILES IDX 79 127 58 128 59 129 67 130 60 131 61 132 65 133 68 134
REMARK SMILES IDX 62 135 63 136 66 137 64 138
REMARK H PARENT 24 2 24 3 23 5 23 6 22 10 17 16 96 18 18 19 10 24 13 28 6 34
REMARK H PARENT 98 36 7 37 97 38 1 43 1 44 1 45 25 47 25 48 26 50 26 51 27 53
REMARK H PARENT 27 54 28 56 28 57 29 60 33 66 94 68 34 70 93 71 92 81 86 83
REMARK H PARENT 88 85 91 87 85 88 53 97 56 99 89 102 54 103 90 105
REMARK Flexibility Score: inf
ROOT
ATOM      1  C   UNL A   1      29.649  27.173  23.876  1.00  0.00    -0.036 C 
ATOM      2  H   UNL A   1      28.903  27.246  24.640  1.00  0.00     0.028 H 
ATOM      3  H   UNL A   1      29.237  27.261  22.893  1.00  0.00     0.028 H 
ENDROOT
BRANCH   1   4
ATOM      4  C   UNL A   1      30.299  25.790  23.967  1.00  0.00     0.018 C 
ATOM      5  H   UNL A   1      29.975  25.193  23.140  1.00  0.00     0.049 H 
ATOM      6  H   UNL A   1      31.363  25.904  23.944  1.00  0.00     0.049 H 
BRANCH   4   7
ATOM      7  N   UNL A   1      29.922  25.137  25.204  1.00  0.00    -0.351 N 
ATOM      8  C   UNL A   1      30.607  24.323  26.079  1.00  0.00     0.269 C 
ATOM      9  O   UNL A   1      29.984  23.935  27.069  1.00  0.00    -0.268 OA
ATOM     10  H   UNL A   1      28.991  25.309  25.473  1.00  0.00     0.163 HD
BRANCH   8  11
ATOM     11  C   UNL A   1      32.052  23.943  25.901  1.00  0.00     0.128 A 
ATOM     12  C   UNL A   1      34.744  23.285  25.829  1.00  0.00     0.019 A 
ATOM     13  C   UNL A   1      34.127  23.836  24.703  1.00  0.00    -0.049 A 
ATOM     14  C   UNL A   1      33.928  23.027  26.923  1.00  0.00     0.037 A 
ATOM     15  C   UNL A   1      32.764  24.138  24.725  1.00  0.00    -0.030 A 
ATOM     16  H   UNL A   1      34.680  24.021  23.851  1.00  0.00     0.063 H 
ATOM     17  N   UNL A   1      32.619  23.367  26.995  1.00  0.00    -0.250 NA
ATOM     18  H   UNL A   1      34.346  22.543  27.733  1.00  0.00     0.085 H 
ATOM     19  H   UNL A   1      32.292  24.500  23.881  1.00  0.00     0.065 H 
BRANCH  12  20
ATOM     20  C   UNL A   1      36.182  23.020  25.867  1.00  0.00     0.080 A 
ATOM     21  C   UNL A   1      36.731  21.747  25.602  1.00  0.00     0.010 A 
ATOM     22  C   UNL A   1      38.123  21.609  25.744  1.00  0.00    -0.032 A 
ATOM     23  C   UNL A   1      38.900  22.699  26.119  1.00  0.00     0.060 A 
ATOM     24  H   UNL A   1      38.569  20.696  25.569  1.00  0.00     0.065 H 
ATOM     25  N   UNL A   1      36.935  24.097  26.218  1.00  0.00    -0.254 NA
ATOM     26  Cl  UNL A   1      40.596  22.538  26.312  1.00  0.00    -0.083 Cl
ATOM     27  C   UNL A   1      38.271  23.912  26.337  1.00  0.00     0.046 A 
ATOM     28  H   UNL A   1      38.852  24.721  26.604  1.00  0.00     0.086 H 
BRANCH  21  29
ATOM     29  C   UNL A   1      35.918  20.588  25.195  1.00  0.00    -0.016 A 
ATOM     30  C   UNL A   1      34.362  18.382  24.412  1.00  0.00     0.067 A 
ATOM     31  C   UNL A   1      35.734  18.223  24.612  1.00  0.00    -0.043 A 
ATOM     32  C   UNL A   1      33.755  19.622  24.611  1.00  0.00    -0.043 A 
ATOM     33  C   UNL A   1      36.503  19.324  25.001  1.00  0.00    -0.053 A 
ATOM     34  H   UNL A   1      36.176  17.300  24.475  1.00  0.00     0.064 H 
ATOM     35  C   UNL A   1      34.532  20.717  25.002  1.00  0.00    -0.053 A 
ATOM     36  H   UNL A   1      32.738  19.732  24.470  1.00  0.00     0.064 H 
ATOM     37  H   UNL A   1      37.517  19.206  25.148  1.00  0.00     0.063 H 
ATOM     38  H   UNL A   1      34.081  21.634  25.151  1.00  0.00     0.063 H 
BRANCH  30  39
ATOM     39  S   UNL A   1      33.373  16.983  23.938  1.00  0.00     0.175 S 
ATOM     40  O   UNL A   1      34.248  15.829  23.891  1.00  0.00    -0.224 OA
ATOM     41  O   UNL A   1      32.604  17.391  22.776  1.00  0.00    -0.224 OA
BRANCH  39  42
ATOM     42  C   UNL A   1      32.254  16.735  25.290  1.00  0.00     0.043 C 
ATOM     43  H   UNL A   1      31.920  17.683  25.655  1.00  0.00     0.040 H 
ATOM     44  H   UNL A   1      32.755  16.208  26.075  1.00  0.00     0.040 H 
ATOM     45  H   UNL A   1      31.413  16.164  24.956  1.00  0.00     0.040 H 
ENDBRANCH  39  42
ENDBRANCH  30  39
ENDBRANCH  21  29
ENDBRANCH  12  20
ENDBRANCH   8  11
ENDBRANCH   4   7
ENDBRANCH   1   4
BRANCH   1  46
ATOM     46  C   UNL A   1      30.640  28.332  24.055  1.00  0.00    -0.052 C 
ATOM     47  H   UNL A   1      30.316  28.920  24.889  1.00  0.00     0.027 H 
ATOM     48  H   UNL A   1      30.640  28.869  23.129  1.00  0.00     0.027 H 
BRANCH  46  49
ATOM     49  C   UNL A   1      32.094  27.914  24.306  1.00  0.00    -0.052 C 
ATOM     50  H   UNL A   1      32.718  28.460  23.629  1.00  0.00     0.027 H 
ATOM     51  H   UNL A   1      32.127  26.855  24.158  1.00  0.00     0.027 H 
BRANCH  49  52
ATOM     52  C   UNL A   1      32.609  28.161  25.726  1.00  0.00    -0.036 C 
ATOM     53  H   UNL A   1      32.907  27.221  26.141  1.00  0.00     0.028 H 
ATOM     54  H   UNL A   1      31.807  28.622  26.264  1.00  0.00     0.028 H 
BRANCH  52  55
ATOM     55  C   UNL A   1      33.795  29.117  25.816  1.00  0.00     0.018 C 
ATOM     56  H   UNL A   1      34.268  29.172  24.858  1.00  0.00     0.049 H 
ATOM     57  H   UNL A   1      34.469  28.742  26.559  1.00  0.00     0.049 H 
BRANCH  55  58
ATOM     58  N   UNL A   1      33.386  30.454  26.214  1.00  0.00    -0.352 N 
ATOM     59  C   UNL A   1      33.847  31.235  27.244  1.00  0.00     0.251 C 
ATOM     60  H   UNL A   1      32.675  30.858  25.665  1.00  0.00     0.163 HD
ATOM     61  O   UNL A   1      33.245  32.257  27.560  1.00  0.00    -0.269 OA
BRANCH  59  62
ATOM     62  C   UNL A   1      35.064  30.843  27.986  1.00  0.00     0.039 A 
ATOM     63  C   UNL A   1      36.150  31.723  28.013  1.00  0.00    -0.049 A 
ATOM     64  C   UNL A   1      35.151  29.600  28.620  1.00  0.00    -0.049 A 
ATOM     65  C   UNL A   1      37.306  31.376  28.716  1.00  0.00    -0.053 A 
ATOM     66  H   UNL A   1      36.097  32.625  27.515  1.00  0.00     0.063 H 
ATOM     67  C   UNL A   1      36.279  29.281  29.370  1.00  0.00    -0.053 A 
ATOM     68  H   UNL A   1      34.378  28.920  28.533  1.00  0.00     0.063 H 
ATOM     69  C   UNL A   1      37.371  30.162  29.418  1.00  0.00    -0.014 A 
ATOM     70  H   UNL A   1      38.116  32.016  28.719  1.00  0.00     0.063 H 
ATOM     71  H   UNL A   1      36.314  28.392  29.893  1.00  0.00     0.063 H 
BRANCH  69  72
ATOM     72  C   UNL A   1      38.579  29.789  30.194  1.00  0.00     0.031 A 
ATOM     73  C   UNL A   1      38.772  30.316  31.587  1.00  0.00     0.074 A 
ATOM     74  C   UNL A   1      39.529  29.025  29.622  1.00  0.00     0.049 A 
ATOM     75  N   UNL A   1      39.789  30.164  32.399  1.00  0.00    -0.248 NA
ATOM     76  C   UNL A   1      37.689  31.148  32.134  1.00  0.00    -0.034 C 
ATOM     77  C   UNL A   1      39.477  28.490  28.261  1.00  0.00    -0.036 A 
ATOM     78  N   UNL A   1      40.731  28.577  30.110  1.00  0.00    -0.354 N 
ATOM     79  C   UNL A   1      39.476  30.894  33.538  1.00  0.00     0.074 A 
ATOM     80  C   UNL A   1      38.197  31.525  33.298  1.00  0.00    -0.034 C 
ATOM     81  H   UNL A   1      36.772  31.378  31.719  1.00  0.00     0.065 H 
ATOM     82  C   UNL A   1      40.587  27.772  28.029  1.00  0.00    -0.036 A 
ATOM     83  H   UNL A   1      38.709  28.640  27.588  1.00  0.00     0.065 H 
ATOM     84  C   UNL A   1      41.442  27.821  29.212  1.00  0.00     0.049 A 
ATOM     85  H   UNL A   1      41.052  28.779  31.018  1.00  0.00     0.167 HD
ATOM     86  C   UNL A   1      40.183  31.008  34.688  1.00  0.00     0.037 A 
ATOM     87  H   UNL A   1      37.740  32.184  33.948  1.00  0.00     0.065 H 
ATOM     88  H   UNL A   1      40.802  27.265  27.155  1.00  0.00     0.065 H 
ATOM     89  C   UNL A   1      42.650  27.237  29.329  1.00  0.00     0.037 A 
ATOM     90  C   UNL A   1      41.439  30.350  34.935  1.00  0.00     0.049 A 
ATOM     91  C   UNL A   1      43.408  27.369  30.622  1.00  0.00     0.074 A 
ATOM     92  C   UNL A   1      42.202  30.353  36.090  1.00  0.00    -0.036 A 
ATOM     93  N   UNL A   1      42.115  29.568  34.011  1.00  0.00    -0.354 N 
ATOM     94  N   UNL A   1      43.073  28.011  31.714  1.00  0.00    -0.248 NA
ATOM     95  C   UNL A   1      44.707  26.686  30.699  1.00  0.00    -0.034 C 
ATOM     96  C   UNL A   1      43.358  29.601  35.852  1.00  0.00    -0.036 A 
ATOM     97  H   UNL A   1      41.962  30.828  36.974  1.00  0.00     0.065 H 
ATOM     98  C   UNL A   1      43.295  29.096  34.563  1.00  0.00     0.049 A 
ATOM     99  H   UNL A   1      41.803  29.377  33.097  1.00  0.00     0.167 HD
ATOM    100  C   UNL A   1      44.106  27.791  32.616  1.00  0.00     0.074 A 
ATOM    101  C   UNL A   1      45.071  26.944  31.947  1.00  0.00    -0.034 C 
ATOM    102  H   UNL A   1      45.205  26.149  29.973  1.00  0.00     0.065 H 
ATOM    103  H   UNL A   1      44.128  29.450  36.522  1.00  0.00     0.065 H 
ATOM    104  C   UNL A   1      44.240  28.247  33.885  1.00  0.00     0.037 A 
ATOM    105  H   UNL A   1      45.935  26.587  32.386  1.00  0.00     0.065 H 
BRANCH  86 106
ATOM    106  C   UNL A   1      39.608  31.873  35.770  1.00  0.00     0.064 A 
ATOM    107  C   UNL A   1      40.029  33.200  35.950  1.00  0.00     0.173 A 
ATOM    108  C   UNL A   1      38.604  31.383  36.617  1.00  0.00     0.173 A 
ATOM    109  F   UNL A   1      40.996  33.712  35.175  1.00  0.00    -0.203 F 
ATOM    110  C   UNL A   1      39.484  33.994  36.956  1.00  0.00     0.198 A 
ATOM    111  C   UNL A   1      38.042  32.189  37.604  1.00  0.00     0.198 A 
ATOM    112  F   UNL A   1      38.162  30.122  36.485  1.00  0.00    -0.203 F 
ATOM    113  F   UNL A   1      39.936  35.243  37.140  1.00  0.00    -0.200 F 
ATOM    114  C   UNL A   1      38.488  33.490  37.778  1.00  0.00     0.200 A 
ATOM    115  F   UNL A   1      37.070  31.705  38.390  1.00  0.00    -0.200 F 
ATOM    116  F   UNL A   1      37.960  34.258  38.743  1.00  0.00    -0.200 F 
ENDBRANCH  86 106
BRANCH  89 117
ATOM    117  C   UNL A   1      43.202  26.447  28.199  1.00  0.00     0.064 A 
ATOM    118  C   UNL A   1      43.827  27.084  27.118  1.00  0.00     0.173 A 
ATOM    119  C   UNL A   1      43.121  25.048  28.177  1.00  0.00     0.173 A 
ATOM    120  F   UNL A   1      43.908  28.422  27.086  1.00  0.00    -0.203 F 
ATOM    121  C   UNL A   1      44.334  26.351  26.047  1.00  0.00     0.198 A 
ATOM    122  C   UNL A   1      43.651  24.315  27.118  1.00  0.00     0.198 A 
ATOM    123  F   UNL A   1      42.538  24.392  29.191  1.00  0.00    -0.203 F 
ATOM    124  F   UNL A   1      44.891  26.986  25.007  1.00  0.00    -0.200 F 
ATOM    125  C   UNL A   1      44.251  24.967  26.051  1.00  0.00     0.200 A 
ATOM    126  F   UNL A   1      43.579  22.976  27.130  1.00  0.00    -0.200 F 
ATOM    127  F   UNL A   1      44.743  24.262  25.022  1.00  0.00    -0.200 F 
ENDBRANCH  89 117
BRANCH 104 128
ATOM    128  C   UNL A   1      45.459  27.816  34.644  1.00  0.00     0.064 A 
ATOM    129  C   UNL A   1      45.480  26.626  35.383  1.00  0.00     0.173 A 
ATOM    130  C   UNL A   1      46.632  28.585  34.597  1.00  0.00     0.173 A 
ATOM    131  F   UNL A   1      44.380  25.865  35.470  1.00  0.00    -0.203 F 
ATOM    132  C   UNL A   1      46.628  26.230  36.066  1.00  0.00     0.198 A 
ATOM    133  C   UNL A   1      47.784  28.174  35.260  1.00  0.00     0.198 A 
ATOM    134  F   UNL A   1      46.663  29.731  33.898  1.00  0.00    -0.203 F 
ATOM    135  F   UNL A   1      46.614  25.108  36.800  1.00  0.00    -0.200 F 
ATOM    136  C   UNL A   1      47.780  26.999  35.999  1.00  0.00     0.200 A 
ATOM    137  F   UNL A   1      48.899  28.912  35.184  1.00  0.00    -0.200 F 
ATOM    138  F   UNL A   1      48.884  26.613  36.652  1.00  0.00    -0.200 F 
ENDBRANCH 104 128
ENDBRANCH  69  72
ENDBRANCH  59  62
ENDBRANCH  55  58
ENDBRANCH  52  55
ENDBRANCH  49  52
ENDBRANCH  46  49
ENDBRANCH   1  46
TORSDOF 17
ENDMDL
MODEL 8
REMARK VINA RESULT:     -11.5      7.976     13.579
REMARK SMILES CS(=O)(=O)c1ccc(-c2cc(Cl)cnc2-c2ccc(C(=O)NCCCCCCNC(=O)c3ccc(-c4c5nc(c(-c6c(F)c(F)c(F)c(F)c6F)c6ccc([nH]6)c(-c6c(F)c(F)c(F)c(F)c6F)c6nc(c(-c7c(F)c(F)c(F)c(F)c7F)c7ccc4[nH]7)C=C6)C=C5)cc3)nc2)cc1
REMARK SMILES IDX 24 1 23 4 22 7 20 8 21 9 19 11 16 12 17 13 96 14 18 15 95 17
REMARK SMILES IDX 15 20 9 21 10 22 11 23 14 25 12 26 13 27 8 29 5 30 6 31
REMARK SMILES IDX 98 32 7 33 97 35 2 39 3 40 4 41 1 42 25 46 26 49 27 52 28 55
REMARK SMILES IDX 29 58 30 59 31 61 32 62 33 63 94 64 34 65 93 67 35 69 36 72
REMARK SMILES IDX 37 73 87 74 38 75 92 76 86 77 88 78 39 79 91 80 85 82 84 84
REMARK SMILES IDX 40 86 72 89 52 90 71 91 53 92 56 93 70 94 89 95 54 96 55 98
REMARK SMILES IDX 69 100 90 101 57 104 41 106 42 107 50 108 43 109 44 110
REMARK SMILES IDX 48 111 51 112 45 113 46 114 49 115 47 116 73 117 74 118
REMARK SMILES IDX 82 119 75 120 76 121 80 122 83 123 77 124 78 125 81 126
REMARK SMILES IDX 79 127 58 128 59 129 67 130 60 131 61 132 65 133 68 134
REMARK SMILES IDX 62 135 63 136 66 137 64 138
REMARK H PARENT 24 2 24 3 23 5 23 6 22 10 17 16 96 18 18 19 10 24 13 28 6 34
REMARK H PARENT 98 36 7 37 97 38 1 43 1 44 1 45 25 47 25 48 26 50 26 51 27 53
REMARK H PARENT 27 54 28 56 28 57 29 60 33 66 94 68 34 70 93 71 92 81 86 83
REMARK H PARENT 88 85 91 87 85 88 53 97 56 99 89 102 54 103 90 105
REMARK Flexibility Score: inf
ROOT
ATOM      1  C   UNL A   1      40.263  28.760  27.005  1.00  0.00    -0.036 C 
ATOM      2  H   UNL A   1      40.880  29.542  26.616  1.00  0.00     0.028 H 
ATOM      3  H   UNL A   1      39.559  28.399  26.285  1.00  0.00     0.028 H 
ENDROOT
BRANCH   1   4
ATOM      4  C   UNL A   1      39.457  29.319  28.180  1.00  0.00     0.018 C 
ATOM      5  H   UNL A   1      39.291  28.541  28.896  1.00  0.00     0.049 H 
ATOM      6  H   UNL A   1      40.007  30.120  28.629  1.00  0.00     0.049 H 
BRANCH   4   7
ATOM      7  N   UNL A   1      38.180  29.825  27.719  1.00  0.00    -0.351 N 
ATOM      8  C   UNL A   1      37.135  30.452  28.361  1.00  0.00     0.269 C 
ATOM      9  O   UNL A   1      36.175  30.774  27.660  1.00  0.00    -0.268 OA
ATOM     10  H   UNL A   1      38.030  29.695  26.755  1.00  0.00     0.163 HD
BRANCH   8  11
ATOM     11  C   UNL A   1      37.144  30.789  29.827  1.00  0.00     0.128 A 
ATOM     12  C   UNL A   1      37.401  31.506  32.493  1.00  0.00     0.019 A 
ATOM     13  C   UNL A   1      36.600  30.419  32.133  1.00  0.00    -0.049 A 
ATOM     14  C   UNL A   1      37.979  32.224  31.454  1.00  0.00     0.037 A 
ATOM     15  C   UNL A   1      36.442  30.075  30.789  1.00  0.00    -0.030 A 
ATOM     16  H   UNL A   1      36.122  29.867  32.864  1.00  0.00     0.063 H 
ATOM     17  N   UNL A   1      37.895  31.877  30.148  1.00  0.00    -0.250 NA
ATOM     18  H   UNL A   1      38.505  33.079  31.693  1.00  0.00     0.085 H 
ATOM     19  H   UNL A   1      35.813  29.304  30.515  1.00  0.00     0.065 H 
BRANCH  12  20
ATOM     20  C   UNL A   1      37.647  31.852  33.893  1.00  0.00     0.080 A 
ATOM     21  C   UNL A   1      36.961  32.896  34.551  1.00  0.00     0.010 A 
ATOM     22  C   UNL A   1      37.342  33.176  35.875  1.00  0.00    -0.032 A 
ATOM     23  C   UNL A   1      38.345  32.432  36.487  1.00  0.00     0.060 A 
ATOM     24  H   UNL A   1      36.875  33.934  36.395  1.00  0.00     0.065 H 
ATOM     25  N   UNL A   1      38.617  31.108  34.487  1.00  0.00    -0.254 NA
ATOM     26  Cl  UNL A   1      38.830  32.775  38.095  1.00  0.00    -0.083 Cl
ATOM     27  C   UNL A   1      38.944  31.415  35.765  1.00  0.00     0.046 A 
ATOM     28  H   UNL A   1      39.680  30.858  36.226  1.00  0.00     0.086 H 
BRANCH  21  29
ATOM     29  C   UNL A   1      35.890  33.683  33.916  1.00  0.00    -0.016 A 
ATOM     30  C   UNL A   1      33.852  35.188  32.698  1.00  0.00     0.067 A 
ATOM     31  C   UNL A   1      33.582  33.893  33.142  1.00  0.00    -0.043 A 
ATOM     32  C   UNL A   1      35.120  35.746  32.867  1.00  0.00    -0.043 A 
ATOM     33  C   UNL A   1      34.600  33.149  33.746  1.00  0.00    -0.053 A 
ATOM     34  H   UNL A   1      32.640  33.489  33.025  1.00  0.00     0.064 H 
ATOM     35  C   UNL A   1      36.131  34.995  33.474  1.00  0.00    -0.053 A 
ATOM     36  H   UNL A   1      35.311  36.709  32.545  1.00  0.00     0.064 H 
ATOM     37  H   UNL A   1      34.401  32.190  34.073  1.00  0.00     0.063 H 
ATOM     38  H   UNL A   1      37.067  35.411  33.601  1.00  0.00     0.063 H 
BRANCH  30  39
ATOM     39  S   UNL A   1      32.559  36.149  31.947  1.00  0.00     0.175 S 
ATOM     40  O   UNL A   1      32.796  37.538  32.286  1.00  0.00    -0.224 OA
ATOM     41  O   UNL A   1      31.306  35.497  32.283  1.00  0.00    -0.224 OA
BRANCH  39  42
ATOM     42  C   UNL A   1      32.825  35.985  30.202  1.00  0.00     0.043 C 
ATOM     43  H   UNL A   1      33.698  36.534  29.921  1.00  0.00     0.040 H 
ATOM     44  H   UNL A   1      31.977  36.368  29.674  1.00  0.00     0.040 H 
ATOM     45  H   UNL A   1      32.960  34.951  29.958  1.00  0.00     0.040 H 
ENDBRANCH  39  42
ENDBRANCH  30  39
ENDBRANCH  21  29
ENDBRANCH  12  20
ENDBRANCH   8  11
ENDBRANCH   4   7
ENDBRANCH   1   4
BRANCH   1  46
ATOM     46  C   UNL A   1      41.165  27.576  27.383  1.00  0.00    -0.052 C 
ATOM     47  H   UNL A   1      42.087  27.968  27.760  1.00  0.00     0.027 H 
ATOM     48  H   UNL A   1      41.282  26.994  26.493  1.00  0.00     0.027 H 
BRANCH  46  49
ATOM     49  C   UNL A   1      40.585  26.627  28.441  1.00  0.00    -0.052 C 
ATOM     50  H   UNL A   1      39.953  27.200  29.088  1.00  0.00     0.027 H 
ATOM     51  H   UNL A   1      41.426  26.191  28.939  1.00  0.00     0.027 H 
BRANCH  49  52
ATOM     52  C   UNL A   1      39.764  25.459  27.891  1.00  0.00    -0.036 C 
ATOM     53  H   UNL A   1      38.730  25.733  27.922  1.00  0.00     0.028 H 
ATOM     54  H   UNL A   1      39.993  24.612  28.504  1.00  0.00     0.028 H 
BRANCH  52  55
ATOM     55  C   UNL A   1      40.106  25.059  26.458  1.00  0.00     0.018 C 
ATOM     56  H   UNL A   1      40.709  25.826  26.020  1.00  0.00     0.049 H 
ATOM     57  H   UNL A   1      39.189  24.934  25.920  1.00  0.00     0.049 H 
BRANCH  55  58
ATOM     58  N   UNL A   1      40.833  23.802  26.404  1.00  0.00    -0.352 N 
ATOM     59  C   UNL A   1      42.174  23.578  26.218  1.00  0.00     0.251 C 
ATOM     60  H   UNL A   1      40.284  22.992  26.516  1.00  0.00     0.163 HD
ATOM     61  O   UNL A   1      42.585  22.444  25.995  1.00  0.00    -0.269 OA
BRANCH  59  62
ATOM     62  C   UNL A   1      43.129  24.706  26.274  1.00  0.00     0.039 A 
ATOM     63  C   UNL A   1      43.361  25.451  25.114  1.00  0.00    -0.049 A 
ATOM     64  C   UNL A   1      43.822  25.004  27.451  1.00  0.00    -0.049 A 
ATOM     65  C   UNL A   1      44.253  26.526  25.147  1.00  0.00    -0.053 A 
ATOM     66  H   UNL A   1      42.875  25.208  24.237  1.00  0.00     0.063 H 
ATOM     67  C   UNL A   1      44.664  26.111  27.499  1.00  0.00    -0.053 A 
ATOM     68  H   UNL A   1      43.708  24.404  28.284  1.00  0.00     0.063 H 
ATOM     69  C   UNL A   1      44.894  26.878  26.345  1.00  0.00    -0.014 A 
ATOM     70  H   UNL A   1      44.441  27.064  24.286  1.00  0.00     0.063 H 
ATOM     71  H   UNL A   1      45.122  26.370  28.387  1.00  0.00     0.063 H 
BRANCH  69  72
ATOM     72  C   UNL A   1      45.822  28.033  26.407  1.00  0.00     0.031 A 
ATOM     73  C   UNL A   1      47.298  27.824  26.216  1.00  0.00     0.074 A 
ATOM     74  C   UNL A   1      45.345  29.258  26.696  1.00  0.00     0.049 A 
ATOM     75  N   UNL A   1      48.277  28.690  26.303  1.00  0.00    -0.248 NA
ATOM     76  C   UNL A   1      47.737  26.454  25.910  1.00  0.00    -0.034 C 
ATOM     77  C   UNL A   1      43.939  29.578  26.947  1.00  0.00    -0.036 A 
ATOM     78  N   UNL A   1      45.991  30.460  26.840  1.00  0.00    -0.354 N 
ATOM     79  C   UNL A   1      49.442  27.968  26.083  1.00  0.00     0.074 A 
ATOM     80  C   UNL A   1      49.056  26.586  25.902  1.00  0.00    -0.034 C 
ATOM     81  H   UNL A   1      47.166  25.610  25.745  1.00  0.00     0.065 H 
ATOM     82  C   UNL A   1      43.826  30.893  27.196  1.00  0.00    -0.036 A 
ATOM     83  H   UNL A   1      43.159  28.902  26.933  1.00  0.00     0.065 H 
ATOM     84  C   UNL A   1      45.153  31.501  27.153  1.00  0.00     0.049 A 
ATOM     85  H   UNL A   1      46.963  30.565  26.729  1.00  0.00     0.167 HD
ATOM     86  C   UNL A   1      50.717  28.422  26.016  1.00  0.00     0.037 A 
ATOM     87  H   UNL A   1      49.719  25.805  25.784  1.00  0.00     0.065 H 
ATOM     88  H   UNL A   1      42.944  31.393  27.387  1.00  0.00     0.065 H 
ATOM     89  C   UNL A   1      45.427  32.799  27.384  1.00  0.00     0.037 A 
ATOM     90  C   UNL A   1      51.094  29.803  26.162  1.00  0.00     0.049 A 
ATOM     91  C   UNL A   1      46.849  33.279  27.290  1.00  0.00     0.074 A 
ATOM     92  C   UNL A   1      52.351  30.371  26.050  1.00  0.00    -0.036 A 
ATOM     93  N   UNL A   1      50.213  30.834  26.450  1.00  0.00    -0.354 N 
ATOM     94  N   UNL A   1      47.935  32.597  27.021  1.00  0.00    -0.248 NA
ATOM     95  C   UNL A   1      47.080  34.711  27.524  1.00  0.00    -0.034 C 
ATOM     96  C   UNL A   1      52.235  31.742  26.305  1.00  0.00    -0.036 A 
ATOM     97  H   UNL A   1      53.223  29.871  25.818  1.00  0.00     0.065 H 
ATOM     98  C   UNL A   1      50.901  32.034  26.536  1.00  0.00     0.049 A 
ATOM     99  H   UNL A   1      49.242  30.729  26.576  1.00  0.00     0.167 HD
ATOM    100  C   UNL A   1      48.974  33.518  27.028  1.00  0.00     0.074 A 
ATOM    101  C   UNL A   1      48.386  34.809  27.315  1.00  0.00    -0.034 C 
ATOM    102  H   UNL A   1      46.405  35.446  27.784  1.00  0.00     0.065 H 
ATOM    103  H   UNL A   1      53.012  32.421  26.320  1.00  0.00     0.065 H 
ATOM    104  C   UNL A   1      50.296  33.311  26.814  1.00  0.00     0.037 A 
ATOM    105  H   UNL A   1      48.916  35.695  27.353  1.00  0.00     0.065 H 
BRANCH  86 106
ATOM    106  C   UNL A   1      51.798  27.412  25.767  1.00  0.00     0.064 A 
ATOM    107  C   UNL A   1      52.520  26.834  26.823  1.00  0.00     0.173 A 
ATOM    108  C   UNL A   1      52.095  26.992  24.462  1.00  0.00     0.173 A 
ATOM    109  F   UNL A   1      52.283  27.211  28.088  1.00  0.00    -0.203 F 
ATOM    110  C   UNL A   1      53.519  25.895  26.578  1.00  0.00     0.198 A 
ATOM    111  C   UNL A   1      53.075  26.033  24.223  1.00  0.00     0.198 A 
ATOM    112  F   UNL A   1      51.431  27.510  23.417  1.00  0.00    -0.203 F 
ATOM    113  F   UNL A   1      54.228  25.393  27.599  1.00  0.00    -0.200 F 
ATOM    114  C   UNL A   1      53.791  25.491  25.280  1.00  0.00     0.200 A 
ATOM    115  F   UNL A   1      53.330  25.634  22.969  1.00  0.00    -0.200 F 
ATOM    116  F   UNL A   1      54.750  24.583  25.047  1.00  0.00    -0.200 F 
ENDBRANCH  86 106
BRANCH  89 117
ATOM    117  C   UNL A   1      44.323  33.743  27.694  1.00  0.00     0.064 A 
ATOM    118  C   UNL A   1      43.790  33.823  28.987  1.00  0.00     0.173 A 
ATOM    119  C   UNL A   1      43.782  34.584  26.711  1.00  0.00     0.173 A 
ATOM    120  F   UNL A   1      44.261  33.022  29.955  1.00  0.00    -0.203 F 
ATOM    121  C   UNL A   1      42.745  34.695  29.283  1.00  0.00     0.198 A 
ATOM    122  C   UNL A   1      42.754  35.474  27.013  1.00  0.00     0.198 A 
ATOM    123  F   UNL A   1      44.262  34.550  25.459  1.00  0.00    -0.203 F 
ATOM    124  F   UNL A   1      42.227  34.722  30.518  1.00  0.00    -0.200 F 
ATOM    125  C   UNL A   1      42.232  35.524  28.297  1.00  0.00     0.200 A 
ATOM    126  F   UNL A   1      42.268  36.282  26.060  1.00  0.00    -0.200 F 
ATOM    127  F   UNL A   1      41.229  36.366  28.583  1.00  0.00    -0.200 F 
ENDBRANCH  89 117
BRANCH 104 128
ATOM    128  C   UNL A   1      51.193  34.512  26.852  1.00  0.00     0.064 A 
ATOM    129  C   UNL A   1      51.854  34.898  28.026  1.00  0.00     0.173 A 
ATOM    130  C   UNL A   1      51.424  35.262  25.688  1.00  0.00     0.173 A 
ATOM    131  F   UNL A   1      51.653  34.222  29.167  1.00  0.00    -0.203 F 
ATOM    132  C   UNL A   1      52.700  36.005  28.039  1.00  0.00     0.198 A 
ATOM    133  C   UNL A   1      52.289  36.352  25.699  1.00  0.00     0.198 A 
ATOM    134  F   UNL A   1      50.818  34.929  24.538  1.00  0.00    -0.203 F 
ATOM    135  F   UNL A   1      53.290  36.380  29.182  1.00  0.00    -0.200 F 
ATOM    136  C   UNL A   1      52.922  36.726  26.875  1.00  0.00     0.200 A 
ATOM    137  F   UNL A   1      52.512  37.040  24.571  1.00  0.00    -0.200 F 
ATOM    138  F   UNL A   1      53.741  37.786  26.889  1.00  0.00    -0.200 F 
ENDBRANCH 104 128
ENDBRANCH  69  72
ENDBRANCH  59  62
ENDBRANCH  55  58
ENDBRANCH  52  55
ENDBRANCH  49  52
ENDBRANCH  46  49
ENDBRANCH   1  46
TORSDOF 17
ENDMDL
MODEL 9
REMARK VINA RESULT:     -11.4      5.364      9.489
REMARK SMILES CS(=O)(=O)c1ccc(-c2cc(Cl)cnc2-c2ccc(C(=O)NCCCCCCNC(=O)c3ccc(-c4c5nc(c(-c6c(F)c(F)c(F)c(F)c6F)c6ccc([nH]6)c(-c6c(F)c(F)c(F)c(F)c6F)c6nc(c(-c7c(F)c(F)c(F)c(F)c7F)c7ccc4[nH]7)C=C6)C=C5)cc3)nc2)cc1
REMARK SMILES IDX 24 1 23 4 22 7 20 8 21 9 19 11 16 12 17 13 96 14 18 15 95 17
REMARK SMILES IDX 15 20 9 21 10 22 11 23 14 25 12 26 13 27 8 29 5 30 6 31
REMARK SMILES IDX 98 32 7 33 97 35 2 39 3 40 4 41 1 42 25 46 26 49 27 52 28 55
REMARK SMILES IDX 29 58 30 59 31 61 32 62 33 63 94 64 34 65 93 67 35 69 36 72
REMARK SMILES IDX 37 73 87 74 38 75 92 76 86 77 88 78 39 79 91 80 85 82 84 84
REMARK SMILES IDX 40 86 72 89 52 90 71 91 53 92 56 93 70 94 89 95 54 96 55 98
REMARK SMILES IDX 69 100 90 101 57 104 41 106 42 107 50 108 43 109 44 110
REMARK SMILES IDX 48 111 51 112 45 113 46 114 49 115 47 116 73 117 74 118
REMARK SMILES IDX 82 119 75 120 76 121 80 122 83 123 77 124 78 125 81 126
REMARK SMILES IDX 79 127 58 128 59 129 67 130 60 131 61 132 65 133 68 134
REMARK SMILES IDX 62 135 63 136 66 137 64 138
REMARK H PARENT 24 2 24 3 23 5 23 6 22 10 17 16 96 18 18 19 10 24 13 28 6 34
REMARK H PARENT 98 36 7 37 97 38 1 43 1 44 1 45 25 47 25 48 26 50 26 51 27 53
REMARK H PARENT 27 54 28 56 28 57 29 60 33 66 94 68 34 70 93 71 92 81 86 83
REMARK H PARENT 88 85 91 87 85 88 53 97 56 99 89 102 54 103 90 105
REMARK Flexibility Score: inf
ROOT
ATOM      1  C   UNL A   1      36.131  29.598  29.398  1.00  0.00    -0.036 C 
ATOM      2  H   UNL A   1      35.647  28.655  29.256  1.00  0.00     0.028 H 
ATOM      3  H   UNL A   1      35.609  30.225  30.090  1.00  0.00     0.028 H 
ENDROOT
BRANCH   1   4
ATOM      4  C   UNL A   1      36.155  30.336  28.056  1.00  0.00     0.018 C 
ATOM      5  H   UNL A   1      36.949  31.053  28.063  1.00  0.00     0.049 H 
ATOM      6  H   UNL A   1      36.309  29.624  27.271  1.00  0.00     0.049 H 
BRANCH   4   7
ATOM      7  N   UNL A   1      34.897  31.018  27.833  1.00  0.00    -0.351 N 
ATOM      8  C   UNL A   1      33.709  30.624  27.258  1.00  0.00     0.269 C 
ATOM      9  O   UNL A   1      32.806  31.463  27.236  1.00  0.00    -0.268 OA
ATOM     10  H   UNL A   1      34.889  31.947  28.158  1.00  0.00     0.163 HD
BRANCH   8  11
ATOM     11  C   UNL A   1      33.466  29.242  26.717  1.00  0.00     0.128 A 
ATOM     12  C   UNL A   1      33.062  26.793  25.481  1.00  0.00     0.019 A 
ATOM     13  C   UNL A   1      32.402  27.093  26.677  1.00  0.00    -0.049 A 
ATOM     14  C   UNL A   1      33.961  27.742  25.012  1.00  0.00     0.037 A 
ATOM     15  C   UNL A   1      32.629  28.312  27.319  1.00  0.00    -0.030 A 
ATOM     16  H   UNL A   1      31.744  26.411  27.087  1.00  0.00     0.063 H 
ATOM     17  N   UNL A   1      34.153  28.957  25.578  1.00  0.00    -0.250 NA
ATOM     18  H   UNL A   1      34.520  27.504  24.178  1.00  0.00     0.085 H 
ATOM     19  H   UNL A   1      32.181  28.519  28.226  1.00  0.00     0.065 H 
BRANCH  12  20
ATOM     20  C   UNL A   1      32.797  25.557  24.745  1.00  0.00     0.080 A 
ATOM     21  C   UNL A   1      31.740  25.433  23.818  1.00  0.00     0.010 A 
ATOM     22  C   UNL A   1      31.549  24.170  23.232  1.00  0.00    -0.032 A 
ATOM     23  C   UNL A   1      32.387  23.111  23.562  1.00  0.00     0.060 A 
ATOM     24  H   UNL A   1      30.784  24.029  22.554  1.00  0.00     0.065 H 
ATOM     25  N   UNL A   1      33.634  24.533  25.061  1.00  0.00    -0.254 NA
ATOM     26  Cl  UNL A   1      32.152  21.562  22.866  1.00  0.00    -0.083 Cl
ATOM     27  C   UNL A   1      33.409  23.338  24.466  1.00  0.00     0.046 A 
ATOM     28  H   UNL A   1      34.036  22.553  24.700  1.00  0.00     0.086 H 
BRANCH  21  29
ATOM     29  C   UNL A   1      30.852  26.552  23.454  1.00  0.00    -0.016 A 
ATOM     30  C   UNL A   1      29.162  28.685  22.753  1.00  0.00     0.067 A 
ATOM     31  C   UNL A   1      28.665  27.637  23.529  1.00  0.00    -0.043 A 
ATOM     32  C   UNL A   1      30.493  28.688  22.334  1.00  0.00    -0.043 A 
ATOM     33  C   UNL A   1      29.510  26.578  23.874  1.00  0.00    -0.053 A 
ATOM     34  H   UNL A   1      27.682  27.645  23.846  1.00  0.00     0.064 H 
ATOM     35  C   UNL A   1      31.331  27.627  22.686  1.00  0.00    -0.053 A 
ATOM     36  H   UNL A   1      30.857  29.471  21.767  1.00  0.00     0.064 H 
ATOM     37  H   UNL A   1      29.142  25.803  24.448  1.00  0.00     0.063 H 
ATOM     38  H   UNL A   1      32.316  27.633  22.378  1.00  0.00     0.063 H 
BRANCH  30  39
ATOM     39  S   UNL A   1      28.100  30.045  22.325  1.00  0.00     0.175 S 
ATOM     40  O   UNL A   1      26.902  29.931  23.133  1.00  0.00    -0.224 OA
ATOM     41  O   UNL A   1      28.028  30.079  20.876  1.00  0.00    -0.224 OA
BRANCH  39  42
ATOM     42  C   UNL A   1      28.966  31.490  22.876  1.00  0.00     0.043 C 
ATOM     43  H   UNL A   1      28.318  32.339  22.815  1.00  0.00     0.040 H 
ATOM     44  H   UNL A   1      29.824  31.650  22.258  1.00  0.00     0.040 H 
ATOM     45  H   UNL A   1      29.278  31.353  23.891  1.00  0.00     0.040 H 
ENDBRANCH  39  42
ENDBRANCH  30  39
ENDBRANCH  21  29
ENDBRANCH  12  20
ENDBRANCH   8  11
ENDBRANCH   4   7
ENDBRANCH   1   4
BRANCH   1  46
ATOM     46  C   UNL A   1      37.526  29.343  29.986  1.00  0.00    -0.052 C 
ATOM     47  H   UNL A   1      38.226  29.955  29.457  1.00  0.00     0.027 H 
ATOM     48  H   UNL A   1      37.708  28.295  29.876  1.00  0.00     0.027 H 
BRANCH  46  49
ATOM     49  C   UNL A   1      37.667  29.647  31.483  1.00  0.00    -0.052 C 
ATOM     50  H   UNL A   1      38.600  30.152  31.632  1.00  0.00     0.027 H 
ATOM     51  H   UNL A   1      37.608  28.702  31.983  1.00  0.00     0.027 H 
BRANCH  49  52
ATOM     52  C   UNL A   1      36.558  30.515  32.082  1.00  0.00    -0.036 C 
ATOM     53  H   UNL A   1      35.713  29.890  32.277  1.00  0.00     0.028 H 
ATOM     54  H   UNL A   1      36.356  31.285  31.365  1.00  0.00     0.028 H 
BRANCH  52  55
ATOM     55  C   UNL A   1      36.936  31.224  33.380  1.00  0.00     0.018 C 
ATOM     56  H   UNL A   1      37.916  30.911  33.672  1.00  0.00     0.049 H 
ATOM     57  H   UNL A   1      36.210  30.964  34.123  1.00  0.00     0.049 H 
BRANCH  55  58
ATOM     58  N   UNL A   1      36.929  32.670  33.232  1.00  0.00    -0.352 N 
ATOM     59  C   UNL A   1      37.884  33.495  32.695  1.00  0.00     0.251 C 
ATOM     60  H   UNL A   1      36.120  33.123  33.565  1.00  0.00     0.163 HD
ATOM     61  O   UNL A   1      37.800  34.711  32.838  1.00  0.00    -0.269 OA
BRANCH  59  62
ATOM     62  C   UNL A   1      39.028  32.922  31.952  1.00  0.00     0.039 A 
ATOM     63  C   UNL A   1      40.069  32.328  32.671  1.00  0.00    -0.049 A 
ATOM     64  C   UNL A   1      39.093  33.004  30.558  1.00  0.00    -0.049 A 
ATOM     65  C   UNL A   1      41.154  31.773  31.988  1.00  0.00    -0.053 A 
ATOM     66  H   UNL A   1      40.036  32.299  33.702  1.00  0.00     0.063 H 
ATOM     67  C   UNL A   1      40.144  32.398  29.876  1.00  0.00    -0.053 A 
ATOM     68  H   UNL A   1      38.362  33.512  30.036  1.00  0.00     0.063 H 
ATOM     69  C   UNL A   1      41.189  31.784  30.585  1.00  0.00    -0.014 A 
ATOM     70  H   UNL A   1      41.934  31.353  32.519  1.00  0.00     0.063 H 
ATOM     71  H   UNL A   1      40.156  32.401  28.844  1.00  0.00     0.063 H 
BRANCH  69  72
ATOM     72  C   UNL A   1      42.319  31.175  29.841  1.00  0.00     0.031 A 
ATOM     73  C   UNL A   1      42.193  29.785  29.287  1.00  0.00     0.074 A 
ATOM     74  C   UNL A   1      43.477  31.850  29.718  1.00  0.00     0.049 A 
ATOM     75  N   UNL A   1      43.087  29.052  28.672  1.00  0.00    -0.248 NA
ATOM     76  C   UNL A   1      40.895  29.116  29.471  1.00  0.00    -0.034 C 
ATOM     77  C   UNL A   1      43.736  33.188  30.252  1.00  0.00    -0.036 A 
ATOM     78  N   UNL A   1      44.659  31.497  29.115  1.00  0.00    -0.354 N 
ATOM     79  C   UNL A   1      42.469  27.836  28.414  1.00  0.00     0.074 A 
ATOM     80  C   UNL A   1      41.139  27.910  28.977  1.00  0.00    -0.034 C 
ATOM     81  H   UNL A   1      40.023  29.489  29.878  1.00  0.00     0.065 H 
ATOM     82  C   UNL A   1      44.990  33.550  29.937  1.00  0.00    -0.036 A 
ATOM     83  H   UNL A   1      43.063  33.761  30.783  1.00  0.00     0.065 H 
ATOM     84  C   UNL A   1      45.633  32.460  29.209  1.00  0.00     0.049 A 
ATOM     85  H   UNL A   1      44.795  30.636  28.660  1.00  0.00     0.167 HD
ATOM     86  C   UNL A   1      42.959  26.764  27.747  1.00  0.00     0.037 A 
ATOM     87  H   UNL A   1      40.467  27.127  28.994  1.00  0.00     0.065 H 
ATOM     88  H   UNL A   1      45.430  34.454  30.173  1.00  0.00     0.065 H 
ATOM     89  C   UNL A   1      46.902  32.460  28.760  1.00  0.00     0.037 A 
ATOM     90  C   UNL A   1      44.271  26.707  27.158  1.00  0.00     0.049 A 
ATOM     91  C   UNL A   1      47.418  31.261  28.012  1.00  0.00     0.074 A 
ATOM     92  C   UNL A   1      44.838  25.689  26.410  1.00  0.00    -0.036 A 
ATOM     93  N   UNL A   1      45.220  27.714  27.248  1.00  0.00    -0.354 N 
ATOM     94  N   UNL A   1      46.803  30.141  27.721  1.00  0.00    -0.248 NA
ATOM     95  C   UNL A   1      48.802  31.332  27.522  1.00  0.00    -0.034 C 
ATOM     96  C   UNL A   1      46.144  26.067  26.078  1.00  0.00    -0.036 A 
ATOM     97  H   UNL A   1      44.378  24.806  26.144  1.00  0.00     0.065 H 
ATOM     98  C   UNL A   1      46.376  27.336  26.584  1.00  0.00     0.049 A 
ATOM     99  H   UNL A   1      45.092  28.571  27.716  1.00  0.00     0.167 HD
ATOM    100  C   UNL A   1      47.713  29.385  26.995  1.00  0.00     0.074 A 
ATOM    101  C   UNL A   1      48.917  30.179  26.877  1.00  0.00    -0.034 C 
ATOM    102  H   UNL A   1      49.500  32.081  27.648  1.00  0.00     0.065 H 
ATOM    103  H   UNL A   1      46.821  25.496  25.547  1.00  0.00     0.065 H 
ATOM    104  C   UNL A   1      47.562  28.144  26.471  1.00  0.00     0.037 A 
ATOM    105  H   UNL A   1      49.760  29.886  26.359  1.00  0.00     0.065 H 
BRANCH  86 106
ATOM    106  C   UNL A   1      42.068  25.564  27.615  1.00  0.00     0.064 A 
ATOM    107  C   UNL A   1      40.996  25.542  26.710  1.00  0.00     0.173 A 
ATOM    108  C   UNL A   1      42.307  24.411  28.378  1.00  0.00     0.173 A 
ATOM    109  F   UNL A   1      40.718  26.623  25.967  1.00  0.00    -0.203 F 
ATOM    110  C   UNL A   1      40.179  24.420  26.595  1.00  0.00     0.198 A 
ATOM    111  C   UNL A   1      41.505  23.282  28.240  1.00  0.00     0.198 A 
ATOM    112  F   UNL A   1      43.322  24.379  29.255  1.00  0.00    -0.203 F 
ATOM    113  F   UNL A   1      39.131  24.440  25.759  1.00  0.00    -0.200 F 
ATOM    114  C   UNL A   1      40.437  23.290  27.355  1.00  0.00     0.200 A 
ATOM    115  F   UNL A   1      41.763  22.185  28.967  1.00  0.00    -0.200 F 
ATOM    116  F   UNL A   1      39.653  22.208  27.240  1.00  0.00    -0.200 F 
ENDBRANCH  86 106
BRANCH  89 117
ATOM    117  C   UNL A   1      47.764  33.650  28.978  1.00  0.00     0.064 A 
ATOM    118  C   UNL A   1      48.558  33.757  30.128  1.00  0.00     0.173 A 
ATOM    119  C   UNL A   1      47.814  34.698  28.048  1.00  0.00     0.173 A 
ATOM    120  F   UNL A   1      48.527  32.790  31.056  1.00  0.00    -0.203 F 
ATOM    121  C   UNL A   1      49.358  34.877  30.348  1.00  0.00     0.198 A 
ATOM    122  C   UNL A   1      48.632  35.805  28.257  1.00  0.00     0.198 A 
ATOM    123  F   UNL A   1      47.076  34.638  26.930  1.00  0.00    -0.203 F 
ATOM    124  F   UNL A   1      50.078  34.973  31.474  1.00  0.00    -0.200 F 
ATOM    125  C   UNL A   1      49.398  35.897  29.409  1.00  0.00     0.200 A 
ATOM    126  F   UNL A   1      48.678  36.784  27.342  1.00  0.00    -0.200 F 
ATOM    127  F   UNL A   1      50.171  36.972  29.619  1.00  0.00    -0.200 F 
ENDBRANCH  89 117
BRANCH 104 128
ATOM    128  C   UNL A   1      48.717  27.582  25.697  1.00  0.00     0.064 A 
ATOM    129  C   UNL A   1      48.733  27.586  24.295  1.00  0.00     0.173 A 
ATOM    130  C   UNL A   1      49.838  27.069  26.368  1.00  0.00     0.173 A 
ATOM    131  F   UNL A   1      47.678  28.051  23.610  1.00  0.00    -0.203 F 
ATOM    132  C   UNL A   1      49.822  27.078  23.592  1.00  0.00     0.198 A 
ATOM    133  C   UNL A   1      50.935  26.586  25.662  1.00  0.00     0.198 A 
ATOM    134  F   UNL A   1      49.872  27.048  27.709  1.00  0.00    -0.203 F 
ATOM    135  F   UNL A   1      49.799  27.054  22.252  1.00  0.00    -0.200 F 
ATOM    136  C   UNL A   1      50.924  26.585  24.275  1.00  0.00     0.200 A 
ATOM    137  F   UNL A   1      52.004  26.121  26.323  1.00  0.00    -0.200 F 
ATOM    138  F   UNL A   1      51.973  26.102  23.596  1.00  0.00    -0.200 F 
ENDBRANCH 104 128
ENDBRANCH  69  72
ENDBRANCH  59  62
ENDBRANCH  55  58
ENDBRANCH  52  55
ENDBRANCH  49  52
ENDBRANCH  46  49
ENDBRANCH   1  46
TORSDOF 17
ENDMDL
MODEL 10
REMARK VINA RESULT:     -11.3      3.403      8.414
REMARK SMILES CS(=O)(=O)c1ccc(-c2cc(Cl)cnc2-c2ccc(C(=O)NCCCCCCNC(=O)c3ccc(-c4c5nc(c(-c6c(F)c(F)c(F)c(F)c6F)c6ccc([nH]6)c(-c6c(F)c(F)c(F)c(F)c6F)c6nc(c(-c7c(F)c(F)c(F)c(F)c7F)c7ccc4[nH]7)C=C6)C=C5)cc3)nc2)cc1
REMARK SMILES IDX 24 1 23 4 22 7 20 8 21 9 19 11 16 12 17 13 96 14 18 15 95 17
REMARK SMILES IDX 15 20 9 21 10 22 11 23 14 25 12 26 13 27 8 29 5 30 6 31
REMARK SMILES IDX 98 32 7 33 97 35 2 39 3 40 4 41 1 42 25 46 26 49 27 52 28 55
REMARK SMILES IDX 29 58 30 59 31 61 32 62 33 63 94 64 34 65 93 67 35 69 36 72
REMARK SMILES IDX 37 73 87 74 38 75 92 76 86 77 88 78 39 79 91 80 85 82 84 84
REMARK SMILES IDX 40 86 72 89 52 90 71 91 53 92 56 93 70 94 89 95 54 96 55 98
REMARK SMILES IDX 69 100 90 101 57 104 41 106 42 107 50 108 43 109 44 110
REMARK SMILES IDX 48 111 51 112 45 113 46 114 49 115 47 116 73 117 74 118
REMARK SMILES IDX 82 119 75 120 76 121 80 122 83 123 77 124 78 125 81 126
REMARK SMILES IDX 79 127 58 128 59 129 67 130 60 131 61 132 65 133 68 134
REMARK SMILES IDX 62 135 63 136 66 137 64 138
REMARK H PARENT 24 2 24 3 23 5 23 6 22 10 17 16 96 18 18 19 10 24 13 28 6 34
REMARK H PARENT 98 36 7 37 97 38 1 43 1 44 1 45 25 47 25 48 26 50 26 51 27 53
REMARK H PARENT 27 54 28 56 28 57 29 60 33 66 94 68 34 70 93 71 92 81 86 83
REMARK H PARENT 88 85 91 87 85 88 53 97 56 99 89 102 54 103 90 105
REMARK Flexibility Score: inf
ROOT
ATOM      1  C   UNL A   1      32.115  28.755  24.683  1.00  0.00    -0.036 C 
ATOM      2  H   UNL A   1      31.794  28.554  23.683  1.00  0.00     0.028 H 
ATOM      3  H   UNL A   1      33.168  28.934  24.746  1.00  0.00     0.028 H 
ENDROOT
BRANCH   1   4
ATOM      4  C   UNL A   1      31.819  27.522  25.542  1.00  0.00     0.018 C 
ATOM      5  H   UNL A   1      32.743  27.080  25.853  1.00  0.00     0.049 H 
ATOM      6  H   UNL A   1      31.250  27.824  26.397  1.00  0.00     0.049 H 
BRANCH   4   7
ATOM      7  N   UNL A   1      31.055  26.553  24.785  1.00  0.00    -0.351 N 
ATOM      8  C   UNL A   1      31.365  25.314  24.269  1.00  0.00     0.269 C 
ATOM      9  O   UNL A   1      30.460  24.727  23.672  1.00  0.00    -0.268 OA
ATOM     10  H   UNL A   1      30.130  26.836  24.604  1.00  0.00     0.163 HD
BRANCH   8  11
ATOM     11  C   UNL A   1      32.704  24.653  24.444  1.00  0.00     0.128 A 
ATOM     12  C   UNL A   1      35.189  23.555  24.997  1.00  0.00     0.019 A 
ATOM     13  C   UNL A   1      34.810  23.800  23.674  1.00  0.00    -0.049 A 
ATOM     14  C   UNL A   1      34.239  23.818  25.976  1.00  0.00     0.037 A 
ATOM     15  C   UNL A   1      33.546  24.322  23.390  1.00  0.00    -0.030 A 
ATOM     16  H   UNL A   1      35.466  23.594  22.904  1.00  0.00     0.063 H 
ATOM     17  N   UNL A   1      33.033  24.383  25.736  1.00  0.00    -0.250 NA
ATOM     18  H   UNL A   1      34.468  23.565  26.950  1.00  0.00     0.085 H 
ATOM     19  H   UNL A   1      33.243  24.461  22.413  1.00  0.00     0.065 H 
BRANCH  12  20
ATOM     20  C   UNL A   1      36.528  23.074  25.338  1.00  0.00     0.080 A 
ATOM     21  C   UNL A   1      36.847  21.702  25.422  1.00  0.00     0.010 A 
ATOM     22  C   UNL A   1      38.151  21.373  25.831  1.00  0.00    -0.032 A 
ATOM     23  C   UNL A   1      39.068  22.377  26.122  1.00  0.00     0.060 A 
ATOM     24  H   UNL A   1      38.429  20.383  25.914  1.00  0.00     0.065 H 
ATOM     25  N   UNL A   1      37.422  24.064  25.603  1.00  0.00    -0.254 NA
ATOM     26  Cl  UNL A   1      40.656  21.987  26.638  1.00  0.00    -0.083 Cl
ATOM     27  C   UNL A   1      38.666  23.694  25.989  1.00  0.00     0.046 A 
ATOM     28  H   UNL A   1      39.352  24.436  26.195  1.00  0.00     0.086 H 
BRANCH  21  29
ATOM     29  C   UNL A   1      35.886  20.630  25.107  1.00  0.00    -0.016 A 
ATOM     30  C   UNL A   1      34.048  18.591  24.501  1.00  0.00     0.067 A 
ATOM     31  C   UNL A   1      35.417  18.324  24.451  1.00  0.00    -0.043 A 
ATOM     32  C   UNL A   1      33.586  19.857  24.862  1.00  0.00    -0.043 A 
ATOM     33  C   UNL A   1      36.327  19.342  24.753  1.00  0.00    -0.053 A 
ATOM     34  H   UNL A   1      35.754  17.383  24.195  1.00  0.00     0.064 H 
ATOM     35  C   UNL A   1      34.503  20.868  25.164  1.00  0.00    -0.053 A 
ATOM     36  H   UNL A   1      32.572  20.047  24.906  1.00  0.00     0.064 H 
ATOM     37  H   UNL A   1      37.339  19.145  24.715  1.00  0.00     0.063 H 
ATOM     38  H   UNL A   1      34.158  21.803  25.434  1.00  0.00     0.063 H 
BRANCH  30  39
ATOM     39  S   UNL A   1      32.885  17.297  24.138  1.00  0.00     0.175 S 
ATOM     40  O   UNL A   1      32.686  17.282  22.703  1.00  0.00    -0.224 OA
ATOM     41  O   UNL A   1      31.769  17.473  25.050  1.00  0.00    -0.224 OA
BRANCH  39  42
ATOM     42  C   UNL A   1      33.725  15.796  24.565  1.00  0.00     0.043 C 
ATOM     43  H   UNL A   1      34.435  15.556  23.802  1.00  0.00     0.040 H 
ATOM     44  H   UNL A   1      33.014  15.002  24.653  1.00  0.00     0.040 H 
ATOM     45  H   UNL A   1      34.233  15.925  25.498  1.00  0.00     0.040 H 
ENDBRANCH  39  42
ENDBRANCH  30  39
ENDBRANCH  21  29
ENDBRANCH  12  20
ENDBRANCH   8  11
ENDBRANCH   4   7
ENDBRANCH   1   4
BRANCH   1  46
ATOM     46  C   UNL A   1      31.412  30.030  25.171  1.00  0.00    -0.052 C 
ATOM     47  H   UNL A   1      30.357  29.847  25.172  1.00  0.00     0.027 H 
ATOM     48  H   UNL A   1      31.709  30.808  24.501  1.00  0.00     0.027 H 
BRANCH  46  49
ATOM     49  C   UNL A   1      31.813  30.498  26.576  1.00  0.00    -0.052 C 
ATOM     50  H   UNL A   1      32.846  30.256  26.723  1.00  0.00     0.027 H 
ATOM     51  H   UNL A   1      31.155  29.997  27.254  1.00  0.00     0.027 H 
BRANCH  49  52
ATOM     52  C   UNL A   1      31.637  31.996  26.840  1.00  0.00    -0.036 C 
ATOM     53  H   UNL A   1      30.898  32.115  27.604  1.00  0.00     0.028 H 
ATOM     54  H   UNL A   1      31.353  32.437  25.907  1.00  0.00     0.028 H 
BRANCH  52  55
ATOM     55  C   UNL A   1      32.906  32.716  27.288  1.00  0.00     0.018 C 
ATOM     56  H   UNL A   1      33.594  32.745  26.470  1.00  0.00     0.049 H 
ATOM     57  H   UNL A   1      33.316  32.180  28.120  1.00  0.00     0.049 H 
BRANCH  55  58
ATOM     58  N   UNL A   1      32.634  34.077  27.721  1.00  0.00    -0.352 N 
ATOM     59  C   UNL A   1      33.159  34.776  28.779  1.00  0.00     0.251 C 
ATOM     60  H   UNL A   1      31.978  34.569  27.176  1.00  0.00     0.163 HD
ATOM     61  O   UNL A   1      32.663  35.846  29.118  1.00  0.00    -0.269 OA
BRANCH  59  62
ATOM     62  C   UNL A   1      34.317  34.237  29.523  1.00  0.00     0.039 A 
ATOM     63  C   UNL A   1      34.085  33.487  30.680  1.00  0.00    -0.049 A 
ATOM     64  C   UNL A   1      35.625  34.500  29.107  1.00  0.00    -0.049 A 
ATOM     65  C   UNL A   1      35.165  32.960  31.393  1.00  0.00    -0.053 A 
ATOM     66  H   UNL A   1      33.120  33.322  31.005  1.00  0.00     0.063 H 
ATOM     67  C   UNL A   1      36.698  33.926  29.784  1.00  0.00    -0.053 A 
ATOM     68  H   UNL A   1      35.796  35.119  28.299  1.00  0.00     0.063 H 
ATOM     69  C   UNL A   1      36.478  33.158  30.939  1.00  0.00    -0.014 A 
ATOM     70  H   UNL A   1      34.996  32.424  32.259  1.00  0.00     0.063 H 
ATOM     71  H   UNL A   1      37.659  34.066  29.436  1.00  0.00     0.063 H 
BRANCH  69  72
ATOM     72  C   UNL A   1      37.636  32.584  31.666  1.00  0.00     0.031 A 
ATOM     73  C   UNL A   1      38.437  31.471  31.050  1.00  0.00     0.074 A 
ATOM     74  C   UNL A   1      37.929  33.022  32.905  1.00  0.00     0.049 A 
ATOM     75  N   UNL A   1      39.436  30.791  31.553  1.00  0.00    -0.248 NA
ATOM     76  C   UNL A   1      38.046  31.049  29.696  1.00  0.00    -0.034 C 
ATOM     77  C   UNL A   1      37.199  34.064  33.627  1.00  0.00    -0.036 A 
ATOM     78  N   UNL A   1      38.912  32.635  33.782  1.00  0.00    -0.354 N 
ATOM     79  C   UNL A   1      39.778  29.852  30.589  1.00  0.00     0.074 A 
ATOM     80  C   UNL A   1      38.854  30.018  29.490  1.00  0.00    -0.034 C 
ATOM     81  H   UNL A   1      37.330  31.450  29.071  1.00  0.00     0.065 H 
ATOM     82  C   UNL A   1      37.769  34.247  34.828  1.00  0.00    -0.036 A 
ATOM     83  H   UNL A   1      36.378  34.577  33.269  1.00  0.00     0.065 H 
ATOM     84  C   UNL A   1      38.884  33.315  34.974  1.00  0.00     0.049 A 
ATOM     85  H   UNL A   1      39.573  31.937  33.576  1.00  0.00     0.167 HD
ATOM     86  C   UNL A   1      40.787  28.948  30.611  1.00  0.00     0.037 A 
ATOM     87  H   UNL A   1      38.825  29.414  28.654  1.00  0.00     0.065 H 
ATOM     88  H   UNL A   1      37.468  34.936  35.536  1.00  0.00     0.065 H 
ATOM     89  C   UNL A   1      39.667  33.196  36.062  1.00  0.00     0.037 A 
ATOM     90  C   UNL A   1      41.727  28.809  31.693  1.00  0.00     0.049 A 
ATOM     91  C   UNL A   1      40.788  32.194  36.055  1.00  0.00     0.074 A 
ATOM     92  C   UNL A   1      42.820  27.965  31.783  1.00  0.00    -0.036 A 
ATOM     93  N   UNL A   1      41.684  29.536  32.872  1.00  0.00    -0.354 N 
ATOM     94  N   UNL A   1      41.140  31.354  35.113  1.00  0.00    -0.248 NA
ATOM     95  C   UNL A   1      41.626  32.130  37.262  1.00  0.00    -0.034 C 
ATOM     96  C   UNL A   1      43.419  28.158  33.033  1.00  0.00    -0.036 A 
ATOM     97  H   UNL A   1      43.140  27.308  31.055  1.00  0.00     0.065 H 
ATOM     98  C   UNL A   1      42.722  29.149  33.705  1.00  0.00     0.049 A 
ATOM     99  H   UNL A   1      41.014  30.225  33.088  1.00  0.00     0.167 HD
ATOM    100  C   UNL A   1      42.252  30.680  35.600  1.00  0.00     0.074 A 
ATOM    101  C   UNL A   1      42.525  31.219  36.915  1.00  0.00    -0.034 C 
ATOM    102  H   UNL A   1      41.538  32.656  38.145  1.00  0.00     0.065 H 
ATOM    103  H   UNL A   1      44.239  27.646  33.395  1.00  0.00     0.065 H 
ATOM    104  C   UNL A   1      42.983  29.704  35.008  1.00  0.00     0.037 A 
ATOM    105  H   UNL A   1      43.318  30.930  37.510  1.00  0.00     0.065 H 
BRANCH  86 106
ATOM    106  C   UNL A   1      40.930  28.042  29.424  1.00  0.00     0.064 A 
ATOM    107  C   UNL A   1      41.859  28.306  28.406  1.00  0.00     0.173 A 
ATOM    108  C   UNL A   1      40.153  26.879  29.318  1.00  0.00     0.173 A 
ATOM    109  F   UNL A   1      42.617  29.411  28.454  1.00  0.00    -0.203 F 
ATOM    110  C   UNL A   1      41.984  27.454  27.312  1.00  0.00     0.198 A 
ATOM    111  C   UNL A   1      40.300  26.015  28.236  1.00  0.00     0.198 A 
ATOM    112  F   UNL A   1      39.252  26.578  30.267  1.00  0.00    -0.203 F 
ATOM    113  F   UNL A   1      42.844  27.752  26.328  1.00  0.00    -0.200 F 
ATOM    114  C   UNL A   1      41.209  26.306  27.231  1.00  0.00     0.200 A 
ATOM    115  F   UNL A   1      39.559  24.900  28.165  1.00  0.00    -0.200 F 
ATOM    116  F   UNL A   1      41.334  25.484  26.179  1.00  0.00    -0.200 F 
ENDBRANCH  86 106
BRANCH  89 117
ATOM    117  C   UNL A   1      39.437  34.074  37.239  1.00  0.00     0.064 A 
ATOM    118  C   UNL A   1      38.709  33.615  38.344  1.00  0.00     0.173 A 
ATOM    119  C   UNL A   1      39.940  35.382  37.284  1.00  0.00     0.173 A 
ATOM    120  F   UNL A   1      38.191  32.378  38.337  1.00  0.00    -0.203 F 
ATOM    121  C   UNL A   1      38.477  34.436  39.445  1.00  0.00     0.198 A 
ATOM    122  C   UNL A   1      39.728  36.195  38.395  1.00  0.00     0.198 A 
ATOM    123  F   UNL A   1      40.648  35.866  36.253  1.00  0.00    -0.203 F 
ATOM    124  F   UNL A   1      37.743  33.986  40.471  1.00  0.00    -0.200 F 
ATOM    125  C   UNL A   1      38.991  35.724  39.471  1.00  0.00     0.200 A 
ATOM    126  F   UNL A   1      40.237  37.435  38.423  1.00  0.00    -0.200 F 
ATOM    127  F   UNL A   1      38.771  36.512  40.533  1.00  0.00    -0.200 F 
ENDBRANCH  89 117
BRANCH 104 128
ATOM    128  C   UNL A   1      44.165  29.177  35.765  1.00  0.00     0.064 A 
ATOM    129  C   UNL A   1      44.055  28.072  36.620  1.00  0.00     0.173 A 
ATOM    130  C   UNL A   1      45.430  29.762  35.601  1.00  0.00     0.173 A 
ATOM    131  F   UNL A   1      42.865  27.489  36.820  1.00  0.00    -0.203 F 
ATOM    132  C   UNL A   1      45.168  27.582  37.300  1.00  0.00     0.198 A 
ATOM    133  C   UNL A   1      46.544  29.255  36.263  1.00  0.00     0.198 A 
ATOM    134  F   UNL A   1      45.587  30.819  34.790  1.00  0.00    -0.203 F 
ATOM    135  F   UNL A   1      45.033  26.550  38.144  1.00  0.00    -0.200 F 
ATOM    136  C   UNL A   1      46.412  28.169  37.116  1.00  0.00     0.200 A 
ATOM    137  F   UNL A   1      47.746  29.815  36.075  1.00  0.00    -0.200 F 
ATOM    138  F   UNL A   1      47.481  27.693  37.767  1.00  0.00    -0.200 F 
ENDBRANCH 104 128
ENDBRANCH  69  72
ENDBRANCH  59  62
ENDBRANCH  55  58
ENDBRANCH  52  55
ENDBRANCH  49  52
ENDBRANCH  46  49
ENDBRANCH   1  46
TORSDOF 17
ENDMDL
