MODEL 1
REMARK VINA RESULT:     -12.7      0.000      0.000
REMARK SMILES Cc1ccc2c(c1)c(-c1ccnc3c(C)cccc13)c(C)n2CC(=O)NCCCCCCNC(=O)c1ccc(-c2c3nc(c(-c4c(F)c(F)c(F)c(F)c4F)c4ccc([nH]4)c(-c4c(F)c(F)c(F)c(F)c4F)c4nc(c(-c5c(F)c(F)c(F)c(F)c5F)c5ccc2[nH]5)C=C4)C=C3)cc1
REMARK SMILES IDX 29 1 28 4 27 7 26 10 24 11 25 12 23 14 22 17 2 18 3 19 7 20
REMARK SMILES IDX 4 21 6 23 5 25 8 27 20 28 1 29 9 33 10 34 19 35 11 36 13 38
REMARK SMILES IDX 18 39 12 40 14 42 17 43 16 45 15 48 21 52 30 56 31 59 32 62
REMARK SMILES IDX 33 65 34 66 35 68 36 69 37 70 98 71 38 72 97 74 39 76 40 79
REMARK SMILES IDX 41 80 91 81 42 82 96 83 90 84 92 85 43 86 95 87 89 89 88 91
REMARK SMILES IDX 44 93 76 96 56 97 75 98 57 99 60 100 74 101 93 102 58 103
REMARK SMILES IDX 59 105 73 107 94 108 61 111 45 113 46 114 54 115 47 116
REMARK SMILES IDX 48 117 52 118 55 119 49 120 50 121 53 122 51 123 77 124
REMARK SMILES IDX 78 125 86 126 79 127 80 128 84 129 87 130 81 131 82 132
REMARK SMILES IDX 85 133 83 134 62 135 63 136 71 137 64 138 65 139 69 140
REMARK SMILES IDX 72 141 66 142 67 143 70 144 68 145
REMARK H PARENT 29 2 29 3 28 5 28 6 27 8 27 9 26 13 23 15 23 16 3 22 7 24 4 26
REMARK H PARENT 1 30 1 31 1 32 10 37 11 41 18 44 17 46 16 47 15 49 15 50 15 51
REMARK H PARENT 21 53 21 54 21 55 30 57 30 58 31 60 31 61 32 63 32 64 33 67
REMARK H PARENT 37 73 98 75 38 77 97 78 96 88 90 90 92 92 95 94 89 95 57 104
REMARK H PARENT 60 106 93 109 58 110 94 112
REMARK Flexibility Score: inf
ROOT
ATOM      1  C   UNL A   1      41.730  20.980  27.530  1.00  0.00    -0.052 C 
ATOM      2  H   UNL A   1      41.140  21.201  28.395  1.00  0.00     0.027 H 
ATOM      3  H   UNL A   1      42.624  21.565  27.470  1.00  0.00     0.027 H 
ENDROOT
BRANCH   1   4
ATOM      4  C   UNL A   1      40.903  21.322  26.285  1.00  0.00    -0.036 C 
ATOM      5  H   UNL A   1      41.494  21.951  25.652  1.00  0.00     0.028 H 
ATOM      6  H   UNL A   1      40.645  20.394  25.820  1.00  0.00     0.028 H 
BRANCH   4   7
ATOM      7  C   UNL A   1      39.591  22.043  26.586  1.00  0.00     0.017 C 
ATOM      8  H   UNL A   1      38.990  21.424  27.218  1.00  0.00     0.049 H 
ATOM      9  H   UNL A   1      39.819  22.970  27.070  1.00  0.00     0.049 H 
BRANCH   7  10
ATOM     10  N   UNL A   1      38.856  22.331  25.370  1.00  0.00    -0.355 N 
ATOM     11  C   UNL A   1      37.635  21.873  24.966  1.00  0.00     0.239 C 
ATOM     12  O   UNL A   1      37.234  22.223  23.851  1.00  0.00    -0.273 OA
ATOM     13  H   UNL A   1      39.302  22.946  24.745  1.00  0.00     0.163 HD
BRANCH  11  14
ATOM     14  C   UNL A   1      36.766  21.032  25.883  1.00  0.00     0.102 C 
ATOM     15  H   UNL A   1      37.073  20.011  25.793  1.00  0.00     0.060 H 
ATOM     16  H   UNL A   1      36.898  21.418  26.872  1.00  0.00     0.060 H 
BRANCH  14  17
ATOM     17  N   UNL A   1      35.338  21.110  25.589  1.00  0.00    -0.335 N 
ATOM     18  C   UNL A   1      32.786  18.556  23.522  1.00  0.00    -0.050 A 
ATOM     19  C   UNL A   1      34.056  18.059  23.818  1.00  0.00    -0.057 A 
ATOM     20  C   UNL A   1      32.418  19.830  23.981  1.00  0.00    -0.049 A 
ATOM     21  C   UNL A   1      34.978  18.813  24.548  1.00  0.00    -0.037 A 
ATOM     22  H   UNL A   1      34.320  17.117  23.490  1.00  0.00     0.063 H 
ATOM     23  C   UNL A   1      33.336  20.616  24.714  1.00  0.00     0.008 A 
ATOM     24  H   UNL A   1      31.474  20.195  23.780  1.00  0.00     0.063 H 
ATOM     25  C   UNL A   1      34.612  20.107  24.961  1.00  0.00     0.049 A 
ATOM     26  H   UNL A   1      35.908  18.427  24.781  1.00  0.00     0.065 H 
ATOM     27  C   UNL A   1      33.279  21.911  25.305  1.00  0.00     0.011 A 
ATOM     28  C   UNL A   1      34.511  22.176  25.886  1.00  0.00     0.024 A 
BRANCH  18  29
ATOM     29  C   UNL A   1      31.846  17.739  22.685  1.00  0.00    -0.040 C 
ATOM     30  H   UNL A   1      32.290  17.550  21.731  1.00  0.00     0.028 H 
ATOM     31  H   UNL A   1      30.929  18.275  22.553  1.00  0.00     0.028 H 
ATOM     32  H   UNL A   1      31.648  16.809  23.176  1.00  0.00     0.028 H 
ENDBRANCH  18  29
BRANCH  27  33
ATOM     33  C   UNL A   1      32.170  22.860  25.333  1.00  0.00    -0.005 A 
ATOM     34  C   UNL A   1      31.293  22.806  26.412  1.00  0.00    -0.035 A 
ATOM     35  C   UNL A   1      31.990  23.835  24.318  1.00  0.00     0.008 A 
ATOM     36  C   UNL A   1      30.279  23.736  26.460  1.00  0.00     0.028 A 
ATOM     37  H   UNL A   1      31.398  22.092  27.151  1.00  0.00     0.065 H 
ATOM     38  C   UNL A   1      30.927  24.754  24.469  1.00  0.00     0.074 A 
ATOM     39  C   UNL A   1      32.821  23.927  23.178  1.00  0.00    -0.052 A 
ATOM     40  N   UNL A   1      30.092  24.693  25.527  1.00  0.00    -0.256 NA
ATOM     41  H   UNL A   1      29.625  23.700  27.258  1.00  0.00     0.084 H 
ATOM     42  C   UNL A   1      30.759  25.746  23.489  1.00  0.00    -0.025 A 
ATOM     43  C   UNL A   1      32.629  24.899  22.205  1.00  0.00    -0.061 A 
ATOM     44  H   UNL A   1      33.593  23.253  23.066  1.00  0.00     0.063 H 
ATOM     45  C   UNL A   1      31.600  25.810  22.363  1.00  0.00    -0.057 A 
ATOM     46  H   UNL A   1      33.244  24.940  21.377  1.00  0.00     0.062 H 
ATOM     47  H   UNL A   1      31.450  26.541  21.651  1.00  0.00     0.063 H 
BRANCH  42  48
ATOM     48  C   UNL A   1      29.676  26.788  23.599  1.00  0.00    -0.038 C 
ATOM     49  H   UNL A   1      30.052  27.730  23.259  1.00  0.00     0.028 H 
ATOM     50  H   UNL A   1      29.368  26.876  24.621  1.00  0.00     0.028 H 
ATOM     51  H   UNL A   1      28.840  26.498  22.998  1.00  0.00     0.028 H 
ENDBRANCH  42  48
ENDBRANCH  27  33
BRANCH  28  52
ATOM     52  C   UNL A   1      34.949  23.386  26.648  1.00  0.00    -0.024 C 
ATOM     53  H   UNL A   1      35.420  24.077  25.980  1.00  0.00     0.030 H 
ATOM     54  H   UNL A   1      35.644  23.095  27.409  1.00  0.00     0.030 H 
ATOM     55  H   UNL A   1      34.098  23.850  27.100  1.00  0.00     0.030 H 
ENDBRANCH  28  52
ENDBRANCH  14  17
ENDBRANCH  11  14
ENDBRANCH   7  10
ENDBRANCH   4   7
ENDBRANCH   1   4
BRANCH   1  56
ATOM     56  C   UNL A   1      42.175  19.517  27.619  1.00  0.00    -0.052 C 
ATOM     57  H   UNL A   1      41.426  18.974  28.154  1.00  0.00     0.027 H 
ATOM     58  H   UNL A   1      43.127  19.524  28.107  1.00  0.00     0.027 H 
BRANCH  56  59
ATOM     59  C   UNL A   1      42.391  18.823  26.270  1.00  0.00    -0.036 C 
ATOM     60  H   UNL A   1      42.039  19.475  25.499  1.00  0.00     0.028 H 
ATOM     61  H   UNL A   1      41.853  17.899  26.314  1.00  0.00     0.028 H 
BRANCH  59  62
ATOM     62  C   UNL A   1      43.848  18.465  25.967  1.00  0.00     0.018 C 
ATOM     63  H   UNL A   1      43.951  17.401  26.019  1.00  0.00     0.049 H 
ATOM     64  H   UNL A   1      44.450  18.973  26.692  1.00  0.00     0.049 H 
BRANCH  62  65
ATOM     65  N   UNL A   1      44.303  18.903  24.663  1.00  0.00    -0.352 N 
ATOM     66  C   UNL A   1      44.728  20.098  24.139  1.00  0.00     0.251 C 
ATOM     67  H   UNL A   1      44.310  18.175  24.001  1.00  0.00     0.163 HD
ATOM     68  O   UNL A   1      45.170  20.069  22.999  1.00  0.00    -0.269 OA
BRANCH  66  69
ATOM     69  C   UNL A   1      44.618  21.415  24.832  1.00  0.00     0.039 A 
ATOM     70  C   UNL A   1      45.265  21.767  26.013  1.00  0.00    -0.049 A 
ATOM     71  C   UNL A   1      43.733  22.347  24.253  1.00  0.00    -0.049 A 
ATOM     72  C   UNL A   1      44.943  22.950  26.666  1.00  0.00    -0.053 A 
ATOM     73  H   UNL A   1      45.987  21.144  26.407  1.00  0.00     0.063 H 
ATOM     74  C   UNL A   1      43.435  23.554  24.883  1.00  0.00    -0.053 A 
ATOM     75  H   UNL A   1      43.296  22.130  23.343  1.00  0.00     0.063 H 
ATOM     76  C   UNL A   1      44.007  23.831  26.118  1.00  0.00    -0.014 A 
ATOM     77  H   UNL A   1      45.400  23.180  27.563  1.00  0.00     0.063 H 
ATOM     78  H   UNL A   1      42.799  24.233  24.437  1.00  0.00     0.063 H 
BRANCH  76  79
ATOM     79  C   UNL A   1      43.768  25.077  26.842  1.00  0.00     0.031 A 
ATOM     80  C   UNL A   1      44.814  26.119  26.634  1.00  0.00     0.074 A 
ATOM     81  C   UNL A   1      42.690  25.324  27.611  1.00  0.00     0.049 A 
ATOM     82  N   UNL A   1      45.614  26.630  27.513  1.00  0.00    -0.248 NA
ATOM     83  C   UNL A   1      45.075  26.559  25.255  1.00  0.00    -0.034 C 
ATOM     84  C   UNL A   1      41.459  24.541  27.727  1.00  0.00    -0.036 A 
ATOM     85  N   UNL A   1      42.448  26.402  28.414  1.00  0.00    -0.354 N 
ATOM     86  C   UNL A   1      46.388  27.568  26.831  1.00  0.00     0.074 A 
ATOM     87  C   UNL A   1      46.095  27.399  25.433  1.00  0.00    -0.034 C 
ATOM     88  H   UNL A   1      44.597  26.289  24.383  1.00  0.00     0.065 H 
ATOM     89  C   UNL A   1      40.527  25.268  28.384  1.00  0.00    -0.036 A 
ATOM     90  H   UNL A   1      41.324  23.585  27.364  1.00  0.00     0.065 H 
ATOM     91  C   UNL A   1      41.137  26.500  28.858  1.00  0.00     0.049 A 
ATOM     92  H   UNL A   1      43.145  27.054  28.657  1.00  0.00     0.167 HD
ATOM     93  C   UNL A   1      47.075  28.539  27.495  1.00  0.00     0.037 A 
ATOM     94  H   UNL A   1      46.607  27.867  24.667  1.00  0.00     0.065 H 
ATOM     95  H   UNL A   1      39.542  24.994  28.526  1.00  0.00     0.065 H 
ATOM     96  C   UNL A   1      40.588  27.543  29.528  1.00  0.00     0.037 A 
ATOM     97  C   UNL A   1      47.267  28.189  28.876  1.00  0.00     0.049 A 
ATOM     98  C   UNL A   1      41.693  28.299  30.160  1.00  0.00     0.074 A 
ATOM     99  C   UNL A   1      47.966  27.211  29.554  1.00  0.00    -0.036 A 
ATOM    100  N   UNL A   1      46.409  28.744  29.790  1.00  0.00    -0.354 N 
ATOM    101  N   UNL A   1      42.410  27.859  31.155  1.00  0.00    -0.248 NA
ATOM    102  C   UNL A   1      42.247  29.440  29.447  1.00  0.00    -0.034 C 
ATOM    103  C   UNL A   1      47.191  26.933  30.717  1.00  0.00    -0.036 A 
ATOM    104  H   UNL A   1      48.858  26.773  29.277  1.00  0.00     0.065 H 
ATOM    105  C   UNL A   1      46.082  27.781  30.706  1.00  0.00     0.049 A 
ATOM    106  H   UNL A   1      46.085  29.673  29.787  1.00  0.00     0.167 HD
ATOM    107  C   UNL A   1      43.675  28.370  30.924  1.00  0.00     0.074 A 
ATOM    108  C   UNL A   1      43.481  29.439  29.952  1.00  0.00    -0.034 C 
ATOM    109  H   UNL A   1      41.810  30.066  28.753  1.00  0.00     0.065 H 
ATOM    110  H   UNL A   1      47.411  26.231  31.440  1.00  0.00     0.065 H 
ATOM    111  C   UNL A   1      44.784  27.689  31.332  1.00  0.00     0.037 A 
ATOM    112  H   UNL A   1      44.214  30.116  29.686  1.00  0.00     0.065 H 
BRANCH  93 113
ATOM    113  C   UNL A   1      47.244  29.958  26.999  1.00  0.00     0.064 A 
ATOM    114  C   UNL A   1      48.500  30.589  27.133  1.00  0.00     0.173 A 
ATOM    115  C   UNL A   1      46.167  30.818  26.699  1.00  0.00     0.173 A 
ATOM    116  F   UNL A   1      49.597  29.876  27.433  1.00  0.00    -0.203 F 
ATOM    117  C   UNL A   1      48.644  31.977  27.063  1.00  0.00     0.198 A 
ATOM    118  C   UNL A   1      46.323  32.198  26.579  1.00  0.00     0.198 A 
ATOM    119  F   UNL A   1      44.905  30.381  26.620  1.00  0.00    -0.203 F 
ATOM    120  F   UNL A   1      49.831  32.537  27.331  1.00  0.00    -0.200 F 
ATOM    121  C   UNL A   1      47.553  32.782  26.795  1.00  0.00     0.200 A 
ATOM    122  F   UNL A   1      45.250  32.964  26.335  1.00  0.00    -0.200 F 
ATOM    123  F   UNL A   1      47.674  34.116  26.793  1.00  0.00    -0.200 F 
ENDBRANCH  93 113
BRANCH  96 124
ATOM    124  C   UNL A   1      39.217  28.101  29.436  1.00  0.00     0.064 A 
ATOM    125  C   UNL A   1      38.434  28.279  30.591  1.00  0.00     0.173 A 
ATOM    126  C   UNL A   1      38.772  28.758  28.274  1.00  0.00     0.173 A 
ATOM    127  F   UNL A   1      38.805  27.717  31.752  1.00  0.00    -0.203 F 
ATOM    128  C   UNL A   1      37.306  29.105  30.594  1.00  0.00     0.198 A 
ATOM    129  C   UNL A   1      37.640  29.575  28.277  1.00  0.00     0.198 A 
ATOM    130  F   UNL A   1      39.483  28.704  27.138  1.00  0.00    -0.203 F 
ATOM    131  F   UNL A   1      36.634  29.314  31.735  1.00  0.00    -0.200 F 
ATOM    132  C   UNL A   1      36.920  29.765  29.441  1.00  0.00     0.200 A 
ATOM    133  F   UNL A   1      37.297  30.235  27.161  1.00  0.00    -0.200 F 
ATOM    134  F   UNL A   1      35.885  30.616  29.460  1.00  0.00    -0.200 F 
ENDBRANCH  96 124
BRANCH 111 135
ATOM    135  C   UNL A   1      44.596  26.589  32.338  1.00  0.00     0.064 A 
ATOM    136  C   UNL A   1      44.347  25.246  32.004  1.00  0.00     0.173 A 
ATOM    137  C   UNL A   1      44.819  26.889  33.688  1.00  0.00     0.173 A 
ATOM    138  F   UNL A   1      44.215  24.864  30.727  1.00  0.00    -0.203 F 
ATOM    139  C   UNL A   1      44.290  24.260  32.987  1.00  0.00     0.198 A 
ATOM    140  C   UNL A   1      44.802  25.896  34.661  1.00  0.00     0.198 A 
ATOM    141  F   UNL A   1      45.111  28.147  34.058  1.00  0.00    -0.203 F 
ATOM    142  F   UNL A   1      44.045  22.985  32.648  1.00  0.00    -0.200 F 
ATOM    143  C   UNL A   1      44.530  24.583  34.312  1.00  0.00     0.200 A 
ATOM    144  F   UNL A   1      45.084  26.206  35.934  1.00  0.00    -0.200 F 
ATOM    145  F   UNL A   1      44.527  23.626  35.251  1.00  0.00    -0.200 F 
ENDBRANCH 111 135
ENDBRANCH  76  79
ENDBRANCH  66  69
ENDBRANCH  62  65
ENDBRANCH  59  62
ENDBRANCH  56  59
ENDBRANCH   1  56
TORSDOF 18
ENDMDL
MODEL 2
REMARK VINA RESULT:     -12.3      2.906      8.984
REMARK SMILES Cc1ccc2c(c1)c(-c1ccnc3c(C)cccc13)c(C)n2CC(=O)NCCCCCCNC(=O)c1ccc(-c2c3nc(c(-c4c(F)c(F)c(F)c(F)c4F)c4ccc([nH]4)c(-c4c(F)c(F)c(F)c(F)c4F)c4nc(c(-c5c(F)c(F)c(F)c(F)c5F)c5ccc2[nH]5)C=C4)C=C3)cc1
REMARK SMILES IDX 29 1 28 4 27 7 26 10 24 11 25 12 23 14 22 17 2 18 3 19 7 20
REMARK SMILES IDX 4 21 6 23 5 25 8 27 20 28 1 29 9 33 10 34 19 35 11 36 13 38
REMARK SMILES IDX 18 39 12 40 14 42 17 43 16 45 15 48 21 52 30 56 31 59 32 62
REMARK SMILES IDX 33 65 34 66 35 68 36 69 37 70 98 71 38 72 97 74 39 76 40 79
REMARK SMILES IDX 41 80 91 81 42 82 96 83 90 84 92 85 43 86 95 87 89 89 88 91
REMARK SMILES IDX 44 93 76 96 56 97 75 98 57 99 60 100 74 101 93 102 58 103
REMARK SMILES IDX 59 105 73 107 94 108 61 111 45 113 46 114 54 115 47 116
REMARK SMILES IDX 48 117 52 118 55 119 49 120 50 121 53 122 51 123 77 124
REMARK SMILES IDX 78 125 86 126 79 127 80 128 84 129 87 130 81 131 82 132
REMARK SMILES IDX 85 133 83 134 62 135 63 136 71 137 64 138 65 139 69 140
REMARK SMILES IDX 72 141 66 142 67 143 70 144 68 145
REMARK H PARENT 29 2 29 3 28 5 28 6 27 8 27 9 26 13 23 15 23 16 3 22 7 24 4 26
REMARK H PARENT 1 30 1 31 1 32 10 37 11 41 18 44 17 46 16 47 15 49 15 50 15 51
REMARK H PARENT 21 53 21 54 21 55 30 57 30 58 31 60 31 61 32 63 32 64 33 67
REMARK H PARENT 37 73 98 75 38 77 97 78 96 88 90 90 92 92 95 94 89 95 57 104
REMARK H PARENT 60 106 93 109 58 110 94 112
REMARK Flexibility Score: inf
ROOT
ATOM      1  C   UNL A   1      30.870  29.419  24.423  1.00  0.00    -0.052 C 
ATOM      2  H   UNL A   1      29.869  29.097  24.625  1.00  0.00     0.027 H 
ATOM      3  H   UNL A   1      30.981  30.483  24.438  1.00  0.00     0.027 H 
ENDROOT
BRANCH   1   4
ATOM      4  C   UNL A   1      31.243  28.964  23.007  1.00  0.00    -0.036 C 
ATOM      5  H   UNL A   1      30.878  29.693  22.314  1.00  0.00     0.028 H 
ATOM      6  H   UNL A   1      32.308  28.869  22.984  1.00  0.00     0.028 H 
BRANCH   4   7
ATOM      7  C   UNL A   1      30.671  27.604  22.618  1.00  0.00     0.017 C 
ATOM      8  H   UNL A   1      30.589  26.996  23.494  1.00  0.00     0.049 H 
ATOM      9  H   UNL A   1      29.710  27.756  22.171  1.00  0.00     0.049 H 
BRANCH   7  10
ATOM     10  N   UNL A   1      31.520  26.930  21.654  1.00  0.00    -0.355 N 
ATOM     11  C   UNL A   1      32.734  26.331  21.836  1.00  0.00     0.239 C 
ATOM     12  O   UNL A   1      33.295  25.863  20.841  1.00  0.00    -0.273 OA
ATOM     13  H   UNL A   1      31.171  26.902  20.734  1.00  0.00     0.163 HD
BRANCH  11  14
ATOM     14  C   UNL A   1      33.332  26.171  23.222  1.00  0.00     0.102 C 
ATOM     15  H   UNL A   1      34.379  26.385  23.163  1.00  0.00     0.060 H 
ATOM     16  H   UNL A   1      32.808  26.847  23.864  1.00  0.00     0.060 H 
BRANCH  14  17
ATOM     17  N   UNL A   1      33.168  24.837  23.792  1.00  0.00    -0.335 N 
ATOM     18  C   UNL A   1      30.380  23.282  26.460  1.00  0.00    -0.050 A 
ATOM     19  C   UNL A   1      30.104  24.548  25.941  1.00  0.00    -0.057 A 
ATOM     20  C   UNL A   1      31.517  22.587  26.019  1.00  0.00    -0.049 A 
ATOM     21  C   UNL A   1      30.948  25.146  25.001  1.00  0.00    -0.037 A 
ATOM     22  H   UNL A   1      29.261  25.052  26.257  1.00  0.00     0.063 H 
ATOM     23  C   UNL A   1      32.391  23.174  25.077  1.00  0.00     0.008 A 
ATOM     24  H   UNL A   1      31.716  21.643  26.387  1.00  0.00     0.063 H 
ATOM     25  C   UNL A   1      32.108  24.458  24.605  1.00  0.00     0.049 A 
ATOM     26  H   UNL A   1      30.723  26.074  24.606  1.00  0.00     0.065 H 
ATOM     27  C   UNL A   1      33.594  22.749  24.443  1.00  0.00     0.011 A 
ATOM     28  C   UNL A   1      34.030  23.772  23.612  1.00  0.00     0.024 A 
BRANCH  18  29
ATOM     29  C   UNL A   1      29.480  22.699  27.510  1.00  0.00    -0.040 C 
ATOM     30  H   UNL A   1      29.557  23.277  28.406  1.00  0.00     0.028 H 
ATOM     31  H   UNL A   1      29.775  21.690  27.710  1.00  0.00     0.028 H 
ATOM     32  H   UNL A   1      28.469  22.713  27.161  1.00  0.00     0.028 H 
ENDBRANCH  18  29
BRANCH  27  33
ATOM     33  C   UNL A   1      34.312  21.487  24.590  1.00  0.00    -0.005 A 
ATOM     34  C   UNL A   1      35.570  21.519  25.184  1.00  0.00    -0.035 A 
ATOM     35  C   UNL A   1      33.752  20.250  24.177  1.00  0.00     0.008 A 
ATOM     36  C   UNL A   1      36.222  20.321  25.369  1.00  0.00     0.028 A 
ATOM     37  H   UNL A   1      36.001  22.412  25.476  1.00  0.00     0.065 H 
ATOM     38  C   UNL A   1      34.496  19.075  24.425  1.00  0.00     0.074 A 
ATOM     39  C   UNL A   1      32.495  20.146  23.539  1.00  0.00    -0.052 A 
ATOM     40  N   UNL A   1      35.711  19.124  25.011  1.00  0.00    -0.256 NA
ATOM     41  H   UNL A   1      37.157  20.339  25.807  1.00  0.00     0.084 H 
ATOM     42  C   UNL A   1      33.938  17.841  24.053  1.00  0.00    -0.025 A 
ATOM     43  C   UNL A   1      31.966  18.921  23.155  1.00  0.00    -0.061 A 
ATOM     44  H   UNL A   1      31.955  21.005  23.353  1.00  0.00     0.063 H 
ATOM     45  C   UNL A   1      32.686  17.769  23.415  1.00  0.00    -0.057 A 
ATOM     46  H   UNL A   1      31.050  18.871  22.681  1.00  0.00     0.062 H 
ATOM     47  H   UNL A   1      32.302  16.852  23.141  1.00  0.00     0.063 H 
BRANCH  42  48
ATOM     48  C   UNL A   1      34.649  16.540  24.322  1.00  0.00    -0.038 C 
ATOM     49  H   UNL A   1      33.946  15.735  24.279  1.00  0.00     0.028 H 
ATOM     50  H   UNL A   1      35.096  16.572  25.294  1.00  0.00     0.028 H 
ATOM     51  H   UNL A   1      35.409  16.391  23.584  1.00  0.00     0.028 H 
ENDBRANCH  42  48
ENDBRANCH  27  33
BRANCH  28  52
ATOM     52  C   UNL A   1      35.227  23.808  22.717  1.00  0.00    -0.024 C 
ATOM     53  H   UNL A   1      34.973  24.301  21.802  1.00  0.00     0.030 H 
ATOM     54  H   UNL A   1      35.545  22.808  22.507  1.00  0.00     0.030 H 
ATOM     55  H   UNL A   1      36.019  24.340  23.201  1.00  0.00     0.030 H 
ENDBRANCH  28  52
ENDBRANCH  14  17
ENDBRANCH  11  14
ENDBRANCH   7  10
ENDBRANCH   4   7
ENDBRANCH   1   4
BRANCH   1  56
ATOM     56  C   UNL A   1      31.778  28.874  25.530  1.00  0.00    -0.052 C 
ATOM     57  H   UNL A   1      32.711  28.597  25.086  1.00  0.00     0.027 H 
ATOM     58  H   UNL A   1      31.253  28.051  25.968  1.00  0.00     0.027 H 
BRANCH  56  59
ATOM     59  C   UNL A   1      32.067  29.854  26.671  1.00  0.00    -0.036 C 
ATOM     60  H   UNL A   1      31.921  29.340  27.598  1.00  0.00     0.028 H 
ATOM     61  H   UNL A   1      31.397  30.679  26.541  1.00  0.00     0.028 H 
BRANCH  59  62
ATOM     62  C   UNL A   1      33.482  30.436  26.664  1.00  0.00     0.018 C 
ATOM     63  H   UNL A   1      33.638  30.931  25.728  1.00  0.00     0.049 H 
ATOM     64  H   UNL A   1      34.155  29.619  26.814  1.00  0.00     0.049 H 
BRANCH  62  65
ATOM     65  N   UNL A   1      33.733  31.387  27.728  1.00  0.00    -0.352 N 
ATOM     66  C   UNL A   1      34.824  31.715  28.494  1.00  0.00     0.251 C 
ATOM     67  H   UNL A   1      32.938  31.921  27.953  1.00  0.00     0.163 HD
ATOM     68  O   UNL A   1      34.703  32.683  29.231  1.00  0.00    -0.269 OA
BRANCH  66  69
ATOM     69  C   UNL A   1      36.095  30.935  28.536  1.00  0.00     0.039 A 
ATOM     70  C   UNL A   1      36.215  29.566  28.314  1.00  0.00    -0.049 A 
ATOM     71  C   UNL A   1      37.253  31.657  28.889  1.00  0.00    -0.049 A 
ATOM     72  C   UNL A   1      37.417  28.915  28.563  1.00  0.00    -0.053 A 
ATOM     73  H   UNL A   1      35.406  29.031  27.964  1.00  0.00     0.063 H 
ATOM     74  C   UNL A   1      38.472  31.017  29.102  1.00  0.00    -0.053 A 
ATOM     75  H   UNL A   1      37.196  32.683  28.992  1.00  0.00     0.063 H 
ATOM     76  C   UNL A   1      38.539  29.635  28.985  1.00  0.00    -0.014 A 
ATOM     77  H   UNL A   1      37.482  27.893  28.434  1.00  0.00     0.063 H 
ATOM     78  H   UNL A   1      39.315  31.562  29.342  1.00  0.00     0.063 H 
BRANCH  76  79
ATOM     79  C   UNL A   1      39.775  28.880  29.171  1.00  0.00     0.031 A 
ATOM     80  C   UNL A   1      40.180  28.704  30.595  1.00  0.00     0.074 A 
ATOM     81  C   UNL A   1      40.499  28.333  28.175  1.00  0.00     0.049 A 
ATOM     82  N   UNL A   1      41.242  29.153  31.182  1.00  0.00    -0.248 NA
ATOM     83  C   UNL A   1      39.227  28.045  31.501  1.00  0.00    -0.034 C 
ATOM     84  C   UNL A   1      40.134  28.181  26.766  1.00  0.00    -0.036 A 
ATOM     85  N   UNL A   1      41.719  27.724  28.246  1.00  0.00    -0.354 N 
ATOM     86  C   UNL A   1      41.170  28.712  32.502  1.00  0.00     0.074 A 
ATOM     87  C   UNL A   1      39.861  28.138  32.669  1.00  0.00    -0.034 C 
ATOM     88  H   UNL A   1      38.310  27.624  31.288  1.00  0.00     0.065 H 
ATOM     89  C   UNL A   1      41.011  27.344  26.165  1.00  0.00    -0.036 A 
ATOM     90  H   UNL A   1      39.333  28.638  26.304  1.00  0.00     0.065 H 
ATOM     91  C   UNL A   1      42.075  27.022  27.103  1.00  0.00     0.049 A 
ATOM     92  H   UNL A   1      42.297  27.777  29.042  1.00  0.00     0.167 HD
ATOM     93  C   UNL A   1      42.271  28.689  33.304  1.00  0.00     0.037 A 
ATOM     94  H   UNL A   1      39.466  27.837  33.575  1.00  0.00     0.065 H 
ATOM     95  H   UNL A   1      40.938  26.992  25.198  1.00  0.00     0.065 H 
ATOM     96  C   UNL A   1      43.143  26.201  26.960  1.00  0.00     0.037 A 
ATOM     97  C   UNL A   1      43.298  29.561  32.803  1.00  0.00     0.049 A 
ATOM     98  C   UNL A   1      44.133  26.572  27.996  1.00  0.00     0.074 A 
ATOM     99  C   UNL A   1      43.433  30.923  32.631  1.00  0.00    -0.036 A 
ATOM    100  N   UNL A   1      44.315  28.986  32.086  1.00  0.00    -0.354 N 
ATOM    101  N   UNL A   1      44.813  27.684  27.999  1.00  0.00    -0.248 NA
ATOM    102  C   UNL A   1      44.123  25.843  29.255  1.00  0.00    -0.034 C 
ATOM    103  C   UNL A   1      44.252  31.077  31.474  1.00  0.00    -0.036 A 
ATOM    104  H   UNL A   1      43.027  31.672  33.214  1.00  0.00     0.065 H 
ATOM    105  C   UNL A   1      44.602  29.803  31.025  1.00  0.00     0.049 A 
ATOM    106  H   UNL A   1      44.759  28.134  32.296  1.00  0.00     0.167 HD
ATOM    107  C   UNL A   1      44.945  28.006  29.338  1.00  0.00     0.074 A 
ATOM    108  C   UNL A   1      44.631  26.778  30.058  1.00  0.00    -0.034 C 
ATOM    109  H   UNL A   1      43.813  24.881  29.464  1.00  0.00     0.065 H 
ATOM    110  H   UNL A   1      44.537  31.971  31.045  1.00  0.00     0.065 H 
ATOM    111  C   UNL A   1      45.020  29.310  29.733  1.00  0.00     0.037 A 
ATOM    112  H   UNL A   1      44.785  26.649  31.071  1.00  0.00     0.065 H 
BRANCH  93 113
ATOM    113  C   UNL A   1      42.565  27.611  34.323  1.00  0.00     0.064 A 
ATOM    114  C   UNL A   1      43.127  26.390  33.889  1.00  0.00     0.173 A 
ATOM    115  C   UNL A   1      42.035  27.600  35.630  1.00  0.00     0.173 A 
ATOM    116  F   UNL A   1      43.649  26.274  32.659  1.00  0.00    -0.203 F 
ATOM    117  C   UNL A   1      43.076  25.232  34.670  1.00  0.00     0.198 A 
ATOM    118  C   UNL A   1      42.031  26.455  36.426  1.00  0.00     0.198 A 
ATOM    119  F   UNL A   1      41.398  28.655  36.151  1.00  0.00    -0.203 F 
ATOM    120  F   UNL A   1      43.501  24.067  34.162  1.00  0.00    -0.200 F 
ATOM    121  C   UNL A   1      42.519  25.263  35.935  1.00  0.00     0.200 A 
ATOM    122  F   UNL A   1      41.471  26.501  37.643  1.00  0.00    -0.200 F 
ATOM    123  F   UNL A   1      42.408  24.142  36.659  1.00  0.00    -0.200 F 
ENDBRANCH  93 113
BRANCH  96 124
ATOM    124  C   UNL A   1      43.263  24.942  26.186  1.00  0.00     0.064 A 
ATOM    125  C   UNL A   1      44.269  24.788  25.214  1.00  0.00     0.173 A 
ATOM    126  C   UNL A   1      42.609  23.766  26.597  1.00  0.00     0.173 A 
ATOM    127  F   UNL A   1      44.969  25.852  24.792  1.00  0.00    -0.203 F 
ATOM    128  C   UNL A   1      44.632  23.529  24.725  1.00  0.00     0.198 A 
ATOM    129  C   UNL A   1      42.966  22.511  26.100  1.00  0.00     0.198 A 
ATOM    130  F   UNL A   1      41.680  23.797  27.564  1.00  0.00    -0.203 F 
ATOM    131  F   UNL A   1      45.651  23.416  23.862  1.00  0.00    -0.200 F 
ATOM    132  C   UNL A   1      43.991  22.391  25.181  1.00  0.00     0.200 A 
ATOM    133  F   UNL A   1      42.359  21.413  26.575  1.00  0.00    -0.200 F 
ATOM    134  F   UNL A   1      44.387  21.179  24.770  1.00  0.00    -0.200 F 
ENDBRANCH  96 124
BRANCH 111 135
ATOM    135  C   UNL A   1      45.325  30.340  28.684  1.00  0.00     0.064 A 
ATOM    136  C   UNL A   1      44.359  30.928  27.849  1.00  0.00     0.173 A 
ATOM    137  C   UNL A   1      46.629  30.852  28.625  1.00  0.00     0.173 A 
ATOM    138  F   UNL A   1      43.073  30.559  27.913  1.00  0.00    -0.203 F 
ATOM    139  C   UNL A   1      44.698  31.957  26.971  1.00  0.00     0.198 A 
ATOM    140  C   UNL A   1      46.954  31.905  27.777  1.00  0.00     0.198 A 
ATOM    141  F   UNL A   1      47.580  30.362  29.436  1.00  0.00    -0.203 F 
ATOM    142  F   UNL A   1      43.762  32.499  26.177  1.00  0.00    -0.200 F 
ATOM    143  C   UNL A   1      45.991  32.451  26.945  1.00  0.00     0.200 A 
ATOM    144  F   UNL A   1      48.194  32.413  27.792  1.00  0.00    -0.200 F 
ATOM    145  F   UNL A   1      46.304  33.476  26.138  1.00  0.00    -0.200 F 
ENDBRANCH 111 135
ENDBRANCH  76  79
ENDBRANCH  66  69
ENDBRANCH  62  65
ENDBRANCH  59  62
ENDBRANCH  56  59
ENDBRANCH   1  56
TORSDOF 18
ENDMDL
MODEL 3
REMARK VINA RESULT:     -12.1      3.066      4.581
REMARK SMILES Cc1ccc2c(c1)c(-c1ccnc3c(C)cccc13)c(C)n2CC(=O)NCCCCCCNC(=O)c1ccc(-c2c3nc(c(-c4c(F)c(F)c(F)c(F)c4F)c4ccc([nH]4)c(-c4c(F)c(F)c(F)c(F)c4F)c4nc(c(-c5c(F)c(F)c(F)c(F)c5F)c5ccc2[nH]5)C=C4)C=C3)cc1
REMARK SMILES IDX 29 1 28 4 27 7 26 10 24 11 25 12 23 14 22 17 2 18 3 19 7 20
REMARK SMILES IDX 4 21 6 23 5 25 8 27 20 28 1 29 9 33 10 34 19 35 11 36 13 38
REMARK SMILES IDX 18 39 12 40 14 42 17 43 16 45 15 48 21 52 30 56 31 59 32 62
REMARK SMILES IDX 33 65 34 66 35 68 36 69 37 70 98 71 38 72 97 74 39 76 40 79
REMARK SMILES IDX 41 80 91 81 42 82 96 83 90 84 92 85 43 86 95 87 89 89 88 91
REMARK SMILES IDX 44 93 76 96 56 97 75 98 57 99 60 100 74 101 93 102 58 103
REMARK SMILES IDX 59 105 73 107 94 108 61 111 45 113 46 114 54 115 47 116
REMARK SMILES IDX 48 117 52 118 55 119 49 120 50 121 53 122 51 123 77 124
REMARK SMILES IDX 78 125 86 126 79 127 80 128 84 129 87 130 81 131 82 132
REMARK SMILES IDX 85 133 83 134 62 135 63 136 71 137 64 138 65 139 69 140
REMARK SMILES IDX 72 141 66 142 67 143 70 144 68 145
REMARK H PARENT 29 2 29 3 28 5 28 6 27 8 27 9 26 13 23 15 23 16 3 22 7 24 4 26
REMARK H PARENT 1 30 1 31 1 32 10 37 11 41 18 44 17 46 16 47 15 49 15 50 15 51
REMARK H PARENT 21 53 21 54 21 55 30 57 30 58 31 60 31 61 32 63 32 64 33 67
REMARK H PARENT 37 73 98 75 38 77 97 78 96 88 90 90 92 92 95 94 89 95 57 104
REMARK H PARENT 60 106 93 109 58 110 94 112
REMARK Flexibility Score: inf
ROOT
ATOM      1  C   UNL A   1      38.640  24.123  26.345  1.00  0.00    -0.052 C 
ATOM      2  H   UNL A   1      38.824  24.720  27.215  1.00  0.00     0.027 H 
ATOM      3  H   UNL A   1      39.038  24.552  25.450  1.00  0.00     0.027 H 
ENDROOT
BRANCH   1   4
ATOM      4  C   UNL A   1      37.122  24.028  26.142  1.00  0.00    -0.036 C 
ATOM      5  H   UNL A   1      36.739  23.292  26.817  1.00  0.00     0.028 H 
ATOM      6  H   UNL A   1      36.724  25.004  26.325  1.00  0.00     0.028 H 
BRANCH   4   7
ATOM      7  C   UNL A   1      36.706  23.641  24.725  1.00  0.00     0.017 C 
ATOM      8  H   UNL A   1      36.019  24.371  24.352  1.00  0.00     0.049 H 
ATOM      9  H   UNL A   1      37.584  23.601  24.114  1.00  0.00     0.049 H 
BRANCH   7  10
ATOM     10  N   UNL A   1      36.071  22.338  24.699  1.00  0.00    -0.355 N 
ATOM     11  C   UNL A   1      34.905  21.952  24.102  1.00  0.00     0.239 C 
ATOM     12  O   UNL A   1      34.540  20.784  24.265  1.00  0.00    -0.273 OA
ATOM     13  H   UNL A   1      36.551  21.627  25.182  1.00  0.00     0.163 HD
BRANCH  11  14
ATOM     14  C   UNL A   1      34.130  22.899  23.206  1.00  0.00     0.102 C 
ATOM     15  H   UNL A   1      34.830  23.487  22.652  1.00  0.00     0.060 H 
ATOM     16  H   UNL A   1      33.512  22.291  22.577  1.00  0.00     0.060 H 
BRANCH  14  17
ATOM     17  N   UNL A   1      33.237  23.804  23.924  1.00  0.00    -0.335 N 
ATOM     18  C   UNL A   1      30.175  23.099  26.651  1.00  0.00    -0.050 A 
ATOM     19  C   UNL A   1      30.987  22.009  26.333  1.00  0.00    -0.057 A 
ATOM     20  C   UNL A   1      30.463  24.358  26.103  1.00  0.00    -0.049 A 
ATOM     21  C   UNL A   1      32.073  22.142  25.465  1.00  0.00    -0.037 A 
ATOM     22  H   UNL A   1      30.781  21.087  26.747  1.00  0.00     0.063 H 
ATOM     23  C   UNL A   1      31.551  24.517  25.214  1.00  0.00     0.008 A 
ATOM     24  H   UNL A   1      29.877  25.171  26.348  1.00  0.00     0.063 H 
ATOM     25  C   UNL A   1      32.321  23.400  24.886  1.00  0.00     0.049 A 
ATOM     26  H   UNL A   1      32.681  21.335  25.253  1.00  0.00     0.065 H 
ATOM     27  C   UNL A   1      32.096  25.627  24.506  1.00  0.00     0.011 A 
ATOM     28  C   UNL A   1      33.170  25.174  23.753  1.00  0.00     0.024 A 
BRANCH  18  29
ATOM     29  C   UNL A   1      28.984  22.901  27.542  1.00  0.00    -0.040 C 
ATOM     30  H   UNL A   1      28.976  23.656  28.299  1.00  0.00     0.028 H 
ATOM     31  H   UNL A   1      29.038  21.936  28.000  1.00  0.00     0.028 H 
ATOM     32  H   UNL A   1      28.088  22.971  26.959  1.00  0.00     0.028 H 
ENDBRANCH  18  29
BRANCH  27  33
ATOM     33  C   UNL A   1      31.659  27.019  24.504  1.00  0.00    -0.005 A 
ATOM     34  C   UNL A   1      30.702  27.401  23.569  1.00  0.00    -0.035 A 
ATOM     35  C   UNL A   1      32.157  27.964  25.439  1.00  0.00     0.008 A 
ATOM     36  C   UNL A   1      30.255  28.702  23.605  1.00  0.00     0.028 A 
ATOM     37  H   UNL A   1      30.341  26.732  22.870  1.00  0.00     0.065 H 
ATOM     38  C   UNL A   1      31.621  29.271  25.402  1.00  0.00     0.074 A 
ATOM     39  C   UNL A   1      33.151  27.656  26.395  1.00  0.00    -0.052 A 
ATOM     40  N   UNL A   1      30.687  29.622  24.494  1.00  0.00    -0.256 NA
ATOM     41  H   UNL A   1      29.546  28.992  22.912  1.00  0.00     0.084 H 
ATOM     42  C   UNL A   1      32.080  30.207  26.344  1.00  0.00    -0.025 A 
ATOM     43  C   UNL A   1      33.613  28.598  27.305  1.00  0.00    -0.061 A 
ATOM     44  H   UNL A   1      33.546  26.703  26.417  1.00  0.00     0.063 H 
ATOM     45  C   UNL A   1      33.075  29.872  27.281  1.00  0.00    -0.057 A 
ATOM     46  H   UNL A   1      34.347  28.351  27.987  1.00  0.00     0.062 H 
ATOM     47  H   UNL A   1      33.404  30.580  27.955  1.00  0.00     0.063 H 
BRANCH  42  48
ATOM     48  C   UNL A   1      31.529  31.608  26.397  1.00  0.00    -0.038 C 
ATOM     49  H   UNL A   1      31.024  31.757  27.329  1.00  0.00     0.028 H 
ATOM     50  H   UNL A   1      30.839  31.751  25.591  1.00  0.00     0.028 H 
ATOM     51  H   UNL A   1      32.331  32.310  26.310  1.00  0.00     0.028 H 
ENDBRANCH  42  48
ENDBRANCH  27  33
BRANCH  28  52
ATOM     52  C   UNL A   1      34.085  25.949  22.860  1.00  0.00    -0.024 C 
ATOM     53  H   UNL A   1      33.625  26.879  22.599  1.00  0.00     0.030 H 
ATOM     54  H   UNL A   1      34.277  25.385  21.971  1.00  0.00     0.030 H 
ATOM     55  H   UNL A   1      35.006  26.137  23.370  1.00  0.00     0.030 H 
ENDBRANCH  28  52
ENDBRANCH  14  17
ENDBRANCH  11  14
ENDBRANCH   7  10
ENDBRANCH   4   7
ENDBRANCH   1   4
BRANCH   1  56
ATOM     56  C   UNL A   1      39.345  22.777  26.532  1.00  0.00    -0.052 C 
ATOM     57  H   UNL A   1      39.882  22.557  25.633  1.00  0.00     0.027 H 
ATOM     58  H   UNL A   1      38.578  22.066  26.755  1.00  0.00     0.027 H 
BRANCH  56  59
ATOM     59  C   UNL A   1      40.333  22.721  27.701  1.00  0.00    -0.036 C 
ATOM     60  H   UNL A   1      39.837  22.276  28.537  1.00  0.00     0.028 H 
ATOM     61  H   UNL A   1      40.642  23.729  27.887  1.00  0.00     0.028 H 
BRANCH  59  62
ATOM     62  C   UNL A   1      41.607  21.921  27.418  1.00  0.00     0.018 C 
ATOM     63  H   UNL A   1      41.345  20.887  27.343  1.00  0.00     0.049 H 
ATOM     64  H   UNL A   1      42.282  22.117  28.224  1.00  0.00     0.049 H 
BRANCH  62  65
ATOM     65  N   UNL A   1      42.286  22.308  26.198  1.00  0.00    -0.352 N 
ATOM     66  C   UNL A   1      42.826  23.476  25.721  1.00  0.00     0.251 C 
ATOM     67  H   UNL A   1      42.384  21.560  25.566  1.00  0.00     0.163 HD
ATOM     68  O   UNL A   1      43.452  23.402  24.673  1.00  0.00    -0.269 OA
BRANCH  66  69
ATOM     69  C   UNL A   1      42.638  24.816  26.350  1.00  0.00     0.039 A 
ATOM     70  C   UNL A   1      43.162  25.218  27.575  1.00  0.00    -0.049 A 
ATOM     71  C   UNL A   1      41.808  25.716  25.652  1.00  0.00    -0.049 A 
ATOM     72  C   UNL A   1      42.768  26.421  28.149  1.00  0.00    -0.053 A 
ATOM     73  H   UNL A   1      43.846  24.619  28.061  1.00  0.00     0.063 H 
ATOM     74  C   UNL A   1      41.440  26.942  26.204  1.00  0.00    -0.053 A 
ATOM     75  H   UNL A   1      41.465  25.461  24.712  1.00  0.00     0.063 H 
ATOM     76  C   UNL A   1      41.884  27.271  27.478  1.00  0.00    -0.014 A 
ATOM     77  H   UNL A   1      43.132  26.688  29.077  1.00  0.00     0.063 H 
ATOM     78  H   UNL A   1      40.846  27.598  25.672  1.00  0.00     0.063 H 
BRANCH  76  79
ATOM     79  C   UNL A   1      41.566  28.539  28.128  1.00  0.00     0.031 A 
ATOM     80  C   UNL A   1      42.598  29.599  27.947  1.00  0.00     0.074 A 
ATOM     81  C   UNL A   1      40.430  28.790  28.808  1.00  0.00     0.049 A 
ATOM     82  N   UNL A   1      43.322  30.169  28.855  1.00  0.00    -0.248 NA
ATOM     83  C   UNL A   1      42.945  29.987  26.571  1.00  0.00    -0.034 C 
ATOM     84  C   UNL A   1      39.213  27.979  28.873  1.00  0.00    -0.036 A 
ATOM     85  N   UNL A   1      40.107  29.894  29.544  1.00  0.00    -0.354 N 
ATOM     86  C   UNL A   1      44.120  31.097  28.188  1.00  0.00     0.074 A 
ATOM     87  C   UNL A   1      43.930  30.861  26.781  1.00  0.00    -0.034 C 
ATOM     88  H   UNL A   1      42.536  29.667  25.680  1.00  0.00     0.065 H 
ATOM     89  C   UNL A   1      38.220  28.709  29.432  1.00  0.00    -0.036 A 
ATOM     90  H   UNL A   1      39.126  27.006  28.545  1.00  0.00     0.065 H 
ATOM     91  C   UNL A   1      38.766  29.976  29.892  1.00  0.00     0.049 A 
ATOM     92  H   UNL A   1      40.769  30.574  29.806  1.00  0.00     0.167 HD
ATOM     93  C   UNL A   1      44.734  32.113  28.854  1.00  0.00     0.037 A 
ATOM     94  H   UNL A   1      44.483  31.310  26.034  1.00  0.00     0.065 H 
ATOM     95  H   UNL A   1      37.234  28.415  29.517  1.00  0.00     0.065 H 
ATOM     96  C   UNL A   1      38.146  31.031  30.474  1.00  0.00     0.037 A 
ATOM     97  C   UNL A   1      44.838  31.828  30.260  1.00  0.00     0.049 A 
ATOM     98  C   UNL A   1      39.186  31.842  31.147  1.00  0.00     0.074 A 
ATOM     99  C   UNL A   1      45.509  30.899  31.027  1.00  0.00    -0.036 A 
ATOM    100  N   UNL A   1      43.904  32.398  31.086  1.00  0.00    -0.354 N 
ATOM    101  N   UNL A   1      39.841  31.465  32.208  1.00  0.00    -0.248 NA
ATOM    102  C   UNL A   1      39.761  32.967  30.425  1.00  0.00    -0.034 C 
ATOM    103  C   UNL A   1      44.661  30.650  32.145  1.00  0.00    -0.036 A 
ATOM    104  H   UNL A   1      46.430  30.473  30.832  1.00  0.00     0.065 H 
ATOM    105  C   UNL A   1      43.536  31.466  32.019  1.00  0.00     0.049 A 
ATOM    106  H   UNL A   1      43.559  33.317  31.019  1.00  0.00     0.167 HD
ATOM    107  C   UNL A   1      41.107  31.999  32.043  1.00  0.00     0.074 A 
ATOM    108  C   UNL A   1      40.956  33.021  31.014  1.00  0.00    -0.034 C 
ATOM    109  H   UNL A   1      39.359  33.551  29.675  1.00  0.00     0.065 H 
ATOM    110  H   UNL A   1      44.846  29.985  32.912  1.00  0.00     0.065 H 
ATOM    111  C   UNL A   1      42.200  31.366  32.557  1.00  0.00     0.037 A 
ATOM    112  H   UNL A   1      41.690  33.705  30.770  1.00  0.00     0.065 H 
BRANCH  93 113
ATOM    113  C   UNL A   1      44.904  33.514  28.309  1.00  0.00     0.064 A 
ATOM    114  C   UNL A   1      46.207  34.024  28.115  1.00  0.00     0.173 A 
ATOM    115  C   UNL A   1      43.870  34.473  28.273  1.00  0.00     0.173 A 
ATOM    116  F   UNL A   1      47.273  33.210  28.143  1.00  0.00    -0.203 F 
ATOM    117  C   UNL A   1      46.456  35.393  27.989  1.00  0.00     0.198 A 
ATOM    118  C   UNL A   1      44.118  35.833  28.095  1.00  0.00     0.198 A 
ATOM    119  F   UNL A   1      42.594  34.156  28.519  1.00  0.00    -0.203 F 
ATOM    120  F   UNL A   1      47.719  35.839  27.942  1.00  0.00    -0.200 F 
ATOM    121  C   UNL A   1      45.411  36.299  27.988  1.00  0.00     0.200 A 
ATOM    122  F   UNL A   1      43.093  36.697  28.115  1.00  0.00    -0.200 F 
ATOM    123  F   UNL A   1      45.650  37.615  27.935  1.00  0.00    -0.200 F 
ENDBRANCH  93 113
BRANCH  96 124
ATOM    124  C   UNL A   1      36.773  31.548  30.263  1.00  0.00     0.064 A 
ATOM    125  C   UNL A   1      35.970  31.926  31.355  1.00  0.00     0.173 A 
ATOM    126  C   UNL A   1      36.340  31.975  28.994  1.00  0.00     0.173 A 
ATOM    127  F   UNL A   1      36.328  31.591  32.604  1.00  0.00    -0.203 F 
ATOM    128  C   UNL A   1      34.835  32.726  31.191  1.00  0.00     0.198 A 
ATOM    129  C   UNL A   1      35.201  32.767  28.832  1.00  0.00     0.198 A 
ATOM    130  F   UNL A   1      37.068  31.722  27.897  1.00  0.00    -0.203 F 
ATOM    131  F   UNL A   1      34.145  33.134  32.265  1.00  0.00    -0.200 F 
ATOM    132  C   UNL A   1      34.462  33.159  29.931  1.00  0.00     0.200 A 
ATOM    133  F   UNL A   1      34.869  33.207  27.609  1.00  0.00    -0.200 F 
ATOM    134  F   UNL A   1      33.419  33.987  29.780  1.00  0.00    -0.200 F 
ENDBRANCH  96 124
BRANCH 111 135
ATOM    135  C   UNL A   1      41.968  30.306  33.595  1.00  0.00     0.064 A 
ATOM    136  C   UNL A   1      41.635  28.971  33.302  1.00  0.00     0.173 A 
ATOM    137  C   UNL A   1      42.233  30.627  34.933  1.00  0.00     0.173 A 
ATOM    138  F   UNL A   1      41.458  28.565  32.038  1.00  0.00    -0.203 F 
ATOM    139  C   UNL A   1      41.541  28.015  34.312  1.00  0.00     0.198 A 
ATOM    140  C   UNL A   1      42.177  29.662  35.933  1.00  0.00     0.198 A 
ATOM    141  F   UNL A   1      42.604  31.875  35.264  1.00  0.00    -0.203 F 
ATOM    142  F   UNL A   1      41.216  26.749  34.012  1.00  0.00    -0.200 F 
ATOM    143  C   UNL A   1      41.823  28.359  35.624  1.00  0.00     0.200 A 
ATOM    144  F   UNL A   1      42.500  29.988  37.192  1.00  0.00    -0.200 F 
ATOM    145  F   UNL A   1      41.783  27.428  36.588  1.00  0.00    -0.200 F 
ENDBRANCH 111 135
ENDBRANCH  76  79
ENDBRANCH  66  69
ENDBRANCH  62  65
ENDBRANCH  59  62
ENDBRANCH  56  59
ENDBRANCH   1  56
TORSDOF 18
ENDMDL
MODEL 4
REMARK VINA RESULT:     -12.0      3.168      8.832
REMARK SMILES Cc1ccc2c(c1)c(-c1ccnc3c(C)cccc13)c(C)n2CC(=O)NCCCCCCNC(=O)c1ccc(-c2c3nc(c(-c4c(F)c(F)c(F)c(F)c4F)c4ccc([nH]4)c(-c4c(F)c(F)c(F)c(F)c4F)c4nc(c(-c5c(F)c(F)c(F)c(F)c5F)c5ccc2[nH]5)C=C4)C=C3)cc1
REMARK SMILES IDX 29 1 28 4 27 7 26 10 24 11 25 12 23 14 22 17 2 18 3 19 7 20
REMARK SMILES IDX 4 21 6 23 5 25 8 27 20 28 1 29 9 33 10 34 19 35 11 36 13 38
REMARK SMILES IDX 18 39 12 40 14 42 17 43 16 45 15 48 21 52 30 56 31 59 32 62
REMARK SMILES IDX 33 65 34 66 35 68 36 69 37 70 98 71 38 72 97 74 39 76 40 79
REMARK SMILES IDX 41 80 91 81 42 82 96 83 90 84 92 85 43 86 95 87 89 89 88 91
REMARK SMILES IDX 44 93 76 96 56 97 75 98 57 99 60 100 74 101 93 102 58 103
REMARK SMILES IDX 59 105 73 107 94 108 61 111 45 113 46 114 54 115 47 116
REMARK SMILES IDX 48 117 52 118 55 119 49 120 50 121 53 122 51 123 77 124
REMARK SMILES IDX 78 125 86 126 79 127 80 128 84 129 87 130 81 131 82 132
REMARK SMILES IDX 85 133 83 134 62 135 63 136 71 137 64 138 65 139 69 140
REMARK SMILES IDX 72 141 66 142 67 143 70 144 68 145
REMARK H PARENT 29 2 29 3 28 5 28 6 27 8 27 9 26 13 23 15 23 16 3 22 7 24 4 26
REMARK H PARENT 1 30 1 31 1 32 10 37 11 41 18 44 17 46 16 47 15 49 15 50 15 51
REMARK H PARENT 21 53 21 54 21 55 30 57 30 58 31 60 31 61 32 63 32 64 33 67
REMARK H PARENT 37 73 98 75 38 77 97 78 96 88 90 90 92 92 95 94 89 95 57 104
REMARK H PARENT 60 106 93 109 58 110 94 112
REMARK Flexibility Score: inf
ROOT
ATOM      1  C   UNL A   1      35.256  29.732  27.976  1.00  0.00    -0.052 C 
ATOM      2  H   UNL A   1      35.827  29.112  28.635  1.00  0.00     0.027 H 
ATOM      3  H   UNL A   1      34.349  30.090  28.416  1.00  0.00     0.027 H 
ENDROOT
BRANCH   1   4
ATOM      4  C   UNL A   1      34.845  28.889  26.762  1.00  0.00    -0.036 C 
ATOM      5  H   UNL A   1      34.787  29.533  25.910  1.00  0.00     0.028 H 
ATOM      6  H   UNL A   1      35.586  28.124  26.652  1.00  0.00     0.028 H 
BRANCH   4   7
ATOM      7  C   UNL A   1      33.502  28.181  26.920  1.00  0.00     0.017 C 
ATOM      8  H   UNL A   1      33.608  27.160  26.618  1.00  0.00     0.049 H 
ATOM      9  H   UNL A   1      33.207  28.243  27.947  1.00  0.00     0.049 H 
BRANCH   7  10
ATOM     10  N   UNL A   1      32.476  28.809  26.111  1.00  0.00    -0.355 N 
ATOM     11  C   UNL A   1      31.380  28.253  25.515  1.00  0.00     0.239 C 
ATOM     12  O   UNL A   1      30.670  28.991  24.824  1.00  0.00    -0.273 OA
ATOM     13  H   UNL A   1      32.586  29.777  25.969  1.00  0.00     0.163 HD
BRANCH  11  14
ATOM     14  C   UNL A   1      31.001  26.805  25.759  1.00  0.00     0.102 C 
ATOM     15  H   UNL A   1      31.143  26.590  26.798  1.00  0.00     0.060 H 
ATOM     16  H   UNL A   1      29.982  26.696  25.451  1.00  0.00     0.060 H 
BRANCH  14  17
ATOM     17  N   UNL A   1      31.779  25.845  24.982  1.00  0.00    -0.335 N 
ATOM     18  C   UNL A   1      32.476  25.499  20.895  1.00  0.00    -0.050 A 
ATOM     19  C   UNL A   1      31.870  26.680  21.323  1.00  0.00    -0.057 A 
ATOM     20  C   UNL A   1      32.870  24.541  21.842  1.00  0.00    -0.049 A 
ATOM     21  C   UNL A   1      31.631  26.923  22.679  1.00  0.00    -0.037 A 
ATOM     22  H   UNL A   1      31.592  27.388  20.626  1.00  0.00     0.063 H 
ATOM     23  C   UNL A   1      32.632  24.759  23.218  1.00  0.00     0.008 A 
ATOM     24  H   UNL A   1      33.335  23.673  21.532  1.00  0.00     0.063 H 
ATOM     25  C   UNL A   1      31.989  25.934  23.612  1.00  0.00     0.049 A 
ATOM     26  H   UNL A   1      31.202  27.810  22.988  1.00  0.00     0.065 H 
ATOM     27  C   UNL A   1      32.901  24.010  24.400  1.00  0.00     0.011 A 
ATOM     28  C   UNL A   1      32.411  24.723  25.485  1.00  0.00     0.024 A 
BRANCH  18  29
ATOM     29  C   UNL A   1      32.662  25.250  19.426  1.00  0.00    -0.040 C 
ATOM     30  H   UNL A   1      32.147  24.355  19.148  1.00  0.00     0.028 H 
ATOM     31  H   UNL A   1      33.705  25.144  19.212  1.00  0.00     0.028 H 
ATOM     32  H   UNL A   1      32.266  26.076  18.872  1.00  0.00     0.028 H 
ENDBRANCH  18  29
BRANCH  27  33
ATOM     33  C   UNL A   1      33.556  22.713  24.535  1.00  0.00    -0.005 A 
ATOM     34  C   UNL A   1      32.772  21.570  24.412  1.00  0.00    -0.035 A 
ATOM     35  C   UNL A   1      34.953  22.596  24.755  1.00  0.00     0.008 A 
ATOM     36  C   UNL A   1      33.402  20.349  24.488  1.00  0.00     0.028 A 
ATOM     37  H   UNL A   1      31.750  21.635  24.269  1.00  0.00     0.065 H 
ATOM     38  C   UNL A   1      35.505  21.297  24.803  1.00  0.00     0.074 A 
ATOM     39  C   UNL A   1      35.805  23.711  24.922  1.00  0.00    -0.052 A 
ATOM     40  N   UNL A   1      34.731  20.199  24.672  1.00  0.00    -0.256 NA
ATOM     41  H   UNL A   1      32.825  19.498  24.399  1.00  0.00     0.084 H 
ATOM     42  C   UNL A   1      36.892  21.167  24.985  1.00  0.00    -0.025 A 
ATOM     43  C   UNL A   1      37.171  23.568  25.125  1.00  0.00    -0.061 A 
ATOM     44  H   UNL A   1      35.400  24.659  24.892  1.00  0.00     0.063 H 
ATOM     45  C   UNL A   1      37.715  22.296  25.153  1.00  0.00    -0.057 A 
ATOM     46  H   UNL A   1      37.772  24.398  25.254  1.00  0.00     0.062 H 
ATOM     47  H   UNL A   1      38.729  22.176  25.297  1.00  0.00     0.063 H 
BRANCH  42  48
ATOM     48  C   UNL A   1      37.563  19.818  25.005  1.00  0.00    -0.038 C 
ATOM     49  H   UNL A   1      37.209  19.232  24.183  1.00  0.00     0.028 H 
ATOM     50  H   UNL A   1      37.333  19.319  25.923  1.00  0.00     0.028 H 
ATOM     51  H   UNL A   1      38.622  19.946  24.923  1.00  0.00     0.028 H 
ENDBRANCH  42  48
ENDBRANCH  27  33
BRANCH  28  52
ATOM     52  C   UNL A   1      32.466  24.377  26.938  1.00  0.00    -0.024 C 
ATOM     53  H   UNL A   1      31.582  23.840  27.211  1.00  0.00     0.030 H 
ATOM     54  H   UNL A   1      32.529  25.276  27.516  1.00  0.00     0.030 H 
ATOM     55  H   UNL A   1      33.326  23.770  27.128  1.00  0.00     0.030 H 
ENDBRANCH  28  52
ENDBRANCH  14  17
ENDBRANCH  11  14
ENDBRANCH   7  10
ENDBRANCH   4   7
ENDBRANCH   1   4
BRANCH   1  56
ATOM     56  C   UNL A   1      36.093  30.970  27.640  1.00  0.00    -0.052 C 
ATOM     57  H   UNL A   1      36.124  31.070  26.576  1.00  0.00     0.027 H 
ATOM     58  H   UNL A   1      37.054  30.809  28.082  1.00  0.00     0.027 H 
BRANCH  56  59
ATOM     59  C   UNL A   1      35.568  32.284  28.226  1.00  0.00    -0.036 C 
ATOM     60  H   UNL A   1      35.313  32.933  27.415  1.00  0.00     0.028 H 
ATOM     61  H   UNL A   1      36.349  32.675  28.845  1.00  0.00     0.028 H 
BRANCH  59  62
ATOM     62  C   UNL A   1      34.337  32.132  29.122  1.00  0.00     0.018 C 
ATOM     63  H   UNL A   1      33.970  31.131  29.023  1.00  0.00     0.049 H 
ATOM     64  H   UNL A   1      33.626  32.864  28.801  1.00  0.00     0.049 H 
BRANCH  62  65
ATOM     65  N   UNL A   1      34.595  32.385  30.525  1.00  0.00    -0.352 N 
ATOM     66  C   UNL A   1      35.608  32.067  31.394  1.00  0.00     0.251 C 
ATOM     67  H   UNL A   1      33.878  32.907  30.953  1.00  0.00     0.163 HD
ATOM     68  O   UNL A   1      35.552  32.571  32.507  1.00  0.00    -0.269 OA
BRANCH  66  69
ATOM     69  C   UNL A   1      36.710  31.107  31.097  1.00  0.00     0.039 A 
ATOM     70  C   UNL A   1      36.610  29.719  31.135  1.00  0.00    -0.049 A 
ATOM     71  C   UNL A   1      37.967  31.676  30.809  1.00  0.00    -0.049 A 
ATOM     72  C   UNL A   1      37.746  28.928  31.023  1.00  0.00    -0.053 A 
ATOM     73  H   UNL A   1      35.685  29.276  31.249  1.00  0.00     0.063 H 
ATOM     74  C   UNL A   1      39.105  30.886  30.656  1.00  0.00    -0.053 A 
ATOM     75  H   UNL A   1      38.046  32.701  30.711  1.00  0.00     0.063 H 
ATOM     76  C   UNL A   1      38.999  29.511  30.812  1.00  0.00    -0.014 A 
ATOM     77  H   UNL A   1      37.663  27.901  31.094  1.00  0.00     0.063 H 
ATOM     78  H   UNL A   1      40.014  31.318  30.428  1.00  0.00     0.063 H 
BRANCH  76  79
ATOM     79  C   UNL A   1      40.131  28.603  30.652  1.00  0.00     0.031 A 
ATOM     80  C   UNL A   1      40.908  28.361  31.901  1.00  0.00     0.074 A 
ATOM     81  C   UNL A   1      40.459  27.979  29.503  1.00  0.00     0.049 A 
ATOM     82  N   UNL A   1      42.142  28.665  32.142  1.00  0.00    -0.248 NA
ATOM     83  C   UNL A   1      40.184  27.819  33.062  1.00  0.00    -0.034 C 
ATOM     84  C   UNL A   1      39.683  27.890  28.265  1.00  0.00    -0.036 A 
ATOM     85  N   UNL A   1      41.560  27.218  29.234  1.00  0.00    -0.354 N 
ATOM     86  C   UNL A   1      42.403  28.222  33.438  1.00  0.00     0.074 A 
ATOM     87  C   UNL A   1      41.138  27.817  33.993  1.00  0.00    -0.034 C 
ATOM     88  H   UNL A   1      39.200  27.521  33.135  1.00  0.00     0.065 H 
ATOM     89  C   UNL A   1      40.236  26.955  27.459  1.00  0.00    -0.036 A 
ATOM     90  H   UNL A   1      38.847  28.451  28.044  1.00  0.00     0.065 H 
ATOM     91  C   UNL A   1      41.478  26.490  28.056  1.00  0.00     0.049 A 
ATOM     92  H   UNL A   1      42.347  27.189  29.826  1.00  0.00     0.167 HD
ATOM     93  C   UNL A   1      43.677  28.050  33.887  1.00  0.00     0.037 A 
ATOM     94  H   UNL A   1      40.989  27.560  34.982  1.00  0.00     0.065 H 
ATOM     95  H   UNL A   1      39.841  26.626  26.564  1.00  0.00     0.065 H 
ATOM     96  C   UNL A   1      42.346  25.540  27.631  1.00  0.00     0.037 A 
ATOM     97  C   UNL A   1      44.615  28.789  33.086  1.00  0.00     0.049 A 
ATOM     98  C   UNL A   1      43.633  25.771  28.326  1.00  0.00     0.074 A 
ATOM     99  C   UNL A   1      44.863  30.125  32.846  1.00  0.00    -0.036 A 
ATOM    100  N   UNL A   1      45.298  28.097  32.120  1.00  0.00    -0.354 N 
ATOM    101  N   UNL A   1      44.419  26.787  28.101  1.00  0.00    -0.248 NA
ATOM    102  C   UNL A   1      43.899  25.035  29.552  1.00  0.00    -0.034 C 
ATOM    103  C   UNL A   1      45.323  30.185  31.498  1.00  0.00    -0.036 A 
ATOM    104  H   UNL A   1      44.741  30.913  33.501  1.00  0.00     0.065 H 
ATOM    105  C   UNL A   1      45.365  28.882  31.001  1.00  0.00     0.049 A 
ATOM    106  H   UNL A   1      45.674  27.193  32.215  1.00  0.00     0.167 HD
ATOM    107  C   UNL A   1      44.974  27.076  29.336  1.00  0.00     0.074 A 
ATOM    108  C   UNL A   1      44.732  25.889  30.148  1.00  0.00    -0.034 C 
ATOM    109  H   UNL A   1      43.546  24.118  29.867  1.00  0.00     0.065 H 
ATOM    110  H   UNL A   1      45.579  31.041  30.981  1.00  0.00     0.065 H 
ATOM    111  C   UNL A   1      45.323  28.354  29.657  1.00  0.00     0.037 A 
ATOM    112  H   UNL A   1      45.156  25.730  31.075  1.00  0.00     0.065 H 
BRANCH  93 113
ATOM    113  C   UNL A   1      44.118  26.932  34.804  1.00  0.00     0.064 A 
ATOM    114  C   UNL A   1      44.745  27.252  36.029  1.00  0.00     0.173 A 
ATOM    115  C   UNL A   1      44.240  25.586  34.399  1.00  0.00     0.173 A 
ATOM    116  F   UNL A   1      44.709  28.503  36.510  1.00  0.00    -0.203 F 
ATOM    117  C   UNL A   1      45.508  26.320  36.737  1.00  0.00     0.198 A 
ATOM    118  C   UNL A   1      44.960  24.646  35.135  1.00  0.00     0.198 A 
ATOM    119  F   UNL A   1      43.769  25.148  33.225  1.00  0.00    -0.203 F 
ATOM    120  F   UNL A   1      46.193  26.707  37.821  1.00  0.00    -0.200 F 
ATOM    121  C   UNL A   1      45.623  25.019  36.284  1.00  0.00     0.200 A 
ATOM    122  F   UNL A   1      45.074  23.393  34.670  1.00  0.00    -0.200 F 
ATOM    123  F   UNL A   1      46.406  24.141  36.923  1.00  0.00    -0.200 F 
ENDBRANCH  93 113
BRANCH  96 124
ATOM    124  C   UNL A   1      42.078  24.285  26.890  1.00  0.00     0.064 A 
ATOM    125  C   UNL A   1      43.004  23.790  25.953  1.00  0.00     0.173 A 
ATOM    126  C   UNL A   1      41.074  23.391  27.305  1.00  0.00     0.173 A 
ATOM    127  F   UNL A   1      44.015  24.563  25.529  1.00  0.00    -0.203 F 
ATOM    128  C   UNL A   1      42.959  22.466  25.504  1.00  0.00     0.198 A 
ATOM    129  C   UNL A   1      41.025  22.073  26.848  1.00  0.00     0.198 A 
ATOM    130  F   UNL A   1      40.182  23.745  28.242  1.00  0.00    -0.203 F 
ATOM    131  F   UNL A   1      43.909  22.010  24.676  1.00  0.00    -0.200 F 
ATOM    132  C   UNL A   1      41.979  21.605  25.964  1.00  0.00     0.200 A 
ATOM    133  F   UNL A   1      40.090  21.239  27.328  1.00  0.00    -0.200 F 
ATOM    134  F   UNL A   1      41.979  20.318  25.593  1.00  0.00    -0.200 F 
ENDBRANCH  96 124
BRANCH 111 135
ATOM    135  C   UNL A   1      45.436  29.349  28.537  1.00  0.00     0.064 A 
ATOM    136  C   UNL A   1      44.347  30.047  27.987  1.00  0.00     0.173 A 
ATOM    137  C   UNL A   1      46.720  29.708  28.105  1.00  0.00     0.173 A 
ATOM    138  F   UNL A   1      43.097  29.827  28.416  1.00  0.00    -0.203 F 
ATOM    139  C   UNL A   1      44.539  31.036  27.023  1.00  0.00     0.198 A 
ATOM    140  C   UNL A   1      46.911  30.722  27.172  1.00  0.00     0.198 A 
ATOM    141  F   UNL A   1      47.799  29.109  28.633  1.00  0.00    -0.203 F 
ATOM    142  F   UNL A   1      43.486  31.685  26.506  1.00  0.00    -0.200 F 
ATOM    143  C   UNL A   1      45.821  31.380  26.626  1.00  0.00     0.200 A 
ATOM    144  F   UNL A   1      48.154  31.086  26.829  1.00  0.00    -0.200 F 
ATOM    145  F   UNL A   1      46.008  32.366  25.737  1.00  0.00    -0.200 F 
ENDBRANCH 111 135
ENDBRANCH  76  79
ENDBRANCH  66  69
ENDBRANCH  62  65
ENDBRANCH  59  62
ENDBRANCH  56  59
ENDBRANCH   1  56
TORSDOF 18
ENDMDL
MODEL 5
REMARK VINA RESULT:     -11.9      4.715      9.321
REMARK SMILES Cc1ccc2c(c1)c(-c1ccnc3c(C)cccc13)c(C)n2CC(=O)NCCCCCCNC(=O)c1ccc(-c2c3nc(c(-c4c(F)c(F)c(F)c(F)c4F)c4ccc([nH]4)c(-c4c(F)c(F)c(F)c(F)c4F)c4nc(c(-c5c(F)c(F)c(F)c(F)c5F)c5ccc2[nH]5)C=C4)C=C3)cc1
REMARK SMILES IDX 29 1 28 4 27 7 26 10 24 11 25 12 23 14 22 17 2 18 3 19 7 20
REMARK SMILES IDX 4 21 6 23 5 25 8 27 20 28 1 29 9 33 10 34 19 35 11 36 13 38
REMARK SMILES IDX 18 39 12 40 14 42 17 43 16 45 15 48 21 52 30 56 31 59 32 62
REMARK SMILES IDX 33 65 34 66 35 68 36 69 37 70 98 71 38 72 97 74 39 76 40 79
REMARK SMILES IDX 41 80 91 81 42 82 96 83 90 84 92 85 43 86 95 87 89 89 88 91
REMARK SMILES IDX 44 93 76 96 56 97 75 98 57 99 60 100 74 101 93 102 58 103
REMARK SMILES IDX 59 105 73 107 94 108 61 111 45 113 46 114 54 115 47 116
REMARK SMILES IDX 48 117 52 118 55 119 49 120 50 121 53 122 51 123 77 124
REMARK SMILES IDX 78 125 86 126 79 127 80 128 84 129 87 130 81 131 82 132
REMARK SMILES IDX 85 133 83 134 62 135 63 136 71 137 64 138 65 139 69 140
REMARK SMILES IDX 72 141 66 142 67 143 70 144 68 145
REMARK H PARENT 29 2 29 3 28 5 28 6 27 8 27 9 26 13 23 15 23 16 3 22 7 24 4 26
REMARK H PARENT 1 30 1 31 1 32 10 37 11 41 18 44 17 46 16 47 15 49 15 50 15 51
REMARK H PARENT 21 53 21 54 21 55 30 57 30 58 31 60 31 61 32 63 32 64 33 67
REMARK H PARENT 37 73 98 75 38 77 97 78 96 88 90 90 92 92 95 94 89 95 57 104
REMARK H PARENT 60 106 93 109 58 110 94 112
REMARK Flexibility Score: inf
ROOT
ATOM      1  C   UNL A   1      44.097  25.459  25.699  1.00  0.00    -0.052 C 
ATOM      2  H   UNL A   1      43.372  25.180  24.963  1.00  0.00     0.027 H 
ATOM      3  H   UNL A   1      43.663  25.702  26.647  1.00  0.00     0.027 H 
ENDROOT
BRANCH   1   4
ATOM      4  C   UNL A   1      44.812  26.726  25.212  1.00  0.00    -0.036 C 
ATOM      5  H   UNL A   1      44.511  26.913  24.203  1.00  0.00     0.028 H 
ATOM      6  H   UNL A   1      44.533  27.514  25.880  1.00  0.00     0.028 H 
BRANCH   4   7
ATOM      7  C   UNL A   1      46.335  26.636  25.249  1.00  0.00     0.017 C 
ATOM      8  H   UNL A   1      46.619  25.641  25.520  1.00  0.00     0.049 H 
ATOM      9  H   UNL A   1      46.712  26.886  24.279  1.00  0.00     0.049 H 
BRANCH   7  10
ATOM     10  N   UNL A   1      46.895  27.566  26.211  1.00  0.00    -0.355 N 
ATOM     11  C   UNL A   1      47.129  27.398  27.546  1.00  0.00     0.239 C 
ATOM     12  O   UNL A   1      47.571  28.365  28.174  1.00  0.00    -0.273 OA
ATOM     13  H   UNL A   1      47.143  28.447  25.848  1.00  0.00     0.163 HD
BRANCH  11  14
ATOM     14  C   UNL A   1      46.930  26.051  28.216  1.00  0.00     0.102 C 
ATOM     15  H   UNL A   1      45.942  25.708  27.995  1.00  0.00     0.060 H 
ATOM     16  H   UNL A   1      47.690  25.401  27.833  1.00  0.00     0.060 H 
BRANCH  14  17
ATOM     17  N   UNL A   1      47.093  26.077  29.667  1.00  0.00    -0.335 N 
ATOM     18  C   UNL A   1      50.316  25.117  32.117  1.00  0.00    -0.050 A 
ATOM     19  C   UNL A   1      50.579  25.202  30.749  1.00  0.00    -0.057 A 
ATOM     20  C   UNL A   1      49.029  25.416  32.593  1.00  0.00    -0.049 A 
ATOM     21  C   UNL A   1      49.582  25.563  29.839  1.00  0.00    -0.037 A 
ATOM     22  H   UNL A   1      51.528  24.994  30.403  1.00  0.00     0.063 H 
ATOM     23  C   UNL A   1      48.001  25.775  31.692  1.00  0.00     0.008 A 
ATOM     24  H   UNL A   1      48.833  25.372  33.605  1.00  0.00     0.063 H 
ATOM     25  C   UNL A   1      48.286  25.814  30.326  1.00  0.00     0.049 A 
ATOM     26  H   UNL A   1      49.792  25.645  28.831  1.00  0.00     0.065 H 
ATOM     27  C   UNL A   1      46.629  26.128  31.845  1.00  0.00     0.011 A 
ATOM     28  C   UNL A   1      46.099  26.362  30.584  1.00  0.00     0.024 A 
BRANCH  18  29
ATOM     29  C   UNL A   1      51.398  24.669  33.055  1.00  0.00    -0.040 C 
ATOM     30  H   UNL A   1      51.080  24.820  34.064  1.00  0.00     0.028 H 
ATOM     31  H   UNL A   1      52.286  25.238  32.871  1.00  0.00     0.028 H 
ATOM     32  H   UNL A   1      51.600  23.631  32.895  1.00  0.00     0.028 H 
ENDBRANCH  18  29
BRANCH  27  33
ATOM     33  C   UNL A   1      45.841  26.237  33.069  1.00  0.00    -0.005 A 
ATOM     34  C   UNL A   1      45.979  27.393  33.832  1.00  0.00    -0.035 A 
ATOM     35  C   UNL A   1      44.932  25.224  33.470  1.00  0.00     0.008 A 
ATOM     36  C   UNL A   1      45.195  27.515  34.957  1.00  0.00     0.028 A 
ATOM     37  H   UNL A   1      46.648  28.133  33.565  1.00  0.00     0.065 H 
ATOM     38  C   UNL A   1      44.163  25.453  34.633  1.00  0.00     0.074 A 
ATOM     39  C   UNL A   1      44.764  24.012  32.762  1.00  0.00    -0.052 A 
ATOM     40  N   UNL A   1      44.303  26.584  35.356  1.00  0.00    -0.256 NA
ATOM     41  H   UNL A   1      45.295  28.369  35.528  1.00  0.00     0.084 H 
ATOM     42  C   UNL A   1      43.234  24.473  35.022  1.00  0.00    -0.025 A 
ATOM     43  C   UNL A   1      43.859  23.042  33.172  1.00  0.00    -0.061 A 
ATOM     44  H   UNL A   1      45.329  23.844  31.917  1.00  0.00     0.063 H 
ATOM     45  C   UNL A   1      43.092  23.274  34.300  1.00  0.00    -0.057 A 
ATOM     46  H   UNL A   1      43.760  22.161  32.643  1.00  0.00     0.062 H 
ATOM     47  H   UNL A   1      42.411  22.565  34.612  1.00  0.00     0.063 H 
BRANCH  42  48
ATOM     48  C   UNL A   1      42.347  24.661  36.225  1.00  0.00    -0.038 C 
ATOM     49  H   UNL A   1      41.579  25.370  35.995  1.00  0.00     0.028 H 
ATOM     50  H   UNL A   1      42.931  25.023  37.046  1.00  0.00     0.028 H 
ATOM     51  H   UNL A   1      41.902  23.725  36.489  1.00  0.00     0.028 H 
ENDBRANCH  42  48
ENDBRANCH  27  33
BRANCH  28  52
ATOM     52  C   UNL A   1      44.713  26.781  30.211  1.00  0.00    -0.024 C 
ATOM     53  H   UNL A   1      44.687  27.044  29.174  1.00  0.00     0.030 H 
ATOM     54  H   UNL A   1      44.426  27.627  30.801  1.00  0.00     0.030 H 
ATOM     55  H   UNL A   1      44.036  25.973  30.392  1.00  0.00     0.030 H 
ENDBRANCH  28  52
ENDBRANCH  14  17
ENDBRANCH  11  14
ENDBRANCH   7  10
ENDBRANCH   4   7
ENDBRANCH   1   4
BRANCH   1  56
ATOM     56  C   UNL A   1      45.017  24.259  25.940  1.00  0.00    -0.052 C 
ATOM     57  H   UNL A   1      45.285  24.248  26.976  1.00  0.00     0.027 H 
ATOM     58  H   UNL A   1      45.853  24.387  25.285  1.00  0.00     0.027 H 
BRANCH  56  59
ATOM     59  C   UNL A   1      44.408  22.897  25.593  1.00  0.00    -0.036 C 
ATOM     60  H   UNL A   1      44.291  22.342  26.500  1.00  0.00     0.028 H 
ATOM     61  H   UNL A   1      45.079  22.431  24.902  1.00  0.00     0.028 H 
BRANCH  59  62
ATOM     62  C   UNL A   1      43.047  22.969  24.898  1.00  0.00     0.018 C 
ATOM     63  H   UNL A   1      43.145  22.541  23.922  1.00  0.00     0.049 H 
ATOM     64  H   UNL A   1      42.768  24.002  24.868  1.00  0.00     0.049 H 
BRANCH  62  65
ATOM     65  N   UNL A   1      41.990  22.270  25.598  1.00  0.00    -0.352 N 
ATOM     66  C   UNL A   1      40.951  22.651  26.410  1.00  0.00     0.251 C 
ATOM     67  H   UNL A   1      42.024  21.296  25.459  1.00  0.00     0.163 HD
ATOM     68  O   UNL A   1      40.156  21.778  26.729  1.00  0.00    -0.269 OA
BRANCH  66  69
ATOM     69  C   UNL A   1      40.776  24.021  26.975  1.00  0.00     0.039 A 
ATOM     70  C   UNL A   1      39.931  25.005  26.471  1.00  0.00    -0.049 A 
ATOM     71  C   UNL A   1      41.588  24.342  28.082  1.00  0.00    -0.049 A 
ATOM     72  C   UNL A   1      39.988  26.302  26.965  1.00  0.00    -0.053 A 
ATOM     73  H   UNL A   1      39.259  24.770  25.725  1.00  0.00     0.063 H 
ATOM     74  C   UNL A   1      41.621  25.632  28.608  1.00  0.00    -0.053 A 
ATOM     75  H   UNL A   1      42.171  23.606  28.510  1.00  0.00     0.063 H 
ATOM     76  C   UNL A   1      40.854  26.625  28.014  1.00  0.00    -0.014 A 
ATOM     77  H   UNL A   1      39.385  27.033  26.554  1.00  0.00     0.063 H 
ATOM     78  H   UNL A   1      42.208  25.846  29.430  1.00  0.00     0.063 H 
BRANCH  76  79
ATOM     79  C   UNL A   1      40.810  27.999  28.507  1.00  0.00     0.031 A 
ATOM     80  C   UNL A   1      41.924  28.863  28.021  1.00  0.00     0.074 A 
ATOM     81  C   UNL A   1      39.843  28.500  29.301  1.00  0.00     0.049 A 
ATOM     82  N   UNL A   1      42.854  29.430  28.719  1.00  0.00    -0.248 NA
ATOM     83  C   UNL A   1      42.085  29.016  26.567  1.00  0.00    -0.034 C 
ATOM     84  C   UNL A   1      38.562  27.894  29.664  1.00  0.00    -0.036 A 
ATOM     85  N   UNL A   1      39.788  29.724  29.903  1.00  0.00    -0.354 N 
ATOM     86  C   UNL A   1      43.641  30.136  27.811  1.00  0.00     0.074 A 
ATOM     87  C   UNL A   1      43.193  29.754  26.498  1.00  0.00    -0.034 C 
ATOM     88  H   UNL A   1      41.497  28.649  25.804  1.00  0.00     0.065 H 
ATOM     89  C   UNL A   1      37.775  28.827  30.246  1.00  0.00    -0.036 A 
ATOM     90  H   UNL A   1      38.300  26.909  29.500  1.00  0.00     0.065 H 
ATOM     91  C   UNL A   1      38.545  30.048  30.427  1.00  0.00     0.049 A 
ATOM     92  H   UNL A   1      40.565  30.327  29.961  1.00  0.00     0.167 HD
ATOM     93  C   UNL A   1      44.481  31.127  28.221  1.00  0.00     0.037 A 
ATOM     94  H   UNL A   1      43.667  30.017  25.619  1.00  0.00     0.065 H 
ATOM     95  H   UNL A   1      36.788  28.696  30.517  1.00  0.00     0.065 H 
ATOM     96  C   UNL A   1      38.168  31.248  30.930  1.00  0.00     0.037 A 
ATOM     97  C   UNL A   1      44.778  31.011  29.623  1.00  0.00     0.049 A 
ATOM     98  C   UNL A   1      39.399  31.976  31.315  1.00  0.00     0.074 A 
ATOM     99  C   UNL A   1      45.445  30.098  30.414  1.00  0.00    -0.036 A 
ATOM    100  N   UNL A   1      44.074  31.814  30.483  1.00  0.00    -0.354 N 
ATOM    101  N   UNL A   1      40.168  31.644  32.313  1.00  0.00    -0.248 NA
ATOM    102  C   UNL A   1      39.984  32.901  30.357  1.00  0.00    -0.034 C 
ATOM    103  C   UNL A   1      44.769  30.122  31.668  1.00  0.00    -0.036 A 
ATOM    104  H   UNL A   1      46.259  29.520  30.152  1.00  0.00     0.065 H 
ATOM    105  C   UNL A   1      43.751  31.074  31.588  1.00  0.00     0.049 A 
ATOM    106  H   UNL A   1      43.841  32.758  30.331  1.00  0.00     0.167 HD
ATOM    107  C   UNL A   1      41.446  31.960  31.887  1.00  0.00     0.074 A 
ATOM    108  C   UNL A   1      41.257  32.852  30.750  1.00  0.00    -0.034 C 
ATOM    109  H   UNL A   1      39.541  33.438  29.595  1.00  0.00     0.065 H 
ATOM    110  H   UNL A   1      44.993  29.541  32.490  1.00  0.00     0.065 H 
ATOM    111  C   UNL A   1      42.520  31.242  32.324  1.00  0.00     0.037 A 
ATOM    112  H   UNL A   1      42.020  33.383  30.302  1.00  0.00     0.065 H 
BRANCH  93 113
ATOM    113  C   UNL A   1      44.734  32.406  27.454  1.00  0.00     0.064 A 
ATOM    114  C   UNL A   1      45.945  32.555  26.744  1.00  0.00     0.173 A 
ATOM    115  C   UNL A   1      43.997  33.594  27.645  1.00  0.00     0.173 A 
ATOM    116  F   UNL A   1      46.739  31.498  26.514  1.00  0.00    -0.203 F 
ATOM    117  C   UNL A   1      46.420  33.806  26.342  1.00  0.00     0.198 A 
ATOM    118  C   UNL A   1      44.450  34.835  27.197  1.00  0.00     0.198 A 
ATOM    119  F   UNL A   1      42.871  33.628  28.366  1.00  0.00    -0.203 F 
ATOM    120  F   UNL A   1      47.637  33.911  25.791  1.00  0.00    -0.200 F 
ATOM    121  C   UNL A   1      45.676  34.947  26.576  1.00  0.00     0.200 A 
ATOM    122  F   UNL A   1      43.722  35.932  27.449  1.00  0.00    -0.200 F 
ATOM    123  F   UNL A   1      46.156  36.154  26.252  1.00  0.00    -0.200 F 
ENDBRANCH  93 113
BRANCH  96 124
ATOM    124  C   UNL A   1      36.855  31.932  30.847  1.00  0.00     0.064 A 
ATOM    125  C   UNL A   1      36.028  32.042  31.980  1.00  0.00     0.173 A 
ATOM    126  C   UNL A   1      36.528  32.756  29.754  1.00  0.00     0.173 A 
ATOM    127  F   UNL A   1      36.290  31.319  33.080  1.00  0.00    -0.203 F 
ATOM    128  C   UNL A   1      34.973  32.958  32.034  1.00  0.00     0.198 A 
ATOM    129  C   UNL A   1      35.468  33.663  29.807  1.00  0.00     0.198 A 
ATOM    130  F   UNL A   1      37.291  32.772  28.652  1.00  0.00    -0.203 F 
ATOM    131  F   UNL A   1      34.261  33.091  33.162  1.00  0.00    -0.200 F 
ATOM    132  C   UNL A   1      34.705  33.779  30.953  1.00  0.00     0.200 A 
ATOM    133  F   UNL A   1      35.240  34.476  28.765  1.00  0.00    -0.200 F 
ATOM    134  F   UNL A   1      33.744  34.709  31.030  1.00  0.00    -0.200 F 
ENDBRANCH  96 124
BRANCH 111 135
ATOM    135  C   UNL A   1      42.331  30.369  33.532  1.00  0.00     0.064 A 
ATOM    136  C   UNL A   1      42.455  30.816  34.859  1.00  0.00     0.173 A 
ATOM    137  C   UNL A   1      41.867  29.062  33.330  1.00  0.00     0.173 A 
ATOM    138  F   UNL A   1      42.803  32.080  35.132  1.00  0.00    -0.203 F 
ATOM    139  C   UNL A   1      42.160  29.976  35.931  1.00  0.00     0.198 A 
ATOM    140  C   UNL A   1      41.535  28.240  34.402  1.00  0.00     0.198 A 
ATOM    141  F   UNL A   1      41.682  28.599  32.084  1.00  0.00    -0.203 F 
ATOM    142  F   UNL A   1      42.292  30.421  37.190  1.00  0.00    -0.200 F 
ATOM    143  C   UNL A   1      41.689  28.694  35.702  1.00  0.00     0.200 A 
ATOM    144  F   UNL A   1      41.032  27.019  34.174  1.00  0.00    -0.200 F 
ATOM    145  F   UNL A   1      41.356  27.904  36.732  1.00  0.00    -0.200 F 
ENDBRANCH 111 135
ENDBRANCH  76  79
ENDBRANCH  66  69
ENDBRANCH  62  65
ENDBRANCH  59  62
ENDBRANCH  56  59
ENDBRANCH   1  56
TORSDOF 18
ENDMDL
MODEL 6
REMARK VINA RESULT:     -11.8      5.392      9.972
REMARK SMILES Cc1ccc2c(c1)c(-c1ccnc3c(C)cccc13)c(C)n2CC(=O)NCCCCCCNC(=O)c1ccc(-c2c3nc(c(-c4c(F)c(F)c(F)c(F)c4F)c4ccc([nH]4)c(-c4c(F)c(F)c(F)c(F)c4F)c4nc(c(-c5c(F)c(F)c(F)c(F)c5F)c5ccc2[nH]5)C=C4)C=C3)cc1
REMARK SMILES IDX 29 1 28 4 27 7 26 10 24 11 25 12 23 14 22 17 2 18 3 19 7 20
REMARK SMILES IDX 4 21 6 23 5 25 8 27 20 28 1 29 9 33 10 34 19 35 11 36 13 38
REMARK SMILES IDX 18 39 12 40 14 42 17 43 16 45 15 48 21 52 30 56 31 59 32 62
REMARK SMILES IDX 33 65 34 66 35 68 36 69 37 70 98 71 38 72 97 74 39 76 40 79
REMARK SMILES IDX 41 80 91 81 42 82 96 83 90 84 92 85 43 86 95 87 89 89 88 91
REMARK SMILES IDX 44 93 76 96 56 97 75 98 57 99 60 100 74 101 93 102 58 103
REMARK SMILES IDX 59 105 73 107 94 108 61 111 45 113 46 114 54 115 47 116
REMARK SMILES IDX 48 117 52 118 55 119 49 120 50 121 53 122 51 123 77 124
REMARK SMILES IDX 78 125 86 126 79 127 80 128 84 129 87 130 81 131 82 132
REMARK SMILES IDX 85 133 83 134 62 135 63 136 71 137 64 138 65 139 69 140
REMARK SMILES IDX 72 141 66 142 67 143 70 144 68 145
REMARK H PARENT 29 2 29 3 28 5 28 6 27 8 27 9 26 13 23 15 23 16 3 22 7 24 4 26
REMARK H PARENT 1 30 1 31 1 32 10 37 11 41 18 44 17 46 16 47 15 49 15 50 15 51
REMARK H PARENT 21 53 21 54 21 55 30 57 30 58 31 60 31 61 32 63 32 64 33 67
REMARK H PARENT 37 73 98 75 38 77 97 78 96 88 90 90 92 92 95 94 89 95 57 104
REMARK H PARENT 60 106 93 109 58 110 94 112
REMARK Flexibility Score: inf
ROOT
ATOM      1  C   UNL A   1      42.719  27.723  34.717  1.00  0.00    -0.052 C 
ATOM      2  H   UNL A   1      42.343  28.602  35.198  1.00  0.00     0.027 H 
ATOM      3  H   UNL A   1      43.773  27.592  34.845  1.00  0.00     0.027 H 
ENDROOT
BRANCH   1   4
ATOM      4  C   UNL A   1      42.480  27.862  33.208  1.00  0.00    -0.036 C 
ATOM      5  H   UNL A   1      43.369  27.555  32.698  1.00  0.00     0.028 H 
ATOM      6  H   UNL A   1      41.635  27.250  32.972  1.00  0.00     0.028 H 
BRANCH   4   7
ATOM      7  C   UNL A   1      42.135  29.280  32.760  1.00  0.00     0.017 C 
ATOM      8  H   UNL A   1      43.013  29.888  32.820  1.00  0.00     0.049 H 
ATOM      9  H   UNL A   1      41.773  29.237  31.754  1.00  0.00     0.049 H 
BRANCH   7  10
ATOM     10  N   UNL A   1      41.101  29.861  33.594  1.00  0.00    -0.355 N 
ATOM     11  C   UNL A   1      39.829  30.233  33.266  1.00  0.00     0.239 C 
ATOM     12  O   UNL A   1      39.143  30.759  34.147  1.00  0.00    -0.273 OA
ATOM     13  H   UNL A   1      41.353  30.009  34.534  1.00  0.00     0.163 HD
BRANCH  11  14
ATOM     14  C   UNL A   1      39.251  29.937  31.895  1.00  0.00     0.102 C 
ATOM     15  H   UNL A   1      40.026  29.520  31.286  1.00  0.00     0.060 H 
ATOM     16  H   UNL A   1      38.434  29.261  32.043  1.00  0.00     0.060 H 
BRANCH  14  17
ATOM     17  N   UNL A   1      38.710  31.107  31.210  1.00  0.00    -0.335 N 
ATOM     18  C   UNL A   1      40.551  34.425  29.505  1.00  0.00    -0.050 A 
ATOM     19  C   UNL A   1      41.388  33.372  29.874  1.00  0.00    -0.057 A 
ATOM     20  C   UNL A   1      39.162  34.291  29.660  1.00  0.00    -0.049 A 
ATOM     21  C   UNL A   1      40.873  32.190  30.413  1.00  0.00    -0.037 A 
ATOM     22  H   UNL A   1      42.407  33.468  29.748  1.00  0.00     0.063 H 
ATOM     23  C   UNL A   1      38.617  33.110  30.211  1.00  0.00     0.008 A 
ATOM     24  H   UNL A   1      38.537  35.060  29.372  1.00  0.00     0.063 H 
ATOM     25  C   UNL A   1      39.483  32.089  30.606  1.00  0.00     0.049 A 
ATOM     26  H   UNL A   1      41.499  31.408  30.662  1.00  0.00     0.065 H 
ATOM     27  C   UNL A   1      37.292  32.669  30.494  1.00  0.00     0.011 A 
ATOM     28  C   UNL A   1      37.368  31.406  31.064  1.00  0.00     0.024 A 
BRANCH  18  29
ATOM     29  C   UNL A   1      41.147  35.700  28.984  1.00  0.00    -0.040 C 
ATOM     30  H   UNL A   1      40.974  35.772  27.932  1.00  0.00     0.028 H 
ATOM     31  H   UNL A   1      42.200  35.704  29.174  1.00  0.00     0.028 H 
ATOM     32  H   UNL A   1      40.693  36.534  29.479  1.00  0.00     0.028 H 
ENDBRANCH  18  29
BRANCH  27  33
ATOM     33  C   UNL A   1      36.027  33.361  30.268  1.00  0.00    -0.005 A 
ATOM     34  C   UNL A   1      35.411  33.207  29.030  1.00  0.00    -0.035 A 
ATOM     35  C   UNL A   1      35.409  34.146  31.277  1.00  0.00     0.008 A 
ATOM     36  C   UNL A   1      34.193  33.818  28.839  1.00  0.00     0.028 A 
ATOM     37  H   UNL A   1      35.854  32.653  28.278  1.00  0.00     0.065 H 
ATOM     38  C   UNL A   1      34.151  34.719  30.986  1.00  0.00     0.074 A 
ATOM     39  C   UNL A   1      35.991  34.372  32.545  1.00  0.00    -0.052 A 
ATOM     40  N   UNL A   1      33.564  34.551  29.782  1.00  0.00    -0.256 NA
ATOM     41  H   UNL A   1      33.733  33.709  27.922  1.00  0.00     0.084 H 
ATOM     42  C   UNL A   1      33.513  35.470  31.988  1.00  0.00    -0.025 A 
ATOM     43  C   UNL A   1      35.360  35.136  33.517  1.00  0.00    -0.061 A 
ATOM     44  H   UNL A   1      36.912  33.958  32.754  1.00  0.00     0.063 H 
ATOM     45  C   UNL A   1      34.119  35.682  33.239  1.00  0.00    -0.057 A 
ATOM     46  H   UNL A   1      35.809  35.295  34.433  1.00  0.00     0.062 H 
ATOM     47  H   UNL A   1      33.636  36.246  33.955  1.00  0.00     0.063 H 
BRANCH  42  48
ATOM     48  C   UNL A   1      32.152  36.078  31.770  1.00  0.00    -0.038 C 
ATOM     49  H   UNL A   1      31.424  35.299  31.678  1.00  0.00     0.028 H 
ATOM     50  H   UNL A   1      32.161  36.665  30.875  1.00  0.00     0.028 H 
ATOM     51  H   UNL A   1      31.903  36.702  32.603  1.00  0.00     0.028 H 
ENDBRANCH  42  48
ENDBRANCH  27  33
BRANCH  28  52
ATOM     52  C   UNL A   1      36.259  30.510  31.515  1.00  0.00    -0.024 C 
ATOM     53  H   UNL A   1      35.331  30.864  31.118  1.00  0.00     0.030 H 
ATOM     54  H   UNL A   1      36.213  30.511  32.584  1.00  0.00     0.030 H 
ATOM     55  H   UNL A   1      36.441  29.515  31.165  1.00  0.00     0.030 H 
ENDBRANCH  28  52
ENDBRANCH  14  17
ENDBRANCH  11  14
ENDBRANCH   7  10
ENDBRANCH   4   7
ENDBRANCH   1   4
BRANCH   1  56
ATOM     56  C   UNL A   1      42.050  26.504  35.361  1.00  0.00    -0.052 C 
ATOM     57  H   UNL A   1      42.325  25.639  34.796  1.00  0.00     0.027 H 
ATOM     58  H   UNL A   1      40.999  26.702  35.353  1.00  0.00     0.027 H 
BRANCH  56  59
ATOM     59  C   UNL A   1      42.429  26.256  36.824  1.00  0.00    -0.036 C 
ATOM     60  H   UNL A   1      41.571  26.456  37.430  1.00  0.00     0.028 H 
ATOM     61  H   UNL A   1      43.252  26.906  37.039  1.00  0.00     0.028 H 
BRANCH  59  62
ATOM     62  C   UNL A   1      42.906  24.834  37.124  1.00  0.00     0.018 C 
ATOM     63  H   UNL A   1      42.709  24.225  36.266  1.00  0.00     0.049 H 
ATOM     64  H   UNL A   1      42.376  24.505  37.993  1.00  0.00     0.049 H 
BRANCH  62  65
ATOM     65  N   UNL A   1      44.318  24.739  37.433  1.00  0.00    -0.352 N 
ATOM     66  C   UNL A   1      45.478  24.892  36.715  1.00  0.00     0.251 C 
ATOM     67  H   UNL A   1      44.484  24.514  38.377  1.00  0.00     0.163 HD
ATOM     68  O   UNL A   1      46.523  24.863  37.350  1.00  0.00    -0.269 OA
BRANCH  66  69
ATOM     69  C   UNL A   1      45.545  25.015  35.230  1.00  0.00     0.039 A 
ATOM     70  C   UNL A   1      45.858  26.173  34.525  1.00  0.00    -0.049 A 
ATOM     71  C   UNL A   1      45.203  23.860  34.497  1.00  0.00    -0.049 A 
ATOM     72  C   UNL A   1      45.708  26.219  33.144  1.00  0.00    -0.053 A 
ATOM     73  H   UNL A   1      46.203  27.003  35.030  1.00  0.00     0.063 H 
ATOM     74  C   UNL A   1      45.089  23.888  33.108  1.00  0.00    -0.053 A 
ATOM     75  H   UNL A   1      45.033  22.975  35.001  1.00  0.00     0.063 H 
ATOM     76  C   UNL A   1      45.295  25.086  32.437  1.00  0.00    -0.014 A 
ATOM     77  H   UNL A   1      45.904  27.097  32.637  1.00  0.00     0.063 H 
ATOM     78  H   UNL A   1      44.854  23.030  32.586  1.00  0.00     0.063 H 
BRANCH  76  79
ATOM     79  C   UNL A   1      45.216  25.207  30.984  1.00  0.00     0.031 A 
ATOM     80  C   UNL A   1      46.159  26.202  30.397  1.00  0.00     0.074 A 
ATOM     81  C   UNL A   1      44.406  24.474  30.195  1.00  0.00     0.049 A 
ATOM     82  N   UNL A   1      45.872  27.290  29.758  1.00  0.00    -0.248 NA
ATOM     83  C   UNL A   1      47.595  26.018  30.657  1.00  0.00    -0.034 C 
ATOM     84  C   UNL A   1      43.615  23.295  30.551  1.00  0.00    -0.036 A 
ATOM     85  N   UNL A   1      44.181  24.605  28.855  1.00  0.00    -0.354 N 
ATOM     86  C   UNL A   1      47.092  27.862  29.403  1.00  0.00     0.074 A 
ATOM     87  C   UNL A   1      48.111  27.103  30.078  1.00  0.00    -0.034 C 
ATOM     88  H   UNL A   1      48.075  25.254  31.156  1.00  0.00     0.065 H 
ATOM     89  C   UNL A   1      43.166  22.701  29.422  1.00  0.00    -0.036 A 
ATOM     90  H   UNL A   1      43.431  22.969  31.512  1.00  0.00     0.065 H 
ATOM     91  C   UNL A   1      43.512  23.532  28.281  1.00  0.00     0.049 A 
ATOM     92  H   UNL A   1      44.468  25.393  28.339  1.00  0.00     0.167 HD
ATOM     93  C   UNL A   1      47.175  28.808  28.427  1.00  0.00     0.037 A 
ATOM     94  H   UNL A   1      49.110  27.363  30.109  1.00  0.00     0.065 H 
ATOM     95  H   UNL A   1      42.659  21.803  29.378  1.00  0.00     0.065 H 
ATOM     96  C   UNL A   1      43.302  23.327  26.958  1.00  0.00     0.037 A 
ATOM     97  C   UNL A   1      45.898  29.426  28.190  1.00  0.00     0.049 A 
ATOM     98  C   UNL A   1      43.418  24.637  26.279  1.00  0.00     0.074 A 
ATOM     99  C   UNL A   1      45.046  30.230  28.918  1.00  0.00    -0.036 A 
ATOM    100  N   UNL A   1      45.171  28.973  27.120  1.00  0.00    -0.354 N 
ATOM    101  N   UNL A   1      42.560  25.610  26.405  1.00  0.00    -0.248 NA
ATOM    102  C   UNL A   1      44.704  25.009  25.708  1.00  0.00    -0.034 C 
ATOM    103  C   UNL A   1      43.734  29.872  28.491  1.00  0.00    -0.036 A 
ATOM    104  H   UNL A   1      45.304  30.939  29.623  1.00  0.00     0.065 H 
ATOM    105  C   UNL A   1      43.858  28.897  27.501  1.00  0.00     0.049 A 
ATOM    106  H   UNL A   1      45.530  28.743  26.234  1.00  0.00     0.167 HD
ATOM    107  C   UNL A   1      43.327  26.760  26.343  1.00  0.00     0.074 A 
ATOM    108  C   UNL A   1      44.601  26.337  25.775  1.00  0.00    -0.034 C 
ATOM    109  H   UNL A   1      45.471  24.416  25.354  1.00  0.00     0.065 H 
ATOM    110  H   UNL A   1      42.850  30.266  28.849  1.00  0.00     0.065 H 
ATOM    111  C   UNL A   1      42.949  27.882  27.019  1.00  0.00     0.037 A 
ATOM    112  H   UNL A   1      45.337  26.989  25.462  1.00  0.00     0.065 H 
BRANCH  93 113
ATOM    113  C   UNL A   1      48.310  28.915  27.433  1.00  0.00     0.064 A 
ATOM    114  C   UNL A   1      48.575  27.827  26.571  1.00  0.00     0.173 A 
ATOM    115  C   UNL A   1      49.329  29.887  27.506  1.00  0.00     0.173 A 
ATOM    116  F   UNL A   1      47.686  26.833  26.430  1.00  0.00    -0.203 F 
ATOM    117  C   UNL A   1      49.799  27.685  25.913  1.00  0.00     0.198 A 
ATOM    118  C   UNL A   1      50.529  29.767  26.807  1.00  0.00     0.198 A 
ATOM    119  F   UNL A   1      49.259  30.933  28.338  1.00  0.00    -0.203 F 
ATOM    120  F   UNL A   1      50.053  26.570  25.214  1.00  0.00    -0.200 F 
ATOM    121  C   UNL A   1      50.780  28.651  26.038  1.00  0.00     0.200 A 
ATOM    122  F   UNL A   1      51.475  30.706  26.956  1.00  0.00    -0.200 F 
ATOM    123  F   UNL A   1      51.978  28.486  25.463  1.00  0.00    -0.200 F 
ENDBRANCH  93 113
BRANCH  96 124
ATOM    124  C   UNL A   1      43.287  22.055  26.196  1.00  0.00     0.064 A 
ATOM    125  C   UNL A   1      44.487  21.469  25.751  1.00  0.00     0.173 A 
ATOM    126  C   UNL A   1      42.144  21.236  26.162  1.00  0.00     0.173 A 
ATOM    127  F   UNL A   1      45.632  22.167  25.783  1.00  0.00    -0.203 F 
ATOM    128  C   UNL A   1      44.546  20.131  25.349  1.00  0.00     0.198 A 
ATOM    129  C   UNL A   1      42.203  19.903  25.751  1.00  0.00     0.198 A 
ATOM    130  F   UNL A   1      40.966  21.680  26.624  1.00  0.00    -0.203 F 
ATOM    131  F   UNL A   1      45.724  19.586  25.011  1.00  0.00    -0.200 F 
ATOM    132  C   UNL A   1      43.407  19.345  25.365  1.00  0.00     0.200 A 
ATOM    133  F   UNL A   1      41.099  19.144  25.804  1.00  0.00    -0.200 F 
ATOM    134  F   UNL A   1      43.477  18.044  25.053  1.00  0.00    -0.200 F 
ENDBRANCH  96 124
BRANCH 111 135
ATOM    135  C   UNL A   1      41.532  27.956  27.513  1.00  0.00     0.064 A 
ATOM    136  C   UNL A   1      41.090  27.410  28.730  1.00  0.00     0.173 A 
ATOM    137  C   UNL A   1      40.623  28.735  26.785  1.00  0.00     0.173 A 
ATOM    138  F   UNL A   1      41.925  26.732  29.529  1.00  0.00    -0.203 F 
ATOM    139  C   UNL A   1      39.784  27.610  29.176  1.00  0.00     0.198 A 
ATOM    140  C   UNL A   1      39.334  28.966  27.251  1.00  0.00     0.198 A 
ATOM    141  F   UNL A   1      41.007  29.322  25.640  1.00  0.00    -0.203 F 
ATOM    142  F   UNL A   1      39.380  27.075  30.337  1.00  0.00    -0.200 F 
ATOM    143  C   UNL A   1      38.911  28.397  28.442  1.00  0.00     0.200 A 
ATOM    144  F   UNL A   1      38.510  29.768  26.563  1.00  0.00    -0.200 F 
ATOM    145  F   UNL A   1      37.672  28.632  28.896  1.00  0.00    -0.200 F 
ENDBRANCH 111 135
ENDBRANCH  76  79
ENDBRANCH  66  69
ENDBRANCH  62  65
ENDBRANCH  59  62
ENDBRANCH  56  59
ENDBRANCH   1  56
TORSDOF 18
ENDMDL
MODEL 7
REMARK VINA RESULT:     -11.8      1.563      2.368
REMARK SMILES Cc1ccc2c(c1)c(-c1ccnc3c(C)cccc13)c(C)n2CC(=O)NCCCCCCNC(=O)c1ccc(-c2c3nc(c(-c4c(F)c(F)c(F)c(F)c4F)c4ccc([nH]4)c(-c4c(F)c(F)c(F)c(F)c4F)c4nc(c(-c5c(F)c(F)c(F)c(F)c5F)c5ccc2[nH]5)C=C4)C=C3)cc1
REMARK SMILES IDX 29 1 28 4 27 7 26 10 24 11 25 12 23 14 22 17 2 18 3 19 7 20
REMARK SMILES IDX 4 21 6 23 5 25 8 27 20 28 1 29 9 33 10 34 19 35 11 36 13 38
REMARK SMILES IDX 18 39 12 40 14 42 17 43 16 45 15 48 21 52 30 56 31 59 32 62
REMARK SMILES IDX 33 65 34 66 35 68 36 69 37 70 98 71 38 72 97 74 39 76 40 79
REMARK SMILES IDX 41 80 91 81 42 82 96 83 90 84 92 85 43 86 95 87 89 89 88 91
REMARK SMILES IDX 44 93 76 96 56 97 75 98 57 99 60 100 74 101 93 102 58 103
REMARK SMILES IDX 59 105 73 107 94 108 61 111 45 113 46 114 54 115 47 116
REMARK SMILES IDX 48 117 52 118 55 119 49 120 50 121 53 122 51 123 77 124
REMARK SMILES IDX 78 125 86 126 79 127 80 128 84 129 87 130 81 131 82 132
REMARK SMILES IDX 85 133 83 134 62 135 63 136 71 137 64 138 65 139 69 140
REMARK SMILES IDX 72 141 66 142 67 143 70 144 68 145
REMARK H PARENT 29 2 29 3 28 5 28 6 27 8 27 9 26 13 23 15 23 16 3 22 7 24 4 26
REMARK H PARENT 1 30 1 31 1 32 10 37 11 41 18 44 17 46 16 47 15 49 15 50 15 51
REMARK H PARENT 21 53 21 54 21 55 30 57 30 58 31 60 31 61 32 63 32 64 33 67
REMARK H PARENT 37 73 98 75 38 77 97 78 96 88 90 90 92 92 95 94 89 95 57 104
REMARK H PARENT 60 106 93 109 58 110 94 112
REMARK Flexibility Score: inf
ROOT
ATOM      1  C   UNL A   1      40.279  22.101  27.574  1.00  0.00    -0.052 C 
ATOM      2  H   UNL A   1      40.077  21.408  26.784  1.00  0.00     0.027 H 
ATOM      3  H   UNL A   1      39.678  21.934  28.444  1.00  0.00     0.027 H 
ENDROOT
BRANCH   1   4
ATOM      4  C   UNL A   1      39.939  23.510  27.075  1.00  0.00    -0.036 C 
ATOM      5  H   UNL A   1      39.772  24.136  27.926  1.00  0.00     0.028 H 
ATOM      6  H   UNL A   1      40.766  23.835  26.479  1.00  0.00     0.028 H 
BRANCH   4   7
ATOM      7  C   UNL A   1      38.702  23.574  26.183  1.00  0.00     0.017 C 
ATOM      8  H   UNL A   1      37.830  23.640  26.800  1.00  0.00     0.049 H 
ATOM      9  H   UNL A   1      38.784  24.434  25.551  1.00  0.00     0.049 H 
BRANCH   7  10
ATOM     10  N   UNL A   1      38.596  22.397  25.342  1.00  0.00    -0.355 N 
ATOM     11  C   UNL A   1      37.620  21.444  25.302  1.00  0.00     0.239 C 
ATOM     12  O   UNL A   1      37.778  20.496  24.527  1.00  0.00    -0.273 OA
ATOM     13  H   UNL A   1      39.337  22.267  24.707  1.00  0.00     0.163 HD
BRANCH  11  14
ATOM     14  C   UNL A   1      36.349  21.584  26.119  1.00  0.00     0.102 C 
ATOM     15  H   UNL A   1      36.210  20.685  26.682  1.00  0.00     0.060 H 
ATOM     16  H   UNL A   1      36.476  22.445  26.742  1.00  0.00     0.060 H 
BRANCH  14  17
ATOM     17  N   UNL A   1      35.149  21.817  25.321  1.00  0.00    -0.335 N 
ATOM     18  C   UNL A   1      32.670  19.223  23.215  1.00  0.00    -0.050 A 
ATOM     19  C   UNL A   1      33.604  18.633  24.067  1.00  0.00    -0.057 A 
ATOM     20  C   UNL A   1      32.569  20.622  23.161  1.00  0.00    -0.049 A 
ATOM     21  C   UNL A   1      34.456  19.409  24.858  1.00  0.00    -0.037 A 
ATOM     22  H   UNL A   1      33.668  17.605  24.114  1.00  0.00     0.063 H 
ATOM     23  C   UNL A   1      33.425  21.429  23.944  1.00  0.00     0.008 A 
ATOM     24  H   UNL A   1      31.867  21.063  22.546  1.00  0.00     0.063 H 
ATOM     25  C   UNL A   1      34.376  20.810  24.758  1.00  0.00     0.049 A 
ATOM     26  H   UNL A   1      35.129  18.964  25.502  1.00  0.00     0.065 H 
ATOM     27  C   UNL A   1      33.576  22.835  24.116  1.00  0.00     0.011 A 
ATOM     28  C   UNL A   1      34.614  23.053  25.011  1.00  0.00     0.024 A 
BRANCH  18  29
ATOM     29  C   UNL A   1      31.813  18.356  22.340  1.00  0.00    -0.040 C 
ATOM     30  H   UNL A   1      31.009  17.950  22.916  1.00  0.00     0.028 H 
ATOM     31  H   UNL A   1      32.405  17.558  21.941  1.00  0.00     0.028 H 
ATOM     32  H   UNL A   1      31.417  18.942  21.537  1.00  0.00     0.028 H 
ENDBRANCH  18  29
BRANCH  27  33
ATOM     33  C   UNL A   1      32.827  23.922  23.493  1.00  0.00    -0.005 A 
ATOM     34  C   UNL A   1      33.156  24.277  22.188  1.00  0.00    -0.035 A 
ATOM     35  C   UNL A   1      31.770  24.588  24.166  1.00  0.00     0.008 A 
ATOM     36  C   UNL A   1      32.412  25.266  21.587  1.00  0.00     0.028 A 
ATOM     37  H   UNL A   1      33.933  23.814  21.689  1.00  0.00     0.065 H 
ATOM     38  C   UNL A   1      31.058  25.580  23.455  1.00  0.00     0.074 A 
ATOM     39  C   UNL A   1      31.402  24.302  25.501  1.00  0.00    -0.052 A 
ATOM     40  N   UNL A   1      31.385  25.905  22.186  1.00  0.00    -0.256 NA
ATOM     41  H   UNL A   1      32.653  25.535  20.620  1.00  0.00     0.084 H 
ATOM     42  C   UNL A   1      29.988  26.223  24.098  1.00  0.00    -0.025 A 
ATOM     43  C   UNL A   1      30.357  24.963  26.132  1.00  0.00    -0.061 A 
ATOM     44  H   UNL A   1      31.926  23.582  26.021  1.00  0.00     0.063 H 
ATOM     45  C   UNL A   1      29.648  25.921  25.429  1.00  0.00    -0.057 A 
ATOM     46  H   UNL A   1      30.113  24.744  27.111  1.00  0.00     0.062 H 
ATOM     47  H   UNL A   1      28.864  26.415  25.884  1.00  0.00     0.063 H 
BRANCH  42  48
ATOM     48  C   UNL A   1      29.153  27.261  23.393  1.00  0.00    -0.038 C 
ATOM     49  H   UNL A   1      29.795  27.940  22.871  1.00  0.00     0.028 H 
ATOM     50  H   UNL A   1      28.573  27.801  24.112  1.00  0.00     0.028 H 
ATOM     51  H   UNL A   1      28.500  26.780  22.696  1.00  0.00     0.028 H 
ENDBRANCH  42  48
ENDBRANCH  27  33
BRANCH  28  52
ATOM     52  C   UNL A   1      35.146  24.348  25.536  1.00  0.00    -0.024 C 
ATOM     53  H   UNL A   1      36.010  24.633  24.974  1.00  0.00     0.030 H 
ATOM     54  H   UNL A   1      35.413  24.232  26.567  1.00  0.00     0.030 H 
ATOM     55  H   UNL A   1      34.394  25.104  25.445  1.00  0.00     0.030 H 
ENDBRANCH  28  52
ENDBRANCH  14  17
ENDBRANCH  11  14
ENDBRANCH   7  10
ENDBRANCH   4   7
ENDBRANCH   1   4
BRANCH   1  56
ATOM     56  C   UNL A   1      41.735  21.912  28.013  1.00  0.00    -0.052 C 
ATOM     57  H   UNL A   1      41.759  21.889  29.082  1.00  0.00     0.027 H 
ATOM     58  H   UNL A   1      42.282  22.729  27.591  1.00  0.00     0.027 H 
BRANCH  56  59
ATOM     59  C   UNL A   1      42.406  20.637  27.495  1.00  0.00    -0.036 C 
ATOM     60  H   UNL A   1      41.944  19.798  27.971  1.00  0.00     0.028 H 
ATOM     61  H   UNL A   1      43.448  20.726  27.726  1.00  0.00     0.028 H 
BRANCH  59  62
ATOM     62  C   UNL A   1      42.311  20.439  25.980  1.00  0.00     0.018 C 
ATOM     63  H   UNL A   1      41.575  21.116  25.599  1.00  0.00     0.049 H 
ATOM     64  H   UNL A   1      42.052  19.414  25.816  1.00  0.00     0.049 H 
BRANCH  62  65
ATOM     65  N   UNL A   1      43.555  20.676  25.276  1.00  0.00    -0.352 N 
ATOM     66  C   UNL A   1      44.477  21.693  25.258  1.00  0.00     0.251 C 
ATOM     67  H   UNL A   1      43.794  19.936  24.673  1.00  0.00     0.163 HD
ATOM     68  O   UNL A   1      45.501  21.491  24.621  1.00  0.00    -0.269 OA
BRANCH  66  69
ATOM     69  C   UNL A   1      44.278  23.029  25.892  1.00  0.00     0.039 A 
ATOM     70  C   UNL A   1      44.877  23.465  27.070  1.00  0.00    -0.049 A 
ATOM     71  C   UNL A   1      43.357  23.885  25.255  1.00  0.00    -0.049 A 
ATOM     72  C   UNL A   1      44.476  24.654  27.665  1.00  0.00    -0.053 A 
ATOM     73  H   UNL A   1      45.624  22.901  27.504  1.00  0.00     0.063 H 
ATOM     74  C   UNL A   1      42.979  25.099  25.827  1.00  0.00    -0.053 A 
ATOM     75  H   UNL A   1      42.954  23.607  24.347  1.00  0.00     0.063 H 
ATOM     76  C   UNL A   1      43.505  25.458  27.060  1.00  0.00    -0.014 A 
ATOM     77  H   UNL A   1      44.899  24.946  28.560  1.00  0.00     0.063 H 
ATOM     78  H   UNL A   1      42.316  25.722  25.339  1.00  0.00     0.063 H 
BRANCH  76  79
ATOM     79  C   UNL A   1      43.182  26.717  27.726  1.00  0.00     0.031 A 
ATOM     80  C   UNL A   1      44.181  27.803  27.507  1.00  0.00     0.074 A 
ATOM     81  C   UNL A   1      42.068  26.940  28.450  1.00  0.00     0.049 A 
ATOM     82  N   UNL A   1      44.926  28.388  28.389  1.00  0.00    -0.248 NA
ATOM     83  C   UNL A   1      44.465  28.201  26.121  1.00  0.00    -0.034 C 
ATOM     84  C   UNL A   1      40.875  26.100  28.561  1.00  0.00    -0.036 A 
ATOM     85  N   UNL A   1      41.748  28.034  29.201  1.00  0.00    -0.354 N 
ATOM     86  C   UNL A   1      45.675  29.336  27.694  1.00  0.00     0.074 A 
ATOM     87  C   UNL A   1      45.436  29.098  26.295  1.00  0.00    -0.034 C 
ATOM     88  H   UNL A   1      44.030  27.873  25.246  1.00  0.00     0.065 H 
ATOM     89  C   UNL A   1      39.887  26.804  29.159  1.00  0.00    -0.036 A 
ATOM     90  H   UNL A   1      40.799  25.125  28.233  1.00  0.00     0.065 H 
ATOM     91  C   UNL A   1      40.420  28.083  29.601  1.00  0.00     0.049 A 
ATOM     92  H   UNL A   1      42.403  28.730  29.439  1.00  0.00     0.167 HD
ATOM     93  C   UNL A   1      46.290  30.366  28.338  1.00  0.00     0.037 A 
ATOM     94  H   UNL A   1      45.948  29.561  25.527  1.00  0.00     0.065 H 
ATOM     95  H   UNL A   1      38.913  26.486  29.282  1.00  0.00     0.065 H 
ATOM     96  C   UNL A   1      39.798  29.122  30.210  1.00  0.00     0.037 A 
ATOM     97  C   UNL A   1      46.455  30.080  29.738  1.00  0.00     0.049 A 
ATOM     98  C   UNL A   1      40.843  29.957  30.845  1.00  0.00     0.074 A 
ATOM     99  C   UNL A   1      47.178  29.166  30.475  1.00  0.00    -0.036 A 
ATOM    100  N   UNL A   1      45.541  30.626  30.601  1.00  0.00    -0.354 N 
ATOM    101  N   UNL A   1      41.548  29.593  31.878  1.00  0.00    -0.248 NA
ATOM    102  C   UNL A   1      41.363  31.096  30.104  1.00  0.00    -0.034 C 
ATOM    103  C   UNL A   1      46.381  28.895  31.625  1.00  0.00    -0.036 A 
ATOM    104  H   UNL A   1      48.100  28.763  30.244  1.00  0.00     0.065 H 
ATOM    105  C   UNL A   1      45.233  29.684  31.545  1.00  0.00     0.049 A 
ATOM    106  H   UNL A   1      45.171  31.536  30.551  1.00  0.00     0.167 HD
ATOM    107  C   UNL A   1      42.793  30.159  31.665  1.00  0.00     0.074 A 
ATOM    108  C   UNL A   1      42.578  31.178  30.646  1.00  0.00    -0.034 C 
ATOM    109  H   UNL A   1      40.919  31.672  29.372  1.00  0.00     0.065 H 
ATOM    110  H   UNL A   1      46.612  28.233  32.382  1.00  0.00     0.065 H 
ATOM    111  C   UNL A   1      43.921  29.551  32.135  1.00  0.00     0.037 A 
ATOM    112  H   UNL A   1      43.285  31.880  30.375  1.00  0.00     0.065 H 
BRANCH  93 113
ATOM    113  C   UNL A   1      46.405  31.771  27.791  1.00  0.00     0.064 A 
ATOM    114  C   UNL A   1      45.228  32.499  27.510  1.00  0.00     0.173 A 
ATOM    115  C   UNL A   1      47.590  32.304  27.239  1.00  0.00     0.173 A 
ATOM    116  F   UNL A   1      44.039  32.082  27.968  1.00  0.00    -0.203 F 
ATOM    117  C   UNL A   1      45.230  33.615  26.669  1.00  0.00     0.198 A 
ATOM    118  C   UNL A   1      47.595  33.448  26.442  1.00  0.00     0.198 A 
ATOM    119  F   UNL A   1      48.771  31.685  27.351  1.00  0.00    -0.203 F 
ATOM    120  F   UNL A   1      44.070  34.191  26.325  1.00  0.00    -0.200 F 
ATOM    121  C   UNL A   1      46.413  34.084  26.128  1.00  0.00     0.200 A 
ATOM    122  F   UNL A   1      48.749  33.876  25.913  1.00  0.00    -0.200 F 
ATOM    123  F   UNL A   1      46.410  35.111  25.270  1.00  0.00    -0.200 F 
ENDBRANCH  93 113
BRANCH  96 124
ATOM    124  C   UNL A   1      38.405  29.606  30.054  1.00  0.00     0.064 A 
ATOM    125  C   UNL A   1      37.607  29.876  31.181  1.00  0.00     0.173 A 
ATOM    126  C   UNL A   1      37.940  30.109  28.826  1.00  0.00     0.173 A 
ATOM    127  F   UNL A   1      37.994  29.464  32.397  1.00  0.00    -0.203 F 
ATOM    128  C   UNL A   1      36.444  30.648  31.089  1.00  0.00     0.198 A 
ATOM    129  C   UNL A   1      36.774  30.872  28.735  1.00  0.00     0.198 A 
ATOM    130  F   UNL A   1      38.660  29.961  27.704  1.00  0.00    -0.203 F 
ATOM    131  F   UNL A   1      35.756  30.953  32.199  1.00  0.00    -0.200 F 
ATOM    132  C   UNL A   1      36.038  31.158  29.869  1.00  0.00     0.200 A 
ATOM    133  F   UNL A   1      36.410  31.388  27.552  1.00  0.00    -0.200 F 
ATOM    134  F   UNL A   1      34.967  31.959  29.792  1.00  0.00    -0.200 F 
ENDBRANCH  96 124
BRANCH 111 135
ATOM    135  C   UNL A   1      43.755  28.483  33.178  1.00  0.00     0.064 A 
ATOM    136  C   UNL A   1      43.666  27.109  32.896  1.00  0.00     0.173 A 
ATOM    137  C   UNL A   1      43.832  28.863  34.525  1.00  0.00     0.173 A 
ATOM    138  F   UNL A   1      43.682  26.660  31.634  1.00  0.00    -0.203 F 
ATOM    139  C   UNL A   1      43.622  26.166  33.921  1.00  0.00     0.198 A 
ATOM    140  C   UNL A   1      43.828  27.917  35.544  1.00  0.00     0.198 A 
ATOM    141  F   UNL A   1      43.968  30.159  34.851  1.00  0.00    -0.203 F 
ATOM    142  F   UNL A   1      43.530  24.859  33.631  1.00  0.00    -0.200 F 
ATOM    143  C   UNL A   1      43.714  26.570  35.243  1.00  0.00     0.200 A 
ATOM    144  F   UNL A   1      43.968  28.310  36.817  1.00  0.00    -0.200 F 
ATOM    145  F   UNL A   1      43.724  25.659  36.227  1.00  0.00    -0.200 F 
ENDBRANCH 111 135
ENDBRANCH  76  79
ENDBRANCH  66  69
ENDBRANCH  62  65
ENDBRANCH  59  62
ENDBRANCH  56  59
ENDBRANCH   1  56
TORSDOF 18
ENDMDL
MODEL 8
REMARK VINA RESULT:     -11.6      2.898      8.950
REMARK SMILES Cc1ccc2c(c1)c(-c1ccnc3c(C)cccc13)c(C)n2CC(=O)NCCCCCCNC(=O)c1ccc(-c2c3nc(c(-c4c(F)c(F)c(F)c(F)c4F)c4ccc([nH]4)c(-c4c(F)c(F)c(F)c(F)c4F)c4nc(c(-c5c(F)c(F)c(F)c(F)c5F)c5ccc2[nH]5)C=C4)C=C3)cc1
REMARK SMILES IDX 29 1 28 4 27 7 26 10 24 11 25 12 23 14 22 17 2 18 3 19 7 20
REMARK SMILES IDX 4 21 6 23 5 25 8 27 20 28 1 29 9 33 10 34 19 35 11 36 13 38
REMARK SMILES IDX 18 39 12 40 14 42 17 43 16 45 15 48 21 52 30 56 31 59 32 62
REMARK SMILES IDX 33 65 34 66 35 68 36 69 37 70 98 71 38 72 97 74 39 76 40 79
REMARK SMILES IDX 41 80 91 81 42 82 96 83 90 84 92 85 43 86 95 87 89 89 88 91
REMARK SMILES IDX 44 93 76 96 56 97 75 98 57 99 60 100 74 101 93 102 58 103
REMARK SMILES IDX 59 105 73 107 94 108 61 111 45 113 46 114 54 115 47 116
REMARK SMILES IDX 48 117 52 118 55 119 49 120 50 121 53 122 51 123 77 124
REMARK SMILES IDX 78 125 86 126 79 127 80 128 84 129 87 130 81 131 82 132
REMARK SMILES IDX 85 133 83 134 62 135 63 136 71 137 64 138 65 139 69 140
REMARK SMILES IDX 72 141 66 142 67 143 70 144 68 145
REMARK H PARENT 29 2 29 3 28 5 28 6 27 8 27 9 26 13 23 15 23 16 3 22 7 24 4 26
REMARK H PARENT 1 30 1 31 1 32 10 37 11 41 18 44 17 46 16 47 15 49 15 50 15 51
REMARK H PARENT 21 53 21 54 21 55 30 57 30 58 31 60 31 61 32 63 32 64 33 67
REMARK H PARENT 37 73 98 75 38 77 97 78 96 88 90 90 92 92 95 94 89 95 57 104
REMARK H PARENT 60 106 93 109 58 110 94 112
REMARK Flexibility Score: inf
ROOT
ATOM      1  C   UNL A   1      31.676  29.137  24.868  1.00  0.00    -0.052 C 
ATOM      2  H   UNL A   1      32.573  28.959  24.312  1.00  0.00     0.027 H 
ATOM      3  H   UNL A   1      31.389  28.308  25.480  1.00  0.00     0.027 H 
ENDROOT
BRANCH   1   4
ATOM      4  C   UNL A   1      30.530  29.358  23.872  1.00  0.00    -0.036 C 
ATOM      5  H   UNL A   1      29.683  28.798  24.207  1.00  0.00     0.028 H 
ATOM      6  H   UNL A   1      30.345  30.411  23.844  1.00  0.00     0.028 H 
BRANCH   4   7
ATOM      7  C   UNL A   1      30.855  28.929  22.444  1.00  0.00     0.017 C 
ATOM      8  H   UNL A   1      30.233  28.100  22.178  1.00  0.00     0.049 H 
ATOM      9  H   UNL A   1      30.676  29.760  21.793  1.00  0.00     0.049 H 
BRANCH   7  10
ATOM     10  N   UNL A   1      32.245  28.538  22.313  1.00  0.00    -0.355 N 
ATOM     11  C   UNL A   1      32.778  27.320  22.004  1.00  0.00     0.239 C 
ATOM     12  O   UNL A   1      34.009  27.219  22.002  1.00  0.00    -0.273 OA
ATOM     13  H   UNL A   1      32.900  29.256  22.469  1.00  0.00     0.163 HD
BRANCH  11  14
ATOM     14  C   UNL A   1      31.896  26.154  21.599  1.00  0.00     0.102 C 
ATOM     15  H   UNL A   1      30.895  26.515  21.483  1.00  0.00     0.060 H 
ATOM     16  H   UNL A   1      32.302  25.762  20.689  1.00  0.00     0.060 H 
BRANCH  14  17
ATOM     17  N   UNL A   1      31.879  25.056  22.560  1.00  0.00    -0.335 N 
ATOM     18  C   UNL A   1      29.780  24.505  26.110  1.00  0.00    -0.050 A 
ATOM     19  C   UNL A   1      29.380  25.578  25.313  1.00  0.00    -0.057 A 
ATOM     20  C   UNL A   1      30.796  23.648  25.658  1.00  0.00    -0.049 A 
ATOM     21  C   UNL A   1      29.984  25.829  24.078  1.00  0.00    -0.037 A 
ATOM     22  H   UNL A   1      28.625  26.199  25.641  1.00  0.00     0.063 H 
ATOM     23  C   UNL A   1      31.429  23.886  24.417  1.00  0.00     0.008 A 
ATOM     24  H   UNL A   1      31.083  22.842  26.235  1.00  0.00     0.063 H 
ATOM     25  C   UNL A   1      31.033  24.990  23.660  1.00  0.00     0.049 A 
ATOM     26  H   UNL A   1      29.667  26.613  23.485  1.00  0.00     0.065 H 
ATOM     27  C   UNL A   1      32.462  23.226  23.690  1.00  0.00     0.011 A 
ATOM     28  C   UNL A   1      32.690  23.937  22.520  1.00  0.00     0.024 A 
BRANCH  18  29
ATOM     29  C   UNL A   1      29.146  24.304  27.455  1.00  0.00    -0.040 C 
ATOM     30  H   UNL A   1      28.205  24.810  27.486  1.00  0.00     0.028 H 
ATOM     31  H   UNL A   1      29.789  24.700  28.214  1.00  0.00     0.028 H 
ATOM     32  H   UNL A   1      28.996  23.258  27.626  1.00  0.00     0.028 H 
ENDBRANCH  18  29
BRANCH  27  33
ATOM     33  C   UNL A   1      33.209  22.023  24.044  1.00  0.00    -0.005 A 
ATOM     34  C   UNL A   1      32.531  20.808  24.030  1.00  0.00    -0.035 A 
ATOM     35  C   UNL A   1      34.591  22.064  24.365  1.00  0.00     0.008 A 
ATOM     36  C   UNL A   1      33.252  19.670  24.314  1.00  0.00     0.028 A 
ATOM     37  H   UNL A   1      31.522  20.761  23.816  1.00  0.00     0.065 H 
ATOM     38  C   UNL A   1      35.242  20.837  24.626  1.00  0.00     0.074 A 
ATOM     39  C   UNL A   1      35.334  23.264  24.430  1.00  0.00    -0.052 A 
ATOM     40  N   UNL A   1      34.571  19.666  24.599  1.00  0.00    -0.256 NA
ATOM     41  H   UNL A   1      32.754  18.766  24.307  1.00  0.00     0.084 H 
ATOM     42  C   UNL A   1      36.617  20.860  24.911  1.00  0.00    -0.025 A 
ATOM     43  C   UNL A   1      36.689  23.273  24.736  1.00  0.00    -0.061 A 
ATOM     44  H   UNL A   1      34.857  24.159  24.245  1.00  0.00     0.063 H 
ATOM     45  C   UNL A   1      37.330  22.071  24.973  1.00  0.00    -0.057 A 
ATOM     46  H   UNL A   1      37.208  24.164  24.787  1.00  0.00     0.062 H 
ATOM     47  H   UNL A   1      38.338  22.063  25.195  1.00  0.00     0.063 H 
BRANCH  42  48
ATOM     48  C   UNL A   1      37.392  19.591  25.159  1.00  0.00    -0.038 C 
ATOM     49  H   UNL A   1      38.314  19.827  25.647  1.00  0.00     0.028 H 
ATOM     50  H   UNL A   1      37.596  19.110  24.225  1.00  0.00     0.028 H 
ATOM     51  H   UNL A   1      36.816  18.938  25.779  1.00  0.00     0.028 H 
ENDBRANCH  42  48
ENDBRANCH  27  33
BRANCH  28  52
ATOM     52  C   UNL A   1      33.653  23.644  21.415  1.00  0.00    -0.024 C 
ATOM     53  H   UNL A   1      34.434  23.011  21.782  1.00  0.00     0.030 H 
ATOM     54  H   UNL A   1      34.075  24.560  21.058  1.00  0.00     0.030 H 
ATOM     55  H   UNL A   1      33.139  23.151  20.616  1.00  0.00     0.030 H 
ENDBRANCH  28  52
ENDBRANCH  14  17
ENDBRANCH  11  14
ENDBRANCH   7  10
ENDBRANCH   4   7
ENDBRANCH   1   4
BRANCH   1  56
ATOM     56  C   UNL A   1      31.931  30.309  25.820  1.00  0.00    -0.052 C 
ATOM     57  H   UNL A   1      30.986  30.743  26.072  1.00  0.00     0.027 H 
ATOM     58  H   UNL A   1      32.582  30.980  25.300  1.00  0.00     0.027 H 
BRANCH  56  59
ATOM     59  C   UNL A   1      32.647  29.941  27.123  1.00  0.00    -0.036 C 
ATOM     60  H   UNL A   1      32.729  28.876  27.170  1.00  0.00     0.028 H 
ATOM     61  H   UNL A   1      32.059  30.349  27.919  1.00  0.00     0.028 H 
BRANCH  59  62
ATOM     62  C   UNL A   1      34.049  30.537  27.267  1.00  0.00     0.018 C 
ATOM     63  H   UNL A   1      34.322  30.984  26.334  1.00  0.00     0.049 H 
ATOM     64  H   UNL A   1      34.700  29.735  27.545  1.00  0.00     0.049 H 
BRANCH  62  65
ATOM     65  N   UNL A   1      34.157  31.543  28.303  1.00  0.00    -0.352 N 
ATOM     66  C   UNL A   1      35.144  31.929  29.176  1.00  0.00     0.251 C 
ATOM     67  H   UNL A   1      33.334  32.073  28.403  1.00  0.00     0.163 HD
ATOM     68  O   UNL A   1      34.923  32.930  29.843  1.00  0.00    -0.269 OA
BRANCH  66  69
ATOM     69  C   UNL A   1      36.411  31.177  29.410  1.00  0.00     0.039 A 
ATOM     70  C   UNL A   1      37.690  31.725  29.420  1.00  0.00    -0.049 A 
ATOM     71  C   UNL A   1      36.281  29.783  29.578  1.00  0.00    -0.049 A 
ATOM     72  C   UNL A   1      38.808  30.901  29.462  1.00  0.00    -0.053 A 
ATOM     73  H   UNL A   1      37.809  32.749  29.394  1.00  0.00     0.063 H 
ATOM     74  C   UNL A   1      37.398  28.954  29.661  1.00  0.00    -0.053 A 
ATOM     75  H   UNL A   1      35.338  29.368  29.641  1.00  0.00     0.063 H 
ATOM     76  C   UNL A   1      38.664  29.514  29.552  1.00  0.00    -0.014 A 
ATOM     77  H   UNL A   1      39.752  31.318  29.426  1.00  0.00     0.063 H 
ATOM     78  H   UNL A   1      37.286  27.938  29.802  1.00  0.00     0.063 H 
BRANCH  76  79
ATOM     79  C   UNL A   1      39.892  28.727  29.646  1.00  0.00     0.031 A 
ATOM     80  C   UNL A   1      40.437  28.600  31.028  1.00  0.00     0.074 A 
ATOM     81  C   UNL A   1      40.492  28.115  28.607  1.00  0.00     0.049 A 
ATOM     82  N   UNL A   1      41.566  29.040  31.482  1.00  0.00    -0.248 NA
ATOM     83  C   UNL A   1      39.563  28.013  32.056  1.00  0.00    -0.034 C 
ATOM     84  C   UNL A   1      39.979  27.913  27.252  1.00  0.00    -0.036 A 
ATOM     85  N   UNL A   1      41.695  27.469  28.583  1.00  0.00    -0.354 N 
ATOM     86  C   UNL A   1      41.618  28.659  32.821  1.00  0.00     0.074 A 
ATOM     87  C   UNL A   1      40.318  28.136  33.148  1.00  0.00    -0.034 C 
ATOM     88  H   UNL A   1      38.618  27.614  31.958  1.00  0.00     0.065 H 
ATOM     89  C   UNL A   1      40.766  27.023  26.605  1.00  0.00    -0.036 A 
ATOM     90  H   UNL A   1      39.148  28.376  26.853  1.00  0.00     0.065 H 
ATOM     91  C   UNL A   1      41.911  26.707  27.443  1.00  0.00     0.049 A 
ATOM     92  H   UNL A   1      42.354  27.537  29.312  1.00  0.00     0.167 HD
ATOM     93  C   UNL A   1      42.795  28.635  33.507  1.00  0.00     0.037 A 
ATOM     94  H   UNL A   1      40.010  27.888  34.102  1.00  0.00     0.065 H 
ATOM     95  H   UNL A   1      40.583  26.631  25.667  1.00  0.00     0.065 H 
ATOM     96  C   UNL A   1      42.935  25.845  27.230  1.00  0.00     0.037 A 
ATOM     97  C   UNL A   1      43.789  29.450  32.864  1.00  0.00     0.049 A 
ATOM     98  C   UNL A   1      44.037  26.229  28.142  1.00  0.00     0.074 A 
ATOM     99  C   UNL A   1      43.944  30.798  32.615  1.00  0.00    -0.036 A 
ATOM    100  N   UNL A   1      44.709  28.811  32.074  1.00  0.00    -0.354 N 
ATOM    101  N   UNL A   1      44.745  27.316  28.023  1.00  0.00    -0.248 NA
ATOM    102  C   UNL A   1      44.137  25.555  29.428  1.00  0.00    -0.034 C 
ATOM    103  C   UNL A   1      44.643  30.874  31.375  1.00  0.00    -0.036 A 
ATOM    104  H   UNL A   1      43.621  31.584  33.201  1.00  0.00     0.065 H 
ATOM    105  C   UNL A   1      44.909  29.571  30.953  1.00  0.00     0.049 A 
ATOM    106  H   UNL A   1      45.149  27.954  32.277  1.00  0.00     0.167 HD
ATOM    107  C   UNL A   1      45.024  27.693  29.325  1.00  0.00     0.074 A 
ATOM    108  C   UNL A   1      44.752  26.508  30.130  1.00  0.00    -0.034 C 
ATOM    109  H   UNL A   1      43.824  24.614  29.711  1.00  0.00     0.065 H 
ATOM    110  H   UNL A   1      44.906  31.739  30.878  1.00  0.00     0.065 H 
ATOM    111  C   UNL A   1      45.177  29.009  29.649  1.00  0.00     0.037 A 
ATOM    112  H   UNL A   1      45.005  26.417  31.126  1.00  0.00     0.065 H 
BRANCH  93 113
ATOM    113  C   UNL A   1      43.162  27.592  34.539  1.00  0.00     0.064 A 
ATOM    114  C   UNL A   1      43.456  28.003  35.858  1.00  0.00     0.173 A 
ATOM    115  C   UNL A   1      43.544  26.272  34.220  1.00  0.00     0.173 A 
ATOM    116  F   UNL A   1      43.154  29.242  36.274  1.00  0.00    -0.203 F 
ATOM    117  C   UNL A   1      44.158  27.187  36.750  1.00  0.00     0.198 A 
ATOM    118  C   UNL A   1      44.199  25.442  35.129  1.00  0.00     0.198 A 
ATOM    119  F   UNL A   1      43.405  25.767  32.989  1.00  0.00    -0.203 F 
ATOM    120  F   UNL A   1      44.531  27.670  37.942  1.00  0.00    -0.200 F 
ATOM    121  C   UNL A   1      44.537  25.910  36.382  1.00  0.00     0.200 A 
ATOM    122  F   UNL A   1      44.574  24.213  34.747  1.00  0.00    -0.200 F 
ATOM    123  F   UNL A   1      45.266  25.150  37.208  1.00  0.00    -0.200 F 
ENDBRANCH  93 113
BRANCH  96 124
ATOM    124  C   UNL A   1      42.939  24.551  26.508  1.00  0.00     0.064 A 
ATOM    125  C   UNL A   1      43.694  24.386  25.331  1.00  0.00     0.173 A 
ATOM    126  C   UNL A   1      42.467  23.373  27.116  1.00  0.00     0.173 A 
ATOM    127  F   UNL A   1      44.213  25.453  24.706  1.00  0.00    -0.203 F 
ATOM    128  C   UNL A   1      44.000  23.118  24.827  1.00  0.00     0.198 A 
ATOM    129  C   UNL A   1      42.766  22.109  26.605  1.00  0.00     0.198 A 
ATOM    130  F   UNL A   1      41.794  23.419  28.274  1.00  0.00    -0.203 F 
ATOM    131  F   UNL A   1      44.791  23.000  23.751  1.00  0.00    -0.200 F 
ATOM    132  C   UNL A   1      43.549  21.980  25.474  1.00  0.00     0.200 A 
ATOM    133  F   UNL A   1      42.352  21.014  27.260  1.00  0.00    -0.200 F 
ATOM    134  F   UNL A   1      43.905  20.765  25.035  1.00  0.00    -0.200 F 
ENDBRANCH  96 124
BRANCH 111 135
ATOM    135  C   UNL A   1      45.400  29.982  28.528  1.00  0.00     0.064 A 
ATOM    136  C   UNL A   1      44.369  30.600  27.800  1.00  0.00     0.173 A 
ATOM    137  C   UNL A   1      46.712  30.409  28.280  1.00  0.00     0.173 A 
ATOM    138  F   UNL A   1      43.083  30.314  28.044  1.00  0.00    -0.203 F 
ATOM    139  C   UNL A   1      44.648  31.575  26.843  1.00  0.00     0.198 A 
ATOM    140  C   UNL A   1      46.983  31.410  27.355  1.00  0.00     0.198 A 
ATOM    141  F   UNL A   1      47.732  29.888  28.982  1.00  0.00    -0.203 F 
ATOM    142  F   UNL A   1      43.649  32.148  26.155  1.00  0.00    -0.200 F 
ATOM    143  C   UNL A   1      45.953  31.987  26.631  1.00  0.00     0.200 A 
ATOM    144  F   UNL A   1      48.242  31.840  27.189  1.00  0.00    -0.200 F 
ATOM    145  F   UNL A   1      46.216  32.962  25.748  1.00  0.00    -0.200 F 
ENDBRANCH 111 135
ENDBRANCH  76  79
ENDBRANCH  66  69
ENDBRANCH  62  65
ENDBRANCH  59  62
ENDBRANCH  56  59
ENDBRANCH   1  56
TORSDOF 18
ENDMDL
MODEL 9
REMARK VINA RESULT:     -11.6      5.505     12.049
REMARK SMILES Cc1ccc2c(c1)c(-c1ccnc3c(C)cccc13)c(C)n2CC(=O)NCCCCCCNC(=O)c1ccc(-c2c3nc(c(-c4c(F)c(F)c(F)c(F)c4F)c4ccc([nH]4)c(-c4c(F)c(F)c(F)c(F)c4F)c4nc(c(-c5c(F)c(F)c(F)c(F)c5F)c5ccc2[nH]5)C=C4)C=C3)cc1
REMARK SMILES IDX 29 1 28 4 27 7 26 10 24 11 25 12 23 14 22 17 2 18 3 19 7 20
REMARK SMILES IDX 4 21 6 23 5 25 8 27 20 28 1 29 9 33 10 34 19 35 11 36 13 38
REMARK SMILES IDX 18 39 12 40 14 42 17 43 16 45 15 48 21 52 30 56 31 59 32 62
REMARK SMILES IDX 33 65 34 66 35 68 36 69 37 70 98 71 38 72 97 74 39 76 40 79
REMARK SMILES IDX 41 80 91 81 42 82 96 83 90 84 92 85 43 86 95 87 89 89 88 91
REMARK SMILES IDX 44 93 76 96 56 97 75 98 57 99 60 100 74 101 93 102 58 103
REMARK SMILES IDX 59 105 73 107 94 108 61 111 45 113 46 114 54 115 47 116
REMARK SMILES IDX 48 117 52 118 55 119 49 120 50 121 53 122 51 123 77 124
REMARK SMILES IDX 78 125 86 126 79 127 80 128 84 129 87 130 81 131 82 132
REMARK SMILES IDX 85 133 83 134 62 135 63 136 71 137 64 138 65 139 69 140
REMARK SMILES IDX 72 141 66 142 67 143 70 144 68 145
REMARK H PARENT 29 2 29 3 28 5 28 6 27 8 27 9 26 13 23 15 23 16 3 22 7 24 4 26
REMARK H PARENT 1 30 1 31 1 32 10 37 11 41 18 44 17 46 16 47 15 49 15 50 15 51
REMARK H PARENT 21 53 21 54 21 55 30 57 30 58 31 60 31 61 32 63 32 64 33 67
REMARK H PARENT 37 73 98 75 38 77 97 78 96 88 90 90 92 92 95 94 89 95 57 104
REMARK H PARENT 60 106 93 109 58 110 94 112
REMARK Flexibility Score: inf
ROOT
ATOM      1  C   UNL A   1      37.146  31.547  32.510  1.00  0.00    -0.052 C 
ATOM      2  H   UNL A   1      37.652  32.097  31.743  1.00  0.00     0.027 H 
ATOM      3  H   UNL A   1      37.002  32.112  33.406  1.00  0.00     0.027 H 
ENDROOT
BRANCH   1   4
ATOM      4  C   UNL A   1      38.019  30.344  32.891  1.00  0.00    -0.036 C 
ATOM      5  H   UNL A   1      37.381  29.495  33.019  1.00  0.00     0.028 H 
ATOM      6  H   UNL A   1      38.728  30.214  32.101  1.00  0.00     0.028 H 
BRANCH   4   7
ATOM      7  C   UNL A   1      38.821  30.538  34.175  1.00  0.00     0.017 C 
ATOM      8  H   UNL A   1      39.694  29.921  34.138  1.00  0.00     0.049 H 
ATOM      9  H   UNL A   1      39.091  31.571  34.252  1.00  0.00     0.049 H 
BRANCH   7  10
ATOM     10  N   UNL A   1      38.041  30.182  35.344  1.00  0.00    -0.355 N 
ATOM     11  C   UNL A   1      38.156  30.622  36.632  1.00  0.00     0.239 C 
ATOM     12  O   UNL A   1      37.400  30.128  37.474  1.00  0.00    -0.273 OA
ATOM     13  H   UNL A   1      37.323  29.526  35.187  1.00  0.00     0.163 HD
BRANCH  11  14
ATOM     14  C   UNL A   1      39.120  31.734  37.000  1.00  0.00     0.102 C 
ATOM     15  H   UNL A   1      38.767  32.204  37.894  1.00  0.00     0.060 H 
ATOM     16  H   UNL A   1      40.082  31.281  37.124  1.00  0.00     0.060 H 
BRANCH  14  17
ATOM     17  N   UNL A   1      39.268  32.760  35.971  1.00  0.00    -0.335 N 
ATOM     18  C   UNL A   1      36.468  34.921  33.781  1.00  0.00    -0.050 A 
ATOM     19  C   UNL A   1      35.978  34.181  34.857  1.00  0.00    -0.057 A 
ATOM     20  C   UNL A   1      37.850  34.953  33.537  1.00  0.00    -0.049 A 
ATOM     21  C   UNL A   1      36.834  33.455  35.689  1.00  0.00    -0.037 A 
ATOM     22  H   UNL A   1      34.963  34.168  35.042  1.00  0.00     0.063 H 
ATOM     23  C   UNL A   1      38.736  34.220  34.358  1.00  0.00     0.008 A 
ATOM     24  H   UNL A   1      38.220  35.513  32.753  1.00  0.00     0.063 H 
ATOM     25  C   UNL A   1      38.211  33.458  35.404  1.00  0.00     0.049 A 
ATOM     26  H   UNL A   1      36.464  32.928  36.496  1.00  0.00     0.065 H 
ATOM     27  C   UNL A   1      40.150  34.046  34.380  1.00  0.00     0.011 A 
ATOM     28  C   UNL A   1      40.463  33.179  35.418  1.00  0.00     0.024 A 
BRANCH  18  29
ATOM     29  C   UNL A   1      35.510  35.639  32.876  1.00  0.00    -0.040 C 
ATOM     30  H   UNL A   1      34.547  35.681  33.338  1.00  0.00     0.028 H 
ATOM     31  H   UNL A   1      35.438  35.114  31.946  1.00  0.00     0.028 H 
ATOM     32  H   UNL A   1      35.865  36.633  32.699  1.00  0.00     0.028 H 
ENDBRANCH  18  29
BRANCH  27  33
ATOM     33  C   UNL A   1      41.160  34.626  33.500  1.00  0.00    -0.005 A 
ATOM     34  C   UNL A   1      41.873  35.728  33.963  1.00  0.00    -0.035 A 
ATOM     35  C   UNL A   1      41.446  34.080  32.222  1.00  0.00     0.008 A 
ATOM     36  C   UNL A   1      42.860  36.239  33.152  1.00  0.00     0.028 A 
ATOM     37  H   UNL A   1      41.667  36.149  34.884  1.00  0.00     0.065 H 
ATOM     38  C   UNL A   1      42.490  34.669  31.473  1.00  0.00     0.074 A 
ATOM     39  C   UNL A   1      40.742  32.983  31.675  1.00  0.00    -0.052 A 
ATOM     40  N   UNL A   1      43.177  35.732  31.942  1.00  0.00    -0.256 NA
ATOM     41  H   UNL A   1      43.390  37.058  33.489  1.00  0.00     0.084 H 
ATOM     42  C   UNL A   1      42.806  34.117  30.221  1.00  0.00    -0.025 A 
ATOM     43  C   UNL A   1      41.050  32.462  30.425  1.00  0.00    -0.061 A 
ATOM     44  H   UNL A   1      39.978  32.557  32.219  1.00  0.00     0.063 H 
ATOM     45  C   UNL A   1      42.084  33.027  29.700  1.00  0.00    -0.057 A 
ATOM     46  H   UNL A   1      40.515  31.666  30.042  1.00  0.00     0.062 H 
ATOM     47  H   UNL A   1      42.328  32.646  28.773  1.00  0.00     0.063 H 
BRANCH  42  48
ATOM     48  C   UNL A   1      43.932  34.661  29.381  1.00  0.00    -0.038 C 
ATOM     49  H   UNL A   1      43.608  35.552  28.885  1.00  0.00     0.028 H 
ATOM     50  H   UNL A   1      44.219  33.931  28.652  1.00  0.00     0.028 H 
ATOM     51  H   UNL A   1      44.769  34.886  30.008  1.00  0.00     0.028 H 
ENDBRANCH  42  48
ENDBRANCH  27  33
BRANCH  28  52
ATOM     52  C   UNL A   1      41.806  32.699  35.868  1.00  0.00    -0.024 C 
ATOM     53  H   UNL A   1      42.033  33.119  36.825  1.00  0.00     0.030 H 
ATOM     54  H   UNL A   1      42.549  33.004  35.159  1.00  0.00     0.030 H 
ATOM     55  H   UNL A   1      41.797  31.632  35.939  1.00  0.00     0.030 H 
ENDBRANCH  28  52
ENDBRANCH  14  17
ENDBRANCH  11  14
ENDBRANCH   7  10
ENDBRANCH   4   7
ENDBRANCH   1   4
BRANCH   1  56
ATOM     56  C   UNL A   1      35.750  31.186  31.995  1.00  0.00    -0.052 C 
ATOM     57  H   UNL A   1      35.296  30.526  32.704  1.00  0.00     0.027 H 
ATOM     58  H   UNL A   1      35.892  30.745  31.031  1.00  0.00     0.027 H 
BRANCH  56  59
ATOM     59  C   UNL A   1      34.810  32.377  31.786  1.00  0.00    -0.036 C 
ATOM     60  H   UNL A   1      34.889  33.020  32.637  1.00  0.00     0.028 H 
ATOM     61  H   UNL A   1      33.827  31.971  31.660  1.00  0.00     0.028 H 
BRANCH  59  62
ATOM     62  C   UNL A   1      35.103  33.204  30.532  1.00  0.00     0.018 C 
ATOM     63  H   UNL A   1      36.154  33.401  30.498  1.00  0.00     0.049 H 
ATOM     64  H   UNL A   1      34.519  34.098  30.606  1.00  0.00     0.049 H 
BRANCH  62  65
ATOM     65  N   UNL A   1      34.721  32.554  29.295  1.00  0.00    -0.352 N 
ATOM     66  C   UNL A   1      35.219  31.508  28.559  1.00  0.00     0.251 C 
ATOM     67  H   UNL A   1      33.919  32.955  28.889  1.00  0.00     0.163 HD
ATOM     68  O   UNL A   1      34.547  31.141  27.606  1.00  0.00    -0.269 OA
BRANCH  66  69
ATOM     69  C   UNL A   1      36.538  30.853  28.801  1.00  0.00     0.039 A 
ATOM     70  C   UNL A   1      37.757  31.510  28.931  1.00  0.00    -0.049 A 
ATOM     71  C   UNL A   1      36.531  29.444  28.840  1.00  0.00    -0.049 A 
ATOM     72  C   UNL A   1      38.945  30.789  28.967  1.00  0.00    -0.053 A 
ATOM     73  H   UNL A   1      37.781  32.539  29.001  1.00  0.00     0.063 H 
ATOM     74  C   UNL A   1      37.716  28.714  28.915  1.00  0.00    -0.053 A 
ATOM     75  H   UNL A   1      35.629  28.942  28.812  1.00  0.00     0.063 H 
ATOM     76  C   UNL A   1      38.928  29.392  28.929  1.00  0.00    -0.014 A 
ATOM     77  H   UNL A   1      39.846  31.290  29.023  1.00  0.00     0.063 H 
ATOM     78  H   UNL A   1      37.693  27.683  28.961  1.00  0.00     0.063 H 
BRANCH  76  79
ATOM     79  C   UNL A   1      40.217  28.713  29.026  1.00  0.00     0.031 A 
ATOM     80  C   UNL A   1      40.717  28.536  30.420  1.00  0.00     0.074 A 
ATOM     81  C   UNL A   1      40.913  28.232  27.977  1.00  0.00     0.049 A 
ATOM     82  N   UNL A   1      41.782  29.041  30.953  1.00  0.00    -0.248 NA
ATOM     83  C   UNL A   1      39.861  27.802  31.364  1.00  0.00    -0.034 C 
ATOM     84  C   UNL A   1      40.475  28.083  26.589  1.00  0.00    -0.036 A 
ATOM     85  N   UNL A   1      42.170  27.699  27.964  1.00  0.00    -0.354 N 
ATOM     86  C   UNL A   1      41.816  28.571  32.265  1.00  0.00     0.074 A 
ATOM     87  C   UNL A   1      40.557  27.913  32.496  1.00  0.00    -0.034 C 
ATOM     88  H   UNL A   1      38.961  27.328  31.196  1.00  0.00     0.065 H 
ATOM     89  C   UNL A   1      41.365  27.315  25.919  1.00  0.00    -0.036 A 
ATOM     90  H   UNL A   1      39.621  28.497  26.185  1.00  0.00     0.065 H 
ATOM     91  C   UNL A   1      42.500  27.043  26.787  1.00  0.00     0.049 A 
ATOM     92  H   UNL A   1      42.790  27.774  28.725  1.00  0.00     0.167 HD
ATOM     93  C   UNL A   1      42.961  28.603  33.001  1.00  0.00     0.037 A 
ATOM     94  H   UNL A   1      40.236  27.571  33.416  1.00  0.00     0.065 H 
ATOM     95  H   UNL A   1      41.256  26.977  24.950  1.00  0.00     0.065 H 
ATOM     96  C   UNL A   1      43.606  26.293  26.563  1.00  0.00     0.037 A 
ATOM     97  C   UNL A   1      43.902  29.547  32.461  1.00  0.00     0.049 A 
ATOM     98  C   UNL A   1      44.631  26.707  27.548  1.00  0.00     0.074 A 
ATOM     99  C   UNL A   1      43.942  30.918  32.311  1.00  0.00    -0.036 A 
ATOM    100  N   UNL A   1      44.907  29.050  31.672  1.00  0.00    -0.354 N 
ATOM    101  N   UNL A   1      45.241  27.859  27.536  1.00  0.00    -0.248 NA
ATOM    102  C   UNL A   1      44.742  25.955  28.789  1.00  0.00    -0.034 C 
ATOM    103  C   UNL A   1      44.679  31.144  31.113  1.00  0.00    -0.036 A 
ATOM    104  H   UNL A   1      43.525  31.628  32.934  1.00  0.00     0.065 H 
ATOM    105  C   UNL A   1      45.080  29.903  30.616  1.00  0.00     0.049 A 
ATOM    106  H   UNL A   1      45.415  28.224  31.837  1.00  0.00     0.167 HD
ATOM    107  C   UNL A   1      45.432  28.164  28.872  1.00  0.00     0.074 A 
ATOM    108  C   UNL A   1      45.238  26.905  29.581  1.00  0.00    -0.034 C 
ATOM    109  H   UNL A   1      44.505  24.972  28.993  1.00  0.00     0.065 H 
ATOM    110  H   UNL A   1      44.882  32.063  30.688  1.00  0.00     0.065 H 
ATOM    111  C   UNL A   1      45.450  29.462  29.291  1.00  0.00     0.037 A 
ATOM    112  H   UNL A   1      45.459  26.767  30.580  1.00  0.00     0.065 H 
BRANCH  93 113
ATOM    113  C   UNL A   1      43.382  27.526  33.976  1.00  0.00     0.064 A 
ATOM    114  C   UNL A   1      43.638  26.223  33.495  1.00  0.00     0.173 A 
ATOM    115  C   UNL A   1      43.237  27.634  35.376  1.00  0.00     0.173 A 
ATOM    116  F   UNL A   1      43.780  25.994  32.181  1.00  0.00    -0.203 F 
ATOM    117  C   UNL A   1      43.653  25.111  34.341  1.00  0.00     0.198 A 
ATOM    118  C   UNL A   1      43.304  26.528  36.222  1.00  0.00     0.198 A 
ATOM    119  F   UNL A   1      42.913  28.787  35.973  1.00  0.00    -0.203 F 
ATOM    120  F   UNL A   1      43.765  23.881  33.820  1.00  0.00    -0.200 F 
ATOM    121  C   UNL A   1      43.477  25.263  35.703  1.00  0.00     0.200 A 
ATOM    122  F   UNL A   1      43.113  26.694  37.538  1.00  0.00    -0.200 F 
ATOM    123  F   UNL A   1      43.424  24.194  36.508  1.00  0.00    -0.200 F 
ENDBRANCH  93 113
BRANCH  96 124
ATOM    124  C   UNL A   1      43.758  25.059  25.756  1.00  0.00     0.064 A 
ATOM    125  C   UNL A   1      44.930  24.825  25.013  1.00  0.00     0.173 A 
ATOM    126  C   UNL A   1      42.908  23.954  25.943  1.00  0.00     0.173 A 
ATOM    127  F   UNL A   1      45.814  25.814  24.816  1.00  0.00    -0.203 F 
ATOM    128  C   UNL A   1      45.254  23.551  24.535  1.00  0.00     0.198 A 
ATOM    129  C   UNL A   1      43.229  22.685  25.457  1.00  0.00     0.198 A 
ATOM    130  F   UNL A   1      41.799  24.058  26.690  1.00  0.00    -0.203 F 
ATOM    131  F   UNL A   1      46.420  23.352  23.903  1.00  0.00    -0.200 F 
ATOM    132  C   UNL A   1      44.411  22.480  24.771  1.00  0.00     0.200 A 
ATOM    133  F   UNL A   1      42.419  21.649  25.722  1.00  0.00    -0.200 F 
ATOM    134  F   UNL A   1      44.756  21.246  24.379  1.00  0.00    -0.200 F 
ENDBRANCH  96 124
BRANCH 111 135
ATOM    135  C   UNL A   1      45.628  30.529  28.249  1.00  0.00     0.064 A 
ATOM    136  C   UNL A   1      44.571  31.120  27.535  1.00  0.00     0.173 A 
ATOM    137  C   UNL A   1      46.909  31.070  28.074  1.00  0.00     0.173 A 
ATOM    138  F   UNL A   1      43.305  30.722  27.717  1.00  0.00    -0.203 F 
ATOM    139  C   UNL A   1      44.799  32.181  26.660  1.00  0.00     0.198 A 
ATOM    140  C   UNL A   1      47.127  32.154  27.232  1.00  0.00     0.198 A 
ATOM    141  F   UNL A   1      47.947  30.577  28.769  1.00  0.00    -0.203 F 
ATOM    142  F   UNL A   1      43.778  32.727  25.982  1.00  0.00    -0.200 F 
ATOM    143  C   UNL A   1      46.074  32.704  26.518  1.00  0.00     0.200 A 
ATOM    144  F   UNL A   1      48.352  32.688  27.137  1.00  0.00    -0.200 F 
ATOM    145  F   UNL A   1      46.285  33.758  25.716  1.00  0.00    -0.200 F 
ENDBRANCH 111 135
ENDBRANCH  76  79
ENDBRANCH  66  69
ENDBRANCH  62  65
ENDBRANCH  59  62
ENDBRANCH  56  59
ENDBRANCH   1  56
TORSDOF 18
ENDMDL
MODEL 10
REMARK VINA RESULT:     -11.5      3.028      4.855
REMARK SMILES Cc1ccc2c(c1)c(-c1ccnc3c(C)cccc13)c(C)n2CC(=O)NCCCCCCNC(=O)c1ccc(-c2c3nc(c(-c4c(F)c(F)c(F)c(F)c4F)c4ccc([nH]4)c(-c4c(F)c(F)c(F)c(F)c4F)c4nc(c(-c5c(F)c(F)c(F)c(F)c5F)c5ccc2[nH]5)C=C4)C=C3)cc1
REMARK SMILES IDX 29 1 28 4 27 7 26 10 24 11 25 12 23 14 22 17 2 18 3 19 7 20
REMARK SMILES IDX 4 21 6 23 5 25 8 27 20 28 1 29 9 33 10 34 19 35 11 36 13 38
REMARK SMILES IDX 18 39 12 40 14 42 17 43 16 45 15 48 21 52 30 56 31 59 32 62
REMARK SMILES IDX 33 65 34 66 35 68 36 69 37 70 98 71 38 72 97 74 39 76 40 79
REMARK SMILES IDX 41 80 91 81 42 82 96 83 90 84 92 85 43 86 95 87 89 89 88 91
REMARK SMILES IDX 44 93 76 96 56 97 75 98 57 99 60 100 74 101 93 102 58 103
REMARK SMILES IDX 59 105 73 107 94 108 61 111 45 113 46 114 54 115 47 116
REMARK SMILES IDX 48 117 52 118 55 119 49 120 50 121 53 122 51 123 77 124
REMARK SMILES IDX 78 125 86 126 79 127 80 128 84 129 87 130 81 131 82 132
REMARK SMILES IDX 85 133 83 134 62 135 63 136 71 137 64 138 65 139 69 140
REMARK SMILES IDX 72 141 66 142 67 143 70 144 68 145
REMARK H PARENT 29 2 29 3 28 5 28 6 27 8 27 9 26 13 23 15 23 16 3 22 7 24 4 26
REMARK H PARENT 1 30 1 31 1 32 10 37 11 41 18 44 17 46 16 47 15 49 15 50 15 51
REMARK H PARENT 21 53 21 54 21 55 30 57 30 58 31 60 31 61 32 63 32 64 33 67
REMARK H PARENT 37 73 98 75 38 77 97 78 96 88 90 90 92 92 95 94 89 95 57 104
REMARK H PARENT 60 106 93 109 58 110 94 112
REMARK Flexibility Score: inf
ROOT
ATOM      1  C   UNL A   1      37.062  23.259  24.629  1.00  0.00    -0.052 C 
ATOM      2  H   UNL A   1      36.625  23.888  25.376  1.00  0.00     0.027 H 
ATOM      3  H   UNL A   1      37.721  23.784  23.970  1.00  0.00     0.027 H 
ENDROOT
BRANCH   1   4
ATOM      4  C   UNL A   1      35.933  22.696  23.756  1.00  0.00    -0.036 C 
ATOM      5  H   UNL A   1      35.395  23.519  23.333  1.00  0.00     0.028 H 
ATOM      6  H   UNL A   1      36.396  22.080  23.014  1.00  0.00     0.028 H 
BRANCH   4   7
ATOM      7  C   UNL A   1      34.944  21.812  24.509  1.00  0.00     0.017 C 
ATOM      8  H   UNL A   1      34.022  21.779  23.967  1.00  0.00     0.049 H 
ATOM      9  H   UNL A   1      35.365  20.832  24.598  1.00  0.00     0.049 H 
BRANCH   7  10
ATOM     10  N   UNL A   1      34.689  22.322  25.842  1.00  0.00    -0.355 N 
ATOM     11  C   UNL A   1      33.551  22.871  26.359  1.00  0.00     0.239 C 
ATOM     12  O   UNL A   1      33.592  23.285  27.522  1.00  0.00    -0.273 OA
ATOM     13  H   UNL A   1      35.448  22.264  26.466  1.00  0.00     0.163 HD
BRANCH  11  14
ATOM     14  C   UNL A   1      32.259  22.897  25.563  1.00  0.00     0.102 C 
ATOM     15  H   UNL A   1      32.271  22.079  24.875  1.00  0.00     0.060 H 
ATOM     16  H   UNL A   1      31.459  22.830  26.272  1.00  0.00     0.060 H 
BRANCH  14  17
ATOM     17  N   UNL A   1      32.048  24.129  24.808  1.00  0.00    -0.335 N 
ATOM     18  C   UNL A   1      32.606  25.052  20.790  1.00  0.00    -0.050 A 
ATOM     19  C   UNL A   1      32.685  23.702  21.134  1.00  0.00    -0.057 A 
ATOM     20  C   UNL A   1      32.285  25.998  21.776  1.00  0.00    -0.049 A 
ATOM     21  C   UNL A   1      32.468  23.273  22.446  1.00  0.00    -0.037 A 
ATOM     22  H   UNL A   1      32.909  23.006  20.406  1.00  0.00     0.063 H 
ATOM     23  C   UNL A   1      32.070  25.592  23.112  1.00  0.00     0.008 A 
ATOM     24  H   UNL A   1      32.208  26.996  21.523  1.00  0.00     0.063 H 
ATOM     25  C   UNL A   1      32.194  24.238  23.432  1.00  0.00     0.049 A 
ATOM     26  H   UNL A   1      32.507  22.270  22.686  1.00  0.00     0.065 H 
ATOM     27  C   UNL A   1      31.738  26.279  24.315  1.00  0.00     0.011 A 
ATOM     28  C   UNL A   1      31.678  25.349  25.343  1.00  0.00     0.024 A 
BRANCH  18  29
ATOM     29  C   UNL A   1      32.904  25.478  19.382  1.00  0.00    -0.040 C 
ATOM     30  H   UNL A   1      32.303  26.327  19.132  1.00  0.00     0.028 H 
ATOM     31  H   UNL A   1      32.681  24.673  18.712  1.00  0.00     0.028 H 
ATOM     32  H   UNL A   1      33.939  25.736  19.299  1.00  0.00     0.028 H 
ENDBRANCH  18  29
BRANCH  27  33
ATOM     33  C   UNL A   1      31.499  27.704  24.521  1.00  0.00    -0.005 A 
ATOM     34  C   UNL A   1      32.444  28.426  25.245  1.00  0.00    -0.035 A 
ATOM     35  C   UNL A   1      30.362  28.361  23.984  1.00  0.00     0.008 A 
ATOM     36  C   UNL A   1      32.241  29.779  25.393  1.00  0.00     0.028 A 
ATOM     37  H   UNL A   1      33.269  27.961  25.658  1.00  0.00     0.065 H 
ATOM     38  C   UNL A   1      30.254  29.756  24.179  1.00  0.00     0.074 A 
ATOM     39  C   UNL A   1      29.347  27.687  23.267  1.00  0.00    -0.052 A 
ATOM     40  N   UNL A   1      31.185  30.442  24.875  1.00  0.00    -0.256 NA
ATOM     41  H   UNL A   1      32.937  30.319  25.930  1.00  0.00     0.084 H 
ATOM     42  C   UNL A   1      29.151  30.424  23.622  1.00  0.00    -0.025 A 
ATOM     43  C   UNL A   1      28.249  28.357  22.742  1.00  0.00    -0.061 A 
ATOM     44  H   UNL A   1      29.423  26.668  23.130  1.00  0.00     0.063 H 
ATOM     45  C   UNL A   1      28.153  29.726  22.917  1.00  0.00    -0.057 A 
ATOM     46  H   UNL A   1      27.516  27.841  22.231  1.00  0.00     0.062 H 
ATOM     47  H   UNL A   1      27.347  30.237  22.527  1.00  0.00     0.063 H 
BRANCH  42  48
ATOM     48  C   UNL A   1      28.986  31.916  23.750  1.00  0.00    -0.038 C 
ATOM     49  H   UNL A   1      28.160  32.236  23.149  1.00  0.00     0.028 H 
ATOM     50  H   UNL A   1      29.878  32.404  23.417  1.00  0.00     0.028 H 
ATOM     51  H   UNL A   1      28.802  32.168  24.773  1.00  0.00     0.028 H 
ENDBRANCH  42  48
ENDBRANCH  27  33
BRANCH  28  52
ATOM     52  C   UNL A   1      31.347  25.562  26.785  1.00  0.00    -0.024 C 
ATOM     53  H   UNL A   1      31.188  24.616  27.259  1.00  0.00     0.030 H 
ATOM     54  H   UNL A   1      30.458  26.154  26.862  1.00  0.00     0.030 H 
ATOM     55  H   UNL A   1      32.157  26.071  27.265  1.00  0.00     0.030 H 
ENDBRANCH  28  52
ENDBRANCH  14  17
ENDBRANCH  11  14
ENDBRANCH   7  10
ENDBRANCH   4   7
ENDBRANCH   1   4
BRANCH   1  56
ATOM     56  C   UNL A   1      37.912  22.199  25.336  1.00  0.00    -0.052 C 
ATOM     57  H   UNL A   1      38.375  21.591  24.587  1.00  0.00     0.027 H 
ATOM     58  H   UNL A   1      37.244  21.657  25.972  1.00  0.00     0.027 H 
BRANCH  56  59
ATOM     59  C   UNL A   1      39.013  22.753  26.245  1.00  0.00    -0.036 C 
ATOM     60  H   UNL A   1      38.573  23.008  27.186  1.00  0.00     0.028 H 
ATOM     61  H   UNL A   1      39.431  23.597  25.737  1.00  0.00     0.028 H 
BRANCH  59  62
ATOM     62  C   UNL A   1      40.170  21.785  26.504  1.00  0.00     0.018 C 
ATOM     63  H   UNL A   1      39.885  20.817  26.146  1.00  0.00     0.049 H 
ATOM     64  H   UNL A   1      40.354  21.796  27.558  1.00  0.00     0.049 H 
BRANCH  62  65
ATOM     65  N   UNL A   1      41.410  22.162  25.857  1.00  0.00    -0.352 N 
ATOM     66  C   UNL A   1      42.210  23.278  25.877  1.00  0.00     0.251 C 
ATOM     67  H   UNL A   1      41.759  21.456  25.268  1.00  0.00     0.163 HD
ATOM     68  O   UNL A   1      43.278  23.195  25.289  1.00  0.00    -0.269 OA
BRANCH  66  69
ATOM     69  C   UNL A   1      41.831  24.581  26.496  1.00  0.00     0.039 A 
ATOM     70  C   UNL A   1      41.158  25.618  25.857  1.00  0.00    -0.049 A 
ATOM     71  C   UNL A   1      42.253  24.780  27.827  1.00  0.00    -0.049 A 
ATOM     72  C   UNL A   1      41.024  26.856  26.473  1.00  0.00    -0.053 A 
ATOM     73  H   UNL A   1      40.756  25.466  24.919  1.00  0.00     0.063 H 
ATOM     74  C   UNL A   1      42.086  26.007  28.466  1.00  0.00    -0.053 A 
ATOM     75  H   UNL A   1      42.694  23.999  28.338  1.00  0.00     0.063 H 
ATOM     76  C   UNL A   1      41.514  27.062  27.766  1.00  0.00    -0.014 A 
ATOM     77  H   UNL A   1      40.558  27.629  25.972  1.00  0.00     0.063 H 
ATOM     78  H   UNL A   1      42.384  26.131  29.446  1.00  0.00     0.063 H 
BRANCH  76  79
ATOM     79  C   UNL A   1      41.282  28.376  28.359  1.00  0.00     0.031 A 
ATOM     80  C   UNL A   1      42.358  29.372  28.085  1.00  0.00     0.074 A 
ATOM     81  C   UNL A   1      40.186  28.719  29.063  1.00  0.00     0.049 A 
ATOM     82  N   UNL A   1      43.142  29.950  28.937  1.00  0.00    -0.248 NA
ATOM     83  C   UNL A   1      42.672  29.670  26.680  1.00  0.00    -0.034 C 
ATOM     84  C   UNL A   1      38.934  27.976  29.214  1.00  0.00    -0.036 A 
ATOM     85  N   UNL A   1      39.945  29.875  29.750  1.00  0.00    -0.354 N 
ATOM     86  C   UNL A   1      43.959  30.800  28.193  1.00  0.00     0.074 A 
ATOM     87  C   UNL A   1      43.705  30.502  26.809  1.00  0.00    -0.034 C 
ATOM     88  H   UNL A   1      42.215  29.325  25.822  1.00  0.00     0.065 H 
ATOM     89  C   UNL A   1      38.000  28.783  29.766  1.00  0.00    -0.036 A 
ATOM     90  H   UNL A   1      38.788  26.992  28.941  1.00  0.00     0.065 H 
ATOM     91  C   UNL A   1      38.624  30.043  30.139  1.00  0.00     0.049 A 
ATOM     92  H   UNL A   1      40.649  30.533  29.952  1.00  0.00     0.167 HD
ATOM     93  C   UNL A   1      44.647  31.818  28.782  1.00  0.00     0.037 A 
ATOM     94  H   UNL A   1      44.251  30.883  26.019  1.00  0.00     0.065 H 
ATOM     95  H   UNL A   1      37.005  28.544  29.901  1.00  0.00     0.065 H 
ATOM     96  C   UNL A   1      38.078  31.157  30.685  1.00  0.00     0.037 A 
ATOM     97  C   UNL A   1      44.788  31.600  30.197  1.00  0.00     0.049 A 
ATOM     98  C   UNL A   1      39.181  31.948  31.277  1.00  0.00     0.074 A 
ATOM     99  C   UNL A   1      45.442  30.679  30.989  1.00  0.00    -0.036 A 
ATOM    100  N   UNL A   1      43.916  32.259  31.023  1.00  0.00    -0.354 N 
ATOM    101  N   UNL A   1      39.856  31.593  32.334  1.00  0.00    -0.248 NA
ATOM    102  C   UNL A   1      39.783  33.003  30.477  1.00  0.00    -0.034 C 
ATOM    103  C   UNL A   1      44.625  30.532  32.147  1.00  0.00    -0.036 A 
ATOM    104  H   UNL A   1      46.332  30.198  30.785  1.00  0.00     0.065 H 
ATOM    105  C   UNL A   1      43.537  31.397  32.017  1.00  0.00     0.049 A 
ATOM    106  H   UNL A   1      43.613  33.189  30.920  1.00  0.00     0.167 HD
ATOM    107  C   UNL A   1      41.139  32.053  32.097  1.00  0.00     0.074 A 
ATOM    108  C   UNL A   1      41.001  33.026  31.020  1.00  0.00    -0.034 C 
ATOM    109  H   UNL A   1      39.383  33.567  29.711  1.00  0.00     0.065 H 
ATOM    110  H   UNL A   1      44.806  29.899  32.942  1.00  0.00     0.065 H 
ATOM    111  C   UNL A   1      42.218  31.393  32.606  1.00  0.00     0.037 A 
ATOM    112  H   UNL A   1      41.757  33.659  30.714  1.00  0.00     0.065 H 
BRANCH  93 113
ATOM    113  C   UNL A   1      44.865  33.178  28.158  1.00  0.00     0.064 A 
ATOM    114  C   UNL A   1      46.176  33.576  27.815  1.00  0.00     0.173 A 
ATOM    115  C   UNL A   1      43.906  34.212  28.176  1.00  0.00     0.173 A 
ATOM    116  F   UNL A   1      47.176  32.683  27.779  1.00  0.00    -0.203 F 
ATOM    117  C   UNL A   1      46.511  34.916  27.601  1.00  0.00     0.198 A 
ATOM    118  C   UNL A   1      44.235  35.541  27.911  1.00  0.00     0.198 A 
ATOM    119  F   UNL A   1      42.640  34.006  28.558  1.00  0.00    -0.203 F 
ATOM    120  F   UNL A   1      47.793  35.259  27.412  1.00  0.00    -0.200 F 
ATOM    121  C   UNL A   1      45.542  35.899  27.658  1.00  0.00     0.200 A 
ATOM    122  F   UNL A   1      43.283  36.483  27.988  1.00  0.00    -0.200 F 
ATOM    123  F   UNL A   1      45.870  37.190  27.519  1.00  0.00    -0.200 F 
ENDBRANCH  93 113
BRANCH  96 124
ATOM    124  C   UNL A   1      36.725  31.731  30.494  1.00  0.00     0.064 A 
ATOM    125  C   UNL A   1      35.911  32.038  31.600  1.00  0.00     0.173 A 
ATOM    126  C   UNL A   1      36.331  32.278  29.260  1.00  0.00     0.173 A 
ATOM    127  F   UNL A   1      36.233  31.587  32.822  1.00  0.00    -0.203 F 
ATOM    128  C   UNL A   1      34.803  32.884  31.485  1.00  0.00     0.198 A 
ATOM    129  C   UNL A   1      35.219  33.115  29.145  1.00  0.00     0.198 A 
ATOM    130  F   UNL A   1      37.074  32.098  28.158  1.00  0.00    -0.203 F 
ATOM    131  F   UNL A   1      34.102  33.219  32.578  1.00  0.00    -0.200 F 
ATOM    132  C   UNL A   1      34.468  33.434  30.260  1.00  0.00     0.200 A 
ATOM    133  F   UNL A   1      34.925  33.668  27.959  1.00  0.00    -0.200 F 
ATOM    134  F   UNL A   1      33.454  34.303  30.163  1.00  0.00    -0.200 F 
ENDBRANCH  96 124
BRANCH 111 135
ATOM    135  C   UNL A   1      41.974  30.400  33.706  1.00  0.00     0.064 A 
ATOM    136  C   UNL A   1      41.648  29.049  33.495  1.00  0.00     0.173 A 
ATOM    137  C   UNL A   1      42.219  30.808  35.025  1.00  0.00     0.173 A 
ATOM    138  F   UNL A   1      41.490  28.562  32.257  1.00  0.00    -0.203 F 
ATOM    139  C   UNL A   1      41.541  28.160  34.563  1.00  0.00     0.198 A 
ATOM    140  C   UNL A   1      42.151  29.909  36.083  1.00  0.00     0.198 A 
ATOM    141  F   UNL A   1      42.583  32.075  35.279  1.00  0.00    -0.203 F 
ATOM    142  F   UNL A   1      41.223  26.876  34.340  1.00  0.00    -0.200 F 
ATOM    143  C   UNL A   1      41.804  28.588  35.854  1.00  0.00     0.200 A 
ATOM    144  F   UNL A   1      42.455  30.317  37.323  1.00  0.00    -0.200 F 
ATOM    145  F   UNL A   1      41.751  27.720  36.875  1.00  0.00    -0.200 F 
ENDBRANCH 111 135
ENDBRANCH  76  79
ENDBRANCH  66  69
ENDBRANCH  62  65
ENDBRANCH  59  62
ENDBRANCH  56  59
ENDBRANCH   1  56
TORSDOF 18
ENDMDL
