MODEL 1
REMARK VINA RESULT:     -10.9      0.000      0.000
REMARK SMILES CC(C)Cc1ccc([C@H](CF)C(=O)NCCCCCCNC(=O)c2ccc(-c3c4nc(c(-c5c(F)c(F)c(F)c(F)c5F)c5ccc([nH]5)c(-c5c(F)c(F)c(F)c(F)c5F)c5nc(c(-c6c(F)c(F)c(F)c(F)c6F)c6ccc3[nH]6)C=C5)C=C4)cc2)cc1
REMARK SMILES IDX 16 1 15 4 14 7 12 8 13 9 9 11 8 13 5 14 6 15 88 16 7 17
REMARK SMILES IDX 87 19 4 23 2 26 1 28 3 32 10 36 11 37 17 40 18 43 19 46
REMARK SMILES IDX 20 49 21 52 22 53 23 55 24 56 25 57 86 58 26 59 85 61 27 63
REMARK SMILES IDX 28 66 29 67 79 68 30 69 84 70 78 71 80 72 31 73 83 74 77 76
REMARK SMILES IDX 76 78 32 80 64 83 44 84 63 85 45 86 48 87 62 88 81 89 46 90
REMARK SMILES IDX 47 92 61 94 82 95 49 98 33 100 34 101 42 102 35 103 36 104
REMARK SMILES IDX 40 105 43 106 37 107 38 108 41 109 39 110 65 111 66 112
REMARK SMILES IDX 74 113 67 114 68 115 72 116 75 117 69 118 70 119 73 120
REMARK SMILES IDX 71 121 50 122 51 123 59 124 52 125 53 126 57 127 60 128
REMARK SMILES IDX 54 129 55 130 58 131 56 132
REMARK H PARENT 16 2 16 3 15 5 15 6 14 10 9 12 6 18 88 20 7 21 87 22 4 24 4 25
REMARK H PARENT 2 27 1 29 1 30 1 31 3 33 3 34 3 35 10 38 10 39 17 41 17 42
REMARK H PARENT 18 44 18 45 19 47 19 48 20 50 20 51 21 54 25 60 86 62 26 64
REMARK H PARENT 85 65 84 75 78 77 80 79 83 81 77 82 45 91 48 93 81 96 46 97
REMARK H PARENT 82 99
REMARK Flexibility Score: inf
ROOT
ATOM      1  C   UNL A   1      35.809  22.691  25.583  1.00  0.00    -0.036 C 
ATOM      2  H   UNL A   1      35.544  22.136  26.458  1.00  0.00     0.028 H 
ATOM      3  H   UNL A   1      36.601  23.390  25.753  1.00  0.00     0.028 H 
ENDROOT
BRANCH   1   4
ATOM      4  C   UNL A   1      34.595  23.510  25.152  1.00  0.00     0.017 C 
ATOM      5  H   UNL A   1      34.921  24.487  24.862  1.00  0.00     0.049 H 
ATOM      6  H   UNL A   1      34.124  23.005  24.335  1.00  0.00     0.049 H 
BRANCH   4   7
ATOM      7  N   UNL A   1      33.627  23.635  26.226  1.00  0.00    -0.355 N 
ATOM      8  C   UNL A   1      32.322  23.246  26.290  1.00  0.00     0.230 C 
ATOM      9  O   UNL A   1      31.730  23.421  27.360  1.00  0.00    -0.274 OA
ATOM     10  H   UNL A   1      33.967  24.071  27.040  1.00  0.00     0.163 HD
BRANCH   8  11
ATOM     11  C   UNL A   1      31.593  22.635  25.090  1.00  0.00     0.091 C 
ATOM     12  H   UNL A   1      30.563  22.432  25.296  1.00  0.00     0.048 H 
BRANCH  11  13
ATOM     13  C   UNL A   1      32.093  21.230  24.777  1.00  0.00    -0.033 A 
ATOM     14  C   UNL A   1      33.295  18.714  24.315  1.00  0.00    -0.048 A 
ATOM     15  C   UNL A   1      33.117  19.183  25.619  1.00  0.00    -0.059 A 
ATOM     16  C   UNL A   1      32.801  19.475  23.250  1.00  0.00    -0.059 A 
ATOM     17  C   UNL A   1      32.526  20.426  25.846  1.00  0.00    -0.058 A 
ATOM     18  H   UNL A   1      33.425  18.607  26.418  1.00  0.00     0.063 H 
ATOM     19  C   UNL A   1      32.188  20.711  23.480  1.00  0.00    -0.058 A 
ATOM     20  H   UNL A   1      32.891  19.121  22.284  1.00  0.00     0.063 H 
ATOM     21  H   UNL A   1      32.404  20.760  26.815  1.00  0.00     0.063 H 
ATOM     22  H   UNL A   1      31.801  21.246  22.685  1.00  0.00     0.063 H 
BRANCH  14  23
ATOM     23  C   UNL A   1      34.051  17.432  24.062  1.00  0.00    -0.026 C 
ATOM     24  H   UNL A   1      33.567  16.902  23.268  1.00  0.00     0.032 H 
ATOM     25  H   UNL A   1      35.057  17.697  23.810  1.00  0.00     0.032 H 
BRANCH  23  26
ATOM     26  C   UNL A   1      34.112  16.512  25.300  1.00  0.00    -0.043 C 
ATOM     27  H   UNL A   1      33.960  17.130  26.160  1.00  0.00     0.030 H 
BRANCH  26  28
ATOM     28  C   UNL A   1      33.009  15.448  25.295  1.00  0.00    -0.062 C 
ATOM     29  H   UNL A   1      32.833  15.120  24.291  1.00  0.00     0.023 H 
ATOM     30  H   UNL A   1      32.109  15.866  25.696  1.00  0.00     0.023 H 
ATOM     31  H   UNL A   1      33.313  14.615  25.893  1.00  0.00     0.023 H 
ENDBRANCH  26  28
BRANCH  26  32
ATOM     32  C   UNL A   1      35.479  15.828  25.373  1.00  0.00    -0.062 C 
ATOM     33  H   UNL A   1      35.920  15.807  24.398  1.00  0.00     0.023 H 
ATOM     34  H   UNL A   1      35.358  14.827  25.732  1.00  0.00     0.023 H 
ATOM     35  H   UNL A   1      36.114  16.372  26.040  1.00  0.00     0.023 H 
ENDBRANCH  26  32
ENDBRANCH  23  26
ENDBRANCH  14  23
ENDBRANCH  11  13
BRANCH  11  36
ATOM     36  C   UNL A   1      31.558  23.670  23.969  1.00  0.00     0.105 C 
ATOM     37  F   UNL A   1      30.391  23.556  23.276  1.00  0.00    -0.250 F 
ATOM     38  H   UNL A   1      32.383  23.506  23.307  1.00  0.00     0.064 H 
ATOM     39  H   UNL A   1      31.627  24.652  24.389  1.00  0.00     0.064 H 
ENDBRANCH  11  36
ENDBRANCH   8  11
ENDBRANCH   4   7
ENDBRANCH   1   4
BRANCH   1  40
ATOM     40  C   UNL A   1      36.321  21.706  24.528  1.00  0.00    -0.052 C 
ATOM     41  H   UNL A   1      37.267  22.061  24.177  1.00  0.00     0.027 H 
ATOM     42  H   UNL A   1      35.568  21.668  23.769  1.00  0.00     0.027 H 
BRANCH  40  43
ATOM     43  C   UNL A   1      36.508  20.263  25.011  1.00  0.00    -0.052 C 
ATOM     44  H   UNL A   1      35.784  19.653  24.510  1.00  0.00     0.027 H 
ATOM     45  H   UNL A   1      36.389  20.293  26.073  1.00  0.00     0.027 H 
BRANCH  43  46
ATOM     46  C   UNL A   1      37.891  19.653  24.762  1.00  0.00    -0.036 C 
ATOM     47  H   UNL A   1      38.191  19.910  23.768  1.00  0.00     0.028 H 
ATOM     48  H   UNL A   1      37.781  18.601  24.920  1.00  0.00     0.028 H 
BRANCH  46  49
ATOM     49  C   UNL A   1      38.989  20.111  25.719  1.00  0.00     0.018 C 
ATOM     50  H   UNL A   1      38.551  20.310  26.674  1.00  0.00     0.049 H 
ATOM     51  H   UNL A   1      39.437  20.987  25.299  1.00  0.00     0.049 H 
BRANCH  49  52
ATOM     52  N   UNL A   1      40.036  19.116  25.885  1.00  0.00    -0.352 N 
ATOM     53  C   UNL A   1      41.372  19.287  26.131  1.00  0.00     0.251 C 
ATOM     54  H   UNL A   1      39.739  18.181  25.809  1.00  0.00     0.163 HD
ATOM     55  O   UNL A   1      42.131  18.316  26.092  1.00  0.00    -0.269 OA
BRANCH  53  56
ATOM     56  C   UNL A   1      41.923  20.628  26.419  1.00  0.00     0.039 A 
ATOM     57  C   UNL A   1      42.169  21.495  25.350  1.00  0.00    -0.049 A 
ATOM     58  C   UNL A   1      42.227  21.027  27.725  1.00  0.00    -0.049 A 
ATOM     59  C   UNL A   1      42.668  22.776  25.592  1.00  0.00    -0.053 A 
ATOM     60  H   UNL A   1      41.983  21.187  24.383  1.00  0.00     0.063 H 
ATOM     61  C   UNL A   1      42.667  22.326  27.971  1.00  0.00    -0.053 A 
ATOM     62  H   UNL A   1      42.126  20.359  28.505  1.00  0.00     0.063 H 
ATOM     63  C   UNL A   1      42.895  23.213  26.908  1.00  0.00    -0.014 A 
ATOM     64  H   UNL A   1      42.871  23.406  24.800  1.00  0.00     0.063 H 
ATOM     65  H   UNL A   1      42.825  22.639  28.942  1.00  0.00     0.063 H 
BRANCH  63  66
ATOM     66  C   UNL A   1      43.366  24.594  27.180  1.00  0.00     0.031 A 
ATOM     67  C   UNL A   1      42.423  25.626  27.731  1.00  0.00     0.074 A 
ATOM     68  C   UNL A   1      44.634  24.934  26.878  1.00  0.00     0.049 A 
ATOM     69  N   UNL A   1      42.643  26.889  27.998  1.00  0.00    -0.248 NA
ATOM     70  C   UNL A   1      41.044  25.188  27.991  1.00  0.00    -0.034 C 
ATOM     71  C   UNL A   1      45.629  24.038  26.287  1.00  0.00    -0.036 A 
ATOM     72  N   UNL A   1      45.298  26.126  27.018  1.00  0.00    -0.354 N 
ATOM     73  C   UNL A   1      41.428  27.398  28.443  1.00  0.00     0.074 A 
ATOM     74  C   UNL A   1      40.466  26.320  28.365  1.00  0.00    -0.034 C 
ATOM     75  H   UNL A   1      40.633  24.245  27.906  1.00  0.00     0.065 H 
ATOM     76  C   UNL A   1      46.783  24.707  26.133  1.00  0.00    -0.036 A 
ATOM     77  H   UNL A   1      45.469  23.052  26.030  1.00  0.00     0.065 H 
ATOM     78  C   UNL A   1      46.602  26.082  26.588  1.00  0.00     0.049 A 
ATOM     79  H   UNL A   1      44.881  26.936  27.391  1.00  0.00     0.167 HD
ATOM     80  C   UNL A   1      41.150  28.645  28.894  1.00  0.00     0.037 A 
ATOM     81  H   UNL A   1      39.460  26.421  28.572  1.00  0.00     0.065 H 
ATOM     82  H   UNL A   1      47.658  24.312  25.753  1.00  0.00     0.065 H 
ATOM     83  C   UNL A   1      47.545  27.043  26.564  1.00  0.00     0.037 A 
ATOM     84  C   UNL A   1      42.115  29.706  28.999  1.00  0.00     0.049 A 
ATOM     85  C   UNL A   1      47.216  28.411  27.093  1.00  0.00     0.074 A 
ATOM     86  C   UNL A   1      41.947  30.981  29.512  1.00  0.00    -0.036 A 
ATOM     87  N   UNL A   1      43.435  29.617  28.579  1.00  0.00    -0.354 N 
ATOM     88  N   UNL A   1      46.085  28.859  27.582  1.00  0.00    -0.248 NA
ATOM     89  C   UNL A   1      48.299  29.405  27.077  1.00  0.00    -0.034 C 
ATOM     90  C   UNL A   1      43.154  31.675  29.367  1.00  0.00    -0.036 A 
ATOM     91  H   UNL A   1      41.080  31.354  29.930  1.00  0.00     0.065 H 
ATOM     92  C   UNL A   1      44.086  30.819  28.802  1.00  0.00     0.049 A 
ATOM     93  H   UNL A   1      43.848  28.817  28.181  1.00  0.00     0.167 HD
ATOM     94  C   UNL A   1      46.324  30.176  27.950  1.00  0.00     0.074 A 
ATOM     95  C   UNL A   1      47.713  30.449  27.644  1.00  0.00    -0.034 C 
ATOM     96  H   UNL A   1      49.262  29.313  26.718  1.00  0.00     0.065 H 
ATOM     97  H   UNL A   1      43.319  32.658  29.634  1.00  0.00     0.065 H 
ATOM     98  C   UNL A   1      45.468  31.078  28.492  1.00  0.00     0.037 A 
ATOM     99  H   UNL A   1      48.187  31.344  27.844  1.00  0.00     0.065 H 
BRANCH  80 100
ATOM    100  C   UNL A   1      39.736  28.928  29.312  1.00  0.00     0.064 A 
ATOM    101  C   UNL A   1      38.787  29.428  28.407  1.00  0.00     0.173 A 
ATOM    102  C   UNL A   1      39.316  28.668  30.626  1.00  0.00     0.173 A 
ATOM    103  F   UNL A   1      39.140  29.703  27.142  1.00  0.00    -0.203 F 
ATOM    104  C   UNL A   1      37.480  29.686  28.809  1.00  0.00     0.198 A 
ATOM    105  C   UNL A   1      38.001  28.901  31.017  1.00  0.00     0.198 A 
ATOM    106  F   UNL A   1      40.182  28.185  31.529  1.00  0.00    -0.203 F 
ATOM    107  F   UNL A   1      36.604  30.210  27.940  1.00  0.00    -0.200 F 
ATOM    108  C   UNL A   1      37.086  29.417  30.111  1.00  0.00     0.200 A 
ATOM    109  F   UNL A   1      37.618  28.630  32.273  1.00  0.00    -0.200 F 
ATOM    110  F   UNL A   1      35.825  29.663  30.496  1.00  0.00    -0.200 F 
ENDBRANCH  80 100
BRANCH  83 111
ATOM    111  C   UNL A   1      48.902  26.729  26.049  1.00  0.00     0.064 A 
ATOM    112  C   UNL A   1      49.244  26.999  24.717  1.00  0.00     0.173 A 
ATOM    113  C   UNL A   1      49.883  26.165  26.876  1.00  0.00     0.173 A 
ATOM    114  F   UNL A   1      48.330  27.519  23.884  1.00  0.00    -0.203 F 
ATOM    115  C   UNL A   1      50.513  26.703  24.227  1.00  0.00     0.198 A 
ATOM    116  C   UNL A   1      51.161  25.892  26.391  1.00  0.00     0.198 A 
ATOM    117  F   UNL A   1      49.606  25.894  28.160  1.00  0.00    -0.203 F 
ATOM    118  F   UNL A   1      50.803  26.936  22.939  1.00  0.00    -0.200 F 
ATOM    119  C   UNL A   1      51.472  26.155  25.066  1.00  0.00     0.200 A 
ATOM    120  F   UNL A   1      52.089  25.376  27.207  1.00  0.00    -0.200 F 
ATOM    121  F   UNL A   1      52.696  25.877  24.595  1.00  0.00    -0.200 F 
ENDBRANCH  83 111
BRANCH  98 122
ATOM    122  C   UNL A   1      46.018  32.438  28.806  1.00  0.00     0.064 A 
ATOM    123  C   UNL A   1      46.620  32.719  30.041  1.00  0.00     0.173 A 
ATOM    124  C   UNL A   1      45.967  33.463  27.850  1.00  0.00     0.173 A 
ATOM    125  F   UNL A   1      46.677  31.776  30.994  1.00  0.00    -0.203 F 
ATOM    126  C   UNL A   1      47.126  33.986  30.318  1.00  0.00     0.198 A 
ATOM    127  C   UNL A   1      46.499  34.721  28.120  1.00  0.00     0.198 A 
ATOM    128  F   UNL A   1      45.407  33.243  26.650  1.00  0.00    -0.203 F 
ATOM    129  F   UNL A   1      47.654  34.246  31.522  1.00  0.00    -0.200 F 
ATOM    130  C   UNL A   1      47.071  34.984  29.355  1.00  0.00     0.200 A 
ATOM    131  F   UNL A   1      46.455  35.680  27.185  1.00  0.00    -0.200 F 
ATOM    132  F   UNL A   1      47.561  36.201  29.623  1.00  0.00    -0.200 F 
ENDBRANCH  98 122
ENDBRANCH  63  66
ENDBRANCH  53  56
ENDBRANCH  49  52
ENDBRANCH  46  49
ENDBRANCH  43  46
ENDBRANCH  40  43
ENDBRANCH   1  40
TORSDOF 19
ENDMDL
MODEL 2
REMARK VINA RESULT:     -10.8      1.172      7.513
REMARK SMILES CC(C)Cc1ccc([C@H](CF)C(=O)NCCCCCCNC(=O)c2ccc(-c3c4nc(c(-c5c(F)c(F)c(F)c(F)c5F)c5ccc([nH]5)c(-c5c(F)c(F)c(F)c(F)c5F)c5nc(c(-c6c(F)c(F)c(F)c(F)c6F)c6ccc3[nH]6)C=C5)C=C4)cc2)cc1
REMARK SMILES IDX 16 1 15 4 14 7 12 8 13 9 9 11 8 13 5 14 6 15 88 16 7 17
REMARK SMILES IDX 87 19 4 23 2 26 1 28 3 32 10 36 11 37 17 40 18 43 19 46
REMARK SMILES IDX 20 49 21 52 22 53 23 55 24 56 25 57 86 58 26 59 85 61 27 63
REMARK SMILES IDX 28 66 29 67 79 68 30 69 84 70 78 71 80 72 31 73 83 74 77 76
REMARK SMILES IDX 76 78 32 80 64 83 44 84 63 85 45 86 48 87 62 88 81 89 46 90
REMARK SMILES IDX 47 92 61 94 82 95 49 98 33 100 34 101 42 102 35 103 36 104
REMARK SMILES IDX 40 105 43 106 37 107 38 108 41 109 39 110 65 111 66 112
REMARK SMILES IDX 74 113 67 114 68 115 72 116 75 117 69 118 70 119 73 120
REMARK SMILES IDX 71 121 50 122 51 123 59 124 52 125 53 126 57 127 60 128
REMARK SMILES IDX 54 129 55 130 58 131 56 132
REMARK H PARENT 16 2 16 3 15 5 15 6 14 10 9 12 6 18 88 20 7 21 87 22 4 24 4 25
REMARK H PARENT 2 27 1 29 1 30 1 31 3 33 3 34 3 35 10 38 10 39 17 41 17 42
REMARK H PARENT 18 44 18 45 19 47 19 48 20 50 20 51 21 54 25 60 86 62 26 64
REMARK H PARENT 85 65 84 75 78 77 80 79 83 81 77 82 45 91 48 93 81 96 46 97
REMARK H PARENT 82 99
REMARK Flexibility Score: inf
ROOT
ATOM      1  C   UNL A   1      36.340  22.763  24.221  1.00  0.00    -0.036 C 
ATOM      2  H   UNL A   1      36.869  23.073  23.345  1.00  0.00     0.028 H 
ATOM      3  H   UNL A   1      35.449  22.212  24.000  1.00  0.00     0.028 H 
ENDROOT
BRANCH   1   4
ATOM      4  C   UNL A   1      35.899  24.012  24.978  1.00  0.00     0.017 C 
ATOM      5  H   UNL A   1      35.590  23.730  25.963  1.00  0.00     0.049 H 
ATOM      6  H   UNL A   1      36.726  24.690  25.016  1.00  0.00     0.049 H 
BRANCH   4   7
ATOM      7  N   UNL A   1      34.797  24.680  24.312  1.00  0.00    -0.355 N 
ATOM      8  C   UNL A   1      33.455  24.633  24.555  1.00  0.00     0.230 C 
ATOM      9  O   UNL A   1      32.729  25.356  23.867  1.00  0.00    -0.274 OA
ATOM     10  H   UNL A   1      35.059  25.263  23.563  1.00  0.00     0.163 HD
BRANCH   8  11
ATOM     11  C   UNL A   1      32.852  23.711  25.619  1.00  0.00     0.091 C 
ATOM     12  H   UNL A   1      33.443  23.673  26.510  1.00  0.00     0.048 H 
BRANCH  11  13
ATOM     13  C   UNL A   1      32.898  22.248  25.194  1.00  0.00    -0.033 A 
ATOM     14  C   UNL A   1      32.676  19.552  24.376  1.00  0.00    -0.048 A 
ATOM     15  C   UNL A   1      32.342  20.587  23.498  1.00  0.00    -0.059 A 
ATOM     16  C   UNL A   1      33.192  19.875  25.635  1.00  0.00    -0.059 A 
ATOM     17  C   UNL A   1      32.450  21.917  23.904  1.00  0.00    -0.058 A 
ATOM     18  H   UNL A   1      32.013  20.365  22.545  1.00  0.00     0.063 H 
ATOM     19  C   UNL A   1      33.321  21.209  26.033  1.00  0.00    -0.058 A 
ATOM     20  H   UNL A   1      33.479  19.120  26.279  1.00  0.00     0.063 H 
ATOM     21  H   UNL A   1      32.197  22.670  23.245  1.00  0.00     0.063 H 
ATOM     22  H   UNL A   1      33.733  21.432  26.954  1.00  0.00     0.063 H 
BRANCH  14  23
ATOM     23  C   UNL A   1      32.435  18.113  23.986  1.00  0.00    -0.026 C 
ATOM     24  H   UNL A   1      31.559  17.766  24.492  1.00  0.00     0.032 H 
ATOM     25  H   UNL A   1      32.321  18.084  22.922  1.00  0.00     0.032 H 
BRANCH  23  26
ATOM     26  C   UNL A   1      33.613  17.184  24.350  1.00  0.00    -0.043 C 
ATOM     27  H   UNL A   1      34.327  17.775  24.885  1.00  0.00     0.030 H 
BRANCH  26  28
ATOM     28  C   UNL A   1      33.189  16.031  25.265  1.00  0.00    -0.062 C 
ATOM     29  H   UNL A   1      32.211  16.227  25.656  1.00  0.00     0.023 H 
ATOM     30  H   UNL A   1      33.884  15.943  26.073  1.00  0.00     0.023 H 
ATOM     31  H   UNL A   1      33.173  15.119  24.706  1.00  0.00     0.023 H 
ENDBRANCH  26  28
BRANCH  26  32
ATOM     32  C   UNL A   1      34.242  16.618  23.075  1.00  0.00    -0.062 C 
ATOM     33  H   UNL A   1      34.235  17.367  22.311  1.00  0.00     0.023 H 
ATOM     34  H   UNL A   1      33.680  15.768  22.747  1.00  0.00     0.023 H 
ATOM     35  H   UNL A   1      35.251  16.323  23.276  1.00  0.00     0.023 H 
ENDBRANCH  26  32
ENDBRANCH  23  26
ENDBRANCH  14  23
ENDBRANCH  11  13
BRANCH  11  36
ATOM     36  C   UNL A   1      31.521  24.304  26.072  1.00  0.00     0.105 C 
ATOM     37  F   UNL A   1      31.098  23.670  27.202  1.00  0.00    -0.250 F 
ATOM     38  H   UNL A   1      30.792  24.176  25.298  1.00  0.00     0.064 H 
ATOM     39  H   UNL A   1      31.647  25.347  26.277  1.00  0.00     0.064 H 
ENDBRANCH  11  36
ENDBRANCH   8  11
ENDBRANCH   4   7
ENDBRANCH   1   4
BRANCH   1  40
ATOM     40  C   UNL A   1      37.246  21.820  25.017  1.00  0.00    -0.052 C 
ATOM     41  H   UNL A   1      37.172  22.087  26.051  1.00  0.00     0.027 H 
ATOM     42  H   UNL A   1      38.228  21.941  24.611  1.00  0.00     0.027 H 
BRANCH  40  43
ATOM     43  C   UNL A   1      36.918  20.328  24.890  1.00  0.00    -0.052 C 
ATOM     44  H   UNL A   1      36.471  20.170  23.930  1.00  0.00     0.027 H 
ATOM     45  H   UNL A   1      36.272  20.100  25.712  1.00  0.00     0.027 H 
BRANCH  43  46
ATOM     46  C   UNL A   1      38.109  19.373  25.018  1.00  0.00    -0.036 C 
ATOM     47  H   UNL A   1      38.503  19.204  24.038  1.00  0.00     0.028 H 
ATOM     48  H   UNL A   1      37.729  18.490  25.487  1.00  0.00     0.028 H 
BRANCH  46  49
ATOM     49  C   UNL A   1      39.249  19.865  25.906  1.00  0.00     0.018 C 
ATOM     50  H   UNL A   1      38.893  19.938  26.912  1.00  0.00     0.049 H 
ATOM     51  H   UNL A   1      39.566  20.814  25.529  1.00  0.00     0.049 H 
BRANCH  49  52
ATOM     52  N   UNL A   1      40.399  18.975  25.883  1.00  0.00    -0.352 N 
ATOM     53  C   UNL A   1      41.728  19.261  26.047  1.00  0.00     0.251 C 
ATOM     54  H   UNL A   1      40.190  18.027  25.725  1.00  0.00     0.163 HD
ATOM     55  O   UNL A   1      42.572  18.386  25.845  1.00  0.00    -0.269 OA
BRANCH  53  56
ATOM     56  C   UNL A   1      42.167  20.616  26.443  1.00  0.00     0.039 A 
ATOM     57  C   UNL A   1      42.582  21.503  25.445  1.00  0.00    -0.049 A 
ATOM     58  C   UNL A   1      42.202  21.009  27.785  1.00  0.00    -0.049 A 
ATOM     59  C   UNL A   1      42.982  22.797  25.784  1.00  0.00    -0.053 A 
ATOM     60  H   UNL A   1      42.595  21.201  24.458  1.00  0.00     0.063 H 
ATOM     61  C   UNL A   1      42.542  22.320  28.117  1.00  0.00    -0.053 A 
ATOM     62  H   UNL A   1      41.977  20.330  28.528  1.00  0.00     0.063 H 
ATOM     63  C   UNL A   1      42.938  23.226  27.121  1.00  0.00    -0.014 A 
ATOM     64  H   UNL A   1      43.310  23.442  25.049  1.00  0.00     0.063 H 
ATOM     65  H   UNL A   1      42.501  22.626  29.102  1.00  0.00     0.063 H 
BRANCH  63  66
ATOM     66  C   UNL A   1      43.301  24.618  27.486  1.00  0.00     0.031 A 
ATOM     67  C   UNL A   1      44.739  25.054  27.492  1.00  0.00     0.074 A 
ATOM     68  C   UNL A   1      42.336  25.477  27.865  1.00  0.00     0.049 A 
ATOM     69  N   UNL A   1      45.250  26.216  27.816  1.00  0.00    -0.248 NA
ATOM     70  C   UNL A   1      45.737  24.044  27.109  1.00  0.00    -0.034 C 
ATOM     71  C   UNL A   1      40.910  25.158  27.954  1.00  0.00    -0.036 A 
ATOM     72  N   UNL A   1      42.409  26.791  28.255  1.00  0.00    -0.354 N 
ATOM     73  C   UNL A   1      46.626  26.071  27.690  1.00  0.00     0.074 A 
ATOM     74  C   UNL A   1      46.873  24.698  27.306  1.00  0.00    -0.034 C 
ATOM     75  H   UNL A   1      45.591  23.079  26.774  1.00  0.00     0.065 H 
ATOM     76  C   UNL A   1      40.241  26.251  28.354  1.00  0.00    -0.036 A 
ATOM     77  H   UNL A   1      40.487  24.240  27.744  1.00  0.00     0.065 H 
ATOM     78  C   UNL A   1      41.190  27.338  28.574  1.00  0.00     0.049 A 
ATOM     79  H   UNL A   1      43.254  27.293  28.302  1.00  0.00     0.167 HD
ATOM     80  C   UNL A   1      47.593  27.006  27.860  1.00  0.00     0.037 A 
ATOM     81  H   UNL A   1      47.811  24.281  27.201  1.00  0.00     0.065 H 
ATOM     82  H   UNL A   1      39.218  26.313  28.484  1.00  0.00     0.065 H 
ATOM     83  C   UNL A   1      40.875  28.577  28.997  1.00  0.00     0.037 A 
ATOM     84  C   UNL A   1      47.344  28.378  28.212  1.00  0.00     0.049 A 
ATOM     85  C   UNL A   1      41.963  29.601  29.154  1.00  0.00     0.074 A 
ATOM     86  C   UNL A   1      48.250  29.418  28.335  1.00  0.00    -0.036 A 
ATOM     87  N   UNL A   1      46.092  28.904  28.501  1.00  0.00    -0.354 N 
ATOM     88  N   UNL A   1      43.253  29.473  28.958  1.00  0.00    -0.248 NA
ATOM     89  C   UNL A   1      41.551  30.946  29.579  1.00  0.00    -0.034 C 
ATOM     90  C   UNL A   1      47.552  30.563  28.737  1.00  0.00    -0.036 A 
ATOM     91  H   UNL A   1      49.265  29.358  28.160  1.00  0.00     0.065 H 
ATOM     92  C   UNL A   1      46.205  30.247  28.822  1.00  0.00     0.049 A 
ATOM     93  H   UNL A   1      45.248  28.398  28.481  1.00  0.00     0.167 HD
ATOM     94  C   UNL A   1      43.803  30.722  29.216  1.00  0.00     0.074 A 
ATOM     95  C   UNL A   1      42.704  31.598  29.564  1.00  0.00    -0.034 C 
ATOM     96  H   UNL A   1      40.610  31.291  29.825  1.00  0.00     0.065 H 
ATOM     97  H   UNL A   1      47.970  31.485  28.936  1.00  0.00     0.065 H 
ATOM     98  C   UNL A   1      45.103  31.107  29.169  1.00  0.00     0.037 A 
ATOM     99  H   UNL A   1      42.806  32.604  29.774  1.00  0.00     0.065 H 
BRANCH  80 100
ATOM    100  C   UNL A   1      49.016  26.571  27.663  1.00  0.00     0.064 A 
ATOM    101  C   UNL A   1      49.843  26.246  28.749  1.00  0.00     0.173 A 
ATOM    102  C   UNL A   1      49.551  26.449  26.371  1.00  0.00     0.173 A 
ATOM    103  F   UNL A   1      49.383  26.356  30.005  1.00  0.00    -0.203 F 
ATOM    104  C   UNL A   1      51.161  25.845  28.551  1.00  0.00     0.198 A 
ATOM    105  C   UNL A   1      50.861  26.020  26.176  1.00  0.00     0.198 A 
ATOM    106  F   UNL A   1      48.802  26.741  25.298  1.00  0.00    -0.203 F 
ATOM    107  F   UNL A   1      51.947  25.587  29.606  1.00  0.00    -0.200 F 
ATOM    108  C   UNL A   1      51.668  25.726  27.266  1.00  0.00     0.200 A 
ATOM    109  F   UNL A   1      51.346  25.895  24.933  1.00  0.00    -0.200 F 
ATOM    110  F   UNL A   1      52.936  25.336  27.077  1.00  0.00    -0.200 F 
ENDBRANCH  80 100
BRANCH  83 111
ATOM    111  C   UNL A   1      39.456  28.922  29.268  1.00  0.00     0.064 A 
ATOM    112  C   UNL A   1      38.910  28.757  30.548  1.00  0.00     0.173 A 
ATOM    113  C   UNL A   1      38.624  29.430  28.261  1.00  0.00     0.173 A 
ATOM    114  F   UNL A   1      39.663  28.253  31.537  1.00  0.00    -0.203 F 
ATOM    115  C   UNL A   1      37.579  29.075  30.808  1.00  0.00     0.198 A 
ATOM    116  C   UNL A   1      37.300  29.772  28.529  1.00  0.00     0.198 A 
ATOM    117  F   UNL A   1      39.102  29.612  27.022  1.00  0.00    -0.203 F 
ATOM    118  F   UNL A   1      37.071  28.873  32.031  1.00  0.00    -0.200 F 
ATOM    119  C   UNL A   1      36.777  29.588  29.800  1.00  0.00     0.200 A 
ATOM    120  F   UNL A   1      36.531  30.280  27.556  1.00  0.00    -0.200 F 
ATOM    121  F   UNL A   1      35.499  29.900  30.052  1.00  0.00    -0.200 F 
ENDBRANCH  83 111
BRANCH  98 122
ATOM    122  C   UNL A   1      45.401  32.543  29.483  1.00  0.00     0.064 A 
ATOM    123  C   UNL A   1      45.728  32.957  30.783  1.00  0.00     0.173 A 
ATOM    124  C   UNL A   1      45.388  33.510  28.467  1.00  0.00     0.173 A 
ATOM    125  F   UNL A   1      45.737  32.072  31.791  1.00  0.00    -0.203 F 
ATOM    126  C   UNL A   1      46.003  34.293  31.059  1.00  0.00     0.198 A 
ATOM    127  C   UNL A   1      45.691  34.841  28.742  1.00  0.00     0.198 A 
ATOM    128  F   UNL A   1      45.088  33.164  27.206  1.00  0.00    -0.203 F 
ATOM    129  F   UNL A   1      46.266  34.676  32.316  1.00  0.00    -0.200 F 
ATOM    130  C   UNL A   1      45.991  35.233  30.038  1.00  0.00     0.200 A 
ATOM    131  F   UNL A   1      45.689  35.745  27.753  1.00  0.00    -0.200 F 
ATOM    132  F   UNL A   1      46.259  36.518  30.305  1.00  0.00    -0.200 F 
ENDBRANCH  98 122
ENDBRANCH  63  66
ENDBRANCH  53  56
ENDBRANCH  49  52
ENDBRANCH  46  49
ENDBRANCH  43  46
ENDBRANCH  40  43
ENDBRANCH   1  40
TORSDOF 19
ENDMDL
MODEL 3
REMARK VINA RESULT:     -10.6      0.906      7.501
REMARK SMILES CC(C)Cc1ccc([C@H](CF)C(=O)NCCCCCCNC(=O)c2ccc(-c3c4nc(c(-c5c(F)c(F)c(F)c(F)c5F)c5ccc([nH]5)c(-c5c(F)c(F)c(F)c(F)c5F)c5nc(c(-c6c(F)c(F)c(F)c(F)c6F)c6ccc3[nH]6)C=C5)C=C4)cc2)cc1
REMARK SMILES IDX 16 1 15 4 14 7 12 8 13 9 9 11 8 13 5 14 6 15 88 16 7 17
REMARK SMILES IDX 87 19 4 23 2 26 1 28 3 32 10 36 11 37 17 40 18 43 19 46
REMARK SMILES IDX 20 49 21 52 22 53 23 55 24 56 25 57 86 58 26 59 85 61 27 63
REMARK SMILES IDX 28 66 29 67 79 68 30 69 84 70 78 71 80 72 31 73 83 74 77 76
REMARK SMILES IDX 76 78 32 80 64 83 44 84 63 85 45 86 48 87 62 88 81 89 46 90
REMARK SMILES IDX 47 92 61 94 82 95 49 98 33 100 34 101 42 102 35 103 36 104
REMARK SMILES IDX 40 105 43 106 37 107 38 108 41 109 39 110 65 111 66 112
REMARK SMILES IDX 74 113 67 114 68 115 72 116 75 117 69 118 70 119 73 120
REMARK SMILES IDX 71 121 50 122 51 123 59 124 52 125 53 126 57 127 60 128
REMARK SMILES IDX 54 129 55 130 58 131 56 132
REMARK H PARENT 16 2 16 3 15 5 15 6 14 10 9 12 6 18 88 20 7 21 87 22 4 24 4 25
REMARK H PARENT 2 27 1 29 1 30 1 31 3 33 3 34 3 35 10 38 10 39 17 41 17 42
REMARK H PARENT 18 44 18 45 19 47 19 48 20 50 20 51 21 54 25 60 86 62 26 64
REMARK H PARENT 85 65 84 75 78 77 80 79 83 81 77 82 45 91 48 93 81 96 46 97
REMARK H PARENT 82 99
REMARK Flexibility Score: inf
ROOT
ATOM      1  C   UNL A   1      36.702  22.569  23.691  1.00  0.00    -0.036 C 
ATOM      2  H   UNL A   1      37.556  23.209  23.618  1.00  0.00     0.028 H 
ATOM      3  H   UNL A   1      36.687  21.801  22.946  1.00  0.00     0.028 H 
ENDROOT
BRANCH   1   4
ATOM      4  C   UNL A   1      35.452  23.415  23.463  1.00  0.00     0.017 C 
ATOM      5  H   UNL A   1      35.671  24.171  22.738  1.00  0.00     0.049 H 
ATOM      6  H   UNL A   1      34.670  22.770  23.120  1.00  0.00     0.049 H 
BRANCH   4   7
ATOM      7  N   UNL A   1      35.008  24.053  24.688  1.00  0.00    -0.355 N 
ATOM      8  C   UNL A   1      33.748  24.315  25.144  1.00  0.00     0.230 C 
ATOM      9  O   UNL A   1      33.646  24.822  26.265  1.00  0.00    -0.274 OA
ATOM     10  H   UNL A   1      35.731  24.343  25.289  1.00  0.00     0.163 HD
BRANCH   8  11
ATOM     11  C   UNL A   1      32.501  24.020  24.306  1.00  0.00     0.091 C 
ATOM     12  H   UNL A   1      31.594  24.210  24.841  1.00  0.00     0.048 H 
BRANCH  11  13
ATOM     13  C   UNL A   1      32.347  22.531  24.022  1.00  0.00    -0.033 A 
ATOM     14  C   UNL A   1      32.353  19.737  23.594  1.00  0.00    -0.048 A 
ATOM     15  C   UNL A   1      32.475  20.254  24.887  1.00  0.00    -0.059 A 
ATOM     16  C   UNL A   1      32.153  20.621  22.529  1.00  0.00    -0.059 A 
ATOM     17  C   UNL A   1      32.474  21.633  25.096  1.00  0.00    -0.058 A 
ATOM     18  H   UNL A   1      32.566  19.612  25.690  1.00  0.00     0.063 H 
ATOM     19  C   UNL A   1      32.129  22.003  22.743  1.00  0.00    -0.058 A 
ATOM     20  H   UNL A   1      32.023  20.250  21.574  1.00  0.00     0.063 H 
ATOM     21  H   UNL A   1      32.567  22.000  26.056  1.00  0.00     0.063 H 
ATOM     22  H   UNL A   1      31.950  22.641  21.951  1.00  0.00     0.063 H 
BRANCH  14  23
ATOM     23  C   UNL A   1      32.486  18.253  23.351  1.00  0.00    -0.026 C 
ATOM     24  H   UNL A   1      31.592  17.771  23.689  1.00  0.00     0.032 H 
ATOM     25  H   UNL A   1      32.644  18.113  22.302  1.00  0.00     0.032 H 
BRANCH  23  26
ATOM     26  C   UNL A   1      33.690  17.625  24.086  1.00  0.00    -0.043 C 
ATOM     27  H   UNL A   1      34.349  18.426  24.352  1.00  0.00     0.030 H 
BRANCH  26  28
ATOM     28  C   UNL A   1      33.280  16.916  25.381  1.00  0.00    -0.062 C 
ATOM     29  H   UNL A   1      32.397  17.374  25.776  1.00  0.00     0.023 H 
ATOM     30  H   UNL A   1      34.072  16.993  26.096  1.00  0.00     0.023 H 
ATOM     31  H   UNL A   1      33.084  15.884  25.176  1.00  0.00     0.023 H 
ENDBRANCH  26  28
BRANCH  26  32
ATOM     32  C   UNL A   1      34.403  16.634  23.165  1.00  0.00    -0.062 C 
ATOM     33  H   UNL A   1      33.688  15.953  22.752  1.00  0.00     0.023 H 
ATOM     34  H   UNL A   1      35.134  16.089  23.726  1.00  0.00     0.023 H 
ATOM     35  H   UNL A   1      34.887  17.167  22.374  1.00  0.00     0.023 H 
ENDBRANCH  26  32
ENDBRANCH  23  26
ENDBRANCH  14  23
ENDBRANCH  11  13
BRANCH  11  36
ATOM     36  C   UNL A   1      32.463  25.000  23.137  1.00  0.00     0.105 C 
ATOM     37  F   UNL A   1      32.995  26.194  23.521  1.00  0.00    -0.250 F 
ATOM     38  H   UNL A   1      31.449  25.145  22.826  1.00  0.00     0.064 H 
ATOM     39  H   UNL A   1      33.033  24.604  22.322  1.00  0.00     0.064 H 
ENDBRANCH  11  36
ENDBRANCH   8  11
ENDBRANCH   4   7
ENDBRANCH   1   4
BRANCH   1  40
ATOM     40  C   UNL A   1      36.753  21.857  25.046  1.00  0.00    -0.052 C 
ATOM     41  H   UNL A   1      35.991  22.277  25.668  1.00  0.00     0.027 H 
ATOM     42  H   UNL A   1      37.745  22.007  25.420  1.00  0.00     0.027 H 
BRANCH  40  43
ATOM     43  C   UNL A   1      36.544  20.340  25.001  1.00  0.00    -0.052 C 
ATOM     44  H   UNL A   1      35.992  20.110  24.113  1.00  0.00     0.027 H 
ATOM     45  H   UNL A   1      36.031  20.089  25.906  1.00  0.00     0.027 H 
BRANCH  43  46
ATOM     46  C   UNL A   1      37.819  19.493  24.995  1.00  0.00    -0.036 C 
ATOM     47  H   UNL A   1      38.114  19.347  23.977  1.00  0.00     0.028 H 
ATOM     48  H   UNL A   1      37.573  18.585  25.505  1.00  0.00     0.028 H 
BRANCH  46  49
ATOM     49  C   UNL A   1      39.006  20.091  25.747  1.00  0.00     0.018 C 
ATOM     50  H   UNL A   1      38.679  20.386  26.722  1.00  0.00     0.049 H 
ATOM     51  H   UNL A   1      39.360  20.925  25.179  1.00  0.00     0.049 H 
BRANCH  49  52
ATOM     52  N   UNL A   1      40.108  19.154  25.888  1.00  0.00    -0.352 N 
ATOM     53  C   UNL A   1      41.434  19.394  26.128  1.00  0.00     0.251 C 
ATOM     54  H   UNL A   1      39.863  18.205  25.799  1.00  0.00     0.163 HD
ATOM     55  O   UNL A   1      42.245  18.469  26.068  1.00  0.00    -0.269 OA
BRANCH  53  56
ATOM     56  C   UNL A   1      41.911  20.759  26.437  1.00  0.00     0.039 A 
ATOM     57  C   UNL A   1      42.150  21.640  25.377  1.00  0.00    -0.049 A 
ATOM     58  C   UNL A   1      42.154  21.168  27.753  1.00  0.00    -0.049 A 
ATOM     59  C   UNL A   1      42.580  22.942  25.637  1.00  0.00    -0.053 A 
ATOM     60  H   UNL A   1      42.010  21.327  24.404  1.00  0.00     0.063 H 
ATOM     61  C   UNL A   1      42.524  22.486  28.015  1.00  0.00    -0.053 A 
ATOM     62  H   UNL A   1      42.060  20.494  28.528  1.00  0.00     0.063 H 
ATOM     63  C   UNL A   1      42.744  23.385  26.960  1.00  0.00    -0.014 A 
ATOM     64  H   UNL A   1      42.778  23.584  24.854  1.00  0.00     0.063 H 
ATOM     65  H   UNL A   1      42.636  22.803  28.990  1.00  0.00     0.063 H 
BRANCH  63  66
ATOM     66  C   UNL A   1      43.140  24.786  27.250  1.00  0.00     0.031 A 
ATOM     67  C   UNL A   1      44.539  25.257  26.965  1.00  0.00     0.074 A 
ATOM     68  C   UNL A   1      42.252  25.622  27.822  1.00  0.00     0.049 A 
ATOM     69  N   UNL A   1      45.078  26.430  27.184  1.00  0.00    -0.248 NA
ATOM     70  C   UNL A   1      45.461  24.271  26.383  1.00  0.00    -0.034 C 
ATOM     71  C   UNL A   1      40.882  25.269  28.197  1.00  0.00    -0.036 A 
ATOM     72  N   UNL A   1      42.373  26.937  28.194  1.00  0.00    -0.354 N 
ATOM     73  C   UNL A   1      46.403  26.319  26.781  1.00  0.00     0.074 A 
ATOM     74  C   UNL A   1      46.598  24.952  26.348  1.00  0.00    -0.034 C 
ATOM     75  H   UNL A   1      45.274  23.303  26.080  1.00  0.00     0.065 H 
ATOM     76  C   UNL A   1      40.283  26.346  28.730  1.00  0.00    -0.036 A 
ATOM     77  H   UNL A   1      40.448  24.341  28.073  1.00  0.00     0.065 H 
ATOM     78  C   UNL A   1      41.231  27.455  28.758  1.00  0.00     0.049 A 
ATOM     79  H   UNL A   1      43.198  27.459  28.071  1.00  0.00     0.167 HD
ATOM     80  C   UNL A   1      47.361  27.276  26.755  1.00  0.00     0.037 A 
ATOM     81  H   UNL A   1      47.505  24.558  26.053  1.00  0.00     0.065 H 
ATOM     82  H   UNL A   1      39.308  26.383  29.065  1.00  0.00     0.065 H 
ATOM     83  C   UNL A   1      40.980  28.686  29.241  1.00  0.00     0.037 A 
ATOM     84  C   UNL A   1      47.157  28.643  27.157  1.00  0.00     0.049 A 
ATOM     85  C   UNL A   1      42.053  29.736  29.178  1.00  0.00     0.074 A 
ATOM     86  C   UNL A   1      48.044  29.704  27.097  1.00  0.00    -0.036 A 
ATOM     87  N   UNL A   1      45.978  29.138  27.696  1.00  0.00    -0.354 N 
ATOM     88  N   UNL A   1      43.279  29.639  28.724  1.00  0.00    -0.248 NA
ATOM     89  C   UNL A   1      41.704  31.071  29.684  1.00  0.00    -0.034 C 
ATOM     90  C   UNL A   1      47.416  30.832  27.638  1.00  0.00    -0.036 A 
ATOM     91  H   UNL A   1      49.003  29.668  26.719  1.00  0.00     0.065 H 
ATOM     92  C   UNL A   1      46.122  30.484  27.994  1.00  0.00     0.049 A 
ATOM     93  H   UNL A   1      45.160  28.612  27.846  1.00  0.00     0.167 HD
ATOM     94  C   UNL A   1      43.840  30.901  28.870  1.00  0.00     0.074 A 
ATOM     95  C   UNL A   1      42.814  31.751  29.439  1.00  0.00    -0.034 C 
ATOM     96  H   UNL A   1      40.825  31.393  30.118  1.00  0.00     0.065 H 
ATOM     97  H   UNL A   1      47.844  31.763  27.752  1.00  0.00     0.065 H 
ATOM     98  C   UNL A   1      45.093  31.317  28.561  1.00  0.00     0.037 A 
ATOM     99  H   UNL A   1      42.933  32.758  29.628  1.00  0.00     0.065 H 
BRANCH  80 100
ATOM    100  C   UNL A   1      48.724  26.876  26.270  1.00  0.00     0.064 A 
ATOM    101  C   UNL A   1      49.094  27.005  24.923  1.00  0.00     0.173 A 
ATOM    102  C   UNL A   1      49.683  26.382  27.169  1.00  0.00     0.173 A 
ATOM    103  F   UNL A   1      48.211  27.462  24.022  1.00  0.00    -0.203 F 
ATOM    104  C   UNL A   1      50.362  26.629  24.488  1.00  0.00     0.198 A 
ATOM    105  C   UNL A   1      50.959  26.033  26.735  1.00  0.00     0.198 A 
ATOM    106  F   UNL A   1      49.383  26.243  28.469  1.00  0.00    -0.203 F 
ATOM    107  F   UNL A   1      50.675  26.716  23.188  1.00  0.00    -0.200 F 
ATOM    108  C   UNL A   1      51.295  26.149  25.394  1.00  0.00     0.200 A 
ATOM    109  F   UNL A   1      51.863  25.580  27.614  1.00  0.00    -0.200 F 
ATOM    110  F   UNL A   1      52.516  25.790  24.974  1.00  0.00    -0.200 F 
ENDBRANCH  80 100
BRANCH  83 111
ATOM    111  C   UNL A   1      39.639  28.997  29.797  1.00  0.00     0.064 A 
ATOM    112  C   UNL A   1      39.356  28.783  31.153  1.00  0.00     0.173 A 
ATOM    113  C   UNL A   1      38.619  29.521  28.991  1.00  0.00     0.173 A 
ATOM    114  F   UNL A   1      40.296  28.264  31.957  1.00  0.00    -0.203 F 
ATOM    115  C   UNL A   1      38.099  29.069  31.680  1.00  0.00     0.198 A 
ATOM    116  C   UNL A   1      37.369  29.830  29.524  1.00  0.00     0.198 A 
ATOM    117  F   UNL A   1      38.841  29.749  27.688  1.00  0.00    -0.203 F 
ATOM    118  F   UNL A   1      37.844  28.821  32.971  1.00  0.00    -0.200 F 
ATOM    119  C   UNL A   1      37.108  29.598  30.866  1.00  0.00     0.200 A 
ATOM    120  F   UNL A   1      36.418  30.354  28.738  1.00  0.00    -0.200 F 
ATOM    121  F   UNL A   1      35.901  29.879  31.375  1.00  0.00    -0.200 F 
ENDBRANCH  83 111
BRANCH  98 122
ATOM    122  C   UNL A   1      45.416  32.760  28.815  1.00  0.00     0.064 A 
ATOM    123  C   UNL A   1      45.163  33.748  27.853  1.00  0.00     0.173 A 
ATOM    124  C   UNL A   1      45.958  33.161  30.045  1.00  0.00     0.173 A 
ATOM    125  F   UNL A   1      44.661  33.412  26.655  1.00  0.00    -0.203 F 
ATOM    126  C   UNL A   1      45.468  35.084  28.103  1.00  0.00     0.198 A 
ATOM    127  C   UNL A   1      46.236  34.501  30.302  1.00  0.00     0.198 A 
ATOM    128  F   UNL A   1      46.213  32.254  31.001  1.00  0.00    -0.203 F 
ATOM    129  F   UNL A   1      45.263  36.006  27.152  1.00  0.00    -0.200 F 
ATOM    130  C   UNL A   1      45.998  35.460  29.330  1.00  0.00     0.200 A 
ATOM    131  F   UNL A   1      46.738  34.863  31.491  1.00  0.00    -0.200 F 
ATOM    132  F   UNL A   1      46.288  36.745  29.569  1.00  0.00    -0.200 F 
ENDBRANCH  98 122
ENDBRANCH  63  66
ENDBRANCH  53  56
ENDBRANCH  49  52
ENDBRANCH  46  49
ENDBRANCH  43  46
ENDBRANCH  40  43
ENDBRANCH   1  40
TORSDOF 19
ENDMDL
MODEL 4
REMARK VINA RESULT:     -10.5      6.413     10.890
REMARK SMILES CC(C)Cc1ccc([C@H](CF)C(=O)NCCCCCCNC(=O)c2ccc(-c3c4nc(c(-c5c(F)c(F)c(F)c(F)c5F)c5ccc([nH]5)c(-c5c(F)c(F)c(F)c(F)c5F)c5nc(c(-c6c(F)c(F)c(F)c(F)c6F)c6ccc3[nH]6)C=C5)C=C4)cc2)cc1
REMARK SMILES IDX 16 1 15 4 14 7 12 8 13 9 9 11 8 13 5 14 6 15 88 16 7 17
REMARK SMILES IDX 87 19 4 23 2 26 1 28 3 32 10 36 11 37 17 40 18 43 19 46
REMARK SMILES IDX 20 49 21 52 22 53 23 55 24 56 25 57 86 58 26 59 85 61 27 63
REMARK SMILES IDX 28 66 29 67 79 68 30 69 84 70 78 71 80 72 31 73 83 74 77 76
REMARK SMILES IDX 76 78 32 80 64 83 44 84 63 85 45 86 48 87 62 88 81 89 46 90
REMARK SMILES IDX 47 92 61 94 82 95 49 98 33 100 34 101 42 102 35 103 36 104
REMARK SMILES IDX 40 105 43 106 37 107 38 108 41 109 39 110 65 111 66 112
REMARK SMILES IDX 74 113 67 114 68 115 72 116 75 117 69 118 70 119 73 120
REMARK SMILES IDX 71 121 50 122 51 123 59 124 52 125 53 126 57 127 60 128
REMARK SMILES IDX 54 129 55 130 58 131 56 132
REMARK H PARENT 16 2 16 3 15 5 15 6 14 10 9 12 6 18 88 20 7 21 87 22 4 24 4 25
REMARK H PARENT 2 27 1 29 1 30 1 31 3 33 3 34 3 35 10 38 10 39 17 41 17 42
REMARK H PARENT 18 44 18 45 19 47 19 48 20 50 20 51 21 54 25 60 86 62 26 64
REMARK H PARENT 85 65 84 75 78 77 80 79 83 81 77 82 45 91 48 93 81 96 46 97
REMARK H PARENT 82 99
REMARK Flexibility Score: inf
ROOT
ATOM      1  C   UNL A   1      35.455  31.211  28.015  1.00  0.00    -0.036 C 
ATOM      2  H   UNL A   1      35.967  31.686  27.205  1.00  0.00     0.028 H 
ATOM      3  H   UNL A   1      36.023  31.200  28.922  1.00  0.00     0.028 H 
ENDROOT
BRANCH   1   4
ATOM      4  C   UNL A   1      35.216  29.752  27.638  1.00  0.00     0.017 C 
ATOM      5  H   UNL A   1      36.150  29.229  27.664  1.00  0.00     0.049 H 
ATOM      6  H   UNL A   1      34.524  29.334  28.340  1.00  0.00     0.049 H 
BRANCH   4   7
ATOM      7  N   UNL A   1      34.644  29.629  26.310  1.00  0.00    -0.355 N 
ATOM      8  C   UNL A   1      33.556  28.930  25.876  1.00  0.00     0.230 C 
ATOM      9  O   UNL A   1      33.247  29.046  24.686  1.00  0.00    -0.274 OA
ATOM     10  H   UNL A   1      35.117  30.133  25.609  1.00  0.00     0.163 HD
BRANCH   8  11
ATOM     11  C   UNL A   1      32.752  28.015  26.803  1.00  0.00     0.091 C 
ATOM     12  H   UNL A   1      33.271  27.794  27.712  1.00  0.00     0.048 H 
BRANCH  11  13
ATOM     13  C   UNL A   1      32.602  26.612  26.226  1.00  0.00    -0.033 A 
ATOM     14  C   UNL A   1      32.203  23.930  25.430  1.00  0.00    -0.048 A 
ATOM     15  C   UNL A   1      31.110  24.746  25.733  1.00  0.00    -0.059 A 
ATOM     16  C   UNL A   1      33.487  24.483  25.454  1.00  0.00    -0.059 A 
ATOM     17  C   UNL A   1      31.308  26.069  26.128  1.00  0.00    -0.058 A 
ATOM     18  H   UNL A   1      30.152  24.368  25.665  1.00  0.00     0.063 H 
ATOM     19  C   UNL A   1      33.683  25.816  25.828  1.00  0.00    -0.058 A 
ATOM     20  H   UNL A   1      34.300  23.901  25.194  1.00  0.00     0.063 H 
ATOM     21  H   UNL A   1      30.492  26.660  26.352  1.00  0.00     0.063 H 
ATOM     22  H   UNL A   1      34.634  26.218  25.811  1.00  0.00     0.063 H 
BRANCH  14  23
ATOM     23  C   UNL A   1      31.999  22.464  25.130  1.00  0.00    -0.026 C 
ATOM     24  H   UNL A   1      32.134  21.910  26.036  1.00  0.00     0.032 H 
ATOM     25  H   UNL A   1      31.011  22.351  24.736  1.00  0.00     0.032 H 
BRANCH  23  26
ATOM     26  C   UNL A   1      32.984  21.921  24.072  1.00  0.00    -0.043 C 
ATOM     27  H   UNL A   1      33.615  22.736  23.782  1.00  0.00     0.030 H 
BRANCH  26  28
ATOM     28  C   UNL A   1      33.886  20.812  24.625  1.00  0.00    -0.062 C 
ATOM     29  H   UNL A   1      33.665  20.656  25.660  1.00  0.00     0.023 H 
ATOM     30  H   UNL A   1      34.911  21.099  24.518  1.00  0.00     0.023 H 
ATOM     31  H   UNL A   1      33.710  19.906  24.082  1.00  0.00     0.023 H 
ENDBRANCH  26  28
BRANCH  26  32
ATOM     32  C   UNL A   1      32.209  21.394  22.863  1.00  0.00    -0.062 C 
ATOM     33  H   UNL A   1      31.294  20.948  23.193  1.00  0.00     0.023 H 
ATOM     34  H   UNL A   1      32.800  20.661  22.353  1.00  0.00     0.023 H 
ATOM     35  H   UNL A   1      31.993  22.203  22.197  1.00  0.00     0.023 H 
ENDBRANCH  26  32
ENDBRANCH  23  26
ENDBRANCH  14  23
ENDBRANCH  11  13
BRANCH  11  36
ATOM     36  C   UNL A   1      31.501  28.763  27.253  1.00  0.00     0.105 C 
ATOM     37  F   UNL A   1      31.743  30.104  27.249  1.00  0.00    -0.250 F 
ATOM     38  H   UNL A   1      31.235  28.452  28.242  1.00  0.00     0.064 H 
ATOM     39  H   UNL A   1      30.696  28.546  26.581  1.00  0.00     0.064 H 
ENDBRANCH  11  36
ENDBRANCH   8  11
ENDBRANCH   4   7
ENDBRANCH   1   4
BRANCH   1  40
ATOM     40  C   UNL A   1      34.183  32.011  28.311  1.00  0.00    -0.052 C 
ATOM     41  H   UNL A   1      33.637  31.493  29.071  1.00  0.00     0.027 H 
ATOM     42  H   UNL A   1      33.659  32.086  27.380  1.00  0.00     0.027 H 
BRANCH  40  43
ATOM     43  C   UNL A   1      34.406  33.451  28.787  1.00  0.00    -0.052 C 
ATOM     44  H   UNL A   1      35.206  33.867  28.210  1.00  0.00     0.027 H 
ATOM     45  H   UNL A   1      34.615  33.383  29.834  1.00  0.00     0.027 H 
BRANCH  43  46
ATOM     46  C   UNL A   1      33.199  34.385  28.662  1.00  0.00    -0.036 C 
ATOM     47  H   UNL A   1      32.382  33.942  29.192  1.00  0.00     0.028 H 
ATOM     48  H   UNL A   1      33.021  34.497  27.613  1.00  0.00     0.028 H 
BRANCH  46  49
ATOM     49  C   UNL A   1      33.405  35.796  29.208  1.00  0.00     0.018 C 
ATOM     50  H   UNL A   1      33.181  36.499  28.433  1.00  0.00     0.049 H 
ATOM     51  H   UNL A   1      34.422  35.873  29.529  1.00  0.00     0.049 H 
BRANCH  49  52
ATOM     52  N   UNL A   1      32.557  36.080  30.354  1.00  0.00    -0.352 N 
ATOM     53  C   UNL A   1      32.696  35.695  31.661  1.00  0.00     0.251 C 
ATOM     54  H   UNL A   1      31.766  36.633  30.162  1.00  0.00     0.163 HD
ATOM     55  O   UNL A   1      31.788  35.915  32.464  1.00  0.00    -0.269 OA
BRANCH  53  56
ATOM     56  C   UNL A   1      33.916  34.996  32.117  1.00  0.00     0.039 A 
ATOM     57  C   UNL A   1      33.809  33.665  32.531  1.00  0.00    -0.049 A 
ATOM     58  C   UNL A   1      35.154  35.647  32.171  1.00  0.00    -0.049 A 
ATOM     59  C   UNL A   1      34.947  32.971  32.946  1.00  0.00    -0.053 A 
ATOM     60  H   UNL A   1      32.890  33.196  32.530  1.00  0.00     0.063 H 
ATOM     61  C   UNL A   1      36.299  34.936  32.527  1.00  0.00    -0.053 A 
ATOM     62  H   UNL A   1      35.218  36.652  31.947  1.00  0.00     0.063 H 
ATOM     63  C   UNL A   1      36.207  33.592  32.921  1.00  0.00    -0.014 A 
ATOM     64  H   UNL A   1      34.863  31.995  33.273  1.00  0.00     0.063 H 
ATOM     65  H   UNL A   1      37.220  35.400  32.499  1.00  0.00     0.063 H 
BRANCH  63  66
ATOM     66  C   UNL A   1      37.432  32.844  33.302  1.00  0.00     0.031 A 
ATOM     67  C   UNL A   1      38.128  33.133  34.601  1.00  0.00     0.074 A 
ATOM     68  C   UNL A   1      37.948  31.940  32.448  1.00  0.00     0.049 A 
ATOM     69  N   UNL A   1      39.226  32.609  35.086  1.00  0.00    -0.248 NA
ATOM     70  C   UNL A   1      37.527  34.166  35.457  1.00  0.00    -0.034 C 
ATOM     71  C   UNL A   1      37.396  31.610  31.133  1.00  0.00    -0.036 A 
ATOM     72  N   UNL A   1      39.058  31.140  32.555  1.00  0.00    -0.354 N 
ATOM     73  C   UNL A   1      39.454  33.259  36.293  1.00  0.00     0.074 A 
ATOM     74  C   UNL A   1      38.407  34.246  36.445  1.00  0.00    -0.034 C 
ATOM     75  H   UNL A   1      36.649  34.692  35.324  1.00  0.00     0.065 H 
ATOM     76  C   UNL A   1      38.159  30.663  30.563  1.00  0.00    -0.036 A 
ATOM     77  H   UNL A   1      36.557  32.038  30.711  1.00  0.00     0.065 H 
ATOM     78  C   UNL A   1      39.265  30.339  31.458  1.00  0.00     0.049 A 
ATOM     79  H   UNL A   1      39.649  31.140  33.342  1.00  0.00     0.167 HD
ATOM     80  C   UNL A   1      40.435  33.035  37.201  1.00  0.00     0.037 A 
ATOM     81  H   UNL A   1      38.353  34.925  37.220  1.00  0.00     0.065 H 
ATOM     82  H   UNL A   1      37.989  30.234  29.640  1.00  0.00     0.065 H 
ATOM     83  C   UNL A   1      40.238  29.443  31.205  1.00  0.00     0.037 A 
ATOM     84  C   UNL A   1      41.457  32.032  37.062  1.00  0.00     0.049 A 
ATOM     85  C   UNL A   1      41.301  29.197  32.239  1.00  0.00     0.074 A 
ATOM     86  C   UNL A   1      42.450  31.679  37.961  1.00  0.00    -0.036 A 
ATOM     87  N   UNL A   1      41.619  31.219  35.950  1.00  0.00    -0.354 N 
ATOM     88  N   UNL A   1      41.461  29.763  33.410  1.00  0.00    -0.248 NA
ATOM     89  C   UNL A   1      42.311  28.178  31.920  1.00  0.00    -0.034 C 
ATOM     90  C   UNL A   1      43.237  30.681  37.375  1.00  0.00    -0.036 A 
ATOM     91  H   UNL A   1      42.586  32.084  38.900  1.00  0.00     0.065 H 
ATOM     92  C   UNL A   1      42.708  30.381  36.130  1.00  0.00     0.049 A 
ATOM     93  H   UNL A   1      41.046  31.235  35.150  1.00  0.00     0.167 HD
ATOM     94  C   UNL A   1      42.575  29.158  33.977  1.00  0.00     0.074 A 
ATOM     95  C   UNL A   1      43.040  28.168  33.027  1.00  0.00    -0.034 C 
ATOM     96  H   UNL A   1      42.423  27.619  31.060  1.00  0.00     0.065 H 
ATOM     97  H   UNL A   1      44.070  30.243  37.799  1.00  0.00     0.065 H 
ATOM     98  C   UNL A   1      43.160  29.402  35.175  1.00  0.00     0.037 A 
ATOM     99  H   UNL A   1      43.838  27.534  33.191  1.00  0.00     0.065 H 
BRANCH  80 100
ATOM    100  C   UNL A   1      40.446  33.895  38.431  1.00  0.00     0.064 A 
ATOM    101  C   UNL A   1      39.702  33.558  39.571  1.00  0.00     0.173 A 
ATOM    102  C   UNL A   1      41.234  35.056  38.481  1.00  0.00     0.173 A 
ATOM    103  F   UNL A   1      38.924  32.465  39.571  1.00  0.00    -0.203 F 
ATOM    104  C   UNL A   1      39.721  34.366  40.705  1.00  0.00     0.198 A 
ATOM    105  C   UNL A   1      41.273  35.846  39.627  1.00  0.00     0.198 A 
ATOM    106  F   UNL A   1      41.969  35.421  37.420  1.00  0.00    -0.203 F 
ATOM    107  F   UNL A   1      38.964  34.050  41.764  1.00  0.00    -0.200 F 
ATOM    108  C   UNL A   1      40.511  35.505  40.734  1.00  0.00     0.200 A 
ATOM    109  F   UNL A   1      42.045  36.941  39.658  1.00  0.00    -0.200 F 
ATOM    110  F   UNL A   1      40.532  36.280  41.828  1.00  0.00    -0.200 F 
ENDBRANCH  80 100
BRANCH  83 111
ATOM    111  C   UNL A   1      40.227  28.689  29.926  1.00  0.00     0.064 A 
ATOM    112  C   UNL A   1      40.921  29.166  28.806  1.00  0.00     0.173 A 
ATOM    113  C   UNL A   1      39.535  27.477  29.800  1.00  0.00     0.173 A 
ATOM    114  F   UNL A   1      41.580  30.333  28.874  1.00  0.00    -0.203 F 
ATOM    115  C   UNL A   1      40.912  28.466  27.602  1.00  0.00     0.198 A 
ATOM    116  C   UNL A   1      39.547  26.764  28.602  1.00  0.00     0.198 A 
ATOM    117  F   UNL A   1      38.861  26.975  30.845  1.00  0.00    -0.203 F 
ATOM    118  F   UNL A   1      41.553  28.963  26.535  1.00  0.00    -0.200 F 
ATOM    119  C   UNL A   1      40.230  27.262  27.503  1.00  0.00     0.200 A 
ATOM    120  F   UNL A   1      38.899  25.594  28.514  1.00  0.00    -0.200 F 
ATOM    121  F   UNL A   1      40.228  26.585  26.347  1.00  0.00    -0.200 F 
ENDBRANCH  83 111
BRANCH  98 122
ATOM    122  C   UNL A   1      44.356  28.569  35.533  1.00  0.00     0.064 A 
ATOM    123  C   UNL A   1      45.659  28.986  35.226  1.00  0.00     0.173 A 
ATOM    124  C   UNL A   1      44.197  27.354  36.216  1.00  0.00     0.173 A 
ATOM    125  F   UNL A   1      45.861  30.133  34.559  1.00  0.00    -0.203 F 
ATOM    126  C   UNL A   1      46.759  28.204  35.566  1.00  0.00     0.198 A 
ATOM    127  C   UNL A   1      45.301  26.587  36.578  1.00  0.00     0.198 A 
ATOM    128  F   UNL A   1      42.971  26.914  36.538  1.00  0.00    -0.203 F 
ATOM    129  F   UNL A   1      47.993  28.598  35.220  1.00  0.00    -0.200 F 
ATOM    130  C   UNL A   1      46.579  27.008  36.247  1.00  0.00     0.200 A 
ATOM    131  F   UNL A   1      45.126  25.438  37.245  1.00  0.00    -0.200 F 
ATOM    132  F   UNL A   1      47.640  26.257  36.575  1.00  0.00    -0.200 F 
ENDBRANCH  98 122
ENDBRANCH  63  66
ENDBRANCH  53  56
ENDBRANCH  49  52
ENDBRANCH  46  49
ENDBRANCH  43  46
ENDBRANCH  40  43
ENDBRANCH   1  40
TORSDOF 19
ENDMDL
MODEL 5
REMARK VINA RESULT:     -10.5      1.967      7.784
REMARK SMILES CC(C)Cc1ccc([C@H](CF)C(=O)NCCCCCCNC(=O)c2ccc(-c3c4nc(c(-c5c(F)c(F)c(F)c(F)c5F)c5ccc([nH]5)c(-c5c(F)c(F)c(F)c(F)c5F)c5nc(c(-c6c(F)c(F)c(F)c(F)c6F)c6ccc3[nH]6)C=C5)C=C4)cc2)cc1
REMARK SMILES IDX 16 1 15 4 14 7 12 8 13 9 9 11 8 13 5 14 6 15 88 16 7 17
REMARK SMILES IDX 87 19 4 23 2 26 1 28 3 32 10 36 11 37 17 40 18 43 19 46
REMARK SMILES IDX 20 49 21 52 22 53 23 55 24 56 25 57 86 58 26 59 85 61 27 63
REMARK SMILES IDX 28 66 29 67 79 68 30 69 84 70 78 71 80 72 31 73 83 74 77 76
REMARK SMILES IDX 76 78 32 80 64 83 44 84 63 85 45 86 48 87 62 88 81 89 46 90
REMARK SMILES IDX 47 92 61 94 82 95 49 98 33 100 34 101 42 102 35 103 36 104
REMARK SMILES IDX 40 105 43 106 37 107 38 108 41 109 39 110 65 111 66 112
REMARK SMILES IDX 74 113 67 114 68 115 72 116 75 117 69 118 70 119 73 120
REMARK SMILES IDX 71 121 50 122 51 123 59 124 52 125 53 126 57 127 60 128
REMARK SMILES IDX 54 129 55 130 58 131 56 132
REMARK H PARENT 16 2 16 3 15 5 15 6 14 10 9 12 6 18 88 20 7 21 87 22 4 24 4 25
REMARK H PARENT 2 27 1 29 1 30 1 31 3 33 3 34 3 35 10 38 10 39 17 41 17 42
REMARK H PARENT 18 44 18 45 19 47 19 48 20 50 20 51 21 54 25 60 86 62 26 64
REMARK H PARENT 85 65 84 75 78 77 80 79 83 81 77 82 45 91 48 93 81 96 46 97
REMARK H PARENT 82 99
REMARK Flexibility Score: inf
ROOT
ATOM      1  C   UNL A   1      34.075  25.892  25.712  1.00  0.00    -0.036 C 
ATOM      2  H   UNL A   1      33.450  26.038  26.568  1.00  0.00     0.028 H 
ATOM      3  H   UNL A   1      35.002  26.422  25.774  1.00  0.00     0.028 H 
ENDROOT
BRANCH   1   4
ATOM      4  C   UNL A   1      33.344  26.440  24.490  1.00  0.00     0.017 C 
ATOM      5  H   UNL A   1      33.775  27.383  24.222  1.00  0.00     0.049 H 
ATOM      6  H   UNL A   1      33.447  25.732  23.694  1.00  0.00     0.049 H 
BRANCH   4   7
ATOM      7  N   UNL A   1      31.929  26.626  24.752  1.00  0.00    -0.355 N 
ATOM      8  C   UNL A   1      30.842  25.987  24.232  1.00  0.00     0.230 C 
ATOM      9  O   UNL A   1      29.734  26.302  24.677  1.00  0.00    -0.274 OA
ATOM     10  H   UNL A   1      31.720  27.325  25.411  1.00  0.00     0.163 HD
BRANCH   8  11
ATOM     11  C   UNL A   1      30.965  24.936  23.126  1.00  0.00     0.091 C 
ATOM     12  H   UNL A   1      30.022  24.693  22.684  1.00  0.00     0.048 H 
BRANCH  11  13
ATOM     13  C   UNL A   1      31.369  23.574  23.679  1.00  0.00    -0.033 A 
ATOM     14  C   UNL A   1      32.291  21.204  24.913  1.00  0.00    -0.048 A 
ATOM     15  C   UNL A   1      31.492  22.105  25.622  1.00  0.00    -0.059 A 
ATOM     16  C   UNL A   1      32.562  21.458  23.564  1.00  0.00    -0.059 A 
ATOM     17  C   UNL A   1      31.040  23.276  25.013  1.00  0.00    -0.058 A 
ATOM     18  H   UNL A   1      31.237  21.904  26.602  1.00  0.00     0.063 H 
ATOM     19  C   UNL A   1      32.088  22.621  22.948  1.00  0.00    -0.058 A 
ATOM     20  H   UNL A   1      33.118  20.781  23.018  1.00  0.00     0.063 H 
ATOM     21  H   UNL A   1      30.453  23.933  25.551  1.00  0.00     0.063 H 
ATOM     22  H   UNL A   1      32.271  22.778  21.943  1.00  0.00     0.063 H 
BRANCH  14  23
ATOM     23  C   UNL A   1      32.889  20.005  25.608  1.00  0.00    -0.026 C 
ATOM     24  H   UNL A   1      33.767  20.319  26.133  1.00  0.00     0.032 H 
ATOM     25  H   UNL A   1      32.145  19.613  26.270  1.00  0.00     0.032 H 
BRANCH  23  26
ATOM     26  C   UNL A   1      33.280  18.874  24.632  1.00  0.00    -0.043 C 
ATOM     27  H   UNL A   1      33.006  19.198  23.649  1.00  0.00     0.030 H 
BRANCH  26  28
ATOM     28  C   UNL A   1      34.787  18.600  24.625  1.00  0.00    -0.062 C 
ATOM     29  H   UNL A   1      35.241  19.082  25.466  1.00  0.00     0.023 H 
ATOM     30  H   UNL A   1      35.215  18.981  23.722  1.00  0.00     0.023 H 
ATOM     31  H   UNL A   1      34.959  17.545  24.684  1.00  0.00     0.023 H 
ENDBRANCH  26  28
BRANCH  26  32
ATOM     32  C   UNL A   1      32.530  17.591  24.995  1.00  0.00    -0.062 C 
ATOM     33  H   UNL A   1      32.207  17.101  24.100  1.00  0.00     0.023 H 
ATOM     34  H   UNL A   1      31.678  17.834  25.596  1.00  0.00     0.023 H 
ATOM     35  H   UNL A   1      33.179  16.941  25.544  1.00  0.00     0.023 H 
ENDBRANCH  26  32
ENDBRANCH  23  26
ENDBRANCH  14  23
ENDBRANCH  11  13
BRANCH  11  36
ATOM     36  C   UNL A   1      31.777  25.534  21.980  1.00  0.00     0.105 C 
ATOM     37  F   UNL A   1      31.232  26.725  21.606  1.00  0.00    -0.250 F 
ATOM     38  H   UNL A   1      31.768  24.861  21.148  1.00  0.00     0.064 H 
ATOM     39  H   UNL A   1      32.786  25.691  22.303  1.00  0.00     0.064 H 
ENDBRANCH  11  36
ENDBRANCH   8  11
ENDBRANCH   4   7
ENDBRANCH   1   4
BRANCH   1  40
ATOM     40  C   UNL A   1      34.431  24.405  25.630  1.00  0.00    -0.052 C 
ATOM     41  H   UNL A   1      33.522  23.844  25.687  1.00  0.00     0.027 H 
ATOM     42  H   UNL A   1      35.104  24.217  26.441  1.00  0.00     0.027 H 
BRANCH  40  43
ATOM     43  C   UNL A   1      35.172  23.974  24.359  1.00  0.00    -0.052 C 
ATOM     44  H   UNL A   1      35.818  24.776  24.068  1.00  0.00     0.027 H 
ATOM     45  H   UNL A   1      34.412  23.747  23.641  1.00  0.00     0.027 H 
BRANCH  43  46
ATOM     46  C   UNL A   1      36.022  22.706  24.484  1.00  0.00    -0.036 C 
ATOM     47  H   UNL A   1      36.894  22.832  23.876  1.00  0.00     0.028 H 
ATOM     48  H   UNL A   1      35.394  21.899  24.171  1.00  0.00     0.028 H 
BRANCH  46  49
ATOM     49  C   UNL A   1      36.480  22.361  25.898  1.00  0.00     0.018 C 
ATOM     50  H   UNL A   1      35.639  22.001  26.453  1.00  0.00     0.049 H 
ATOM     51  H   UNL A   1      36.888  23.250  26.332  1.00  0.00     0.049 H 
BRANCH  49  52
ATOM     52  N   UNL A   1      37.520  21.345  25.917  1.00  0.00    -0.352 N 
ATOM     53  C   UNL A   1      38.867  21.477  26.126  1.00  0.00     0.251 C 
ATOM     54  H   UNL A   1      37.208  20.426  25.757  1.00  0.00     0.163 HD
ATOM     55  O   UNL A   1      39.610  20.509  25.956  1.00  0.00    -0.269 OA
BRANCH  53  56
ATOM     56  C   UNL A   1      39.445  22.775  26.531  1.00  0.00     0.039 A 
ATOM     57  C   UNL A   1      40.404  22.792  27.549  1.00  0.00    -0.049 A 
ATOM     58  C   UNL A   1      39.031  23.975  25.943  1.00  0.00    -0.049 A 
ATOM     59  C   UNL A   1      40.986  24.000  27.939  1.00  0.00    -0.053 A 
ATOM     60  H   UNL A   1      40.682  21.912  28.011  1.00  0.00     0.063 H 
ATOM     61  C   UNL A   1      39.655  25.172  26.290  1.00  0.00    -0.053 A 
ATOM     62  H   UNL A   1      38.264  23.973  25.253  1.00  0.00     0.063 H 
ATOM     63  C   UNL A   1      40.636  25.198  27.293  1.00  0.00    -0.014 A 
ATOM     64  H   UNL A   1      41.676  24.014  28.706  1.00  0.00     0.063 H 
ATOM     65  H   UNL A   1      39.395  26.045  25.805  1.00  0.00     0.063 H 
BRANCH  63  66
ATOM     66  C   UNL A   1      41.293  26.478  27.658  1.00  0.00     0.031 A 
ATOM     67  C   UNL A   1      42.724  26.734  27.280  1.00  0.00     0.074 A 
ATOM     68  C   UNL A   1      40.614  27.390  28.379  1.00  0.00     0.049 A 
ATOM     69  N   UNL A   1      43.476  27.774  27.542  1.00  0.00    -0.248 NA
ATOM     70  C   UNL A   1      43.411  25.670  26.533  1.00  0.00    -0.034 C 
ATOM     71  C   UNL A   1      39.238  27.236  28.853  1.00  0.00    -0.036 A 
ATOM     72  N   UNL A   1      40.991  28.624  28.845  1.00  0.00    -0.354 N 
ATOM     73  C   UNL A   1      44.724  27.483  27.005  1.00  0.00     0.074 A 
ATOM     74  C   UNL A   1      44.642  26.151  26.445  1.00  0.00    -0.034 C 
ATOM     75  H   UNL A   1      43.033  24.780  26.171  1.00  0.00     0.065 H 
ATOM     76  C   UNL A   1      38.880  28.341  29.528  1.00  0.00    -0.036 A 
ATOM     77  H   UNL A   1      38.639  26.410  28.696  1.00  0.00     0.065 H 
ATOM     78  C   UNL A   1      40.007  29.268  29.556  1.00  0.00     0.049 A 
ATOM     79  H   UNL A   1      41.883  29.011  28.686  1.00  0.00     0.167 HD
ATOM     80  C   UNL A   1      45.830  28.265  26.966  1.00  0.00     0.037 A 
ATOM     81  H   UNL A   1      45.439  25.642  26.033  1.00  0.00     0.065 H 
ATOM     82  H   UNL A   1      37.957  28.507  29.957  1.00  0.00     0.065 H 
ATOM     83  C   UNL A   1      40.014  30.471  30.161  1.00  0.00     0.037 A 
ATOM     84  C   UNL A   1      45.901  29.601  27.497  1.00  0.00     0.049 A 
ATOM     85  C   UNL A   1      41.246  31.328  30.082  1.00  0.00     0.074 A 
ATOM     86  C   UNL A   1      46.952  30.499  27.440  1.00  0.00    -0.036 A 
ATOM     87  N   UNL A   1      44.874  30.231  28.186  1.00  0.00    -0.354 N 
ATOM     88  N   UNL A   1      42.396  31.073  29.505  1.00  0.00    -0.248 NA
ATOM     89  C   UNL A   1      41.178  32.646  30.727  1.00  0.00    -0.034 C 
ATOM     90  C   UNL A   1      46.576  31.658  28.129  1.00  0.00    -0.036 A 
ATOM     91  H   UNL A   1      47.857  30.341  26.970  1.00  0.00     0.065 H 
ATOM     92  C   UNL A   1      45.275  31.498  28.578  1.00  0.00     0.049 A 
ATOM     93  H   UNL A   1      43.992  29.836  28.370  1.00  0.00     0.167 HD
ATOM     94  C   UNL A   1      43.179  32.203  29.700  1.00  0.00     0.074 A 
ATOM     95  C   UNL A   1      42.367  33.152  30.433  1.00  0.00    -0.034 C 
ATOM     96  H   UNL A   1      40.406  33.067  31.268  1.00  0.00     0.065 H 
ATOM     97  H   UNL A   1      47.169  32.490  28.278  1.00  0.00     0.065 H 
ATOM     98  C   UNL A   1      44.457  32.432  29.308  1.00  0.00     0.037 A 
ATOM     99  H   UNL A   1      42.675  34.102  30.692  1.00  0.00     0.065 H 
BRANCH  80 100
ATOM    100  C   UNL A   1      47.059  27.691  26.322  1.00  0.00     0.064 A 
ATOM    101  C   UNL A   1      47.299  27.825  24.946  1.00  0.00     0.173 A 
ATOM    102  C   UNL A   1      48.023  27.024  27.094  1.00  0.00     0.173 A 
ATOM    103  F   UNL A   1      46.404  28.444  24.162  1.00  0.00    -0.203 F 
ATOM    104  C   UNL A   1      48.442  27.287  24.362  1.00  0.00     0.198 A 
ATOM    105  C   UNL A   1      49.179  26.512  26.512  1.00  0.00     0.198 A 
ATOM    106  F   UNL A   1      47.845  26.873  28.415  1.00  0.00    -0.203 F 
ATOM    107  F   UNL A   1      48.626  27.385  23.038  1.00  0.00    -0.200 F 
ATOM    108  C   UNL A   1      49.384  26.637  25.146  1.00  0.00     0.200 A 
ATOM    109  F   UNL A   1      50.093  25.894  27.271  1.00  0.00    -0.200 F 
ATOM    110  F   UNL A   1      50.486  26.123  24.582  1.00  0.00    -0.200 F 
ENDBRANCH  80 100
BRANCH  83 111
ATOM    111  C   UNL A   1      38.797  30.945  30.866  1.00  0.00     0.064 A 
ATOM    112  C   UNL A   1      38.664  30.788  32.252  1.00  0.00     0.173 A 
ATOM    113  C   UNL A   1      37.752  31.572  30.175  1.00  0.00     0.173 A 
ATOM    114  F   UNL A   1      39.630  30.174  32.951  1.00  0.00    -0.203 F 
ATOM    115  C   UNL A   1      37.523  31.227  32.920  1.00  0.00     0.198 A 
ATOM    116  C   UNL A   1      36.622  32.034  30.847  1.00  0.00     0.198 A 
ATOM    117  F   UNL A   1      37.835  31.752  28.849  1.00  0.00    -0.203 F 
ATOM    118  F   UNL A   1      37.404  31.030  34.239  1.00  0.00    -0.200 F 
ATOM    119  C   UNL A   1      36.506  31.855  32.217  1.00  0.00     0.200 A 
ATOM    120  F   UNL A   1      35.647  32.653  30.168  1.00  0.00    -0.200 F 
ATOM    121  F   UNL A   1      35.411  32.284  32.861  1.00  0.00    -0.200 F 
ENDBRANCH  83 111
BRANCH  98 122
ATOM    122  C   UNL A   1      45.046  33.769  29.647  1.00  0.00     0.064 A 
ATOM    123  C   UNL A   1      45.752  33.978  30.841  1.00  0.00     0.173 A 
ATOM    124  C   UNL A   1      44.927  34.845  28.755  1.00  0.00     0.173 A 
ATOM    125  F   UNL A   1      45.878  32.985  31.734  1.00  0.00    -0.203 F 
ATOM    126  C   UNL A   1      46.294  35.225  31.142  1.00  0.00     0.198 A 
ATOM    127  C   UNL A   1      45.493  36.083  29.047  1.00  0.00     0.198 A 
ATOM    128  F   UNL A   1      44.266  34.694  27.597  1.00  0.00    -0.203 F 
ATOM    129  F   UNL A   1      46.923  35.416  32.310  1.00  0.00    -0.200 F 
ATOM    130  C   UNL A   1      46.169  36.274  30.242  1.00  0.00     0.200 A 
ATOM    131  F   UNL A   1      45.381  37.092  28.172  1.00  0.00    -0.200 F 
ATOM    132  F   UNL A   1      46.694  37.472  30.532  1.00  0.00    -0.200 F 
ENDBRANCH  98 122
ENDBRANCH  63  66
ENDBRANCH  53  56
ENDBRANCH  49  52
ENDBRANCH  46  49
ENDBRANCH  43  46
ENDBRANCH  40  43
ENDBRANCH   1  40
TORSDOF 19
ENDMDL
MODEL 6
REMARK VINA RESULT:     -10.4      3.381      8.742
REMARK SMILES CC(C)Cc1ccc([C@H](CF)C(=O)NCCCCCCNC(=O)c2ccc(-c3c4nc(c(-c5c(F)c(F)c(F)c(F)c5F)c5ccc([nH]5)c(-c5c(F)c(F)c(F)c(F)c5F)c5nc(c(-c6c(F)c(F)c(F)c(F)c6F)c6ccc3[nH]6)C=C5)C=C4)cc2)cc1
REMARK SMILES IDX 16 1 15 4 14 7 12 8 13 9 9 11 8 13 5 14 6 15 88 16 7 17
REMARK SMILES IDX 87 19 4 23 2 26 1 28 3 32 10 36 11 37 17 40 18 43 19 46
REMARK SMILES IDX 20 49 21 52 22 53 23 55 24 56 25 57 86 58 26 59 85 61 27 63
REMARK SMILES IDX 28 66 29 67 79 68 30 69 84 70 78 71 80 72 31 73 83 74 77 76
REMARK SMILES IDX 76 78 32 80 64 83 44 84 63 85 45 86 48 87 62 88 81 89 46 90
REMARK SMILES IDX 47 92 61 94 82 95 49 98 33 100 34 101 42 102 35 103 36 104
REMARK SMILES IDX 40 105 43 106 37 107 38 108 41 109 39 110 65 111 66 112
REMARK SMILES IDX 74 113 67 114 68 115 72 116 75 117 69 118 70 119 73 120
REMARK SMILES IDX 71 121 50 122 51 123 59 124 52 125 53 126 57 127 60 128
REMARK SMILES IDX 54 129 55 130 58 131 56 132
REMARK H PARENT 16 2 16 3 15 5 15 6 14 10 9 12 6 18 88 20 7 21 87 22 4 24 4 25
REMARK H PARENT 2 27 1 29 1 30 1 31 3 33 3 34 3 35 10 38 10 39 17 41 17 42
REMARK H PARENT 18 44 18 45 19 47 19 48 20 50 20 51 21 54 25 60 86 62 26 64
REMARK H PARENT 85 65 84 75 78 77 80 79 83 81 77 82 45 91 48 93 81 96 46 97
REMARK H PARENT 82 99
REMARK Flexibility Score: inf
ROOT
ATOM      1  C   UNL A   1      32.424  26.087  26.297  1.00  0.00    -0.036 C 
ATOM      2  H   UNL A   1      31.379  25.888  26.189  1.00  0.00     0.028 H 
ATOM      3  H   UNL A   1      32.684  26.457  27.267  1.00  0.00     0.028 H 
ENDROOT
BRANCH   1   4
ATOM      4  C   UNL A   1      32.806  27.180  25.302  1.00  0.00     0.017 C 
ATOM      5  H   UNL A   1      33.263  27.989  25.834  1.00  0.00     0.049 H 
ATOM      6  H   UNL A   1      33.483  26.760  24.588  1.00  0.00     0.049 H 
BRANCH   4   7
ATOM      7  N   UNL A   1      31.647  27.682  24.588  1.00  0.00    -0.355 N 
ATOM      8  C   UNL A   1      31.233  27.462  23.307  1.00  0.00     0.230 C 
ATOM      9  O   UNL A   1      30.162  27.970  22.962  1.00  0.00    -0.274 OA
ATOM     10  H   UNL A   1      31.064  28.276  25.112  1.00  0.00     0.163 HD
BRANCH   8  11
ATOM     11  C   UNL A   1      32.059  26.640  22.313  1.00  0.00     0.091 C 
ATOM     12  H   UNL A   1      31.604  26.588  21.347  1.00  0.00     0.048 H 
BRANCH  11  13
ATOM     13  C   UNL A   1      32.086  25.162  22.684  1.00  0.00    -0.033 A 
ATOM     14  C   UNL A   1      32.168  22.363  23.067  1.00  0.00    -0.048 A 
ATOM     15  C   UNL A   1      33.285  23.041  22.572  1.00  0.00    -0.059 A 
ATOM     16  C   UNL A   1      31.039  23.101  23.439  1.00  0.00    -0.059 A 
ATOM     17  C   UNL A   1      33.242  24.422  22.381  1.00  0.00    -0.058 A 
ATOM     18  H   UNL A   1      34.145  22.517  22.346  1.00  0.00     0.063 H 
ATOM     19  C   UNL A   1      31.006  24.488  23.269  1.00  0.00    -0.058 A 
ATOM     20  H   UNL A   1      30.222  22.616  23.843  1.00  0.00     0.063 H 
ATOM     21  H   UNL A   1      34.074  24.908  22.012  1.00  0.00     0.063 H 
ATOM     22  H   UNL A   1      30.177  25.022  23.578  1.00  0.00     0.063 H 
BRANCH  14  23
ATOM     23  C   UNL A   1      32.166  20.855  23.151  1.00  0.00    -0.026 C 
ATOM     24  H   UNL A   1      31.179  20.530  23.406  1.00  0.00     0.032 H 
ATOM     25  H   UNL A   1      32.476  20.481  22.197  1.00  0.00     0.032 H 
BRANCH  23  26
ATOM     26  C   UNL A   1      33.152  20.307  24.204  1.00  0.00    -0.043 C 
ATOM     27  H   UNL A   1      34.138  20.568  23.879  1.00  0.00     0.030 H 
BRANCH  26  28
ATOM     28  C   UNL A   1      32.940  20.933  25.587  1.00  0.00    -0.062 C 
ATOM     29  H   UNL A   1      33.633  20.506  26.282  1.00  0.00     0.023 H 
ATOM     30  H   UNL A   1      31.940  20.742  25.916  1.00  0.00     0.023 H 
ATOM     31  H   UNL A   1      33.100  21.990  25.528  1.00  0.00     0.023 H 
ENDBRANCH  26  28
BRANCH  26  32
ATOM     32  C   UNL A   1      33.012  18.787  24.306  1.00  0.00    -0.062 C 
ATOM     33  H   UNL A   1      33.199  18.478  25.314  1.00  0.00     0.023 H 
ATOM     34  H   UNL A   1      33.719  18.319  23.652  1.00  0.00     0.023 H 
ATOM     35  H   UNL A   1      32.021  18.500  24.023  1.00  0.00     0.023 H 
ENDBRANCH  26  32
ENDBRANCH  23  26
ENDBRANCH  14  23
ENDBRANCH  11  13
BRANCH  11  36
ATOM     36  C   UNL A   1      33.382  27.362  22.072  1.00  0.00     0.105 C 
ATOM     37  F   UNL A   1      33.201  28.706  22.204  1.00  0.00    -0.250 F 
ATOM     38  H   UNL A   1      33.731  27.144  21.084  1.00  0.00     0.064 H 
ATOM     39  H   UNL A   1      34.104  27.029  22.789  1.00  0.00     0.064 H 
ENDBRANCH  11  36
ENDBRANCH   8  11
ENDBRANCH   4   7
ENDBRANCH   1   4
BRANCH   1  40
ATOM     40  C   UNL A   1      33.182  24.769  26.119  1.00  0.00    -0.052 C 
ATOM     41  H   UNL A   1      32.624  24.157  25.442  1.00  0.00     0.027 H 
ATOM     42  H   UNL A   1      33.278  24.349  27.099  1.00  0.00     0.027 H 
BRANCH  40  43
ATOM     43  C   UNL A   1      34.609  24.897  25.574  1.00  0.00    -0.052 C 
ATOM     44  H   UNL A   1      35.086  25.705  26.089  1.00  0.00     0.027 H 
ATOM     45  H   UNL A   1      34.505  25.056  24.521  1.00  0.00     0.027 H 
BRANCH  43  46
ATOM     46  C   UNL A   1      35.491  23.654  25.724  1.00  0.00    -0.036 C 
ATOM     47  H   UNL A   1      34.934  22.810  25.377  1.00  0.00     0.028 H 
ATOM     48  H   UNL A   1      35.751  23.602  26.760  1.00  0.00     0.028 H 
BRANCH  46  49
ATOM     49  C   UNL A   1      36.812  23.694  24.960  1.00  0.00     0.018 C 
ATOM     50  H   UNL A   1      37.258  24.657  25.095  1.00  0.00     0.049 H 
ATOM     51  H   UNL A   1      36.596  23.499  23.931  1.00  0.00     0.049 H 
BRANCH  49  52
ATOM     52  N   UNL A   1      37.750  22.679  25.413  1.00  0.00    -0.352 N 
ATOM     53  C   UNL A   1      38.911  22.818  26.125  1.00  0.00     0.251 C 
ATOM     54  H   UNL A   1      37.514  21.755  25.171  1.00  0.00     0.163 HD
ATOM     55  O   UNL A   1      39.651  21.846  26.286  1.00  0.00    -0.269 OA
BRANCH  53  56
ATOM     56  C   UNL A   1      39.303  24.129  26.684  1.00  0.00     0.039 A 
ATOM     57  C   UNL A   1      38.907  24.446  27.987  1.00  0.00    -0.049 A 
ATOM     58  C   UNL A   1      40.027  25.059  25.928  1.00  0.00    -0.049 A 
ATOM     59  C   UNL A   1      39.279  25.668  28.550  1.00  0.00    -0.053 A 
ATOM     60  H   UNL A   1      38.339  23.779  28.531  1.00  0.00     0.063 H 
ATOM     61  C   UNL A   1      40.450  26.251  26.513  1.00  0.00    -0.053 A 
ATOM     62  H   UNL A   1      40.246  24.861  24.940  1.00  0.00     0.063 H 
ATOM     63  C   UNL A   1      40.079  26.570  27.828  1.00  0.00    -0.014 A 
ATOM     64  H   UNL A   1      38.967  25.911  29.504  1.00  0.00     0.063 H 
ATOM     65  H   UNL A   1      41.042  26.903  25.975  1.00  0.00     0.063 H 
BRANCH  63  66
ATOM     66  C   UNL A   1      40.533  27.843  28.440  1.00  0.00     0.031 A 
ATOM     67  C   UNL A   1      41.970  28.029  28.834  1.00  0.00     0.074 A 
ATOM     68  C   UNL A   1      39.635  28.815  28.692  1.00  0.00     0.049 A 
ATOM     69  N   UNL A   1      42.544  29.055  29.413  1.00  0.00    -0.248 NA
ATOM     70  C   UNL A   1      42.879  26.904  28.568  1.00  0.00    -0.034 C 
ATOM     71  C   UNL A   1      38.202  28.734  28.406  1.00  0.00    -0.036 A 
ATOM     72  N   UNL A   1      39.794  30.058  29.252  1.00  0.00    -0.354 N 
ATOM     73  C   UNL A   1      43.874  28.692  29.592  1.00  0.00     0.074 A 
ATOM     74  C   UNL A   1      44.011  27.337  29.104  1.00  0.00    -0.034 C 
ATOM     75  H   UNL A   1      42.686  26.011  28.089  1.00  0.00     0.065 H 
ATOM     76  C   UNL A   1      37.616  29.884  28.776  1.00  0.00    -0.036 A 
ATOM     77  H   UNL A   1      37.719  27.923  27.990  1.00  0.00     0.065 H 
ATOM     78  C   UNL A   1      38.624  30.771  29.347  1.00  0.00     0.049 A 
ATOM     79  H   UNL A   1      40.663  30.404  29.557  1.00  0.00     0.167 HD
ATOM     80  C   UNL A   1      44.890  29.432  30.099  1.00  0.00     0.037 A 
ATOM     81  H   UNL A   1      44.877  26.779  29.167  1.00  0.00     0.065 H 
ATOM     82  H   UNL A   1      36.612  30.105  28.673  1.00  0.00     0.065 H 
ATOM     83  C   UNL A   1      38.392  32.003  29.839  1.00  0.00     0.037 A 
ATOM     84  C   UNL A   1      44.758  30.790  30.555  1.00  0.00     0.049 A 
ATOM     85  C   UNL A   1      39.541  32.812  30.373  1.00  0.00     0.074 A 
ATOM     86  C   UNL A   1      45.743  31.648  31.015  1.00  0.00    -0.036 A 
ATOM     87  N   UNL A   1      43.561  31.491  30.611  1.00  0.00    -0.354 N 
ATOM     88  N   UNL A   1      40.808  32.487  30.467  1.00  0.00    -0.248 NA
ATOM     89  C   UNL A   1      39.230  34.163  30.858  1.00  0.00    -0.034 C 
ATOM     90  C   UNL A   1      45.136  32.853  31.387  1.00  0.00    -0.036 A 
ATOM     91  H   UNL A   1      46.750  31.433  31.074  1.00  0.00     0.065 H 
ATOM     92  C   UNL A   1      43.780  32.762  31.117  1.00  0.00     0.049 A 
ATOM     93  H   UNL A   1      42.686  31.138  30.332  1.00  0.00     0.167 HD
ATOM     94  C   UNL A   1      41.448  33.597  31.001  1.00  0.00     0.074 A 
ATOM     95  C   UNL A   1      40.432  34.611  31.194  1.00  0.00    -0.034 C 
ATOM     96  H   UNL A   1      38.317  34.639  30.921  1.00  0.00     0.065 H 
ATOM     97  H   UNL A   1      45.618  33.670  31.793  1.00  0.00     0.065 H 
ATOM     98  C   UNL A   1      42.759  33.761  31.306  1.00  0.00     0.037 A 
ATOM     99  H   UNL A   1      40.619  35.563  31.548  1.00  0.00     0.065 H 
BRANCH  80 100
ATOM    100  C   UNL A   1      46.241  28.783  30.183  1.00  0.00     0.064 A 
ATOM    101  C   UNL A   1      46.652  28.085  31.329  1.00  0.00     0.173 A 
ATOM    102  C   UNL A   1      47.125  28.835  29.094  1.00  0.00     0.173 A 
ATOM    103  F   UNL A   1      45.848  28.016  32.401  1.00  0.00    -0.203 F 
ATOM    104  C   UNL A   1      47.908  27.489  31.393  1.00  0.00     0.198 A 
ATOM    105  C   UNL A   1      48.369  28.213  29.151  1.00  0.00     0.198 A 
ATOM    106  F   UNL A   1      46.779  29.485  27.973  1.00  0.00    -0.203 F 
ATOM    107  F   UNL A   1      48.298  26.870  32.516  1.00  0.00    -0.200 F 
ATOM    108  C   UNL A   1      48.763  27.548  30.303  1.00  0.00     0.200 A 
ATOM    109  F   UNL A   1      49.190  28.262  28.093  1.00  0.00    -0.200 F 
ATOM    110  F   UNL A   1      49.971  26.970  30.365  1.00  0.00    -0.200 F 
ENDBRANCH  80 100
BRANCH  83 111
ATOM    111  C   UNL A   1      37.015  32.556  29.816  1.00  0.00     0.064 A 
ATOM    112  C   UNL A   1      36.159  32.397  30.914  1.00  0.00     0.173 A 
ATOM    113  C   UNL A   1      36.530  33.260  28.705  1.00  0.00     0.173 A 
ATOM    114  F   UNL A   1      36.573  31.712  31.991  1.00  0.00    -0.203 F 
ATOM    115  C   UNL A   1      34.864  32.910  30.898  1.00  0.00     0.198 A 
ATOM    116  C   UNL A   1      35.243  33.795  28.699  1.00  0.00     0.198 A 
ATOM    117  F   UNL A   1      37.312  33.444  27.632  1.00  0.00    -0.203 F 
ATOM    118  F   UNL A   1      34.054  32.712  31.946  1.00  0.00    -0.200 F 
ATOM    119  C   UNL A   1      34.409  33.614  29.793  1.00  0.00     0.200 A 
ATOM    120  F   UNL A   1      34.811  34.486  27.636  1.00  0.00    -0.200 F 
ATOM    121  F   UNL A   1      33.166  34.113  29.780  1.00  0.00    -0.200 F 
ENDBRANCH  83 111
BRANCH  98 122
ATOM    122  C   UNL A   1      43.170  35.092  31.861  1.00  0.00     0.064 A 
ATOM    123  C   UNL A   1      43.628  36.124  31.029  1.00  0.00     0.173 A 
ATOM    124  C   UNL A   1      43.079  35.347  33.237  1.00  0.00     0.173 A 
ATOM    125  F   UNL A   1      43.749  35.923  29.708  1.00  0.00    -0.203 F 
ATOM    126  C   UNL A   1      44.006  37.355  31.559  1.00  0.00     0.198 A 
ATOM    127  C   UNL A   1      43.432  36.588  33.760  1.00  0.00     0.198 A 
ATOM    128  F   UNL A   1      42.641  34.394  34.075  1.00  0.00    -0.203 F 
ATOM    129  F   UNL A   1      44.486  38.311  30.752  1.00  0.00    -0.200 F 
ATOM    130  C   UNL A   1      43.901  37.588  32.923  1.00  0.00     0.200 A 
ATOM    131  F   UNL A   1      43.320  36.815  35.076  1.00  0.00    -0.200 F 
ATOM    132  F   UNL A   1      44.263  38.774  33.430  1.00  0.00    -0.200 F 
ENDBRANCH  98 122
ENDBRANCH  63  66
ENDBRANCH  53  56
ENDBRANCH  49  52
ENDBRANCH  46  49
ENDBRANCH  43  46
ENDBRANCH  40  43
ENDBRANCH   1  40
TORSDOF 19
ENDMDL
MODEL 7
REMARK VINA RESULT:     -10.2      4.314     11.395
REMARK SMILES CC(C)Cc1ccc([C@H](CF)C(=O)NCCCCCCNC(=O)c2ccc(-c3c4nc(c(-c5c(F)c(F)c(F)c(F)c5F)c5ccc([nH]5)c(-c5c(F)c(F)c(F)c(F)c5F)c5nc(c(-c6c(F)c(F)c(F)c(F)c6F)c6ccc3[nH]6)C=C5)C=C4)cc2)cc1
REMARK SMILES IDX 16 1 15 4 14 7 12 8 13 9 9 11 8 13 5 14 6 15 88 16 7 17
REMARK SMILES IDX 87 19 4 23 2 26 1 28 3 32 10 36 11 37 17 40 18 43 19 46
REMARK SMILES IDX 20 49 21 52 22 53 23 55 24 56 25 57 86 58 26 59 85 61 27 63
REMARK SMILES IDX 28 66 29 67 79 68 30 69 84 70 78 71 80 72 31 73 83 74 77 76
REMARK SMILES IDX 76 78 32 80 64 83 44 84 63 85 45 86 48 87 62 88 81 89 46 90
REMARK SMILES IDX 47 92 61 94 82 95 49 98 33 100 34 101 42 102 35 103 36 104
REMARK SMILES IDX 40 105 43 106 37 107 38 108 41 109 39 110 65 111 66 112
REMARK SMILES IDX 74 113 67 114 68 115 72 116 75 117 69 118 70 119 73 120
REMARK SMILES IDX 71 121 50 122 51 123 59 124 52 125 53 126 57 127 60 128
REMARK SMILES IDX 54 129 55 130 58 131 56 132
REMARK H PARENT 16 2 16 3 15 5 15 6 14 10 9 12 6 18 88 20 7 21 87 22 4 24 4 25
REMARK H PARENT 2 27 1 29 1 30 1 31 3 33 3 34 3 35 10 38 10 39 17 41 17 42
REMARK H PARENT 18 44 18 45 19 47 19 48 20 50 20 51 21 54 25 60 86 62 26 64
REMARK H PARENT 85 65 84 75 78 77 80 79 83 81 77 82 45 91 48 93 81 96 46 97
REMARK H PARENT 82 99
REMARK Flexibility Score: inf
ROOT
ATOM      1  C   UNL A   1      44.771  24.976  26.910  1.00  0.00    -0.036 C 
ATOM      2  H   UNL A   1      44.438  25.987  27.014  1.00  0.00     0.028 H 
ATOM      3  H   UNL A   1      45.036  24.522  27.842  1.00  0.00     0.028 H 
ENDROOT
BRANCH   1   4
ATOM      4  C   UNL A   1      46.036  24.977  26.055  1.00  0.00     0.017 C 
ATOM      5  H   UNL A   1      46.878  25.182  26.683  1.00  0.00     0.049 H 
ATOM      6  H   UNL A   1      46.128  24.016  25.593  1.00  0.00     0.049 H 
BRANCH   4   7
ATOM      7  N   UNL A   1      45.972  25.979  25.008  1.00  0.00    -0.355 N 
ATOM      8  C   UNL A   1      46.227  27.319  25.049  1.00  0.00     0.230 C 
ATOM      9  O   UNL A   1      46.154  27.941  23.985  1.00  0.00    -0.274 OA
ATOM     10  H   UNL A   1      45.702  25.638  24.126  1.00  0.00     0.163 HD
BRANCH   8  11
ATOM     11  C   UNL A   1      46.570  28.045  26.352  1.00  0.00     0.091 C 
ATOM     12  H   UNL A   1      46.214  27.525  27.216  1.00  0.00     0.048 H 
BRANCH  11  13
ATOM     13  C   UNL A   1      45.809  29.358  26.488  1.00  0.00    -0.033 A 
ATOM     14  C   UNL A   1      44.585  31.859  26.976  1.00  0.00    -0.048 A 
ATOM     15  C   UNL A   1      45.917  31.793  26.556  1.00  0.00    -0.059 A 
ATOM     16  C   UNL A   1      43.850  30.673  27.078  1.00  0.00    -0.059 A 
ATOM     17  C   UNL A   1      46.520  30.559  26.318  1.00  0.00    -0.058 A 
ATOM     18  H   UNL A   1      46.455  32.663  26.422  1.00  0.00     0.063 H 
ATOM     19  C   UNL A   1      44.449  29.437  26.816  1.00  0.00    -0.058 A 
ATOM     20  H   UNL A   1      42.854  30.710  27.349  1.00  0.00     0.063 H 
ATOM     21  H   UNL A   1      47.505  30.526  26.010  1.00  0.00     0.063 H 
ATOM     22  H   UNL A   1      43.884  28.573  26.865  1.00  0.00     0.063 H 
BRANCH  14  23
ATOM     23  C   UNL A   1      43.971  33.183  27.361  1.00  0.00    -0.026 C 
ATOM     24  H   UNL A   1      42.925  33.036  27.534  1.00  0.00     0.032 H 
ATOM     25  H   UNL A   1      44.476  33.527  28.239  1.00  0.00     0.032 H 
BRANCH  23  26
ATOM     26  C   UNL A   1      44.141  34.266  26.275  1.00  0.00    -0.043 C 
ATOM     27  H   UNL A   1      45.192  34.443  26.169  1.00  0.00     0.030 H 
BRANCH  26  28
ATOM     28  C   UNL A   1      43.608  33.818  24.911  1.00  0.00    -0.062 C 
ATOM     29  H   UNL A   1      43.813  32.777  24.772  1.00  0.00     0.023 H 
ATOM     30  H   UNL A   1      44.086  34.382  24.138  1.00  0.00     0.023 H 
ATOM     31  H   UNL A   1      42.551  33.981  24.870  1.00  0.00     0.023 H 
ENDBRANCH  26  28
BRANCH  26  32
ATOM     32  C   UNL A   1      43.429  35.550  26.705  1.00  0.00    -0.062 C 
ATOM     33  H   UNL A   1      42.488  35.304  27.151  1.00  0.00     0.023 H 
ATOM     34  H   UNL A   1      43.266  36.171  25.848  1.00  0.00     0.023 H 
ATOM     35  H   UNL A   1      44.034  36.074  27.415  1.00  0.00     0.023 H 
ENDBRANCH  26  32
ENDBRANCH  23  26
ENDBRANCH  14  23
ENDBRANCH  11  13
BRANCH  11  36
ATOM     36  C   UNL A   1      48.087  28.054  26.515  1.00  0.00     0.105 C 
ATOM     37  F   UNL A   1      48.485  26.928  27.171  1.00  0.00    -0.250 F 
ATOM     38  H   UNL A   1      48.380  28.917  27.077  1.00  0.00     0.064 H 
ATOM     39  H   UNL A   1      48.548  28.083  25.549  1.00  0.00     0.064 H 
ENDBRANCH  11  36
ENDBRANCH   8  11
ENDBRANCH   4   7
ENDBRANCH   1   4
BRANCH   1  40
ATOM     40  C   UNL A   1      43.616  24.148  26.340  1.00  0.00    -0.052 C 
ATOM     41  H   UNL A   1      44.010  23.519  25.570  1.00  0.00     0.027 H 
ATOM     42  H   UNL A   1      42.892  24.855  25.989  1.00  0.00     0.027 H 
BRANCH  40  43
ATOM     43  C   UNL A   1      42.882  23.258  27.349  1.00  0.00    -0.052 C 
ATOM     44  H   UNL A   1      42.169  23.867  27.866  1.00  0.00     0.027 H 
ATOM     45  H   UNL A   1      43.641  22.847  27.981  1.00  0.00     0.027 H 
BRANCH  43  46
ATOM     46  C   UNL A   1      42.136  22.058  26.757  1.00  0.00    -0.036 C 
ATOM     47  H   UNL A   1      42.754  21.193  26.879  1.00  0.00     0.028 H 
ATOM     48  H   UNL A   1      41.942  22.308  25.735  1.00  0.00     0.028 H 
BRANCH  46  49
ATOM     49  C   UNL A   1      40.777  21.759  27.384  1.00  0.00     0.018 C 
ATOM     50  H   UNL A   1      40.658  22.371  28.253  1.00  0.00     0.049 H 
ATOM     51  H   UNL A   1      40.756  20.718  27.628  1.00  0.00     0.049 H 
BRANCH  49  52
ATOM     52  N   UNL A   1      39.673  22.020  26.475  1.00  0.00    -0.352 N 
ATOM     53  C   UNL A   1      38.953  23.169  26.281  1.00  0.00     0.251 C 
ATOM     54  H   UNL A   1      39.403  21.256  25.916  1.00  0.00     0.163 HD
ATOM     55  O   UNL A   1      37.951  23.150  25.565  1.00  0.00    -0.269 OA
BRANCH  53  56
ATOM     56  C   UNL A   1      39.351  24.430  26.940  1.00  0.00     0.039 A 
ATOM     57  C   UNL A   1      38.954  24.648  28.263  1.00  0.00    -0.049 A 
ATOM     58  C   UNL A   1      40.083  25.411  26.261  1.00  0.00    -0.049 A 
ATOM     59  C   UNL A   1      39.333  25.820  28.921  1.00  0.00    -0.053 A 
ATOM     60  H   UNL A   1      38.381  23.944  28.753  1.00  0.00     0.063 H 
ATOM     61  C   UNL A   1      40.512  26.552  26.936  1.00  0.00    -0.053 A 
ATOM     62  H   UNL A   1      40.303  25.288  25.260  1.00  0.00     0.063 H 
ATOM     63  C   UNL A   1      40.139  26.770  28.271  1.00  0.00    -0.014 A 
ATOM     64  H   UNL A   1      39.020  25.990  29.889  1.00  0.00     0.063 H 
ATOM     65  H   UNL A   1      41.109  27.240  26.452  1.00  0.00     0.063 H 
BRANCH  63  66
ATOM     66  C   UNL A   1      40.600  27.989  28.981  1.00  0.00     0.031 A 
ATOM     67  C   UNL A   1      42.017  28.099  29.468  1.00  0.00     0.074 A 
ATOM     68  C   UNL A   1      39.723  28.979  29.237  1.00  0.00     0.049 A 
ATOM     69  N   UNL A   1      42.591  29.068  30.136  1.00  0.00    -0.248 NA
ATOM     70  C   UNL A   1      42.901  26.956  29.189  1.00  0.00    -0.034 C 
ATOM     71  C   UNL A   1      38.307  28.968  28.866  1.00  0.00    -0.036 A 
ATOM     72  N   UNL A   1      39.891  30.182  29.876  1.00  0.00    -0.354 N 
ATOM     73  C   UNL A   1      43.894  28.646  30.371  1.00  0.00     0.074 A 
ATOM     74  C   UNL A   1      44.013  27.316  29.814  1.00  0.00    -0.034 C 
ATOM     75  H   UNL A   1      42.706  26.099  28.649  1.00  0.00     0.065 H 
ATOM     76  C   UNL A   1      37.740  30.117  29.267  1.00  0.00    -0.036 A 
ATOM     77  H   UNL A   1      37.823  28.200  28.376  1.00  0.00     0.065 H 
ATOM     78  C   UNL A   1      38.743  30.932  29.945  1.00  0.00     0.049 A 
ATOM     79  H   UNL A   1      40.752  30.477  30.250  1.00  0.00     0.167 HD
ATOM     80  C   UNL A   1      44.903  29.317  30.976  1.00  0.00     0.037 A 
ATOM     81  H   UNL A   1      44.854  26.723  29.894  1.00  0.00     0.065 H 
ATOM     82  H   UNL A   1      36.753  30.381  29.119  1.00  0.00     0.065 H 
ATOM     83  C   UNL A   1      38.525  32.143  30.493  1.00  0.00     0.037 A 
ATOM     84  C   UNL A   1      44.791  30.652  31.502  1.00  0.00     0.049 A 
ATOM     85  C   UNL A   1      39.667  32.877  31.138  1.00  0.00     0.074 A 
ATOM     86  C   UNL A   1      45.776  31.445  32.067  1.00  0.00    -0.036 A 
ATOM     87  N   UNL A   1      43.618  31.394  31.529  1.00  0.00    -0.354 N 
ATOM     88  N   UNL A   1      40.914  32.499  31.285  1.00  0.00    -0.248 NA
ATOM     89  C   UNL A   1      39.375  34.210  31.682  1.00  0.00    -0.034 C 
ATOM     90  C   UNL A   1      45.190  32.650  32.472  1.00  0.00    -0.036 A 
ATOM     91  H   UNL A   1      46.770  31.190  32.171  1.00  0.00     0.065 H 
ATOM     92  C   UNL A   1      43.850  32.625  32.120  1.00  0.00     0.049 A 
ATOM     93  H   UNL A   1      42.749  31.090  31.181  1.00  0.00     0.167 HD
ATOM     94  C   UNL A   1      41.559  33.553  31.919  1.00  0.00     0.074 A 
ATOM     95  C   UNL A   1      40.569  34.593  32.111  1.00  0.00    -0.034 C 
ATOM     96  H   UNL A   1      38.476  34.715  31.720  1.00  0.00     0.065 H 
ATOM     97  H   UNL A   1      45.675  33.424  32.952  1.00  0.00     0.065 H 
ATOM     98  C   UNL A   1      42.855  33.649  32.307  1.00  0.00     0.037 A 
ATOM     99  H   UNL A   1      40.768  35.515  32.530  1.00  0.00     0.065 H 
BRANCH  80 100
ATOM    100  C   UNL A   1      46.223  28.614  31.100  1.00  0.00     0.064 A 
ATOM    101  C   UNL A   1      47.297  28.909  30.246  1.00  0.00     0.173 A 
ATOM    102  C   UNL A   1      46.428  27.654  32.104  1.00  0.00     0.173 A 
ATOM    103  F   UNL A   1      47.150  29.811  29.264  1.00  0.00    -0.203 F 
ATOM    104  C   UNL A   1      48.516  28.248  30.372  1.00  0.00     0.198 A 
ATOM    105  C   UNL A   1      47.657  27.016  32.245  1.00  0.00     0.198 A 
ATOM    106  F   UNL A   1      45.436  27.339  32.950  1.00  0.00    -0.203 F 
ATOM    107  F   UNL A   1      49.511  28.511  29.514  1.00  0.00    -0.200 F 
ATOM    108  C   UNL A   1      48.697  27.307  31.375  1.00  0.00     0.200 A 
ATOM    109  F   UNL A   1      47.834  26.115  33.221  1.00  0.00    -0.200 F 
ATOM    110  F   UNL A   1      49.872  26.674  31.497  1.00  0.00    -0.200 F 
ENDBRANCH  80 100
BRANCH  83 111
ATOM    111  C   UNL A   1      37.171  32.748  30.423  1.00  0.00     0.064 A 
ATOM    112  C   UNL A   1      36.784  33.515  29.316  1.00  0.00     0.173 A 
ATOM    113  C   UNL A   1      36.237  32.565  31.451  1.00  0.00     0.173 A 
ATOM    114  F   UNL A   1      37.653  33.735  28.318  1.00  0.00    -0.203 F 
ATOM    115  C   UNL A   1      35.517  34.089  29.246  1.00  0.00     0.198 A 
ATOM    116  C   UNL A   1      34.961  33.119  31.369  1.00  0.00     0.198 A 
ATOM    117  F   UNL A   1      36.557  31.834  32.529  1.00  0.00    -0.203 F 
ATOM    118  F   UNL A   1      35.186  34.850  28.193  1.00  0.00    -0.200 F 
ATOM    119  C   UNL A   1      34.605  33.886  30.270  1.00  0.00     0.200 A 
ATOM    120  F   UNL A   1      34.076  32.909  32.353  1.00  0.00    -0.200 F 
ATOM    121  F   UNL A   1      33.383  34.432  30.199  1.00  0.00    -0.200 F 
ENDBRANCH  83 111
BRANCH  98 122
ATOM    122  C   UNL A   1      43.278  34.932  32.961  1.00  0.00     0.064 A 
ATOM    123  C   UNL A   1      43.284  35.077  34.356  1.00  0.00     0.173 A 
ATOM    124  C   UNL A   1      43.708  36.017  32.183  1.00  0.00     0.173 A 
ATOM    125  F   UNL A   1      42.866  34.073  35.141  1.00  0.00    -0.203 F 
ATOM    126  C   UNL A   1      43.681  36.273  34.948  1.00  0.00     0.198 A 
ATOM    127  C   UNL A   1      44.130  37.203  32.780  1.00  0.00     0.198 A 
ATOM    128  F   UNL A   1      43.726  35.927  30.845  1.00  0.00    -0.203 F 
ATOM    129  F   UNL A   1      43.634  36.407  36.281  1.00  0.00    -0.200 F 
ATOM    130  C   UNL A   1      44.109  37.332  34.160  1.00  0.00     0.200 A 
ATOM    131  F   UNL A   1      44.553  38.220  32.018  1.00  0.00    -0.200 F 
ATOM    132  F   UNL A   1      44.492  38.482  34.732  1.00  0.00    -0.200 F 
ENDBRANCH  98 122
ENDBRANCH  63  66
ENDBRANCH  53  56
ENDBRANCH  49  52
ENDBRANCH  46  49
ENDBRANCH  43  46
ENDBRANCH  40  43
ENDBRANCH   1  40
TORSDOF 19
ENDMDL
MODEL 8
REMARK VINA RESULT:     -10.2      3.579      7.274
REMARK SMILES CC(C)Cc1ccc([C@H](CF)C(=O)NCCCCCCNC(=O)c2ccc(-c3c4nc(c(-c5c(F)c(F)c(F)c(F)c5F)c5ccc([nH]5)c(-c5c(F)c(F)c(F)c(F)c5F)c5nc(c(-c6c(F)c(F)c(F)c(F)c6F)c6ccc3[nH]6)C=C5)C=C4)cc2)cc1
REMARK SMILES IDX 16 1 15 4 14 7 12 8 13 9 9 11 8 13 5 14 6 15 88 16 7 17
REMARK SMILES IDX 87 19 4 23 2 26 1 28 3 32 10 36 11 37 17 40 18 43 19 46
REMARK SMILES IDX 20 49 21 52 22 53 23 55 24 56 25 57 86 58 26 59 85 61 27 63
REMARK SMILES IDX 28 66 29 67 79 68 30 69 84 70 78 71 80 72 31 73 83 74 77 76
REMARK SMILES IDX 76 78 32 80 64 83 44 84 63 85 45 86 48 87 62 88 81 89 46 90
REMARK SMILES IDX 47 92 61 94 82 95 49 98 33 100 34 101 42 102 35 103 36 104
REMARK SMILES IDX 40 105 43 106 37 107 38 108 41 109 39 110 65 111 66 112
REMARK SMILES IDX 74 113 67 114 68 115 72 116 75 117 69 118 70 119 73 120
REMARK SMILES IDX 71 121 50 122 51 123 59 124 52 125 53 126 57 127 60 128
REMARK SMILES IDX 54 129 55 130 58 131 56 132
REMARK H PARENT 16 2 16 3 15 5 15 6 14 10 9 12 6 18 88 20 7 21 87 22 4 24 4 25
REMARK H PARENT 2 27 1 29 1 30 1 31 3 33 3 34 3 35 10 38 10 39 17 41 17 42
REMARK H PARENT 18 44 18 45 19 47 19 48 20 50 20 51 21 54 25 60 86 62 26 64
REMARK H PARENT 85 65 84 75 78 77 80 79 83 81 77 82 45 91 48 93 81 96 46 97
REMARK H PARENT 82 99
REMARK Flexibility Score: inf
ROOT
ATOM      1  C   UNL A   1      30.433  26.446  24.480  1.00  0.00    -0.036 C 
ATOM      2  H   UNL A   1      29.484  26.433  24.974  1.00  0.00     0.028 H 
ATOM      3  H   UNL A   1      30.478  27.148  23.674  1.00  0.00     0.028 H 
ENDROOT
BRANCH   1   4
ATOM      4  C   UNL A   1      30.669  25.068  23.867  1.00  0.00     0.017 C 
ATOM      5  H   UNL A   1      29.968  24.916  23.073  1.00  0.00     0.049 H 
ATOM      6  H   UNL A   1      31.675  25.032  23.502  1.00  0.00     0.049 H 
BRANCH   4   7
ATOM      7  N   UNL A   1      30.506  24.012  24.848  1.00  0.00    -0.355 N 
ATOM      8  C   UNL A   1      31.333  22.980  25.184  1.00  0.00     0.230 C 
ATOM      9  O   UNL A   1      30.974  22.245  26.110  1.00  0.00    -0.274 OA
ATOM     10  H   UNL A   1      29.662  24.044  25.354  1.00  0.00     0.163 HD
BRANCH   8  11
ATOM     11  C   UNL A   1      32.645  22.713  24.443  1.00  0.00     0.091 C 
ATOM     12  H   UNL A   1      32.612  23.032  23.423  1.00  0.00     0.048 H 
BRANCH  11  13
ATOM     13  C   UNL A   1      32.898  21.221  24.256  1.00  0.00    -0.033 A 
ATOM     14  C   UNL A   1      33.644  18.535  23.794  1.00  0.00    -0.048 A 
ATOM     15  C   UNL A   1      34.345  19.313  24.719  1.00  0.00    -0.059 A 
ATOM     16  C   UNL A   1      32.524  19.083  23.159  1.00  0.00    -0.059 A 
ATOM     17  C   UNL A   1      33.977  20.639  24.945  1.00  0.00    -0.058 A 
ATOM     18  H   UNL A   1      35.138  18.904  25.237  1.00  0.00     0.063 H 
ATOM     19  C   UNL A   1      32.143  20.407  23.404  1.00  0.00    -0.058 A 
ATOM     20  H   UNL A   1      31.974  18.507  22.503  1.00  0.00     0.063 H 
ATOM     21  H   UNL A   1      34.506  21.203  25.629  1.00  0.00     0.063 H 
ATOM     22  H   UNL A   1      31.296  20.787  22.951  1.00  0.00     0.063 H 
BRANCH  14  23
ATOM     23  C   UNL A   1      34.120  17.143  23.451  1.00  0.00    -0.026 C 
ATOM     24  H   UNL A   1      33.587  16.804  22.588  1.00  0.00     0.032 H 
ATOM     25  H   UNL A   1      35.174  17.200  23.275  1.00  0.00     0.032 H 
BRANCH  23  26
ATOM     26  C   UNL A   1      33.897  16.130  24.594  1.00  0.00    -0.043 C 
ATOM     27  H   UNL A   1      33.576  15.213  24.145  1.00  0.00     0.030 H 
BRANCH  26  28
ATOM     28  C   UNL A   1      35.182  15.836  25.376  1.00  0.00    -0.062 C 
ATOM     29  H   UNL A   1      36.020  16.245  24.851  1.00  0.00     0.023 H 
ATOM     30  H   UNL A   1      35.304  14.778  25.476  1.00  0.00     0.023 H 
ATOM     31  H   UNL A   1      35.118  16.281  26.348  1.00  0.00     0.023 H 
ENDBRANCH  26  28
BRANCH  26  32
ATOM     32  C   UNL A   1      32.825  16.654  25.553  1.00  0.00    -0.062 C 
ATOM     33  H   UNL A   1      31.892  16.177  25.340  1.00  0.00     0.023 H 
ATOM     34  H   UNL A   1      32.722  17.712  25.428  1.00  0.00     0.023 H 
ATOM     35  H   UNL A   1      33.114  16.441  26.561  1.00  0.00     0.023 H 
ENDBRANCH  26  32
ENDBRANCH  23  26
ENDBRANCH  14  23
ENDBRANCH  11  13
BRANCH  11  36
ATOM     36  C   UNL A   1      33.738  23.571  25.073  1.00  0.00     0.105 C 
ATOM     37  F   UNL A   1      33.354  23.959  26.321  1.00  0.00    -0.250 F 
ATOM     38  H   UNL A   1      33.906  24.436  24.466  1.00  0.00     0.064 H 
ATOM     39  H   UNL A   1      34.642  23.002  25.142  1.00  0.00     0.064 H 
ENDBRANCH  11  36
ENDBRANCH   8  11
ENDBRANCH   4   7
ENDBRANCH   1   4
BRANCH   1  40
ATOM     40  C   UNL A   1      31.493  26.884  25.494  1.00  0.00    -0.052 C 
ATOM     41  H   UNL A   1      31.971  26.005  25.872  1.00  0.00     0.027 H 
ATOM     42  H   UNL A   1      30.972  27.445  26.242  1.00  0.00     0.027 H 
BRANCH  40  43
ATOM     43  C   UNL A   1      32.581  27.816  24.949  1.00  0.00    -0.052 C 
ATOM     44  H   UNL A   1      32.174  28.805  24.904  1.00  0.00     0.027 H 
ATOM     45  H   UNL A   1      32.857  27.416  23.996  1.00  0.00     0.027 H 
BRANCH  43  46
ATOM     46  C   UNL A   1      33.875  27.876  25.767  1.00  0.00    -0.036 C 
ATOM     47  H   UNL A   1      34.509  28.618  25.327  1.00  0.00     0.028 H 
ATOM     48  H   UNL A   1      34.286  26.889  25.741  1.00  0.00     0.028 H 
BRANCH  46  49
ATOM     49  C   UNL A   1      33.700  28.221  27.244  1.00  0.00     0.018 C 
ATOM     50  H   UNL A   1      34.541  27.844  27.786  1.00  0.00     0.049 H 
ATOM     51  H   UNL A   1      32.785  27.776  27.573  1.00  0.00     0.049 H 
BRANCH  49  52
ATOM     52  N   UNL A   1      33.602  29.653  27.475  1.00  0.00    -0.352 N 
ATOM     53  C   UNL A   1      34.516  30.516  28.019  1.00  0.00     0.251 C 
ATOM     54  H   UNL A   1      32.751  30.064  27.200  1.00  0.00     0.163 HD
ATOM     55  O   UNL A   1      34.189  31.677  28.269  1.00  0.00    -0.269 OA
BRANCH  53  56
ATOM     56  C   UNL A   1      35.888  30.064  28.331  1.00  0.00     0.039 A 
ATOM     57  C   UNL A   1      36.853  30.103  27.320  1.00  0.00    -0.049 A 
ATOM     58  C   UNL A   1      36.225  29.573  29.598  1.00  0.00    -0.049 A 
ATOM     59  C   UNL A   1      38.163  29.703  27.590  1.00  0.00    -0.053 A 
ATOM     60  H   UNL A   1      36.596  30.426  26.374  1.00  0.00     0.063 H 
ATOM     61  C   UNL A   1      37.546  29.232  29.884  1.00  0.00    -0.053 A 
ATOM     62  H   UNL A   1      35.495  29.465  30.320  1.00  0.00     0.063 H 
ATOM     63  C   UNL A   1      38.527  29.291  28.883  1.00  0.00    -0.014 A 
ATOM     64  H   UNL A   1      38.868  29.711  26.836  1.00  0.00     0.063 H 
ATOM     65  H   UNL A   1      37.804  28.937  30.838  1.00  0.00     0.063 H 
BRANCH  63  66
ATOM     66  C   UNL A   1      39.931  28.923  29.196  1.00  0.00     0.031 A 
ATOM     67  C   UNL A   1      40.812  29.866  29.965  1.00  0.00     0.074 A 
ATOM     68  C   UNL A   1      40.429  27.758  28.739  1.00  0.00     0.049 A 
ATOM     69  N   UNL A   1      42.071  29.735  30.301  1.00  0.00    -0.248 NA
ATOM     70  C   UNL A   1      40.206  31.138  30.389  1.00  0.00    -0.034 C 
ATOM     71  C   UNL A   1      39.692  26.783  27.935  1.00  0.00    -0.036 A 
ATOM     72  N   UNL A   1      41.676  27.202  28.879  1.00  0.00    -0.354 N 
ATOM     73  C   UNL A   1      42.410  30.910  30.961  1.00  0.00     0.074 A 
ATOM     74  C   UNL A   1      41.240  31.760  30.937  1.00  0.00    -0.034 C 
ATOM     75  H   UNL A   1      39.232  31.461  30.287  1.00  0.00     0.065 H 
ATOM     76  C   UNL A   1      40.494  25.740  27.668  1.00  0.00    -0.036 A 
ATOM     77  H   UNL A   1      38.713  26.882  27.623  1.00  0.00     0.065 H 
ATOM     78  C   UNL A   1      41.806  25.984  28.258  1.00  0.00     0.049 A 
ATOM     79  H   UNL A   1      42.407  27.636  29.375  1.00  0.00     0.167 HD
ATOM     80  C   UNL A   1      43.585  31.238  31.551  1.00  0.00     0.037 A 
ATOM     81  H   UNL A   1      41.214  32.726  31.299  1.00  0.00     0.065 H 
ATOM     82  H   UNL A   1      40.225  24.900  27.131  1.00  0.00     0.065 H 
ATOM     83  C   UNL A   1      42.866  25.157  28.175  1.00  0.00     0.037 A 
ATOM     84  C   UNL A   1      44.738  30.379  31.600  1.00  0.00     0.049 A 
ATOM     85  C   UNL A   1      44.150  25.534  28.858  1.00  0.00     0.074 A 
ATOM     86  C   UNL A   1      45.949  30.591  32.237  1.00  0.00    -0.036 A 
ATOM     87  N   UNL A   1      44.825  29.138  30.984  1.00  0.00    -0.354 N 
ATOM     88  N   UNL A   1      44.435  26.614  29.545  1.00  0.00    -0.248 NA
ATOM     89  C   UNL A   1      45.257  24.572  28.766  1.00  0.00    -0.034 C 
ATOM     90  C   UNL A   1      46.782  29.497  31.973  1.00  0.00    -0.036 A 
ATOM     91  H   UNL A   1      46.194  31.414  32.809  1.00  0.00     0.065 H 
ATOM     92  C   UNL A   1      46.074  28.584  31.208  1.00  0.00     0.049 A 
ATOM     93  H   UNL A   1      44.105  28.714  30.464  1.00  0.00     0.167 HD
ATOM     94  C   UNL A   1      45.743  26.453  29.983  1.00  0.00     0.074 A 
ATOM     95  C   UNL A   1      46.190  25.163  29.498  1.00  0.00    -0.034 C 
ATOM     96  H   UNL A   1      45.297  23.672  28.261  1.00  0.00     0.065 H 
ATOM     97  H   UNL A   1      47.756  29.391  32.294  1.00  0.00     0.065 H 
ATOM     98  C   UNL A   1      46.506  27.299  30.718  1.00  0.00     0.037 A 
ATOM     99  H   UNL A   1      47.116  24.756  29.699  1.00  0.00     0.065 H 
BRANCH  80 100
ATOM    100  C   UNL A   1      43.680  32.590  32.196  1.00  0.00     0.064 A 
ATOM    101  C   UNL A   1      44.113  33.718  31.481  1.00  0.00     0.173 A 
ATOM    102  C   UNL A   1      43.307  32.767  33.537  1.00  0.00     0.173 A 
ATOM    103  F   UNL A   1      44.492  33.600  30.199  1.00  0.00    -0.203 F 
ATOM    104  C   UNL A   1      44.196  34.965  32.093  1.00  0.00     0.198 A 
ATOM    105  C   UNL A   1      43.365  34.022  34.137  1.00  0.00     0.198 A 
ATOM    106  F   UNL A   1      42.881  31.724  34.264  1.00  0.00    -0.203 F 
ATOM    107  F   UNL A   1      44.659  36.018  31.403  1.00  0.00    -0.200 F 
ATOM    108  C   UNL A   1      43.817  35.118  33.418  1.00  0.00     0.200 A 
ATOM    109  F   UNL A   1      42.988  34.171  35.415  1.00  0.00    -0.200 F 
ATOM    110  F   UNL A   1      43.895  36.321  34.004  1.00  0.00    -0.200 F 
ENDBRANCH  80 100
BRANCH  83 111
ATOM    111  C   UNL A   1      42.740  23.873  27.441  1.00  0.00     0.064 A 
ATOM    112  C   UNL A   1      43.106  23.779  26.091  1.00  0.00     0.173 A 
ATOM    113  C   UNL A   1      42.264  22.716  28.071  1.00  0.00     0.173 A 
ATOM    114  F   UNL A   1      43.547  24.867  25.441  1.00  0.00    -0.203 F 
ATOM    115  C   UNL A   1      42.987  22.579  25.395  1.00  0.00     0.198 A 
ATOM    116  C   UNL A   1      42.168  21.509  27.381  1.00  0.00     0.198 A 
ATOM    117  F   UNL A   1      41.906  22.752  29.363  1.00  0.00    -0.203 F 
ATOM    118  F   UNL A   1      43.308  22.526  24.095  1.00  0.00    -0.200 F 
ATOM    119  C   UNL A   1      42.523  21.443  26.042  1.00  0.00     0.200 A 
ATOM    120  F   UNL A   1      41.734  20.410  28.012  1.00  0.00    -0.200 F 
ATOM    121  F   UNL A   1      42.416  20.287  25.374  1.00  0.00    -0.200 F 
ENDBRANCH  83 111
BRANCH  98 122
ATOM    122  C   UNL A   1      47.894  26.846  31.060  1.00  0.00     0.064 A 
ATOM    123  C   UNL A   1      48.145  26.021  32.166  1.00  0.00     0.173 A 
ATOM    124  C   UNL A   1      48.981  27.219  30.255  1.00  0.00     0.173 A 
ATOM    125  F   UNL A   1      47.141  25.652  32.974  1.00  0.00    -0.203 F 
ATOM    126  C   UNL A   1      49.439  25.607  32.470  1.00  0.00     0.198 A 
ATOM    127  C   UNL A   1      50.271  26.781  30.547  1.00  0.00     0.198 A 
ATOM    128  F   UNL A   1      48.793  28.002  29.183  1.00  0.00    -0.203 F 
ATOM    129  F   UNL A   1      49.664  24.859  33.558  1.00  0.00    -0.200 F 
ATOM    130  C   UNL A   1      50.500  25.982  31.657  1.00  0.00     0.200 A 
ATOM    131  F   UNL A   1      51.292  27.136  29.755  1.00  0.00    -0.200 F 
ATOM    132  F   UNL A   1      51.744  25.581  31.950  1.00  0.00    -0.200 F 
ENDBRANCH  98 122
ENDBRANCH  63  66
ENDBRANCH  53  56
ENDBRANCH  49  52
ENDBRANCH  46  49
ENDBRANCH  43  46
ENDBRANCH  40  43
ENDBRANCH   1  40
TORSDOF 19
ENDMDL
MODEL 9
REMARK VINA RESULT:     -10.1      4.568      7.518
REMARK SMILES CC(C)Cc1ccc([C@H](CF)C(=O)NCCCCCCNC(=O)c2ccc(-c3c4nc(c(-c5c(F)c(F)c(F)c(F)c5F)c5ccc([nH]5)c(-c5c(F)c(F)c(F)c(F)c5F)c5nc(c(-c6c(F)c(F)c(F)c(F)c6F)c6ccc3[nH]6)C=C5)C=C4)cc2)cc1
REMARK SMILES IDX 16 1 15 4 14 7 12 8 13 9 9 11 8 13 5 14 6 15 88 16 7 17
REMARK SMILES IDX 87 19 4 23 2 26 1 28 3 32 10 36 11 37 17 40 18 43 19 46
REMARK SMILES IDX 20 49 21 52 22 53 23 55 24 56 25 57 86 58 26 59 85 61 27 63
REMARK SMILES IDX 28 66 29 67 79 68 30 69 84 70 78 71 80 72 31 73 83 74 77 76
REMARK SMILES IDX 76 78 32 80 64 83 44 84 63 85 45 86 48 87 62 88 81 89 46 90
REMARK SMILES IDX 47 92 61 94 82 95 49 98 33 100 34 101 42 102 35 103 36 104
REMARK SMILES IDX 40 105 43 106 37 107 38 108 41 109 39 110 65 111 66 112
REMARK SMILES IDX 74 113 67 114 68 115 72 116 75 117 69 118 70 119 73 120
REMARK SMILES IDX 71 121 50 122 51 123 59 124 52 125 53 126 57 127 60 128
REMARK SMILES IDX 54 129 55 130 58 131 56 132
REMARK H PARENT 16 2 16 3 15 5 15 6 14 10 9 12 6 18 88 20 7 21 87 22 4 24 4 25
REMARK H PARENT 2 27 1 29 1 30 1 31 3 33 3 34 3 35 10 38 10 39 17 41 17 42
REMARK H PARENT 18 44 18 45 19 47 19 48 20 50 20 51 21 54 25 60 86 62 26 64
REMARK H PARENT 85 65 84 75 78 77 80 79 83 81 77 82 45 91 48 93 81 96 46 97
REMARK H PARENT 82 99
REMARK Flexibility Score: inf
ROOT
ATOM      1  C   UNL A   1      30.414  26.040  26.282  1.00  0.00    -0.036 C 
ATOM      2  H   UNL A   1      29.763  25.737  27.074  1.00  0.00     0.028 H 
ATOM      3  H   UNL A   1      29.894  26.463  25.448  1.00  0.00     0.028 H 
ENDROOT
BRANCH   1   4
ATOM      4  C   UNL A   1      31.137  24.802  25.758  1.00  0.00     0.017 C 
ATOM      5  H   UNL A   1      30.682  23.930  26.181  1.00  0.00     0.049 H 
ATOM      6  H   UNL A   1      31.058  24.796  24.691  1.00  0.00     0.049 H 
BRANCH   4   7
ATOM      7  N   UNL A   1      32.544  24.816  26.108  1.00  0.00    -0.355 N 
ATOM      8  C   UNL A   1      33.634  24.383  25.412  1.00  0.00     0.230 C 
ATOM      9  O   UNL A   1      34.743  24.569  25.922  1.00  0.00    -0.274 OA
ATOM     10  H   UNL A   1      32.746  25.201  26.991  1.00  0.00     0.163 HD
BRANCH   8  11
ATOM     11  C   UNL A   1      33.509  23.672  24.062  1.00  0.00     0.091 C 
ATOM     12  H   UNL A   1      32.528  23.756  23.644  1.00  0.00     0.048 H 
BRANCH  11  13
ATOM     13  C   UNL A   1      33.616  22.158  24.205  1.00  0.00    -0.033 A 
ATOM     14  C   UNL A   1      33.588  19.372  24.682  1.00  0.00    -0.048 A 
ATOM     15  C   UNL A   1      32.477  20.003  24.118  1.00  0.00    -0.059 A 
ATOM     16  C   UNL A   1      34.738  20.128  24.936  1.00  0.00    -0.059 A 
ATOM     17  C   UNL A   1      32.491  21.379  23.885  1.00  0.00    -0.058 A 
ATOM     18  H   UNL A   1      31.642  19.449  23.873  1.00  0.00     0.063 H 
ATOM     19  C   UNL A   1      34.759  21.503  24.681  1.00  0.00    -0.058 A 
ATOM     20  H   UNL A   1      35.580  19.666  25.317  1.00  0.00     0.063 H 
ATOM     21  H   UNL A   1      31.661  21.831  23.470  1.00  0.00     0.063 H 
ATOM     22  H   UNL A   1      35.626  22.040  24.845  1.00  0.00     0.063 H 
BRANCH  14  23
ATOM     23  C   UNL A   1      33.528  17.911  25.057  1.00  0.00    -0.026 C 
ATOM     24  H   UNL A   1      33.668  17.824  26.114  1.00  0.00     0.032 H 
ATOM     25  H   UNL A   1      32.572  17.541  24.748  1.00  0.00     0.032 H 
BRANCH  23  26
ATOM     26  C   UNL A   1      34.603  17.060  24.347  1.00  0.00    -0.043 C 
ATOM     27  H   UNL A   1      35.474  17.674  24.246  1.00  0.00     0.030 H 
BRANCH  26  28
ATOM     28  C   UNL A   1      35.001  15.823  25.159  1.00  0.00    -0.062 C 
ATOM     29  H   UNL A   1      35.789  16.079  25.836  1.00  0.00     0.023 H 
ATOM     30  H   UNL A   1      35.336  15.054  24.495  1.00  0.00     0.023 H 
ATOM     31  H   UNL A   1      34.155  15.472  25.713  1.00  0.00     0.023 H 
ENDBRANCH  26  28
BRANCH  26  32
ATOM     32  C   UNL A   1      34.098  16.626  22.970  1.00  0.00    -0.062 C 
ATOM     33  H   UNL A   1      34.896  16.690  22.261  1.00  0.00     0.023 H 
ATOM     34  H   UNL A   1      33.297  17.268  22.665  1.00  0.00     0.023 H 
ATOM     35  H   UNL A   1      33.746  15.617  23.021  1.00  0.00     0.023 H 
ENDBRANCH  26  32
ENDBRANCH  23  26
ENDBRANCH  14  23
ENDBRANCH  11  13
BRANCH  11  36
ATOM     36  C   UNL A   1      34.412  24.381  23.057  1.00  0.00     0.105 C 
ATOM     37  F   UNL A   1      34.006  25.673  22.908  1.00  0.00    -0.250 F 
ATOM     38  H   UNL A   1      34.358  23.879  22.113  1.00  0.00     0.064 H 
ATOM     39  H   UNL A   1      35.422  24.365  23.413  1.00  0.00     0.064 H 
ENDBRANCH  11  36
ENDBRANCH   8  11
ENDBRANCH   4   7
ENDBRANCH   1   4
BRANCH   1  40
ATOM     40  C   UNL A   1      31.337  27.139  26.818  1.00  0.00    -0.052 C 
ATOM     41  H   UNL A   1      32.264  26.684  27.097  1.00  0.00     0.027 H 
ATOM     42  H   UNL A   1      30.815  27.589  27.637  1.00  0.00     0.027 H 
BRANCH  40  43
ATOM     43  C   UNL A   1      31.645  28.277  25.838  1.00  0.00    -0.052 C 
ATOM     44  H   UNL A   1      31.641  29.195  26.389  1.00  0.00     0.027 H 
ATOM     45  H   UNL A   1      30.890  28.222  25.081  1.00  0.00     0.027 H 
BRANCH  43  46
ATOM     46  C   UNL A   1      32.983  28.175  25.102  1.00  0.00    -0.036 C 
ATOM     47  H   UNL A   1      32.871  28.642  24.145  1.00  0.00     0.028 H 
ATOM     48  H   UNL A   1      33.210  27.131  25.046  1.00  0.00     0.028 H 
BRANCH  46  49
ATOM     49  C   UNL A   1      34.170  28.828  25.807  1.00  0.00     0.018 C 
ATOM     50  H   UNL A   1      34.955  28.972  25.095  1.00  0.00     0.049 H 
ATOM     51  H   UNL A   1      34.471  28.178  26.601  1.00  0.00     0.049 H 
BRANCH  49  52
ATOM     52  N   UNL A   1      33.832  30.114  26.394  1.00  0.00    -0.352 N 
ATOM     53  C   UNL A   1      34.416  30.778  27.440  1.00  0.00     0.251 C 
ATOM     54  H   UNL A   1      33.070  30.576  25.978  1.00  0.00     0.163 HD
ATOM     55  O   UNL A   1      33.890  31.797  27.889  1.00  0.00    -0.269 OA
BRANCH  53  56
ATOM     56  C   UNL A   1      35.662  30.272  28.054  1.00  0.00     0.039 A 
ATOM     57  C   UNL A   1      36.861  30.411  27.349  1.00  0.00    -0.049 A 
ATOM     58  C   UNL A   1      35.656  29.636  29.301  1.00  0.00    -0.049 A 
ATOM     59  C   UNL A   1      38.057  29.963  27.912  1.00  0.00    -0.053 A 
ATOM     60  H   UNL A   1      36.862  30.844  26.412  1.00  0.00     0.063 H 
ATOM     61  C   UNL A   1      36.858  29.244  29.888  1.00  0.00    -0.053 A 
ATOM     62  H   UNL A   1      34.762  29.457  29.784  1.00  0.00     0.063 H 
ATOM     63  C   UNL A   1      38.070  29.401  29.199  1.00  0.00    -0.014 A 
ATOM     64  H   UNL A   1      38.938  30.046  27.380  1.00  0.00     0.063 H 
ATOM     65  H   UNL A   1      36.856  28.838  30.837  1.00  0.00     0.063 H 
BRANCH  63  66
ATOM     66  C   UNL A   1      39.344  28.979  29.833  1.00  0.00     0.031 A 
ATOM     67  C   UNL A   1      39.867  29.697  31.044  1.00  0.00     0.074 A 
ATOM     68  C   UNL A   1      40.060  27.980  29.281  1.00  0.00     0.049 A 
ATOM     69  N   UNL A   1      40.976  29.495  31.711  1.00  0.00    -0.248 NA
ATOM     70  C   UNL A   1      39.050  30.806  31.559  1.00  0.00    -0.034 C 
ATOM     71  C   UNL A   1      39.687  27.242  28.074  1.00  0.00    -0.036 A 
ATOM     72  N   UNL A   1      41.254  27.420  29.660  1.00  0.00    -0.354 N 
ATOM     73  C   UNL A   1      40.996  30.459  32.712  1.00  0.00     0.074 A 
ATOM     74  C   UNL A   1      39.813  31.274  32.536  1.00  0.00    -0.034 C 
ATOM     75  H   UNL A   1      38.125  31.134  31.242  1.00  0.00     0.065 H 
ATOM     76  C   UNL A   1      40.623  26.313  27.821  1.00  0.00    -0.036 A 
ATOM     77  H   UNL A   1      38.840  27.409  27.507  1.00  0.00     0.065 H 
ATOM     78  C   UNL A   1      41.673  26.408  28.830  1.00  0.00     0.049 A 
ATOM     79  H   UNL A   1      41.762  27.715  30.449  1.00  0.00     0.167 HD
ATOM     80  C   UNL A   1      41.907  30.633  33.700  1.00  0.00     0.037 A 
ATOM     81  H   UNL A   1      39.593  32.111  33.098  1.00  0.00     0.065 H 
ATOM     82  H   UNL A   1      40.603  25.641  27.038  1.00  0.00     0.065 H 
ATOM     83  C   UNL A   1      42.780  25.643  28.880  1.00  0.00     0.037 A 
ATOM     84  C   UNL A   1      43.067  29.803  33.891  1.00  0.00     0.049 A 
ATOM     85  C   UNL A   1      43.763  25.841  29.999  1.00  0.00     0.074 A 
ATOM     86  C   UNL A   1      44.009  29.853  34.904  1.00  0.00    -0.036 A 
ATOM     87  N   UNL A   1      43.445  28.768  33.047  1.00  0.00    -0.354 N 
ATOM     88  N   UNL A   1      43.732  26.706  30.984  1.00  0.00    -0.248 NA
ATOM     89  C   UNL A   1      44.930  24.948  30.021  1.00  0.00    -0.034 C 
ATOM     90  C   UNL A   1      44.978  28.876  34.652  1.00  0.00    -0.036 A 
ATOM     91  H   UNL A   1      43.997  30.501  35.708  1.00  0.00     0.065 H 
ATOM     92  C   UNL A   1      44.617  28.188  33.504  1.00  0.00     0.049 A 
ATOM     93  H   UNL A   1      42.954  28.488  32.241  1.00  0.00     0.167 HD
ATOM     94  C   UNL A   1      44.860  26.449  31.752  1.00  0.00     0.074 A 
ATOM     95  C   UNL A   1      45.545  25.336  31.128  1.00  0.00    -0.034 C 
ATOM     96  H   UNL A   1      45.200  24.213  29.349  1.00  0.00     0.065 H 
ATOM     97  H   UNL A   1      45.819  28.699  35.222  1.00  0.00     0.065 H 
ATOM     98  C   UNL A   1      45.289  27.081  32.872  1.00  0.00     0.037 A 
ATOM     99  H   UNL A   1      46.403  24.900  31.500  1.00  0.00     0.065 H 
BRANCH  80 100
ATOM    100  C   UNL A   1      41.683  31.770  34.654  1.00  0.00     0.064 A 
ATOM    101  C   UNL A   1      42.255  33.033  34.441  1.00  0.00     0.173 A 
ATOM    102  C   UNL A   1      40.862  31.603  35.780  1.00  0.00     0.173 A 
ATOM    103  F   UNL A   1      43.057  33.242  33.385  1.00  0.00    -0.203 F 
ATOM    104  C   UNL A   1      42.039  34.078  35.335  1.00  0.00     0.198 A 
ATOM    105  C   UNL A   1      40.625  32.658  36.657  1.00  0.00     0.198 A 
ATOM    106  F   UNL A   1      40.287  30.417  36.028  1.00  0.00    -0.203 F 
ATOM    107  F   UNL A   1      42.636  35.262  35.137  1.00  0.00    -0.200 F 
ATOM    108  C   UNL A   1      41.220  33.892  36.438  1.00  0.00     0.200 A 
ATOM    109  F   UNL A   1      39.825  32.480  37.717  1.00  0.00    -0.200 F 
ATOM    110  F   UNL A   1      41.010  34.900  37.297  1.00  0.00    -0.200 F 
ENDBRANCH  80 100
BRANCH  83 111
ATOM    111  C   UNL A   1      42.995  24.595  27.850  1.00  0.00     0.064 A 
ATOM    112  C   UNL A   1      43.628  24.900  26.637  1.00  0.00     0.173 A 
ATOM    113  C   UNL A   1      42.585  23.272  28.060  1.00  0.00     0.173 A 
ATOM    114  F   UNL A   1      44.019  26.158  26.385  1.00  0.00    -0.203 F 
ATOM    115  C   UNL A   1      43.830  23.923  25.666  1.00  0.00     0.198 A 
ATOM    116  C   UNL A   1      42.810  22.289  27.097  1.00  0.00     0.198 A 
ATOM    117  F   UNL A   1      41.981  22.928  29.206  1.00  0.00    -0.203 F 
ATOM    118  F   UNL A   1      44.403  24.249  24.499  1.00  0.00    -0.200 F 
ATOM    119  C   UNL A   1      43.426  22.617  25.899  1.00  0.00     0.200 A 
ATOM    120  F   UNL A   1      42.431  21.025  27.331  1.00  0.00    -0.200 F 
ATOM    121  F   UNL A   1      43.626  21.675  24.967  1.00  0.00    -0.200 F 
ENDBRANCH  83 111
BRANCH  98 122
ATOM    122  C   UNL A   1      46.549  26.568  33.506  1.00  0.00     0.064 A 
ATOM    123  C   UNL A   1      46.528  25.514  34.431  1.00  0.00     0.173 A 
ATOM    124  C   UNL A   1      47.792  27.120  33.162  1.00  0.00     0.173 A 
ATOM    125  F   UNL A   1      45.362  24.966  34.804  1.00  0.00    -0.203 F 
ATOM    126  C   UNL A   1      47.706  25.049  35.009  1.00  0.00     0.198 A 
ATOM    127  C   UNL A   1      48.970  26.633  33.722  1.00  0.00     0.198 A 
ATOM    128  F   UNL A   1      47.865  28.126  32.277  1.00  0.00    -0.203 F 
ATOM    129  F   UNL A   1      47.659  24.073  35.927  1.00  0.00    -0.200 F 
ATOM    130  C   UNL A   1      48.926  25.604  34.650  1.00  0.00     0.200 A 
ATOM    131  F   UNL A   1      50.148  27.164  33.366  1.00  0.00    -0.200 F 
ATOM    132  F   UNL A   1      50.058  25.153  35.207  1.00  0.00    -0.200 F 
ENDBRANCH  98 122
ENDBRANCH  63  66
ENDBRANCH  53  56
ENDBRANCH  49  52
ENDBRANCH  46  49
ENDBRANCH  43  46
ENDBRANCH  40  43
ENDBRANCH   1  40
TORSDOF 19
ENDMDL
MODEL 10
REMARK VINA RESULT:     -10.1      4.642      9.732
REMARK SMILES CC(C)Cc1ccc([C@H](CF)C(=O)NCCCCCCNC(=O)c2ccc(-c3c4nc(c(-c5c(F)c(F)c(F)c(F)c5F)c5ccc([nH]5)c(-c5c(F)c(F)c(F)c(F)c5F)c5nc(c(-c6c(F)c(F)c(F)c(F)c6F)c6ccc3[nH]6)C=C5)C=C4)cc2)cc1
REMARK SMILES IDX 16 1 15 4 14 7 12 8 13 9 9 11 8 13 5 14 6 15 88 16 7 17
REMARK SMILES IDX 87 19 4 23 2 26 1 28 3 32 10 36 11 37 17 40 18 43 19 46
REMARK SMILES IDX 20 49 21 52 22 53 23 55 24 56 25 57 86 58 26 59 85 61 27 63
REMARK SMILES IDX 28 66 29 67 79 68 30 69 84 70 78 71 80 72 31 73 83 74 77 76
REMARK SMILES IDX 76 78 32 80 64 83 44 84 63 85 45 86 48 87 62 88 81 89 46 90
REMARK SMILES IDX 47 92 61 94 82 95 49 98 33 100 34 101 42 102 35 103 36 104
REMARK SMILES IDX 40 105 43 106 37 107 38 108 41 109 39 110 65 111 66 112
REMARK SMILES IDX 74 113 67 114 68 115 72 116 75 117 69 118 70 119 73 120
REMARK SMILES IDX 71 121 50 122 51 123 59 124 52 125 53 126 57 127 60 128
REMARK SMILES IDX 54 129 55 130 58 131 56 132
REMARK H PARENT 16 2 16 3 15 5 15 6 14 10 9 12 6 18 88 20 7 21 87 22 4 24 4 25
REMARK H PARENT 2 27 1 29 1 30 1 31 3 33 3 34 3 35 10 38 10 39 17 41 17 42
REMARK H PARENT 18 44 18 45 19 47 19 48 20 50 20 51 21 54 25 60 86 62 26 64
REMARK H PARENT 85 65 84 75 78 77 80 79 83 81 77 82 45 91 48 93 81 96 46 97
REMARK H PARENT 82 99
REMARK Flexibility Score: inf
ROOT
ATOM      1  C   UNL A   1      30.621  25.816  26.403  1.00  0.00    -0.036 C 
ATOM      2  H   UNL A   1      30.452  25.509  27.414  1.00  0.00     0.028 H 
ATOM      3  H   UNL A   1      29.716  26.012  25.867  1.00  0.00     0.028 H 
ENDROOT
BRANCH   1   4
ATOM      4  C   UNL A   1      31.319  24.674  25.669  1.00  0.00     0.017 C 
ATOM      5  H   UNL A   1      30.773  23.769  25.837  1.00  0.00     0.049 H 
ATOM      6  H   UNL A   1      31.348  24.916  24.627  1.00  0.00     0.049 H 
BRANCH   4   7
ATOM      7  N   UNL A   1      32.682  24.495  26.132  1.00  0.00    -0.355 N 
ATOM      8  C   UNL A   1      33.759  23.929  25.515  1.00  0.00     0.230 C 
ATOM      9  O   UNL A   1      34.837  23.959  26.117  1.00  0.00    -0.274 OA
ATOM     10  H   UNL A   1      32.859  24.838  27.037  1.00  0.00     0.163 HD
BRANCH   8  11
ATOM     11  C   UNL A   1      33.653  23.258  24.143  1.00  0.00     0.091 C 
ATOM     12  H   UNL A   1      32.764  23.538  23.618  1.00  0.00     0.048 H 
BRANCH  11  13
ATOM     13  C   UNL A   1      33.440  21.754  24.261  1.00  0.00    -0.033 A 
ATOM     14  C   UNL A   1      32.750  19.028  24.549  1.00  0.00    -0.048 A 
ATOM     15  C   UNL A   1      32.185  19.796  23.527  1.00  0.00    -0.059 A 
ATOM     16  C   UNL A   1      33.716  19.610  25.377  1.00  0.00    -0.059 A 
ATOM     17  C   UNL A   1      32.525  21.142  23.388  1.00  0.00    -0.058 A 
ATOM     18  H   UNL A   1      31.513  19.365  22.873  1.00  0.00     0.063 H 
ATOM     19  C   UNL A   1      34.073  20.954  25.221  1.00  0.00    -0.058 A 
ATOM     20  H   UNL A   1      34.169  19.043  26.111  1.00  0.00     0.063 H 
ATOM     21  H   UNL A   1      32.097  21.697  22.630  1.00  0.00     0.063 H 
ATOM     22  H   UNL A   1      34.810  21.360  25.820  1.00  0.00     0.063 H 
BRANCH  14  23
ATOM     23  C   UNL A   1      32.286  17.611  24.784  1.00  0.00    -0.026 C 
ATOM     24  H   UNL A   1      32.162  17.463  25.836  1.00  0.00     0.032 H 
ATOM     25  H   UNL A   1      31.366  17.482  24.251  1.00  0.00     0.032 H 
BRANCH  23  26
ATOM     26  C   UNL A   1      33.278  16.555  24.253  1.00  0.00    -0.043 C 
ATOM     27  H   UNL A   1      32.705  15.694  23.976  1.00  0.00     0.030 H 
BRANCH  26  28
ATOM     28  C   UNL A   1      34.028  17.031  23.004  1.00  0.00    -0.062 C 
ATOM     29  H   UNL A   1      33.451  16.804  22.132  1.00  0.00     0.023 H 
ATOM     30  H   UNL A   1      34.974  16.534  22.945  1.00  0.00     0.023 H 
ATOM     31  H   UNL A   1      34.184  18.088  23.063  1.00  0.00     0.023 H 
ENDBRANCH  26  28
BRANCH  26  32
ATOM     32  C   UNL A   1      34.286  16.192  25.345  1.00  0.00    -0.062 C 
ATOM     33  H   UNL A   1      35.153  16.811  25.251  1.00  0.00     0.023 H 
ATOM     34  H   UNL A   1      34.568  15.164  25.243  1.00  0.00     0.023 H 
ATOM     35  H   UNL A   1      33.841  16.345  26.306  1.00  0.00     0.023 H 
ENDBRANCH  26  32
ENDBRANCH  23  26
ENDBRANCH  14  23
ENDBRANCH  11  13
BRANCH  11  36
ATOM     36  C   UNL A   1      34.790  23.773  23.265  1.00  0.00     0.105 C 
ATOM     37  F   UNL A   1      35.685  22.771  23.040  1.00  0.00    -0.250 F 
ATOM     38  H   UNL A   1      35.282  24.585  23.760  1.00  0.00     0.064 H 
ATOM     39  H   UNL A   1      34.393  24.112  22.330  1.00  0.00     0.064 H 
ENDBRANCH  11  36
ENDBRANCH   8  11
ENDBRANCH   4   7
ENDBRANCH   1   4
BRANCH   1  40
ATOM     40  C   UNL A   1      31.403  27.132  26.428  1.00  0.00    -0.052 C 
ATOM     41  H   UNL A   1      32.374  26.931  26.830  1.00  0.00     0.027 H 
ATOM     42  H   UNL A   1      30.823  27.809  27.021  1.00  0.00     0.027 H 
BRANCH  40  43
ATOM     43  C   UNL A   1      31.587  27.815  25.068  1.00  0.00    -0.052 C 
ATOM     44  H   UNL A   1      31.257  28.829  25.162  1.00  0.00     0.027 H 
ATOM     45  H   UNL A   1      31.017  27.236  24.372  1.00  0.00     0.027 H 
BRANCH  43  46
ATOM     46  C   UNL A   1      33.018  27.833  24.522  1.00  0.00    -0.036 C 
ATOM     47  H   UNL A   1      32.972  27.643  23.470  1.00  0.00     0.028 H 
ATOM     48  H   UNL A   1      33.552  27.087  25.071  1.00  0.00     0.028 H 
BRANCH  46  49
ATOM     49  C   UNL A   1      33.781  29.138  24.732  1.00  0.00     0.018 C 
ATOM     50  H   UNL A   1      34.131  29.488  23.783  1.00  0.00     0.049 H 
ATOM     51  H   UNL A   1      34.591  28.935  25.401  1.00  0.00     0.049 H 
BRANCH  49  52
ATOM     52  N   UNL A   1      32.961  30.175  25.337  1.00  0.00    -0.352 N 
ATOM     53  C   UNL A   1      33.100  30.808  26.543  1.00  0.00     0.251 C 
ATOM     54  H   UNL A   1      32.191  30.466  24.798  1.00  0.00     0.163 HD
ATOM     55  O   UNL A   1      32.212  31.560  26.947  1.00  0.00    -0.269 OA
BRANCH  53  56
ATOM     56  C   UNL A   1      34.296  30.580  27.382  1.00  0.00     0.039 A 
ATOM     57  C   UNL A   1      34.476  29.321  27.963  1.00  0.00    -0.049 A 
ATOM     58  C   UNL A   1      35.222  31.600  27.626  1.00  0.00    -0.049 A 
ATOM     59  C   UNL A   1      35.607  29.068  28.743  1.00  0.00    -0.053 A 
ATOM     60  H   UNL A   1      33.774  28.580  27.817  1.00  0.00     0.063 H 
ATOM     61  C   UNL A   1      36.380  31.330  28.353  1.00  0.00    -0.053 A 
ATOM     62  H   UNL A   1      35.047  32.552  27.268  1.00  0.00     0.063 H 
ATOM     63  C   UNL A   1      36.583  30.063  28.921  1.00  0.00    -0.014 A 
ATOM     64  H   UNL A   1      35.727  28.146  29.190  1.00  0.00     0.063 H 
ATOM     65  H   UNL A   1      37.094  32.065  28.473  1.00  0.00     0.063 H 
BRANCH  63  66
ATOM     66  C   UNL A   1      37.818  29.785  29.696  1.00  0.00     0.031 A 
ATOM     67  C   UNL A   1      38.862  28.849  29.156  1.00  0.00     0.074 A 
ATOM     68  C   UNL A   1      37.975  30.336  30.915  1.00  0.00     0.049 A 
ATOM     69  N   UNL A   1      39.986  28.458  29.703  1.00  0.00    -0.248 NA
ATOM     70  C   UNL A   1      38.596  28.253  27.839  1.00  0.00    -0.034 C 
ATOM     71  C   UNL A   1      37.009  31.217  31.573  1.00  0.00    -0.036 A 
ATOM     72  N   UNL A   1      39.000  30.230  31.821  1.00  0.00    -0.354 N 
ATOM     73  C   UNL A   1      40.551  27.560  28.806  1.00  0.00     0.074 A 
ATOM     74  C   UNL A   1      39.626  27.430  27.701  1.00  0.00    -0.034 C 
ATOM     75  H   UNL A   1      37.813  28.429  27.190  1.00  0.00     0.065 H 
ATOM     76  C   UNL A   1      37.495  31.586  32.768  1.00  0.00    -0.036 A 
ATOM     77  H   UNL A   1      36.099  31.507  31.181  1.00  0.00     0.065 H 
ATOM     78  C   UNL A   1      38.792  30.948  32.973  1.00  0.00     0.049 A 
ATOM     79  H   UNL A   1      39.807  29.690  31.660  1.00  0.00     0.167 HD
ATOM     80  C   UNL A   1      41.743  26.921  28.888  1.00  0.00     0.037 A 
ATOM     81  H   UNL A   1      39.750  26.779  26.910  1.00  0.00     0.065 H 
ATOM     82  H   UNL A   1      37.027  32.219  33.436  1.00  0.00     0.065 H 
ATOM     83  C   UNL A   1      39.562  31.079  34.070  1.00  0.00     0.037 A 
ATOM     84  C   UNL A   1      42.676  27.076  29.972  1.00  0.00     0.049 A 
ATOM     85  C   UNL A   1      40.891  30.378  34.125  1.00  0.00     0.074 A 
ATOM     86  C   UNL A   1      43.940  26.529  30.111  1.00  0.00    -0.036 A 
ATOM     87  N   UNL A   1      42.443  27.835  31.111  1.00  0.00    -0.354 N 
ATOM     88  N   UNL A   1      41.449  29.592  33.236  1.00  0.00    -0.248 NA
ATOM     89  C   UNL A   1      41.702  30.591  35.331  1.00  0.00    -0.034 C 
ATOM     90  C   UNL A   1      44.456  26.925  31.350  1.00  0.00    -0.036 A 
ATOM     91  H   UNL A   1      44.419  25.933  29.418  1.00  0.00     0.065 H 
ATOM     92  C   UNL A   1      43.531  27.754  31.965  1.00  0.00     0.049 A 
ATOM     93  H   UNL A   1      41.626  28.355  31.286  1.00  0.00     0.167 HD
ATOM     94  C   UNL A   1      42.682  29.235  33.764  1.00  0.00     0.074 A 
ATOM     95  C   UNL A   1      42.798  29.904  35.043  1.00  0.00    -0.034 C 
ATOM     96  H   UNL A   1      41.477  31.134  36.180  1.00  0.00     0.065 H 
ATOM     97  H   UNL A   1      45.370  26.646  31.739  1.00  0.00     0.065 H 
ATOM     98  C   UNL A   1      43.632  28.424  33.236  1.00  0.00     0.037 A 
ATOM     99  H   UNL A   1      43.629  29.852  35.653  1.00  0.00     0.065 H 
BRANCH  80 100
ATOM    100  C   UNL A   1      42.108  25.994  27.765  1.00  0.00     0.064 A 
ATOM    101  C   UNL A   1      41.647  24.669  27.727  1.00  0.00     0.173 A 
ATOM    102  C   UNL A   1      42.904  26.442  26.700  1.00  0.00     0.173 A 
ATOM    103  F   UNL A   1      40.892  24.187  28.726  1.00  0.00    -0.203 F 
ATOM    104  C   UNL A   1      41.994  23.819  26.680  1.00  0.00     0.198 A 
ATOM    105  C   UNL A   1      43.225  25.598  25.641  1.00  0.00     0.198 A 
ATOM    106  F   UNL A   1      43.366  27.701  26.685  1.00  0.00    -0.203 F 
ATOM    107  F   UNL A   1      41.582  22.543  26.690  1.00  0.00    -0.200 F 
ATOM    108  C   UNL A   1      42.777  24.286  25.635  1.00  0.00     0.200 A 
ATOM    109  F   UNL A   1      43.973  26.053  24.626  1.00  0.00    -0.200 F 
ATOM    110  F   UNL A   1      43.107  23.467  24.626  1.00  0.00    -0.200 F 
ENDBRANCH  80 100
BRANCH  83 111
ATOM    111  C   UNL A   1      39.104  31.936  35.191  1.00  0.00     0.064 A 
ATOM    112  C   UNL A   1      38.405  31.388  36.275  1.00  0.00     0.173 A 
ATOM    113  C   UNL A   1      39.363  33.314  35.209  1.00  0.00     0.173 A 
ATOM    114  F   UNL A   1      38.117  30.078  36.291  1.00  0.00    -0.203 F 
ATOM    115  C   UNL A   1      37.969  32.188  37.329  1.00  0.00     0.198 A 
ATOM    116  C   UNL A   1      38.948  34.109  36.275  1.00  0.00     0.198 A 
ATOM    117  F   UNL A   1      40.033  33.885  34.198  1.00  0.00    -0.203 F 
ATOM    118  F   UNL A   1      37.270  31.645  38.335  1.00  0.00    -0.200 F 
ATOM    119  C   UNL A   1      38.246  33.547  37.331  1.00  0.00     0.200 A 
ATOM    120  F   UNL A   1      39.229  35.419  36.281  1.00  0.00    -0.200 F 
ATOM    121  F   UNL A   1      37.833  34.315  38.348  1.00  0.00    -0.200 F 
ENDBRANCH  83 111
BRANCH  98 122
ATOM    122  C   UNL A   1      44.887  28.232  34.035  1.00  0.00     0.064 A 
ATOM    123  C   UNL A   1      45.991  29.084  33.882  1.00  0.00     0.173 A 
ATOM    124  C   UNL A   1      44.976  27.202  34.983  1.00  0.00     0.173 A 
ATOM    125  F   UNL A   1      45.960  30.073  32.976  1.00  0.00    -0.203 F 
ATOM    126  C   UNL A   1      47.149  28.894  34.631  1.00  0.00     0.198 A 
ATOM    127  C   UNL A   1      46.126  27.032  35.750  1.00  0.00     0.198 A 
ATOM    128  F   UNL A   1      43.945  26.364  35.171  1.00  0.00    -0.203 F 
ATOM    129  F   UNL A   1      48.210  29.690  34.435  1.00  0.00    -0.200 F 
ATOM    130  C   UNL A   1      47.213  27.873  35.568  1.00  0.00     0.200 A 
ATOM    131  F   UNL A   1      46.182  26.052  36.662  1.00  0.00    -0.200 F 
ATOM    132  F   UNL A   1      48.328  27.694  36.290  1.00  0.00    -0.200 F 
ENDBRANCH  98 122
ENDBRANCH  63  66
ENDBRANCH  53  56
ENDBRANCH  49  52
ENDBRANCH  46  49
ENDBRANCH  43  46
ENDBRANCH  40  43
ENDBRANCH   1  40
TORSDOF 19
ENDMDL
