MODEL 1
REMARK VINA RESULT:     -12.7      0.000      0.000
REMARK SMILES CC1=C(CC(=O)NCCCCCCNC(=O)c2ccc(-c3c4nc(c(-c5c(F)c(F)c(F)c(F)c5F)c5ccc([nH]5)c(-c5c(F)c(F)c(F)c(F)c5F)c5nc(c(-c6c(F)c(F)c(F)c(F)c6F)c6ccc3[nH]6)C=C5)C=C4)cc2)c2cc(F)ccc2/C1=C\c1ccc([S@@+](C)O)cc1
REMARK SMILES IDX 9 1 8 4 7 7 5 8 6 9 4 11 3 14 2 15 87 16 80 17 86 18 88 19
REMARK SMILES IDX 81 20 85 21 82 23 84 25 83 27 1 29 89 33 90 34 97 35 91 36
REMARK SMILES IDX 96 38 92 40 93 43 94 44 95 48 10 50 11 53 12 56 13 59 14 62
REMARK SMILES IDX 15 63 16 65 17 66 18 67 79 68 19 69 78 71 20 73 21 76 22 77
REMARK SMILES IDX 72 78 23 79 77 80 71 81 73 82 24 83 76 84 70 86 69 88 25 90
REMARK SMILES IDX 57 93 37 94 56 95 38 96 41 97 55 98 74 99 39 100 40 102
REMARK SMILES IDX 54 104 75 105 42 108 26 110 27 111 35 112 28 113 29 114
REMARK SMILES IDX 33 115 36 116 30 117 31 118 34 119 32 120 58 121 59 122
REMARK SMILES IDX 67 123 60 124 61 125 65 126 68 127 62 128 63 129 66 130
REMARK SMILES IDX 64 131 43 132 44 133 52 134 45 135 46 136 50 137 53 138
REMARK SMILES IDX 47 139 48 140 51 141 49 142
REMARK H PARENT 9 2 9 3 8 5 8 6 7 10 4 12 4 13 88 22 81 24 85 26 84 28 1 30
REMARK H PARENT 1 31 1 32 90 37 97 39 91 41 96 42 94 45 94 46 94 47 95 49
REMARK H PARENT 10 51 10 52 11 54 11 55 12 57 12 58 13 60 13 61 14 64 18 70
REMARK H PARENT 79 72 19 74 78 75 77 85 71 87 73 89 76 91 70 92 38 101 41 103
REMARK H PARENT 74 106 39 107 75 109
REMARK Flexibility Score: inf
ROOT
ATOM      1  C   UNL A   1      33.969  20.553  25.583  1.00  0.00    -0.036 C 
ATOM      2  H   UNL A   1      33.077  20.890  25.098  1.00  0.00     0.028 H 
ATOM      3  H   UNL A   1      33.956  19.502  25.784  1.00  0.00     0.028 H 
ENDROOT
BRANCH   1   4
ATOM      4  C   UNL A   1      34.077  21.260  26.936  1.00  0.00     0.017 C 
ATOM      5  H   UNL A   1      34.347  20.543  27.683  1.00  0.00     0.049 H 
ATOM      6  H   UNL A   1      34.822  22.024  26.858  1.00  0.00     0.049 H 
BRANCH   4   7
ATOM      7  N   UNL A   1      32.824  21.879  27.308  1.00  0.00    -0.356 N 
ATOM      8  C   UNL A   1      32.404  23.159  27.100  1.00  0.00     0.224 C 
ATOM      9  O   UNL A   1      31.324  23.504  27.585  1.00  0.00    -0.275 OA
ATOM     10  H   UNL A   1      32.184  21.294  27.777  1.00  0.00     0.163 HD
BRANCH   8  11
ATOM     11  C   UNL A   1      33.226  24.115  26.238  1.00  0.00     0.053 C 
ATOM     12  H   UNL A   1      33.944  24.598  26.867  1.00  0.00     0.042 H 
ATOM     13  H   UNL A   1      33.676  23.522  25.469  1.00  0.00     0.042 H 
BRANCH  11  14
ATOM     14  C   UNL A   1      32.425  25.171  25.547  1.00  0.00    -0.027 C 
ATOM     15  C   UNL A   1      31.464  25.037  24.602  1.00  0.00    -0.039 C 
ATOM     16  C   UNL A   1      30.968  26.365  24.206  1.00  0.00    -0.014 C 
ATOM     17  C   UNL A   1      32.545  26.604  25.866  1.00  0.00    -0.011 A 
ATOM     18  C   UNL A   1      31.626  27.343  25.098  1.00  0.00    -0.010 A 
ATOM     19  C   UNL A   1      30.123  26.586  23.179  1.00  0.00    -0.047 C 
ATOM     20  C   UNL A   1      33.372  27.239  26.784  1.00  0.00    -0.018 A 
ATOM     21  C   UNL A   1      31.484  28.710  25.295  1.00  0.00    -0.051 A 
ATOM     22  H   UNL A   1      29.791  25.763  22.652  1.00  0.00     0.064 H 
ATOM     23  C   UNL A   1      33.260  28.619  26.930  1.00  0.00     0.123 A 
ATOM     24  H   UNL A   1      34.052  26.701  27.346  1.00  0.00     0.066 H 
ATOM     25  C   UNL A   1      32.323  29.354  26.207  1.00  0.00    -0.026 A 
ATOM     26  H   UNL A   1      30.769  29.242  24.776  1.00  0.00     0.063 H 
ATOM     27  F   UNL A   1      34.059  29.256  27.796  1.00  0.00    -0.207 F 
ATOM     28  H   UNL A   1      32.248  30.373  26.345  1.00  0.00     0.065 H 
BRANCH  15  29
ATOM     29  C   UNL A   1      30.922  23.775  24.014  1.00  0.00    -0.039 C 
ATOM     30  H   UNL A   1      29.976  23.550  24.461  1.00  0.00     0.028 H 
ATOM     31  H   UNL A   1      31.604  22.971  24.200  1.00  0.00     0.028 H 
ATOM     32  H   UNL A   1      30.796  23.898  22.958  1.00  0.00     0.028 H 
ENDBRANCH  15  29
BRANCH  19  33
ATOM     33  C   UNL A   1      29.637  27.900  22.751  1.00  0.00    -0.025 A 
ATOM     34  C   UNL A   1      30.456  28.775  22.028  1.00  0.00    -0.050 A 
ATOM     35  C   UNL A   1      28.385  28.336  23.188  1.00  0.00    -0.050 A 
ATOM     36  C   UNL A   1      30.084  30.113  21.871  1.00  0.00    -0.003 A 
ATOM     37  H   UNL A   1      31.336  28.431  21.609  1.00  0.00     0.063 H 
ATOM     38  C   UNL A   1      28.006  29.669  23.013  1.00  0.00    -0.003 A 
ATOM     39  H   UNL A   1      27.738  27.671  23.641  1.00  0.00     0.063 H 
ATOM     40  C   UNL A   1      28.869  30.578  22.390  1.00  0.00     0.189 A 
ATOM     41  H   UNL A   1      30.708  30.764  21.369  1.00  0.00     0.068 H 
ATOM     42  H   UNL A   1      27.082  29.986  23.346  1.00  0.00     0.068 H 
BRANCH  40  43
ATOM     43  S   UNL A   1      28.552  32.362  22.475  1.00  0.00     0.178 S 
BRANCH  43  44
ATOM     44  C   UNL A   1      27.789  32.588  20.848  1.00  0.00     0.137 C 
ATOM     45  H   UNL A   1      27.178  31.740  20.620  1.00  0.00     0.085 H 
ATOM     46  H   UNL A   1      28.555  32.685  20.107  1.00  0.00     0.085 H 
ATOM     47  H   UNL A   1      27.186  33.471  20.857  1.00  0.00     0.085 H 
ENDBRANCH  43  44
BRANCH  43  48
ATOM     48  O   UNL A   1      27.136  32.226  23.227  1.00  0.00    -0.182 OA
ATOM     49  H   UNL A   1      27.043  31.327  23.581  1.00  0.00     0.283 HD
ENDBRANCH  43  48
ENDBRANCH  40  43
ENDBRANCH  19  33
ENDBRANCH  11  14
ENDBRANCH   8  11
ENDBRANCH   4   7
ENDBRANCH   1   4
BRANCH   1  50
ATOM     50  C   UNL A   1      35.156  20.813  24.648  1.00  0.00    -0.052 C 
ATOM     51  H   UNL A   1      34.887  21.610  23.985  1.00  0.00     0.027 H 
ATOM     52  H   UNL A   1      35.347  19.886  24.148  1.00  0.00     0.027 H 
BRANCH  50  53
ATOM     53  C   UNL A   1      36.469  21.197  25.341  1.00  0.00    -0.052 C 
ATOM     54  H   UNL A   1      36.305  21.168  26.398  1.00  0.00     0.027 H 
ATOM     55  H   UNL A   1      36.726  22.168  24.974  1.00  0.00     0.027 H 
BRANCH  53  56
ATOM     56  C   UNL A   1      37.662  20.293  25.024  1.00  0.00    -0.036 C 
ATOM     57  H   UNL A   1      37.873  20.374  23.978  1.00  0.00     0.028 H 
ATOM     58  H   UNL A   1      37.380  19.305  25.323  1.00  0.00     0.028 H 
BRANCH  56  59
ATOM     59  C   UNL A   1      38.935  20.628  25.792  1.00  0.00     0.018 C 
ATOM     60  H   UNL A   1      38.671  20.892  26.795  1.00  0.00     0.049 H 
ATOM     61  H   UNL A   1      39.416  21.437  25.283  1.00  0.00     0.049 H 
BRANCH  59  62
ATOM     62  N   UNL A   1      39.875  19.517  25.836  1.00  0.00    -0.352 N 
ATOM     63  C   UNL A   1      41.234  19.536  26.045  1.00  0.00     0.251 C 
ATOM     64  H   UNL A   1      39.481  18.625  25.695  1.00  0.00     0.163 HD
ATOM     65  O   UNL A   1      41.899  18.514  25.903  1.00  0.00    -0.269 OA
BRANCH  63  66
ATOM     66  C   UNL A   1      41.902  20.805  26.408  1.00  0.00     0.039 A 
ATOM     67  C   UNL A   1      42.183  21.105  27.742  1.00  0.00    -0.049 A 
ATOM     68  C   UNL A   1      42.225  21.719  25.401  1.00  0.00    -0.049 A 
ATOM     69  C   UNL A   1      42.619  22.380  28.083  1.00  0.00    -0.053 A 
ATOM     70  H   UNL A   1      42.067  20.384  28.471  1.00  0.00     0.063 H 
ATOM     71  C   UNL A   1      42.749  22.971  25.740  1.00  0.00    -0.053 A 
ATOM     72  H   UNL A   1      42.079  21.470  24.410  1.00  0.00     0.063 H 
ATOM     73  C   UNL A   1      42.898  23.333  27.087  1.00  0.00    -0.014 A 
ATOM     74  H   UNL A   1      42.739  22.630  29.076  1.00  0.00     0.063 H 
ATOM     75  H   UNL A   1      43.027  23.631  24.997  1.00  0.00     0.063 H 
BRANCH  73  76
ATOM     76  C   UNL A   1      43.325  24.699  27.491  1.00  0.00     0.031 A 
ATOM     77  C   UNL A   1      44.728  25.176  27.229  1.00  0.00     0.074 A 
ATOM     78  C   UNL A   1      42.417  25.541  28.025  1.00  0.00     0.049 A 
ATOM     79  N   UNL A   1      45.255  26.354  27.459  1.00  0.00    -0.248 NA
ATOM     80  C   UNL A   1      45.666  24.210  26.636  1.00  0.00    -0.034 C 
ATOM     81  C   UNL A   1      41.025  25.196  28.319  1.00  0.00    -0.036 A 
ATOM     82  N   UNL A   1      42.515  26.862  28.380  1.00  0.00    -0.354 N 
ATOM     83  C   UNL A   1      46.580  26.265  27.051  1.00  0.00     0.074 A 
ATOM     84  C   UNL A   1      46.792  24.911  26.592  1.00  0.00    -0.034 C 
ATOM     85  H   UNL A   1      45.494  23.240  26.331  1.00  0.00     0.065 H 
ATOM     86  C   UNL A   1      40.384  26.292  28.749  1.00  0.00    -0.036 A 
ATOM     87  H   UNL A   1      40.605  24.260  28.213  1.00  0.00     0.065 H 
ATOM     88  C   UNL A   1      41.330  27.401  28.820  1.00  0.00     0.049 A 
ATOM     89  H   UNL A   1      43.354  27.374  28.326  1.00  0.00     0.167 HD
ATOM     90  C   UNL A   1      47.528  27.233  27.043  1.00  0.00     0.037 A 
ATOM     91  H   UNL A   1      47.699  24.538  26.272  1.00  0.00     0.065 H 
ATOM     92  H   UNL A   1      39.381  26.344  28.990  1.00  0.00     0.065 H 
ATOM     93  C   UNL A   1      41.038  28.647  29.239  1.00  0.00     0.037 A 
ATOM     94  C   UNL A   1      47.309  28.590  27.472  1.00  0.00     0.049 A 
ATOM     95  C   UNL A   1      42.122  29.687  29.260  1.00  0.00     0.074 A 
ATOM     96  C   UNL A   1      48.203  29.647  27.472  1.00  0.00    -0.036 A 
ATOM     97  N   UNL A   1      46.113  29.076  27.975  1.00  0.00    -0.354 N 
ATOM     98  N   UNL A   1      43.364  29.593  28.854  1.00  0.00    -0.248 NA
ATOM     99  C   UNL A   1      41.767  31.003  29.810  1.00  0.00    -0.034 C 
ATOM    100  C   UNL A   1      47.560  30.763  28.014  1.00  0.00    -0.036 A 
ATOM    101  H   UNL A   1      49.176  29.616  27.131  1.00  0.00     0.065 H 
ATOM    102  C   UNL A   1      46.252  30.414  28.311  1.00  0.00     0.049 A 
ATOM    103  H   UNL A   1      45.286  28.551  28.078  1.00  0.00     0.167 HD
ATOM    104  C   UNL A   1      43.937  30.835  29.090  1.00  0.00     0.074 A 
ATOM    105  C   UNL A   1      42.900  31.674  29.652  1.00  0.00    -0.034 C 
ATOM    106  H   UNL A   1      40.871  31.321  30.212  1.00  0.00     0.065 H 
ATOM    107  H   UNL A   1      47.987  31.689  28.168  1.00  0.00     0.065 H 
ATOM    108  C   UNL A   1      45.211  31.237  28.868  1.00  0.00     0.037 A 
ATOM    109  H   UNL A   1      43.025  32.669  29.898  1.00  0.00     0.065 H 
BRANCH  90 110
ATOM    110  C   UNL A   1      48.898  26.874  26.548  1.00  0.00     0.064 A 
ATOM    111  C   UNL A   1      49.860  26.310  27.399  1.00  0.00     0.173 A 
ATOM    112  C   UNL A   1      49.225  27.013  25.190  1.00  0.00     0.173 A 
ATOM    113  F   UNL A   1      49.601  26.165  28.708  1.00  0.00    -0.203 F 
ATOM    114  C   UNL A   1      51.101  25.908  26.911  1.00  0.00     0.198 A 
ATOM    115  C   UNL A   1      50.457  26.586  24.701  1.00  0.00     0.198 A 
ATOM    116  F   UNL A   1      48.337  27.539  24.332  1.00  0.00    -0.203 F 
ATOM    117  F   UNL A   1      52.013  25.395  27.748  1.00  0.00    -0.200 F 
ATOM    118  C   UNL A   1      51.393  26.036  25.562  1.00  0.00     0.200 A 
ATOM    119  F   UNL A   1      50.732  26.697  23.394  1.00  0.00    -0.200 F 
ATOM    120  F   UNL A   1      52.581  25.630  25.090  1.00  0.00    -0.200 F 
ENDBRANCH  90 110
BRANCH  93 121
ATOM    121  C   UNL A   1      39.653  28.973  29.666  1.00  0.00     0.064 A 
ATOM    122  C   UNL A   1      38.732  29.523  28.766  1.00  0.00     0.173 A 
ATOM    123  C   UNL A   1      39.216  28.722  30.976  1.00  0.00     0.173 A 
ATOM    124  F   UNL A   1      39.109  29.802  27.509  1.00  0.00    -0.203 F 
ATOM    125  C   UNL A   1      37.428  29.816  29.160  1.00  0.00     0.198 A 
ATOM    126  C   UNL A   1      37.904  28.988  31.360  1.00  0.00     0.198 A 
ATOM    127  F   UNL A   1      40.060  28.194  31.876  1.00  0.00    -0.203 F 
ATOM    128  F   UNL A   1      36.576  30.373  28.288  1.00  0.00    -0.200 F 
ATOM    129  C   UNL A   1      37.013  29.539  30.454  1.00  0.00     0.200 A 
ATOM    130  F   UNL A   1      37.503  28.702  32.607  1.00  0.00    -0.200 F 
ATOM    131  F   UNL A   1      35.754  29.808  30.829  1.00  0.00    -0.200 F 
ENDBRANCH  93 121
BRANCH 108 132
ATOM    132  C   UNL A   1      45.566  32.649  29.231  1.00  0.00     0.064 A 
ATOM    133  C   UNL A   1      46.121  32.962  30.480  1.00  0.00     0.173 A 
ATOM    134  C   UNL A   1      45.425  33.683  28.293  1.00  0.00     0.173 A 
ATOM    135  F   UNL A   1      46.262  32.009  31.413  1.00  0.00    -0.203 F 
ATOM    136  C   UNL A   1      46.516  34.262  30.780  1.00  0.00     0.198 A 
ATOM    137  C   UNL A   1      45.844  34.977  28.588  1.00  0.00     0.198 A 
ATOM    138  F   UNL A   1      44.905  33.432  27.082  1.00  0.00    -0.203 F 
ATOM    139  F   UNL A   1      47.019  34.545  31.989  1.00  0.00    -0.200 F 
ATOM    140  C   UNL A   1      46.387  35.266  29.831  1.00  0.00     0.200 A 
ATOM    141  F   UNL A   1      45.734  35.942  27.664  1.00  0.00    -0.200 F 
ATOM    142  F   UNL A   1      46.785  36.513  30.115  1.00  0.00    -0.200 F 
ENDBRANCH 108 132
ENDBRANCH  73  76
ENDBRANCH  63  66
ENDBRANCH  59  62
ENDBRANCH  56  59
ENDBRANCH  53  56
ENDBRANCH  50  53
ENDBRANCH   1  50
TORSDOF 19
ENDMDL
MODEL 2
REMARK VINA RESULT:     -12.7      0.816      1.750
REMARK SMILES CC1=C(CC(=O)NCCCCCCNC(=O)c2ccc(-c3c4nc(c(-c5c(F)c(F)c(F)c(F)c5F)c5ccc([nH]5)c(-c5c(F)c(F)c(F)c(F)c5F)c5nc(c(-c6c(F)c(F)c(F)c(F)c6F)c6ccc3[nH]6)C=C5)C=C4)cc2)c2cc(F)ccc2/C1=C\c1ccc([S@@+](C)O)cc1
REMARK SMILES IDX 9 1 8 4 7 7 5 8 6 9 4 11 3 14 2 15 87 16 80 17 86 18 88 19
REMARK SMILES IDX 81 20 85 21 82 23 84 25 83 27 1 29 89 33 90 34 97 35 91 36
REMARK SMILES IDX 96 38 92 40 93 43 94 44 95 48 10 50 11 53 12 56 13 59 14 62
REMARK SMILES IDX 15 63 16 65 17 66 18 67 79 68 19 69 78 71 20 73 21 76 22 77
REMARK SMILES IDX 72 78 23 79 77 80 71 81 73 82 24 83 76 84 70 86 69 88 25 90
REMARK SMILES IDX 57 93 37 94 56 95 38 96 41 97 55 98 74 99 39 100 40 102
REMARK SMILES IDX 54 104 75 105 42 108 26 110 27 111 35 112 28 113 29 114
REMARK SMILES IDX 33 115 36 116 30 117 31 118 34 119 32 120 58 121 59 122
REMARK SMILES IDX 67 123 60 124 61 125 65 126 68 127 62 128 63 129 66 130
REMARK SMILES IDX 64 131 43 132 44 133 52 134 45 135 46 136 50 137 53 138
REMARK SMILES IDX 47 139 48 140 51 141 49 142
REMARK H PARENT 9 2 9 3 8 5 8 6 7 10 4 12 4 13 88 22 81 24 85 26 84 28 1 30
REMARK H PARENT 1 31 1 32 90 37 97 39 91 41 96 42 94 45 94 46 94 47 95 49
REMARK H PARENT 10 51 10 52 11 54 11 55 12 57 12 58 13 60 13 61 14 64 18 70
REMARK H PARENT 79 72 19 74 78 75 77 85 71 87 73 89 76 91 70 92 38 101 41 103
REMARK H PARENT 74 106 39 107 75 109
REMARK Flexibility Score: inf
ROOT
ATOM      1  C   UNL A   1      34.655  21.244  25.955  1.00  0.00    -0.036 C 
ATOM      2  H   UNL A   1      34.648  20.724  26.889  1.00  0.00     0.028 H 
ATOM      3  H   UNL A   1      35.029  22.243  26.042  1.00  0.00     0.028 H 
ENDROOT
BRANCH   1   4
ATOM      4  C   UNL A   1      33.213  21.355  25.456  1.00  0.00     0.017 C 
ATOM      5  H   UNL A   1      33.206  21.889  24.529  1.00  0.00     0.049 H 
ATOM      6  H   UNL A   1      32.824  20.367  25.327  1.00  0.00     0.049 H 
BRANCH   4   7
ATOM      7  N   UNL A   1      32.378  22.054  26.409  1.00  0.00    -0.356 N 
ATOM      8  C   UNL A   1      32.304  23.389  26.667  1.00  0.00     0.224 C 
ATOM      9  O   UNL A   1      31.582  23.765  27.594  1.00  0.00    -0.275 OA
ATOM     10  H   UNL A   1      31.779  21.484  26.945  1.00  0.00     0.163 HD
BRANCH   8  11
ATOM     11  C   UNL A   1      33.052  24.392  25.791  1.00  0.00     0.053 C 
ATOM     12  H   UNL A   1      33.812  24.854  26.386  1.00  0.00     0.042 H 
ATOM     13  H   UNL A   1      33.447  23.839  24.964  1.00  0.00     0.042 H 
BRANCH  11  14
ATOM     14  C   UNL A   1      32.194  25.470  25.211  1.00  0.00    -0.027 C 
ATOM     15  C   UNL A   1      31.195  25.373  24.301  1.00  0.00    -0.039 C 
ATOM     16  C   UNL A   1      30.648  26.711  24.022  1.00  0.00    -0.014 C 
ATOM     17  C   UNL A   1      32.291  26.880  25.625  1.00  0.00    -0.011 A 
ATOM     18  C   UNL A   1      31.319  27.643  24.950  1.00  0.00    -0.010 A 
ATOM     19  C   UNL A   1      29.751  26.978  23.050  1.00  0.00    -0.047 C 
ATOM     20  C   UNL A   1      33.142  27.474  26.549  1.00  0.00    -0.018 A 
ATOM     21  C   UNL A   1      31.151  28.989  25.249  1.00  0.00    -0.051 A 
ATOM     22  H   UNL A   1      29.418  26.183  22.482  1.00  0.00     0.064 H 
ATOM     23  C   UNL A   1      33.001  28.836  26.795  1.00  0.00     0.123 A 
ATOM     24  H   UNL A   1      33.860  26.918  27.041  1.00  0.00     0.066 H 
ATOM     25  C   UNL A   1      32.014  29.593  26.167  1.00  0.00    -0.026 A 
ATOM     26  H   UNL A   1      30.400  29.535  24.800  1.00  0.00     0.063 H 
ATOM     27  F   UNL A   1      33.822  29.435  27.669  1.00  0.00    -0.207 F 
ATOM     28  H   UNL A   1      31.919  30.597  26.379  1.00  0.00     0.065 H 
BRANCH  15  29
ATOM     29  C   UNL A   1      30.660  24.140  23.650  1.00  0.00    -0.039 C 
ATOM     30  H   UNL A   1      29.610  24.059  23.846  1.00  0.00     0.028 H 
ATOM     31  H   UNL A   1      31.162  23.281  24.043  1.00  0.00     0.028 H 
ATOM     32  H   UNL A   1      30.822  24.194  22.594  1.00  0.00     0.028 H 
ENDBRANCH  15  29
BRANCH  19  33
ATOM     33  C   UNL A   1      29.214  28.304  22.737  1.00  0.00    -0.025 A 
ATOM     34  C   UNL A   1      30.014  29.290  22.149  1.00  0.00    -0.050 A 
ATOM     35  C   UNL A   1      27.921  28.627  23.154  1.00  0.00    -0.050 A 
ATOM     36  C   UNL A   1      29.575  30.617  22.113  1.00  0.00    -0.003 A 
ATOM     37  H   UNL A   1      30.929  29.037  21.741  1.00  0.00     0.063 H 
ATOM     38  C   UNL A   1      27.477  29.951  23.099  1.00  0.00    -0.003 A 
ATOM     39  H   UNL A   1      27.293  27.886  23.503  1.00  0.00     0.063 H 
ATOM     40  C   UNL A   1      28.316  30.963  22.617  1.00  0.00     0.189 A 
ATOM     41  H   UNL A   1      30.184  31.348  21.713  1.00  0.00     0.068 H 
ATOM     42  H   UNL A   1      26.524  30.184  23.417  1.00  0.00     0.068 H 
BRANCH  40  43
ATOM     43  S   UNL A   1      27.896  32.709  22.870  1.00  0.00     0.178 S 
BRANCH  43  44
ATOM     44  C   UNL A   1      29.559  33.353  23.189  1.00  0.00     0.137 C 
ATOM     45  H   UNL A   1      29.531  34.009  24.033  1.00  0.00     0.085 H 
ATOM     46  H   UNL A   1      29.904  33.889  22.330  1.00  0.00     0.085 H 
ATOM     47  H   UNL A   1      30.223  32.538  23.393  1.00  0.00     0.085 H 
ENDBRANCH  43  44
BRANCH  43  48
ATOM     48  O   UNL A   1      27.939  33.100  21.309  1.00  0.00    -0.182 OA
ATOM     49  H   UNL A   1      28.598  32.550  20.856  1.00  0.00     0.283 HD
ENDBRANCH  43  48
ENDBRANCH  40  43
ENDBRANCH  19  33
ENDBRANCH  11  14
ENDBRANCH   8  11
ENDBRANCH   4   7
ENDBRANCH   1   4
BRANCH   1  50
ATOM     50  C   UNL A   1      35.591  20.500  24.994  1.00  0.00    -0.052 C 
ATOM     51  H   UNL A   1      35.201  20.606  24.004  1.00  0.00     0.027 H 
ATOM     52  H   UNL A   1      35.621  19.487  25.337  1.00  0.00     0.027 H 
BRANCH  50  53
ATOM     53  C   UNL A   1      37.046  20.985  24.985  1.00  0.00    -0.052 C 
ATOM     54  H   UNL A   1      37.192  21.608  25.842  1.00  0.00     0.027 H 
ATOM     55  H   UNL A   1      37.182  21.497  24.055  1.00  0.00     0.027 H 
BRANCH  53  56
ATOM     56  C   UNL A   1      38.102  19.880  25.019  1.00  0.00    -0.036 C 
ATOM     57  H   UNL A   1      38.422  19.692  24.016  1.00  0.00     0.028 H 
ATOM     58  H   UNL A   1      37.637  19.033  25.480  1.00  0.00     0.028 H 
BRANCH  56  59
ATOM     59  C   UNL A   1      39.334  20.203  25.857  1.00  0.00     0.018 C 
ATOM     60  H   UNL A   1      39.026  20.373  26.868  1.00  0.00     0.049 H 
ATOM     61  H   UNL A   1      39.795  21.070  25.432  1.00  0.00     0.049 H 
BRANCH  59  62
ATOM     62  N   UNL A   1      40.319  19.132  25.846  1.00  0.00    -0.352 N 
ATOM     63  C   UNL A   1      41.674  19.195  26.069  1.00  0.00     0.251 C 
ATOM     64  H   UNL A   1      39.965  18.234  25.651  1.00  0.00     0.163 HD
ATOM     65  O   UNL A   1      42.384  18.212  25.875  1.00  0.00    -0.269 OA
BRANCH  63  66
ATOM     66  C   UNL A   1      42.286  20.468  26.511  1.00  0.00     0.039 A 
ATOM     67  C   UNL A   1      42.244  20.850  27.852  1.00  0.00    -0.049 A 
ATOM     68  C   UNL A   1      42.884  21.303  25.563  1.00  0.00    -0.049 A 
ATOM     69  C   UNL A   1      42.636  22.134  28.215  1.00  0.00    -0.053 A 
ATOM     70  H   UNL A   1      41.922  20.183  28.571  1.00  0.00     0.063 H 
ATOM     71  C   UNL A   1      43.361  22.562  25.947  1.00  0.00    -0.053 A 
ATOM     72  H   UNL A   1      42.975  20.993  24.583  1.00  0.00     0.063 H 
ATOM     73  C   UNL A   1      43.190  23.010  27.265  1.00  0.00    -0.014 A 
ATOM     74  H   UNL A   1      42.518  22.446  29.191  1.00  0.00     0.063 H 
ATOM     75  H   UNL A   1      43.839  23.163  25.258  1.00  0.00     0.063 H 
BRANCH  73  76
ATOM     76  C   UNL A   1      43.561  24.388  27.681  1.00  0.00     0.031 A 
ATOM     77  C   UNL A   1      44.994  24.847  27.635  1.00  0.00     0.074 A 
ATOM     78  C   UNL A   1      42.589  25.256  28.026  1.00  0.00     0.049 A 
ATOM     79  N   UNL A   1      45.491  26.030  27.902  1.00  0.00    -0.248 NA
ATOM     80  C   UNL A   1      46.004  23.853  27.241  1.00  0.00    -0.034 C 
ATOM     81  C   UNL A   1      41.163  24.931  28.101  1.00  0.00    -0.036 A 
ATOM     82  N   UNL A   1      42.643  26.590  28.342  1.00  0.00    -0.354 N 
ATOM     83  C   UNL A   1      46.863  25.917  27.722  1.00  0.00     0.074 A 
ATOM     84  C   UNL A   1      47.130  24.544  27.356  1.00  0.00    -0.034 C 
ATOM     85  H   UNL A   1      45.873  22.872  26.950  1.00  0.00     0.065 H 
ATOM     86  C   UNL A   1      40.473  26.047  28.377  1.00  0.00    -0.036 A 
ATOM     87  H   UNL A   1      40.754  23.994  27.963  1.00  0.00     0.065 H 
ATOM     88  C   UNL A   1      41.408  27.152  28.560  1.00  0.00     0.049 A 
ATOM     89  H   UNL A   1      43.485  27.095  28.406  1.00  0.00     0.167 HD
ATOM     90  C   UNL A   1      47.811  26.879  27.832  1.00  0.00     0.037 A 
ATOM     91  H   UNL A   1      48.074  24.155  27.203  1.00  0.00     0.065 H 
ATOM     92  H   UNL A   1      39.445  26.114  28.449  1.00  0.00     0.065 H 
ATOM     93  C   UNL A   1      41.067  28.416  28.877  1.00  0.00     0.037 A 
ATOM     94  C   UNL A   1      47.541  28.253  28.167  1.00  0.00     0.049 A 
ATOM     95  C   UNL A   1      42.145  29.450  29.036  1.00  0.00     0.074 A 
ATOM     96  C   UNL A   1      48.436  29.304  28.273  1.00  0.00    -0.036 A 
ATOM     97  N   UNL A   1      46.285  28.766  28.448  1.00  0.00    -0.354 N 
ATOM     98  N   UNL A   1      43.435  29.332  28.843  1.00  0.00    -0.248 NA
ATOM     99  C   UNL A   1      41.721  30.788  29.469  1.00  0.00    -0.034 C 
ATOM    100  C   UNL A   1      47.727  30.444  28.659  1.00  0.00    -0.036 A 
ATOM    101  H   UNL A   1      49.451  29.254  28.098  1.00  0.00     0.065 H 
ATOM    102  C   UNL A   1      46.383  30.115  28.750  1.00  0.00     0.049 A 
ATOM    103  H   UNL A   1      45.447  28.250  28.433  1.00  0.00     0.167 HD
ATOM    104  C   UNL A   1      43.977  30.579  29.123  1.00  0.00     0.074 A 
ATOM    105  C   UNL A   1      42.872  31.446  29.474  1.00  0.00    -0.034 C 
ATOM    106  H   UNL A   1      40.775  31.127  29.707  1.00  0.00     0.065 H 
ATOM    107  H   UNL A   1      48.133  31.374  28.845  1.00  0.00     0.065 H 
ATOM    108  C   UNL A   1      45.275  30.966  29.097  1.00  0.00     0.037 A 
ATOM    109  H   UNL A   1      42.968  32.449  29.699  1.00  0.00     0.065 H 
BRANCH  90 110
ATOM    110  C   UNL A   1      49.240  26.493  27.583  1.00  0.00     0.064 A 
ATOM    111  C   UNL A   1      49.767  26.436  26.284  1.00  0.00     0.173 A 
ATOM    112  C   UNL A   1      50.113  26.263  28.656  1.00  0.00     0.173 A 
ATOM    113  F   UNL A   1      48.971  26.638  25.223  1.00  0.00    -0.203 F 
ATOM    114  C   UNL A   1      51.114  26.154  26.070  1.00  0.00     0.198 A 
ATOM    115  C   UNL A   1      51.465  26.007  28.440  1.00  0.00     0.198 A 
ATOM    116  F   UNL A   1      49.662  26.314  29.919  1.00  0.00    -0.203 F 
ATOM    117  F   UNL A   1      51.590  26.080  24.819  1.00  0.00    -0.200 F 
ATOM    118  C   UNL A   1      51.963  25.951  27.147  1.00  0.00     0.200 A 
ATOM    119  F   UNL A   1      52.287  25.826  29.482  1.00  0.00    -0.200 F 
ATOM    120  F   UNL A   1      53.264  25.700  26.939  1.00  0.00    -0.200 F 
ENDBRANCH  90 110
BRANCH  93 121
ATOM    121  C   UNL A   1      39.635  28.766  29.059  1.00  0.00     0.064 A 
ATOM    122  C   UNL A   1      39.016  28.645  30.311  1.00  0.00     0.173 A 
ATOM    123  C   UNL A   1      38.861  29.250  27.993  1.00  0.00     0.173 A 
ATOM    124  F   UNL A   1      39.709  28.166  31.355  1.00  0.00    -0.203 F 
ATOM    125  C   UNL A   1      37.678  28.987  30.487  1.00  0.00     0.198 A 
ATOM    126  C   UNL A   1      37.531  29.619  28.178  1.00  0.00     0.198 A 
ATOM    127  F   UNL A   1      39.407  29.386  26.775  1.00  0.00    -0.203 F 
ATOM    128  F   UNL A   1      37.101  28.830  31.687  1.00  0.00    -0.200 F 
ATOM    129  C   UNL A   1      36.939  29.483  29.423  1.00  0.00     0.200 A 
ATOM    130  F   UNL A   1      36.827  30.114  27.151  1.00  0.00    -0.200 F 
ATOM    131  F   UNL A   1      35.655  29.825  29.598  1.00  0.00    -0.200 F 
ENDBRANCH  93 121
BRANCH 108 132
ATOM    132  C   UNL A   1      45.583  32.389  29.459  1.00  0.00     0.064 A 
ATOM    133  C   UNL A   1      45.911  32.751  30.773  1.00  0.00     0.173 A 
ATOM    134  C   UNL A   1      45.629  33.382  28.469  1.00  0.00     0.173 A 
ATOM    135  F   UNL A   1      45.867  31.839  31.755  1.00  0.00    -0.203 F 
ATOM    136  C   UNL A   1      46.267  34.060  31.085  1.00  0.00     0.198 A 
ATOM    137  C   UNL A   1      46.010  34.684  28.780  1.00  0.00     0.198 A 
ATOM    138  F   UNL A   1      45.330  33.083  27.196  1.00  0.00    -0.203 F 
ATOM    139  F   UNL A   1      46.551  34.390  32.352  1.00  0.00    -0.200 F 
ATOM    140  C   UNL A   1      46.327  35.022  30.087  1.00  0.00     0.200 A 
ATOM    141  F   UNL A   1      46.083  35.608  27.813  1.00  0.00    -0.200 F 
ATOM    142  F   UNL A   1      46.688  36.277  30.387  1.00  0.00    -0.200 F 
ENDBRANCH 108 132
ENDBRANCH  73  76
ENDBRANCH  63  66
ENDBRANCH  59  62
ENDBRANCH  56  59
ENDBRANCH  53  56
ENDBRANCH  50  53
ENDBRANCH   1  50
TORSDOF 19
ENDMDL
MODEL 3
REMARK VINA RESULT:     -12.7      3.238      8.108
REMARK SMILES CC1=C(CC(=O)NCCCCCCNC(=O)c2ccc(-c3c4nc(c(-c5c(F)c(F)c(F)c(F)c5F)c5ccc([nH]5)c(-c5c(F)c(F)c(F)c(F)c5F)c5nc(c(-c6c(F)c(F)c(F)c(F)c6F)c6ccc3[nH]6)C=C5)C=C4)cc2)c2cc(F)ccc2/C1=C\c1ccc([S@@+](C)O)cc1
REMARK SMILES IDX 9 1 8 4 7 7 5 8 6 9 4 11 3 14 2 15 87 16 80 17 86 18 88 19
REMARK SMILES IDX 81 20 85 21 82 23 84 25 83 27 1 29 89 33 90 34 97 35 91 36
REMARK SMILES IDX 96 38 92 40 93 43 94 44 95 48 10 50 11 53 12 56 13 59 14 62
REMARK SMILES IDX 15 63 16 65 17 66 18 67 79 68 19 69 78 71 20 73 21 76 22 77
REMARK SMILES IDX 72 78 23 79 77 80 71 81 73 82 24 83 76 84 70 86 69 88 25 90
REMARK SMILES IDX 57 93 37 94 56 95 38 96 41 97 55 98 74 99 39 100 40 102
REMARK SMILES IDX 54 104 75 105 42 108 26 110 27 111 35 112 28 113 29 114
REMARK SMILES IDX 33 115 36 116 30 117 31 118 34 119 32 120 58 121 59 122
REMARK SMILES IDX 67 123 60 124 61 125 65 126 68 127 62 128 63 129 66 130
REMARK SMILES IDX 64 131 43 132 44 133 52 134 45 135 46 136 50 137 53 138
REMARK SMILES IDX 47 139 48 140 51 141 49 142
REMARK H PARENT 9 2 9 3 8 5 8 6 7 10 4 12 4 13 88 22 81 24 85 26 84 28 1 30
REMARK H PARENT 1 31 1 32 90 37 97 39 91 41 96 42 94 45 94 46 94 47 95 49
REMARK H PARENT 10 51 10 52 11 54 11 55 12 57 12 58 13 60 13 61 14 64 18 70
REMARK H PARENT 79 72 19 74 78 75 77 85 71 87 73 89 76 91 70 92 38 101 41 103
REMARK H PARENT 74 106 39 107 75 109
REMARK Flexibility Score: inf
ROOT
ATOM      1  C   UNL A   1      33.980  20.689  25.501  1.00  0.00    -0.036 C 
ATOM      2  H   UNL A   1      32.948  20.458  25.346  1.00  0.00     0.028 H 
ATOM      3  H   UNL A   1      34.598  19.817  25.533  1.00  0.00     0.028 H 
ENDROOT
BRANCH   1   4
ATOM      4  C   UNL A   1      34.119  21.379  26.860  1.00  0.00     0.017 C 
ATOM      5  H   UNL A   1      34.402  20.652  27.592  1.00  0.00     0.049 H 
ATOM      6  H   UNL A   1      34.865  22.142  26.776  1.00  0.00     0.049 H 
BRANCH   4   7
ATOM      7  N   UNL A   1      32.876  21.998  27.266  1.00  0.00    -0.356 N 
ATOM      8  C   UNL A   1      32.475  23.291  27.121  1.00  0.00     0.224 C 
ATOM      9  O   UNL A   1      31.401  23.629  27.626  1.00  0.00    -0.275 OA
ATOM     10  H   UNL A   1      32.229  21.400  27.708  1.00  0.00     0.163 HD
BRANCH   8  11
ATOM     11  C   UNL A   1      33.308  24.276  26.304  1.00  0.00     0.053 C 
ATOM     12  H   UNL A   1      33.984  24.773  26.968  1.00  0.00     0.042 H 
ATOM     13  H   UNL A   1      33.808  23.702  25.551  1.00  0.00     0.042 H 
BRANCH  11  14
ATOM     14  C   UNL A   1      32.511  25.316  25.585  1.00  0.00    -0.027 C 
ATOM     15  C   UNL A   1      31.528  25.159  24.665  1.00  0.00    -0.039 C 
ATOM     16  C   UNL A   1      31.047  26.479  24.224  1.00  0.00    -0.014 C 
ATOM     17  C   UNL A   1      32.661  26.759  25.841  1.00  0.00    -0.011 A 
ATOM     18  C   UNL A   1      31.738  27.481  25.060  1.00  0.00    -0.010 A 
ATOM     19  C   UNL A   1      30.184  26.671  23.206  1.00  0.00    -0.047 C 
ATOM     20  C   UNL A   1      33.517  27.418  26.714  1.00  0.00    -0.018 A 
ATOM     21  C   UNL A   1      31.623  28.857  25.202  1.00  0.00    -0.051 A 
ATOM     22  H   UNL A   1      29.827  25.832  22.721  1.00  0.00     0.064 H 
ATOM     23  C   UNL A   1      33.431  28.804  26.804  1.00  0.00     0.123 A 
ATOM     24  H   UNL A   1      34.199  26.892  27.284  1.00  0.00     0.066 H 
ATOM     25  C   UNL A   1      32.492  29.524  26.069  1.00  0.00    -0.026 A 
ATOM     26  H   UNL A   1      30.906  29.380  24.675  1.00  0.00     0.063 H 
ATOM     27  F   UNL A   1      34.258  29.463  27.626  1.00  0.00    -0.207 F 
ATOM     28  H   UNL A   1      32.437  30.550  26.166  1.00  0.00     0.065 H 
BRANCH  15  29
ATOM     29  C   UNL A   1      30.953  23.883  24.142  1.00  0.00    -0.039 C 
ATOM     30  H   UNL A   1      31.682  23.104  24.223  1.00  0.00     0.028 H 
ATOM     31  H   UNL A   1      30.679  24.010  23.115  1.00  0.00     0.028 H 
ATOM     32  H   UNL A   1      30.086  23.622  24.712  1.00  0.00     0.028 H 
ENDBRANCH  15  29
BRANCH  19  33
ATOM     33  C   UNL A   1      29.711  27.974  22.732  1.00  0.00    -0.025 A 
ATOM     34  C   UNL A   1      30.547  28.825  22.001  1.00  0.00    -0.050 A 
ATOM     35  C   UNL A   1      28.452  28.426  23.133  1.00  0.00    -0.050 A 
ATOM     36  C   UNL A   1      30.183  30.160  21.800  1.00  0.00    -0.003 A 
ATOM     37  H   UNL A   1      31.433  28.468  21.608  1.00  0.00     0.063 H 
ATOM     38  C   UNL A   1      28.082  29.755  22.914  1.00  0.00    -0.003 A 
ATOM     39  H   UNL A   1      27.795  27.776  23.592  1.00  0.00     0.063 H 
ATOM     40  C   UNL A   1      28.961  30.644  22.283  1.00  0.00     0.189 A 
ATOM     41  H   UNL A   1      30.819  30.795  21.292  1.00  0.00     0.068 H 
ATOM     42  H   UNL A   1      27.154  30.084  23.221  1.00  0.00     0.068 H 
BRANCH  40  43
ATOM     43  S   UNL A   1      28.648  32.430  22.312  1.00  0.00     0.178 S 
BRANCH  43  44
ATOM     44  C   UNL A   1      27.794  32.590  20.723  1.00  0.00     0.137 C 
ATOM     45  H   UNL A   1      26.990  31.886  20.678  1.00  0.00     0.085 H 
ATOM     46  H   UNL A   1      28.483  32.397  19.928  1.00  0.00     0.085 H 
ATOM     47  H   UNL A   1      27.405  33.583  20.626  1.00  0.00     0.085 H 
ENDBRANCH  43  44
BRANCH  43  48
ATOM     48  O   UNL A   1      27.278  32.328  23.149  1.00  0.00    -0.182 OA
ATOM     49  H   UNL A   1      26.596  32.869  22.720  1.00  0.00     0.283 HD
ENDBRANCH  43  48
ENDBRANCH  40  43
ENDBRANCH  19  33
ENDBRANCH  11  14
ENDBRANCH   8  11
ENDBRANCH   4   7
ENDBRANCH   1   4
BRANCH   1  50
ATOM     50  C   UNL A   1      34.468  21.537  24.319  1.00  0.00    -0.052 C 
ATOM     51  H   UNL A   1      33.948  22.472  24.346  1.00  0.00     0.027 H 
ATOM     52  H   UNL A   1      34.270  20.960  23.440  1.00  0.00     0.027 H 
BRANCH  50  53
ATOM     53  C   UNL A   1      35.973  21.833  24.298  1.00  0.00    -0.052 C 
ATOM     54  H   UNL A   1      36.379  21.417  23.400  1.00  0.00     0.027 H 
ATOM     55  H   UNL A   1      36.373  21.399  25.190  1.00  0.00     0.027 H 
BRANCH  53  56
ATOM     56  C   UNL A   1      36.346  23.316  24.342  1.00  0.00    -0.036 C 
ATOM     57  H   UNL A   1      35.442  23.888  24.349  1.00  0.00     0.028 H 
ATOM     58  H   UNL A   1      36.956  23.499  23.483  1.00  0.00     0.028 H 
BRANCH  56  59
ATOM     59  C   UNL A   1      37.175  23.727  25.553  1.00  0.00     0.018 C 
ATOM     60  H   UNL A   1      36.564  23.651  26.429  1.00  0.00     0.049 H 
ATOM     61  H   UNL A   1      37.510  24.729  25.390  1.00  0.00     0.049 H 
BRANCH  59  62
ATOM     62  N   UNL A   1      38.356  22.894  25.737  1.00  0.00    -0.352 N 
ATOM     63  C   UNL A   1      39.564  23.215  26.308  1.00  0.00     0.251 C 
ATOM     64  H   UNL A   1      38.276  21.971  25.405  1.00  0.00     0.163 HD
ATOM     65  O   UNL A   1      40.507  22.431  26.249  1.00  0.00    -0.269 OA
BRANCH  63  66
ATOM     66  C   UNL A   1      39.739  24.528  26.967  1.00  0.00     0.039 A 
ATOM     67  C   UNL A   1      40.380  25.576  26.304  1.00  0.00    -0.049 A 
ATOM     68  C   UNL A   1      39.281  24.702  28.275  1.00  0.00    -0.049 A 
ATOM     69  C   UNL A   1      40.718  26.728  27.005  1.00  0.00    -0.053 A 
ATOM     70  H   UNL A   1      40.602  25.496  25.300  1.00  0.00     0.063 H 
ATOM     71  C   UNL A   1      39.543  25.899  28.951  1.00  0.00    -0.053 A 
ATOM     72  H   UNL A   1      38.748  23.951  28.742  1.00  0.00     0.063 H 
ATOM     73  C   UNL A   1      40.313  26.900  28.340  1.00  0.00    -0.014 A 
ATOM     74  H   UNL A   1      41.272  27.464  26.540  1.00  0.00     0.063 H 
ATOM     75  H   UNL A   1      39.171  26.046  29.902  1.00  0.00     0.063 H 
BRANCH  73  76
ATOM     76  C   UNL A   1      40.728  28.128  29.070  1.00  0.00     0.031 A 
ATOM     77  C   UNL A   1      39.737  29.226  29.353  1.00  0.00     0.074 A 
ATOM     78  C   UNL A   1      41.984  28.216  29.549  1.00  0.00     0.049 A 
ATOM     79  N   UNL A   1      39.908  30.337  30.027  1.00  0.00    -0.248 NA
ATOM     80  C   UNL A   1      38.380  29.062  28.810  1.00  0.00    -0.034 C 
ATOM     81  C   UNL A   1      43.031  27.214  29.347  1.00  0.00    -0.036 A 
ATOM     82  N   UNL A   1      42.584  29.170  30.332  1.00  0.00    -0.354 N 
ATOM     83  C   UNL A   1      38.691  31.004  29.977  1.00  0.00     0.074 A 
ATOM     84  C   UNL A   1      37.797  30.195  29.179  1.00  0.00    -0.034 C 
ATOM     85  H   UNL A   1      37.983  28.272  28.279  1.00  0.00     0.065 H 
ATOM     86  C   UNL A   1      44.122  27.572  30.039  1.00  0.00    -0.036 A 
ATOM     87  H   UNL A   1      42.944  26.366  28.764  1.00  0.00     0.065 H 
ATOM     88  C   UNL A   1      43.875  28.858  30.684  1.00  0.00     0.049 A 
ATOM     89  H   UNL A   1      42.133  29.999  30.613  1.00  0.00     0.167 HD
ATOM     90  C   UNL A   1      38.346  32.176  30.563  1.00  0.00     0.037 A 
ATOM     91  H   UNL A   1      36.832  30.464  28.930  1.00  0.00     0.065 H 
ATOM     92  H   UNL A   1      44.996  27.027  30.106  1.00  0.00     0.065 H 
ATOM     93  C   UNL A   1      44.763  29.533  31.438  1.00  0.00     0.037 A 
ATOM     94  C   UNL A   1      39.227  32.967  31.382  1.00  0.00     0.049 A 
ATOM     95  C   UNL A   1      44.365  30.853  32.037  1.00  0.00     0.074 A 
ATOM     96  C   UNL A   1      38.955  34.154  32.040  1.00  0.00    -0.036 A 
ATOM     97  N   UNL A   1      40.547  32.649  31.657  1.00  0.00    -0.354 N 
ATOM     98  N   UNL A   1      43.206  31.460  31.996  1.00  0.00    -0.248 NA
ATOM     99  C   UNL A   1      45.403  31.586  32.775  1.00  0.00    -0.034 C 
ATOM    100  C   UNL A   1      40.123  34.577  32.680  1.00  0.00    -0.036 A 
ATOM    101  H   UNL A   1      38.046  34.643  32.056  1.00  0.00     0.065 H 
ATOM    102  C   UNL A   1      41.111  33.631  32.457  1.00  0.00     0.049 A 
ATOM    103  H   UNL A   1      41.015  31.846  31.334  1.00  0.00     0.167 HD
ATOM    104  C   UNL A   1      43.370  32.641  32.708  1.00  0.00     0.074 A 
ATOM    105  C   UNL A   1      44.734  32.652  33.191  1.00  0.00    -0.034 C 
ATOM    106  H   UNL A   1      46.393  31.335  32.930  1.00  0.00     0.065 H 
ATOM    107  H   UNL A   1      40.232  35.446  33.225  1.00  0.00     0.065 H 
ATOM    108  C   UNL A   1      42.471  33.629  32.931  1.00  0.00     0.037 A 
ATOM    109  H   UNL A   1      45.136  33.396  33.784  1.00  0.00     0.065 H 
BRANCH  90 110
ATOM    110  C   UNL A   1      36.950  32.687  30.351  1.00  0.00     0.064 A 
ATOM    111  C   UNL A   1      35.955  32.525  31.326  1.00  0.00     0.173 A 
ATOM    112  C   UNL A   1      36.628  33.421  29.199  1.00  0.00     0.173 A 
ATOM    113  F   UNL A   1      36.211  31.823  32.440  1.00  0.00    -0.203 F 
ATOM    114  C   UNL A   1      34.687  33.072  31.152  1.00  0.00     0.198 A 
ATOM    115  C   UNL A   1      35.366  33.989  29.040  1.00  0.00     0.198 A 
ATOM    116  F   UNL A   1      37.546  33.612  28.239  1.00  0.00    -0.203 F 
ATOM    117  F   UNL A   1      33.744  32.884  32.087  1.00  0.00    -0.200 F 
ATOM    118  C   UNL A   1      34.397  33.812  30.016  1.00  0.00     0.200 A 
ATOM    119  F   UNL A   1      35.092  34.716  27.948  1.00  0.00    -0.200 F 
ATOM    120  F   UNL A   1      33.181  34.355  29.860  1.00  0.00    -0.200 F 
ENDBRANCH  90 110
BRANCH  93 121
ATOM    121  C   UNL A   1      46.115  28.963  31.668  1.00  0.00     0.064 A 
ATOM    122  C   UNL A   1      46.375  28.150  32.780  1.00  0.00     0.173 A 
ATOM    123  C   UNL A   1      47.170  29.200  30.773  1.00  0.00     0.173 A 
ATOM    124  F   UNL A   1      45.405  27.912  33.675  1.00  0.00    -0.203 F 
ATOM    125  C   UNL A   1      47.637  27.601  32.990  1.00  0.00     0.198 A 
ATOM    126  C   UNL A   1      48.424  28.627  30.969  1.00  0.00     0.198 A 
ATOM    127  F   UNL A   1      46.972  29.970  29.692  1.00  0.00    -0.203 F 
ATOM    128  F   UNL A   1      47.868  26.854  34.079  1.00  0.00    -0.200 F 
ATOM    129  C   UNL A   1      48.658  27.832  32.080  1.00  0.00     0.200 A 
ATOM    130  F   UNL A   1      49.401  28.839  30.078  1.00  0.00    -0.200 F 
ATOM    131  F   UNL A   1      49.869  27.292  32.276  1.00  0.00    -0.200 F 
ENDBRANCH  93 121
BRANCH 108 132
ATOM    132  C   UNL A   1      42.925  34.812  33.735  1.00  0.00     0.064 A 
ATOM    133  C   UNL A   1      43.348  35.994  33.112  1.00  0.00     0.173 A 
ATOM    134  C   UNL A   1      42.858  34.790  35.136  1.00  0.00     0.173 A 
ATOM    135  F   UNL A   1      43.442  36.057  31.775  1.00  0.00    -0.203 F 
ATOM    136  C   UNL A   1      43.698  37.112  33.864  1.00  0.00     0.198 A 
ATOM    137  C   UNL A   1      43.183  35.918  35.884  1.00  0.00     0.198 A 
ATOM    138  F   UNL A   1      42.451  33.684  35.777  1.00  0.00    -0.203 F 
ATOM    139  F   UNL A   1      44.126  38.223  33.250  1.00  0.00    -0.200 F 
ATOM    140  C   UNL A   1      43.605  37.076  35.248  1.00  0.00     0.200 A 
ATOM    141  F   UNL A   1      43.078  35.888  37.219  1.00  0.00    -0.200 F 
ATOM    142  F   UNL A   1      43.923  38.160  35.969  1.00  0.00    -0.200 F 
ENDBRANCH 108 132
ENDBRANCH  73  76
ENDBRANCH  63  66
ENDBRANCH  59  62
ENDBRANCH  56  59
ENDBRANCH  53  56
ENDBRANCH  50  53
ENDBRANCH   1  50
TORSDOF 19
ENDMDL
MODEL 4
REMARK VINA RESULT:     -12.6      2.832      4.227
REMARK SMILES CC1=C(CC(=O)NCCCCCCNC(=O)c2ccc(-c3c4nc(c(-c5c(F)c(F)c(F)c(F)c5F)c5ccc([nH]5)c(-c5c(F)c(F)c(F)c(F)c5F)c5nc(c(-c6c(F)c(F)c(F)c(F)c6F)c6ccc3[nH]6)C=C5)C=C4)cc2)c2cc(F)ccc2/C1=C\c1ccc([S@@+](C)O)cc1
REMARK SMILES IDX 9 1 8 4 7 7 5 8 6 9 4 11 3 14 2 15 87 16 80 17 86 18 88 19
REMARK SMILES IDX 81 20 85 21 82 23 84 25 83 27 1 29 89 33 90 34 97 35 91 36
REMARK SMILES IDX 96 38 92 40 93 43 94 44 95 48 10 50 11 53 12 56 13 59 14 62
REMARK SMILES IDX 15 63 16 65 17 66 18 67 79 68 19 69 78 71 20 73 21 76 22 77
REMARK SMILES IDX 72 78 23 79 77 80 71 81 73 82 24 83 76 84 70 86 69 88 25 90
REMARK SMILES IDX 57 93 37 94 56 95 38 96 41 97 55 98 74 99 39 100 40 102
REMARK SMILES IDX 54 104 75 105 42 108 26 110 27 111 35 112 28 113 29 114
REMARK SMILES IDX 33 115 36 116 30 117 31 118 34 119 32 120 58 121 59 122
REMARK SMILES IDX 67 123 60 124 61 125 65 126 68 127 62 128 63 129 66 130
REMARK SMILES IDX 64 131 43 132 44 133 52 134 45 135 46 136 50 137 53 138
REMARK SMILES IDX 47 139 48 140 51 141 49 142
REMARK H PARENT 9 2 9 3 8 5 8 6 7 10 4 12 4 13 88 22 81 24 85 26 84 28 1 30
REMARK H PARENT 1 31 1 32 90 37 97 39 91 41 96 42 94 45 94 46 94 47 95 49
REMARK H PARENT 10 51 10 52 11 54 11 55 12 57 12 58 13 60 13 61 14 64 18 70
REMARK H PARENT 79 72 19 74 78 75 77 85 71 87 73 89 76 91 70 92 38 101 41 103
REMARK H PARENT 74 106 39 107 75 109
REMARK Flexibility Score: inf
ROOT
ATOM      1  C   UNL A   1      33.600  20.578  25.304  1.00  0.00    -0.036 C 
ATOM      2  H   UNL A   1      32.545  20.538  25.134  1.00  0.00     0.028 H 
ATOM      3  H   UNL A   1      34.059  19.612  25.276  1.00  0.00     0.028 H 
ENDROOT
BRANCH   1   4
ATOM      4  C   UNL A   1      33.841  21.141  26.706  1.00  0.00     0.017 C 
ATOM      5  H   UNL A   1      34.077  20.336  27.369  1.00  0.00     0.049 H 
ATOM      6  H   UNL A   1      34.651  21.839  26.655  1.00  0.00     0.049 H 
BRANCH   4   7
ATOM      7  N   UNL A   1      32.672  21.834  27.203  1.00  0.00    -0.356 N 
ATOM      8  C   UNL A   1      32.352  23.155  27.106  1.00  0.00     0.224 C 
ATOM      9  O   UNL A   1      31.339  23.554  27.686  1.00  0.00    -0.275 OA
ATOM     10  H   UNL A   1      32.015  21.272  27.676  1.00  0.00     0.163 HD
BRANCH   8  11
ATOM     11  C   UNL A   1      33.197  24.098  26.252  1.00  0.00     0.053 C 
ATOM     12  H   UNL A   1      33.914  24.573  26.889  1.00  0.00     0.042 H 
ATOM     13  H   UNL A   1      33.648  23.497  25.490  1.00  0.00     0.042 H 
BRANCH  11  14
ATOM     14  C   UNL A   1      32.419  25.163  25.549  1.00  0.00    -0.027 C 
ATOM     15  C   UNL A   1      31.433  25.038  24.628  1.00  0.00    -0.039 C 
ATOM     16  C   UNL A   1      30.977  26.372  24.206  1.00  0.00    -0.014 C 
ATOM     17  C   UNL A   1      32.596  26.599  25.826  1.00  0.00    -0.011 A 
ATOM     18  C   UNL A   1      31.687  27.349  25.056  1.00  0.00    -0.010 A 
ATOM     19  C   UNL A   1      30.117  26.595  23.192  1.00  0.00    -0.047 C 
ATOM     20  C   UNL A   1      33.465  27.229  26.708  1.00  0.00    -0.018 A 
ATOM     21  C   UNL A   1      31.598  28.725  25.219  1.00  0.00    -0.051 A 
ATOM     22  H   UNL A   1      29.745  25.770  22.695  1.00  0.00     0.064 H 
ATOM     23  C   UNL A   1      33.405  28.615  26.818  1.00  0.00     0.123 A 
ATOM     24  H   UNL A   1      34.137  26.682  27.270  1.00  0.00     0.066 H 
ATOM     25  C   UNL A   1      32.479  29.363  26.094  1.00  0.00    -0.026 A 
ATOM     26  H   UNL A   1      30.891  29.269  24.700  1.00  0.00     0.063 H 
ATOM     27  F   UNL A   1      34.245  29.246  27.649  1.00  0.00    -0.207 F 
ATOM     28  H   UNL A   1      32.443  30.388  26.206  1.00  0.00     0.065 H 
BRANCH  15  29
ATOM     29  C   UNL A   1      30.834  23.781  24.087  1.00  0.00    -0.039 C 
ATOM     30  H   UNL A   1      31.582  23.228  23.557  1.00  0.00     0.028 H 
ATOM     31  H   UNL A   1      30.033  24.025  23.421  1.00  0.00     0.028 H 
ATOM     32  H   UNL A   1      30.458  23.187  24.894  1.00  0.00     0.028 H 
ENDBRANCH  15  29
BRANCH  19  33
ATOM     33  C   UNL A   1      29.669  27.914  22.737  1.00  0.00    -0.025 A 
ATOM     34  C   UNL A   1      30.519  28.759  22.015  1.00  0.00    -0.050 A 
ATOM     35  C   UNL A   1      28.420  28.384  23.148  1.00  0.00    -0.050 A 
ATOM     36  C   UNL A   1      30.180  30.103  21.834  1.00  0.00    -0.003 A 
ATOM     37  H   UNL A   1      31.397  28.390  21.616  1.00  0.00     0.063 H 
ATOM     38  C   UNL A   1      28.075  29.723  22.948  1.00  0.00    -0.003 A 
ATOM     39  H   UNL A   1      27.751  27.741  23.599  1.00  0.00     0.063 H 
ATOM     40  C   UNL A   1      28.969  30.603  22.327  1.00  0.00     0.189 A 
ATOM     41  H   UNL A   1      30.827  30.732  21.333  1.00  0.00     0.068 H 
ATOM     42  H   UNL A   1      27.153  30.066  23.261  1.00  0.00     0.068 H 
BRANCH  40  43
ATOM     43  S   UNL A   1      28.691  32.395  22.381  1.00  0.00     0.178 S 
BRANCH  43  44
ATOM     44  C   UNL A   1      27.812  32.589  20.810  1.00  0.00     0.137 C 
ATOM     45  H   UNL A   1      28.018  33.557  20.403  1.00  0.00     0.085 H 
ATOM     46  H   UNL A   1      26.760  32.489  20.976  1.00  0.00     0.085 H 
ATOM     47  H   UNL A   1      28.139  31.837  20.123  1.00  0.00     0.085 H 
ENDBRANCH  43  44
BRANCH  43  48
ATOM     48  O   UNL A   1      27.334  32.309  23.242  1.00  0.00    -0.182 OA
ATOM     49  H   UNL A   1      26.577  32.208  22.643  1.00  0.00     0.283 HD
ENDBRANCH  43  48
ENDBRANCH  40  43
ENDBRANCH  19  33
ENDBRANCH  11  14
ENDBRANCH   8  11
ENDBRANCH   4   7
ENDBRANCH   1   4
BRANCH   1  50
ATOM     50  C   UNL A   1      34.240  21.406  24.182  1.00  0.00    -0.052 C 
ATOM     51  H   UNL A   1      33.690  22.320  24.091  1.00  0.00     0.027 H 
ATOM     52  H   UNL A   1      34.202  20.794  23.305  1.00  0.00     0.027 H 
BRANCH  50  53
ATOM     53  C   UNL A   1      35.718  21.760  24.385  1.00  0.00    -0.052 C 
ATOM     54  H   UNL A   1      36.293  21.186  23.690  1.00  0.00     0.027 H 
ATOM     55  H   UNL A   1      35.937  21.541  25.408  1.00  0.00     0.027 H 
BRANCH  53  56
ATOM     56  C   UNL A   1      36.068  23.235  24.183  1.00  0.00    -0.036 C 
ATOM     57  H   UNL A   1      35.166  23.806  24.258  1.00  0.00     0.028 H 
ATOM     58  H   UNL A   1      36.533  23.306  23.222  1.00  0.00     0.028 H 
BRANCH  56  59
ATOM     59  C   UNL A   1      37.069  23.795  25.187  1.00  0.00     0.018 C 
ATOM     60  H   UNL A   1      36.554  24.007  26.101  1.00  0.00     0.049 H 
ATOM     61  H   UNL A   1      37.497  24.677  24.759  1.00  0.00     0.049 H 
BRANCH  59  62
ATOM     62  N   UNL A   1      38.158  22.872  25.470  1.00  0.00    -0.352 N 
ATOM     63  C   UNL A   1      39.326  23.092  26.163  1.00  0.00     0.251 C 
ATOM     64  H   UNL A   1      38.043  21.961  25.116  1.00  0.00     0.163 HD
ATOM     65  O   UNL A   1      40.208  22.238  26.182  1.00  0.00    -0.269 OA
BRANCH  63  66
ATOM     66  C   UNL A   1      39.534  24.381  26.858  1.00  0.00     0.039 A 
ATOM     67  C   UNL A   1      40.190  25.435  26.220  1.00  0.00    -0.049 A 
ATOM     68  C   UNL A   1      39.091  24.526  28.176  1.00  0.00    -0.049 A 
ATOM     69  C   UNL A   1      40.558  26.559  26.952  1.00  0.00    -0.053 A 
ATOM     70  H   UNL A   1      40.401  25.381  25.212  1.00  0.00     0.063 H 
ATOM     71  C   UNL A   1      39.385  25.696  28.884  1.00  0.00    -0.053 A 
ATOM     72  H   UNL A   1      38.548  23.772  28.625  1.00  0.00     0.063 H 
ATOM     73  C   UNL A   1      40.170  26.700  28.295  1.00  0.00    -0.014 A 
ATOM     74  H   UNL A   1      41.123  27.297  26.503  1.00  0.00     0.063 H 
ATOM     75  H   UNL A   1      39.024  25.822  29.842  1.00  0.00     0.063 H 
BRANCH  73  76
ATOM     76  C   UNL A   1      40.616  27.896  29.057  1.00  0.00     0.031 A 
ATOM     77  C   UNL A   1      42.065  28.078  29.425  1.00  0.00     0.074 A 
ATOM     78  C   UNL A   1      39.723  28.862  29.347  1.00  0.00     0.049 A 
ATOM     79  N   UNL A   1      42.641  29.086  30.033  1.00  0.00    -0.248 NA
ATOM     80  C   UNL A   1      42.989  26.990  29.069  1.00  0.00    -0.034 C 
ATOM     81  C   UNL A   1      38.293  28.804  29.036  1.00  0.00    -0.036 A 
ATOM     82  N   UNL A   1      39.885  30.092  29.934  1.00  0.00    -0.354 N 
ATOM     83  C   UNL A   1      43.984  28.749  30.142  1.00  0.00     0.074 A 
ATOM     84  C   UNL A   1      44.136  27.429  29.571  1.00  0.00    -0.034 C 
ATOM     85  H   UNL A   1      42.797  26.113  28.561  1.00  0.00     0.065 H 
ATOM     86  C   UNL A   1      37.723  29.969  29.375  1.00  0.00    -0.036 A 
ATOM     87  H   UNL A   1      37.803  27.996  28.621  1.00  0.00     0.065 H 
ATOM     88  C   UNL A   1      38.729  30.833  29.984  1.00  0.00     0.049 A 
ATOM     89  H   UNL A   1      40.746  30.412  30.287  1.00  0.00     0.167 HD
ATOM     90  C   UNL A   1      45.000  29.483  30.655  1.00  0.00     0.037 A 
ATOM     91  H   UNL A   1      45.022  26.900  29.555  1.00  0.00     0.065 H 
ATOM     92  H   UNL A   1      36.731  30.215  29.229  1.00  0.00     0.065 H 
ATOM     93  C   UNL A   1      38.502  32.068  30.470  1.00  0.00     0.037 A 
ATOM     94  C   UNL A   1      44.853  30.809  31.197  1.00  0.00     0.049 A 
ATOM     95  C   UNL A   1      39.641  32.840  31.073  1.00  0.00     0.074 A 
ATOM     96  C   UNL A   1      45.832  31.641  31.712  1.00  0.00    -0.036 A 
ATOM     97  N   UNL A   1      43.653  31.496  31.291  1.00  0.00    -0.354 N 
ATOM     98  N   UNL A   1      40.908  32.516  31.151  1.00  0.00    -0.248 NA
ATOM     99  C   UNL A   1      39.317  34.145  31.666  1.00  0.00    -0.034 C 
ATOM    100  C   UNL A   1      45.219  32.815  32.157  1.00  0.00    -0.036 A 
ATOM    101  H   UNL A   1      46.841  31.431  31.760  1.00  0.00     0.065 H 
ATOM    102  C   UNL A   1      43.863  32.734  31.878  1.00  0.00     0.049 A 
ATOM    103  H   UNL A   1      42.781  31.156  30.985  1.00  0.00     0.167 HD
ATOM    104  C   UNL A   1      41.533  33.575  31.794  1.00  0.00     0.074 A 
ATOM    105  C   UNL A   1      40.511  34.565  32.061  1.00  0.00    -0.034 C 
ATOM    106  H   UNL A   1      38.400  34.612  31.752  1.00  0.00     0.065 H 
ATOM    107  H   UNL A   1      45.693  33.608  32.615  1.00  0.00     0.065 H 
ATOM    108  C   UNL A   1      42.836  33.709  32.137  1.00  0.00     0.037 A 
ATOM    109  H   UNL A   1      40.688  35.481  32.503  1.00  0.00     0.065 H 
BRANCH  90 110
ATOM    110  C   UNL A   1      46.375  28.882  30.655  1.00  0.00     0.064 A 
ATOM    111  C   UNL A   1      46.834  28.104  31.729  1.00  0.00     0.173 A 
ATOM    112  C   UNL A   1      47.209  29.011  29.535  1.00  0.00     0.173 A 
ATOM    113  F   UNL A   1      46.078  27.958  32.828  1.00  0.00    -0.203 F 
ATOM    114  C   UNL A   1      48.080  27.485  31.683  1.00  0.00     0.198 A 
ATOM    115  C   UNL A   1      48.444  28.369  29.481  1.00  0.00     0.198 A 
ATOM    116  F   UNL A   1      46.814  29.737  28.477  1.00  0.00    -0.203 F 
ATOM    117  F   UNL A   1      48.508  26.767  32.731  1.00  0.00    -0.200 F 
ATOM    118  C   UNL A   1      48.879  27.609  30.556  1.00  0.00     0.200 A 
ATOM    119  F   UNL A   1      49.208  28.478  28.386  1.00  0.00    -0.200 F 
ATOM    120  F   UNL A   1      50.070  26.996  30.506  1.00  0.00    -0.200 F 
ENDBRANCH  90 110
BRANCH  93 121
ATOM    121  C   UNL A   1      37.136  32.647  30.397  1.00  0.00     0.064 A 
ATOM    122  C   UNL A   1      36.200  32.416  31.414  1.00  0.00     0.173 A 
ATOM    123  C   UNL A   1      36.744  33.460  29.322  1.00  0.00     0.173 A 
ATOM    124  F   UNL A   1      36.521  31.628  32.451  1.00  0.00    -0.203 F 
ATOM    125  C   UNL A   1      34.924  32.970  31.356  1.00  0.00     0.198 A 
ATOM    126  C   UNL A   1      35.478  34.037  29.280  1.00  0.00     0.198 A 
ATOM    127  F   UNL A   1      37.604  33.713  28.324  1.00  0.00    -0.203 F 
ATOM    128  F   UNL A   1      34.036  32.706  32.326  1.00  0.00    -0.200 F 
ATOM    129  C   UNL A   1      34.566  33.788  30.294  1.00  0.00     0.200 A 
ATOM    130  F   UNL A   1      35.144  34.840  28.261  1.00  0.00    -0.200 F 
ATOM    131  F   UNL A   1      33.342  34.332  30.246  1.00  0.00    -0.200 F 
ENDBRANCH  93 121
BRANCH 108 132
ATOM    132  C   UNL A   1      43.242  34.970  32.842  1.00  0.00     0.064 A 
ATOM    133  C   UNL A   1      43.291  35.037  34.242  1.00  0.00     0.173 A 
ATOM    134  C   UNL A   1      43.664  36.091  32.112  1.00  0.00     0.173 A 
ATOM    135  F   UNL A   1      42.885  33.995  34.982  1.00  0.00    -0.203 F 
ATOM    136  C   UNL A   1      43.739  36.186  34.886  1.00  0.00     0.198 A 
ATOM    137  C   UNL A   1      44.136  37.229  32.759  1.00  0.00     0.198 A 
ATOM    138  F   UNL A   1      43.643  36.072  30.770  1.00  0.00    -0.203 F 
ATOM    139  F   UNL A   1      43.751  36.239  36.225  1.00  0.00    -0.200 F 
ATOM    140  C   UNL A   1      44.171  37.277  34.144  1.00  0.00     0.200 A 
ATOM    141  F   UNL A   1      44.568  38.275  32.042  1.00  0.00    -0.200 F 
ATOM    142  F   UNL A   1      44.621  38.375  34.767  1.00  0.00    -0.200 F 
ENDBRANCH 108 132
ENDBRANCH  73  76
ENDBRANCH  63  66
ENDBRANCH  59  62
ENDBRANCH  56  59
ENDBRANCH  53  56
ENDBRANCH  50  53
ENDBRANCH   1  50
TORSDOF 19
ENDMDL
MODEL 5
REMARK VINA RESULT:     -12.5      1.431      7.258
REMARK SMILES CC1=C(CC(=O)NCCCCCCNC(=O)c2ccc(-c3c4nc(c(-c5c(F)c(F)c(F)c(F)c5F)c5ccc([nH]5)c(-c5c(F)c(F)c(F)c(F)c5F)c5nc(c(-c6c(F)c(F)c(F)c(F)c6F)c6ccc3[nH]6)C=C5)C=C4)cc2)c2cc(F)ccc2/C1=C\c1ccc([S@@+](C)O)cc1
REMARK SMILES IDX 9 1 8 4 7 7 5 8 6 9 4 11 3 14 2 15 87 16 80 17 86 18 88 19
REMARK SMILES IDX 81 20 85 21 82 23 84 25 83 27 1 29 89 33 90 34 97 35 91 36
REMARK SMILES IDX 96 38 92 40 93 43 94 44 95 48 10 50 11 53 12 56 13 59 14 62
REMARK SMILES IDX 15 63 16 65 17 66 18 67 79 68 19 69 78 71 20 73 21 76 22 77
REMARK SMILES IDX 72 78 23 79 77 80 71 81 73 82 24 83 76 84 70 86 69 88 25 90
REMARK SMILES IDX 57 93 37 94 56 95 38 96 41 97 55 98 74 99 39 100 40 102
REMARK SMILES IDX 54 104 75 105 42 108 26 110 27 111 35 112 28 113 29 114
REMARK SMILES IDX 33 115 36 116 30 117 31 118 34 119 32 120 58 121 59 122
REMARK SMILES IDX 67 123 60 124 61 125 65 126 68 127 62 128 63 129 66 130
REMARK SMILES IDX 64 131 43 132 44 133 52 134 45 135 46 136 50 137 53 138
REMARK SMILES IDX 47 139 48 140 51 141 49 142
REMARK H PARENT 9 2 9 3 8 5 8 6 7 10 4 12 4 13 88 22 81 24 85 26 84 28 1 30
REMARK H PARENT 1 31 1 32 90 37 97 39 91 41 96 42 94 45 94 46 94 47 95 49
REMARK H PARENT 10 51 10 52 11 54 11 55 12 57 12 58 13 60 13 61 14 64 18 70
REMARK H PARENT 79 72 19 74 78 75 77 85 71 87 73 89 76 91 70 92 38 101 41 103
REMARK H PARENT 74 106 39 107 75 109
REMARK Flexibility Score: inf
ROOT
ATOM      1  C   UNL A   1      37.545  22.939  25.387  1.00  0.00    -0.036 C 
ATOM      2  H   UNL A   1      38.125  22.519  26.181  1.00  0.00     0.028 H 
ATOM      3  H   UNL A   1      38.079  23.684  24.836  1.00  0.00     0.028 H 
ENDROOT
BRANCH   1   4
ATOM      4  C   UNL A   1      36.325  23.630  25.997  1.00  0.00     0.017 C 
ATOM      5  H   UNL A   1      36.651  24.481  26.558  1.00  0.00     0.049 H 
ATOM      6  H   UNL A   1      35.673  23.928  25.202  1.00  0.00     0.049 H 
BRANCH   4   7
ATOM      7  N   UNL A   1      35.597  22.739  26.874  1.00  0.00    -0.356 N 
ATOM      8  C   UNL A   1      34.417  22.095  26.655  1.00  0.00     0.224 C 
ATOM      9  O   UNL A   1      33.925  21.447  27.583  1.00  0.00    -0.275 OA
ATOM     10  H   UNL A   1      36.014  22.573  27.752  1.00  0.00     0.163 HD
BRANCH   8  11
ATOM     11  C   UNL A   1      33.757  22.130  25.278  1.00  0.00     0.053 C 
ATOM     12  H   UNL A   1      34.526  22.047  24.537  1.00  0.00     0.042 H 
ATOM     13  H   UNL A   1      33.063  21.316  25.252  1.00  0.00     0.042 H 
BRANCH  11  14
ATOM     14  C   UNL A   1      32.971  23.370  24.999  1.00  0.00    -0.027 C 
ATOM     15  C   UNL A   1      33.225  24.367  24.118  1.00  0.00    -0.039 C 
ATOM     16  C   UNL A   1      32.172  25.391  24.210  1.00  0.00    -0.014 C 
ATOM     17  C   UNL A   1      31.686  23.668  25.656  1.00  0.00    -0.011 A 
ATOM     18  C   UNL A   1      31.158  24.869  25.148  1.00  0.00    -0.010 A 
ATOM     19  C   UNL A   1      32.214  26.583  23.579  1.00  0.00    -0.047 C 
ATOM     20  C   UNL A   1      30.993  22.938  26.614  1.00  0.00    -0.018 A 
ATOM     21  C   UNL A   1      29.902  25.308  25.547  1.00  0.00    -0.051 A 
ATOM     22  H   UNL A   1      33.032  26.774  22.980  1.00  0.00     0.064 H 
ATOM     23  C   UNL A   1      29.762  23.420  27.048  1.00  0.00     0.123 A 
ATOM     24  H   UNL A   1      31.381  22.059  26.993  1.00  0.00     0.066 H 
ATOM     25  C   UNL A   1      29.208  24.585  26.519  1.00  0.00    -0.026 A 
ATOM     26  H   UNL A   1      29.487  26.156  25.130  1.00  0.00     0.063 H 
ATOM     27  F   UNL A   1      29.082  22.743  27.983  1.00  0.00    -0.207 F 
ATOM     28  H   UNL A   1      28.286  24.913  26.845  1.00  0.00     0.065 H 
BRANCH  15  29
ATOM     29  C   UNL A   1      34.363  24.476  23.155  1.00  0.00    -0.039 C 
ATOM     30  H   UNL A   1      34.447  23.566  22.597  1.00  0.00     0.028 H 
ATOM     31  H   UNL A   1      35.271  24.648  23.694  1.00  0.00     0.028 H 
ATOM     32  H   UNL A   1      34.187  25.290  22.484  1.00  0.00     0.028 H 
ENDBRANCH  15  29
BRANCH  19  33
ATOM     33  C   UNL A   1      31.192  27.627  23.677  1.00  0.00    -0.025 A 
ATOM     34  C   UNL A   1      30.027  27.576  22.903  1.00  0.00    -0.050 A 
ATOM     35  C   UNL A   1      31.449  28.757  24.456  1.00  0.00    -0.050 A 
ATOM     36  C   UNL A   1      29.205  28.703  22.800  1.00  0.00    -0.003 A 
ATOM     37  H   UNL A   1      29.774  26.706  22.407  1.00  0.00     0.063 H 
ATOM     38  C   UNL A   1      30.616  29.875  24.367  1.00  0.00    -0.003 A 
ATOM     39  H   UNL A   1      32.257  28.766  25.099  1.00  0.00     0.063 H 
ATOM     40  C   UNL A   1      29.511  29.872  23.507  1.00  0.00     0.189 A 
ATOM     41  H   UNL A   1      28.367  28.673  22.198  1.00  0.00     0.068 H 
ATOM     42  H   UNL A   1      30.816  30.709  24.940  1.00  0.00     0.068 H 
BRANCH  40  43
ATOM     43  S   UNL A   1      28.641  31.414  23.114  1.00  0.00     0.178 S 
BRANCH  43  44
ATOM     44  C   UNL A   1      28.242  31.076  21.381  1.00  0.00     0.137 C 
ATOM     45  H   UNL A   1      29.116  30.722  20.876  1.00  0.00     0.085 H 
ATOM     46  H   UNL A   1      27.899  31.975  20.913  1.00  0.00     0.085 H 
ATOM     47  H   UNL A   1      27.475  30.331  21.330  1.00  0.00     0.085 H 
ENDBRANCH  43  44
BRANCH  43  48
ATOM     48  O   UNL A   1      27.205  30.914  23.644  1.00  0.00    -0.182 OA
ATOM     49  H   UNL A   1      26.885  30.194  23.078  1.00  0.00     0.283 HD
ENDBRANCH  43  48
ENDBRANCH  40  43
ENDBRANCH  19  33
ENDBRANCH  11  14
ENDBRANCH   8  11
ENDBRANCH   4   7
ENDBRANCH   1   4
BRANCH   1  50
ATOM     50  C   UNL A   1      37.197  21.818  24.399  1.00  0.00    -0.052 C 
ATOM     51  H   UNL A   1      37.932  21.823  23.621  1.00  0.00     0.027 H 
ATOM     52  H   UNL A   1      36.206  22.027  24.053  1.00  0.00     0.027 H 
BRANCH  50  53
ATOM     53  C   UNL A   1      37.146  20.407  24.995  1.00  0.00    -0.052 C 
ATOM     54  H   UNL A   1      36.358  19.871  24.509  1.00  0.00     0.027 H 
ATOM     55  H   UNL A   1      36.994  20.534  26.046  1.00  0.00     0.027 H 
BRANCH  53  56
ATOM     56  C   UNL A   1      38.431  19.590  24.847  1.00  0.00    -0.036 C 
ATOM     57  H   UNL A   1      38.839  19.781  23.876  1.00  0.00     0.028 H 
ATOM     58  H   UNL A   1      38.157  18.567  24.996  1.00  0.00     0.028 H 
BRANCH  56  59
ATOM     59  C   UNL A   1      39.506  19.903  25.881  1.00  0.00     0.018 C 
ATOM     60  H   UNL A   1      39.040  20.012  26.838  1.00  0.00     0.049 H 
ATOM     61  H   UNL A   1      39.996  20.804  25.575  1.00  0.00     0.049 H 
BRANCH  59  62
ATOM     62  N   UNL A   1      40.519  18.862  25.974  1.00  0.00    -0.352 N 
ATOM     63  C   UNL A   1      41.880  18.985  26.127  1.00  0.00     0.251 C 
ATOM     64  H   UNL A   1      40.182  17.939  25.918  1.00  0.00     0.163 HD
ATOM     65  O   UNL A   1      42.607  18.000  26.038  1.00  0.00    -0.269 OA
BRANCH  63  66
ATOM     66  C   UNL A   1      42.474  20.319  26.365  1.00  0.00     0.039 A 
ATOM     67  C   UNL A   1      42.390  20.922  27.621  1.00  0.00    -0.049 A 
ATOM     68  C   UNL A   1      43.098  20.986  25.307  1.00  0.00    -0.049 A 
ATOM     69  C   UNL A   1      42.766  22.252  27.772  1.00  0.00    -0.053 A 
ATOM     70  H   UNL A   1      42.048  20.384  28.432  1.00  0.00     0.063 H 
ATOM     71  C   UNL A   1      43.560  22.295  25.486  1.00  0.00    -0.053 A 
ATOM     72  H   UNL A   1      43.221  20.515  24.397  1.00  0.00     0.063 H 
ATOM     73  C   UNL A   1      43.347  22.959  26.704  1.00  0.00    -0.014 A 
ATOM     74  H   UNL A   1      42.618  22.724  28.677  1.00  0.00     0.063 H 
ATOM     75  H   UNL A   1      44.057  22.775  24.720  1.00  0.00     0.063 H 
BRANCH  73  76
ATOM     76  C   UNL A   1      43.701  24.391  26.891  1.00  0.00     0.031 A 
ATOM     77  C   UNL A   1      42.698  25.364  27.453  1.00  0.00     0.074 A 
ATOM     78  C   UNL A   1      44.958  24.798  26.628  1.00  0.00     0.049 A 
ATOM     79  N   UNL A   1      42.853  26.633  27.740  1.00  0.00    -0.248 NA
ATOM     80  C   UNL A   1      41.347  24.852  27.728  1.00  0.00    -0.034 C 
ATOM     81  C   UNL A   1      46.019  23.947  26.087  1.00  0.00    -0.036 A 
ATOM     82  N   UNL A   1      45.567  26.013  26.810  1.00  0.00    -0.354 N 
ATOM     83  C   UNL A   1      41.623  27.070  28.214  1.00  0.00     0.074 A 
ATOM     84  C   UNL A   1      40.719  25.944  28.146  1.00  0.00    -0.034 C 
ATOM     85  H   UNL A   1      40.981  23.893  27.625  1.00  0.00     0.065 H 
ATOM     86  C   UNL A   1      47.162  24.646  26.042  1.00  0.00    -0.036 A 
ATOM     87  H   UNL A   1      45.906  22.965  25.789  1.00  0.00     0.065 H 
ATOM     88  C   UNL A   1      46.904  26.010  26.490  1.00  0.00     0.049 A 
ATOM     89  H   UNL A   1      45.093  26.811  27.137  1.00  0.00     0.167 HD
ATOM     90  C   UNL A   1      41.285  28.296  28.682  1.00  0.00     0.037 A 
ATOM     91  H   UNL A   1      39.718  25.984  28.391  1.00  0.00     0.065 H 
ATOM     92  H   UNL A   1      48.078  24.278  25.739  1.00  0.00     0.065 H 
ATOM     93  C   UNL A   1      47.818  26.997  26.546  1.00  0.00     0.037 A 
ATOM     94  C   UNL A   1      42.193  29.409  28.777  1.00  0.00     0.049 A 
ATOM     95  C   UNL A   1      47.402  28.358  27.028  1.00  0.00     0.074 A 
ATOM     96  C   UNL A   1      41.946  30.680  29.266  1.00  0.00    -0.036 A 
ATOM     97  N   UNL A   1      43.520  29.383  28.379  1.00  0.00    -0.354 N 
ATOM     98  N   UNL A   1      46.241  28.749  27.490  1.00  0.00    -0.248 NA
ATOM     99  C   UNL A   1      48.420  29.417  26.984  1.00  0.00    -0.034 C 
ATOM    100  C   UNL A   1      43.112  31.437  29.125  1.00  0.00    -0.036 A 
ATOM    101  H   UNL A   1      41.055  31.013  29.666  1.00  0.00     0.065 H 
ATOM    102  C   UNL A   1      44.099  30.624  28.589  1.00  0.00     0.049 A 
ATOM    103  H   UNL A   1      43.983  28.600  28.003  1.00  0.00     0.167 HD
ATOM    104  C   UNL A   1      46.388  30.095  27.800  1.00  0.00     0.074 A 
ATOM    105  C   UNL A   1      47.760  30.446  27.496  1.00  0.00    -0.034 C 
ATOM    106  H   UNL A   1      49.394  29.371  26.644  1.00  0.00     0.065 H 
ATOM    107  H   UNL A   1      43.221  32.431  29.376  1.00  0.00     0.065 H 
ATOM    108  C   UNL A   1      45.466  30.960  28.283  1.00  0.00     0.037 A 
ATOM    109  H   UNL A   1      48.171  31.379  27.658  1.00  0.00     0.065 H 
BRANCH  90 110
ATOM    110  C   UNL A   1      39.872  28.511  29.139  1.00  0.00     0.064 A 
ATOM    111  C   UNL A   1      39.486  28.270  30.466  1.00  0.00     0.173 A 
ATOM    112  C   UNL A   1      38.914  29.048  28.265  1.00  0.00     0.173 A 
ATOM    113  F   UNL A   1      40.362  27.748  31.339  1.00  0.00    -0.203 F 
ATOM    114  C   UNL A   1      38.193  28.549  30.898  1.00  0.00     0.198 A 
ATOM    115  C   UNL A   1      37.628  29.350  28.706  1.00  0.00     0.198 A 
ATOM    116  F   UNL A   1      39.234  29.305  26.987  1.00  0.00    -0.203 F 
ATOM    117  F   UNL A   1      37.840  28.287  32.164  1.00  0.00    -0.200 F 
ATOM    118  C   UNL A   1      37.269  29.098  30.021  1.00  0.00     0.200 A 
ATOM    119  F   UNL A   1      36.742  29.894  27.862  1.00  0.00    -0.200 F 
ATOM    120  F   UNL A   1      36.029  29.385  30.445  1.00  0.00    -0.200 F 
ENDBRANCH  90 110
BRANCH  93 121
ATOM    121  C   UNL A   1      49.220  26.723  26.137  1.00  0.00     0.064 A 
ATOM    122  C   UNL A   1      50.152  26.215  27.052  1.00  0.00     0.173 A 
ATOM    123  C   UNL A   1      49.652  26.942  24.820  1.00  0.00     0.173 A 
ATOM    124  F   UNL A   1      49.793  26.010  28.329  1.00  0.00    -0.203 F 
ATOM    125  C   UNL A   1      51.463  25.944  26.668  1.00  0.00     0.198 A 
ATOM    126  C   UNL A   1      50.955  26.643  24.430  1.00  0.00     0.198 A 
ATOM    127  F   UNL A   1      48.798  27.426  23.905  1.00  0.00    -0.203 F 
ATOM    128  F   UNL A   1      52.344  25.490  27.571  1.00  0.00    -0.200 F 
ATOM    129  C   UNL A   1      51.861  26.149  25.355  1.00  0.00     0.200 A 
ATOM    130  F   UNL A   1      51.329  26.826  23.157  1.00  0.00    -0.200 F 
ATOM    131  F   UNL A   1      53.119  25.874  24.983  1.00  0.00    -0.200 F 
ENDBRANCH  93 121
BRANCH 108 132
ATOM    132  C   UNL A   1      45.899  32.377  28.519  1.00  0.00     0.064 A 
ATOM    133  C   UNL A   1      46.511  32.760  29.721  1.00  0.00     0.173 A 
ATOM    134  C   UNL A   1      45.776  33.338  27.504  1.00  0.00     0.173 A 
ATOM    135  F   UNL A   1      46.638  31.879  30.724  1.00  0.00    -0.203 F 
ATOM    136  C   UNL A   1      46.977  34.059  29.902  1.00  0.00     0.198 A 
ATOM    137  C   UNL A   1      46.267  34.629  27.680  1.00  0.00     0.198 A 
ATOM    138  F   UNL A   1      45.205  33.017  26.333  1.00  0.00    -0.203 F 
ATOM    139  F   UNL A   1      47.534  34.411  31.068  1.00  0.00    -0.200 F 
ATOM    140  C   UNL A   1      46.864  34.988  28.878  1.00  0.00     0.200 A 
ATOM    141  F   UNL A   1      46.171  35.521  26.685  1.00  0.00    -0.200 F 
ATOM    142  F   UNL A   1      47.331  36.233  29.048  1.00  0.00    -0.200 F 
ENDBRANCH 108 132
ENDBRANCH  73  76
ENDBRANCH  63  66
ENDBRANCH  59  62
ENDBRANCH  56  59
ENDBRANCH  53  56
ENDBRANCH  50  53
ENDBRANCH   1  50
TORSDOF 19
ENDMDL
MODEL 6
REMARK VINA RESULT:     -12.4      1.378      2.157
REMARK SMILES CC1=C(CC(=O)NCCCCCCNC(=O)c2ccc(-c3c4nc(c(-c5c(F)c(F)c(F)c(F)c5F)c5ccc([nH]5)c(-c5c(F)c(F)c(F)c(F)c5F)c5nc(c(-c6c(F)c(F)c(F)c(F)c6F)c6ccc3[nH]6)C=C5)C=C4)cc2)c2cc(F)ccc2/C1=C\c1ccc([S@@+](C)O)cc1
REMARK SMILES IDX 9 1 8 4 7 7 5 8 6 9 4 11 3 14 2 15 87 16 80 17 86 18 88 19
REMARK SMILES IDX 81 20 85 21 82 23 84 25 83 27 1 29 89 33 90 34 97 35 91 36
REMARK SMILES IDX 96 38 92 40 93 43 94 44 95 48 10 50 11 53 12 56 13 59 14 62
REMARK SMILES IDX 15 63 16 65 17 66 18 67 79 68 19 69 78 71 20 73 21 76 22 77
REMARK SMILES IDX 72 78 23 79 77 80 71 81 73 82 24 83 76 84 70 86 69 88 25 90
REMARK SMILES IDX 57 93 37 94 56 95 38 96 41 97 55 98 74 99 39 100 40 102
REMARK SMILES IDX 54 104 75 105 42 108 26 110 27 111 35 112 28 113 29 114
REMARK SMILES IDX 33 115 36 116 30 117 31 118 34 119 32 120 58 121 59 122
REMARK SMILES IDX 67 123 60 124 61 125 65 126 68 127 62 128 63 129 66 130
REMARK SMILES IDX 64 131 43 132 44 133 52 134 45 135 46 136 50 137 53 138
REMARK SMILES IDX 47 139 48 140 51 141 49 142
REMARK H PARENT 9 2 9 3 8 5 8 6 7 10 4 12 4 13 88 22 81 24 85 26 84 28 1 30
REMARK H PARENT 1 31 1 32 90 37 97 39 91 41 96 42 94 45 94 46 94 47 95 49
REMARK H PARENT 10 51 10 52 11 54 11 55 12 57 12 58 13 60 13 61 14 64 18 70
REMARK H PARENT 79 72 19 74 78 75 77 85 71 87 73 89 76 91 70 92 38 101 41 103
REMARK H PARENT 74 106 39 107 75 109
REMARK Flexibility Score: inf
ROOT
ATOM      1  C   UNL A   1      36.887  23.429  24.999  1.00  0.00    -0.036 C 
ATOM      2  H   UNL A   1      37.557  24.237  24.794  1.00  0.00     0.028 H 
ATOM      3  H   UNL A   1      36.317  23.139  24.141  1.00  0.00     0.028 H 
ENDROOT
BRANCH   1   4
ATOM      4  C   UNL A   1      35.886  23.891  26.059  1.00  0.00     0.017 C 
ATOM      5  H   UNL A   1      36.398  24.490  26.784  1.00  0.00     0.049 H 
ATOM      6  H   UNL A   1      35.119  24.458  25.574  1.00  0.00     0.049 H 
BRANCH   4   7
ATOM      7  N   UNL A   1      35.269  22.766  26.728  1.00  0.00    -0.356 N 
ATOM      8  C   UNL A   1      34.225  21.993  26.319  1.00  0.00     0.224 C 
ATOM      9  O   UNL A   1      33.797  21.134  27.094  1.00  0.00    -0.275 OA
ATOM     10  H   UNL A   1      35.659  22.525  27.600  1.00  0.00     0.163 HD
BRANCH   8  11
ATOM     11  C   UNL A   1      33.644  22.152  24.915  1.00  0.00     0.053 C 
ATOM     12  H   UNL A   1      34.453  22.137  24.215  1.00  0.00     0.042 H 
ATOM     13  H   UNL A   1      32.956  21.344  24.777  1.00  0.00     0.042 H 
BRANCH  11  14
ATOM     14  C   UNL A   1      32.868  23.412  24.705  1.00  0.00    -0.027 C 
ATOM     15  C   UNL A   1      33.088  24.418  23.825  1.00  0.00    -0.039 C 
ATOM     16  C   UNL A   1      32.065  25.462  23.999  1.00  0.00    -0.014 C 
ATOM     17  C   UNL A   1      31.633  23.725  25.446  1.00  0.00    -0.011 A 
ATOM     18  C   UNL A   1      31.100  24.945  24.990  1.00  0.00    -0.010 A 
ATOM     19  C   UNL A   1      32.093  26.663  23.385  1.00  0.00    -0.047 C 
ATOM     20  C   UNL A   1      30.985  22.994  26.433  1.00  0.00    -0.018 A 
ATOM     21  C   UNL A   1      29.881  25.403  25.473  1.00  0.00    -0.051 A 
ATOM     22  H   UNL A   1      32.876  26.848  22.739  1.00  0.00     0.064 H 
ATOM     23  C   UNL A   1      29.794  23.493  26.950  1.00  0.00     0.123 A 
ATOM     24  H   UNL A   1      31.377  22.101  26.774  1.00  0.00     0.066 H 
ATOM     25  C   UNL A   1      29.233  24.677  26.475  1.00  0.00    -0.026 A 
ATOM     26  H   UNL A   1      29.459  26.266  25.096  1.00  0.00     0.063 H 
ATOM     27  F   UNL A   1      29.159  22.815  27.916  1.00  0.00    -0.207 F 
ATOM     28  H   UNL A   1      28.340  25.018  26.863  1.00  0.00     0.065 H 
BRANCH  15  29
ATOM     29  C   UNL A   1      34.166  24.521  22.796  1.00  0.00    -0.039 C 
ATOM     30  H   UNL A   1      33.731  24.747  21.844  1.00  0.00     0.028 H 
ATOM     31  H   UNL A   1      34.691  23.590  22.735  1.00  0.00     0.028 H 
ATOM     32  H   UNL A   1      34.849  25.297  23.069  1.00  0.00     0.028 H 
ENDBRANCH  15  29
BRANCH  19  33
ATOM     33  C   UNL A   1      31.101  27.726  23.562  1.00  0.00    -0.025 A 
ATOM     34  C   UNL A   1      29.931  27.761  22.795  1.00  0.00    -0.050 A 
ATOM     35  C   UNL A   1      31.394  28.792  24.416  1.00  0.00    -0.050 A 
ATOM     36  C   UNL A   1      29.140  28.914  22.777  1.00  0.00    -0.003 A 
ATOM     37  H   UNL A   1      29.650  26.934  22.243  1.00  0.00     0.063 H 
ATOM     38  C   UNL A   1      30.592  29.936  24.410  1.00  0.00    -0.003 A 
ATOM     39  H   UNL A   1      32.205  28.734  25.051  1.00  0.00     0.063 H 
ATOM     40  C   UNL A   1      29.482  30.023  23.561  1.00  0.00     0.189 A 
ATOM     41  H   UNL A   1      28.298  28.949  22.181  1.00  0.00     0.068 H 
ATOM     42  H   UNL A   1      30.819  30.723  25.037  1.00  0.00     0.068 H 
BRANCH  40  43
ATOM     43  S   UNL A   1      28.654  31.612  23.281  1.00  0.00     0.178 S 
BRANCH  43  44
ATOM     44  C   UNL A   1      28.215  31.396  21.538  1.00  0.00     0.137 C 
ATOM     45  H   UNL A   1      29.057  31.011  21.003  1.00  0.00     0.085 H 
ATOM     46  H   UNL A   1      27.930  32.340  21.123  1.00  0.00     0.085 H 
ATOM     47  H   UNL A   1      27.398  30.709  21.459  1.00  0.00     0.085 H 
ENDBRANCH  43  44
BRANCH  43  48
ATOM     48  O   UNL A   1      27.213  31.123  23.806  1.00  0.00    -0.182 OA
ATOM     49  H   UNL A   1      27.276  30.205  24.113  1.00  0.00     0.283 HD
ENDBRANCH  43  48
ENDBRANCH  40  43
ENDBRANCH  19  33
ENDBRANCH  11  14
ENDBRANCH   8  11
ENDBRANCH   4   7
ENDBRANCH   1   4
BRANCH   1  50
ATOM     50  C   UNL A   1      37.716  22.207  25.416  1.00  0.00    -0.052 C 
ATOM     51  H   UNL A   1      37.527  22.017  26.451  1.00  0.00     0.027 H 
ATOM     52  H   UNL A   1      38.736  22.457  25.205  1.00  0.00     0.027 H 
BRANCH  50  53
ATOM     53  C   UNL A   1      37.428  20.919  24.636  1.00  0.00    -0.052 C 
ATOM     54  H   UNL A   1      37.611  21.111  23.600  1.00  0.00     0.027 H 
ATOM     55  H   UNL A   1      36.412  20.663  24.851  1.00  0.00     0.027 H 
BRANCH  53  56
ATOM     56  C   UNL A   1      38.266  19.707  25.047  1.00  0.00    -0.036 C 
ATOM     57  H   UNL A   1      38.617  19.227  24.157  1.00  0.00     0.028 H 
ATOM     58  H   UNL A   1      37.628  19.085  25.639  1.00  0.00     0.028 H 
BRANCH  56  59
ATOM     59  C   UNL A   1      39.474  20.035  25.916  1.00  0.00     0.018 C 
ATOM     60  H   UNL A   1      39.144  20.168  26.926  1.00  0.00     0.049 H 
ATOM     61  H   UNL A   1      39.921  20.925  25.525  1.00  0.00     0.049 H 
BRANCH  59  62
ATOM     62  N   UNL A   1      40.486  18.989  25.892  1.00  0.00    -0.352 N 
ATOM     63  C   UNL A   1      41.848  19.093  26.046  1.00  0.00     0.251 C 
ATOM     64  H   UNL A   1      40.147  18.077  25.744  1.00  0.00     0.163 HD
ATOM     65  O   UNL A   1      42.573  18.122  25.849  1.00  0.00    -0.269 OA
BRANCH  63  66
ATOM     66  C   UNL A   1      42.447  20.395  26.415  1.00  0.00     0.039 A 
ATOM     67  C   UNL A   1      42.376  20.864  27.728  1.00  0.00    -0.049 A 
ATOM     68  C   UNL A   1      43.062  21.169  25.427  1.00  0.00    -0.049 A 
ATOM     69  C   UNL A   1      42.756  22.171  28.013  1.00  0.00    -0.053 A 
ATOM     70  H   UNL A   1      42.042  20.245  28.482  1.00  0.00     0.063 H 
ATOM     71  C   UNL A   1      43.526  22.452  25.737  1.00  0.00    -0.053 A 
ATOM     72  H   UNL A   1      43.174  20.795  24.471  1.00  0.00     0.063 H 
ATOM     73  C   UNL A   1      43.327  22.985  27.019  1.00  0.00    -0.014 A 
ATOM     74  H   UNL A   1      42.618  22.546  28.964  1.00  0.00     0.063 H 
ATOM     75  H   UNL A   1      44.017  23.009  25.020  1.00  0.00     0.063 H 
BRANCH  73  76
ATOM     76  C   UNL A   1      43.685  24.389  27.351  1.00  0.00     0.031 A 
ATOM     77  C   UNL A   1      45.061  24.924  27.053  1.00  0.00     0.074 A 
ATOM     78  C   UNL A   1      42.739  25.209  27.849  1.00  0.00     0.049 A 
ATOM     79  N   UNL A   1      45.527  26.137  27.219  1.00  0.00    -0.248 NA
ATOM     80  C   UNL A   1      46.043  23.979  26.501  1.00  0.00    -0.034 C 
ATOM     81  C   UNL A   1      41.368  24.810  28.173  1.00  0.00    -0.036 A 
ATOM     82  N   UNL A   1      42.771  26.550  28.138  1.00  0.00    -0.354 N 
ATOM     83  C   UNL A   1      46.853  26.096  26.805  1.00  0.00     0.074 A 
ATOM     84  C   UNL A   1      47.131  24.732  26.413  1.00  0.00    -0.034 C 
ATOM     85  H   UNL A   1      45.919  22.986  26.247  1.00  0.00     0.065 H 
ATOM     86  C   UNL A   1      40.674  25.892  28.553  1.00  0.00    -0.036 A 
ATOM     87  H   UNL A   1      40.996  23.849  28.117  1.00  0.00     0.065 H 
ATOM     88  C   UNL A   1      41.562  27.049  28.560  1.00  0.00     0.049 A 
ATOM     89  H   UNL A   1      43.581  27.102  28.051  1.00  0.00     0.167 HD
ATOM     90  C   UNL A   1      47.749  27.109  26.741  1.00  0.00     0.037 A 
ATOM     91  H   UNL A   1      48.054  24.391  26.103  1.00  0.00     0.065 H 
ATOM     92  H   UNL A   1      39.671  25.904  28.800  1.00  0.00     0.065 H 
ATOM     93  C   UNL A   1      41.209  28.298  28.919  1.00  0.00     0.037 A 
ATOM     94  C   UNL A   1      47.464  28.473  27.104  1.00  0.00     0.049 A 
ATOM     95  C   UNL A   1      42.238  29.392  28.879  1.00  0.00     0.074 A 
ATOM     96  C   UNL A   1      48.302  29.573  27.043  1.00  0.00    -0.036 A 
ATOM     97  N   UNL A   1      46.247  28.922  27.592  1.00  0.00    -0.354 N 
ATOM     98  N   UNL A   1      43.480  29.341  28.468  1.00  0.00    -0.248 NA
ATOM     99  C   UNL A   1      41.819  30.714  29.366  1.00  0.00    -0.034 C 
ATOM    100  C   UNL A   1      47.606  30.680  27.534  1.00  0.00    -0.036 A 
ATOM    101  H   UNL A   1      49.273  29.575  26.695  1.00  0.00     0.065 H 
ATOM    102  C   UNL A   1      46.319  30.280  27.859  1.00  0.00     0.049 A 
ATOM    103  H   UNL A   1      45.449  28.361  27.728  1.00  0.00     0.167 HD
ATOM    104  C   UNL A   1      43.990  30.621  28.637  1.00  0.00     0.074 A 
ATOM    105  C   UNL A   1      42.915  31.434  29.165  1.00  0.00    -0.034 C 
ATOM    106  H   UNL A   1      40.911  31.006  29.759  1.00  0.00     0.065 H 
ATOM    107  H   UNL A   1      47.985  31.634  27.638  1.00  0.00     0.065 H 
ATOM    108  C   UNL A   1      45.240  31.077  28.384  1.00  0.00     0.037 A 
ATOM    109  H   UNL A   1      42.990  32.445  29.360  1.00  0.00     0.065 H 
BRANCH  90 110
ATOM    110  C   UNL A   1      49.133  26.796  26.252  1.00  0.00     0.064 A 
ATOM    111  C   UNL A   1      50.096  26.222  27.096  1.00  0.00     0.173 A 
ATOM    112  C   UNL A   1      49.475  26.991  24.905  1.00  0.00     0.173 A 
ATOM    113  F   UNL A   1      49.822  26.025  28.395  1.00  0.00    -0.203 F 
ATOM    114  C   UNL A   1      51.350  25.864  26.611  1.00  0.00     0.198 A 
ATOM    115  C   UNL A   1      50.721  26.607  24.418  1.00  0.00     0.198 A 
ATOM    116  F   UNL A   1      48.588  27.529  24.053  1.00  0.00    -0.203 F 
ATOM    117  F   UNL A   1      52.263  25.339  27.442  1.00  0.00    -0.200 F 
ATOM    118  C   UNL A   1      51.658  26.046  25.272  1.00  0.00     0.200 A 
ATOM    119  F   UNL A   1      51.011  26.770  23.119  1.00  0.00    -0.200 F 
ATOM    120  F   UNL A   1      52.860  25.681  24.802  1.00  0.00    -0.200 F 
ENDBRANCH  90 110
BRANCH  93 121
ATOM    121  C   UNL A   1      39.812  28.574  29.342  1.00  0.00     0.064 A 
ATOM    122  C   UNL A   1      39.404  28.362  30.666  1.00  0.00     0.173 A 
ATOM    123  C   UNL A   1      38.861  29.075  28.439  1.00  0.00     0.173 A 
ATOM    124  F   UNL A   1      40.270  27.863  31.561  1.00  0.00    -0.203 F 
ATOM    125  C   UNL A   1      38.099  28.634  31.069  1.00  0.00     0.198 A 
ATOM    126  C   UNL A   1      37.565  29.375  28.850  1.00  0.00     0.198 A 
ATOM    127  F   UNL A   1      39.202  29.298  27.161  1.00  0.00    -0.203 F 
ATOM    128  F   UNL A   1      37.725  28.391  32.333  1.00  0.00    -0.200 F 
ATOM    129  C   UNL A   1      37.183  29.149  30.163  1.00  0.00     0.200 A 
ATOM    130  F   UNL A   1      36.690  29.889  27.976  1.00  0.00    -0.200 F 
ATOM    131  F   UNL A   1      35.931  29.424  30.555  1.00  0.00    -0.200 F 
ENDBRANCH  93 121
BRANCH 108 132
ATOM    132  C   UNL A   1      45.524  32.521  28.672  1.00  0.00     0.064 A 
ATOM    133  C   UNL A   1      46.087  32.922  29.893  1.00  0.00     0.173 A 
ATOM    134  C   UNL A   1      45.308  33.500  27.691  1.00  0.00     0.173 A 
ATOM    135  F   UNL A   1      46.298  32.024  30.866  1.00  0.00    -0.203 F 
ATOM    136  C   UNL A   1      46.415  34.255  30.123  1.00  0.00     0.198 A 
ATOM    137  C   UNL A   1      45.662  34.828  27.916  1.00  0.00     0.198 A 
ATOM    138  F   UNL A   1      44.779  33.164  26.505  1.00  0.00    -0.203 F 
ATOM    139  F   UNL A   1      46.926  34.621  31.306  1.00  0.00    -0.200 F 
ATOM    140  C   UNL A   1      46.212  35.204  29.132  1.00  0.00     0.200 A 
ATOM    141  F   UNL A   1      45.480  35.740  26.952  1.00  0.00    -0.200 F 
ATOM    142  F   UNL A   1      46.547  36.483  29.349  1.00  0.00    -0.200 F 
ENDBRANCH 108 132
ENDBRANCH  73  76
ENDBRANCH  63  66
ENDBRANCH  59  62
ENDBRANCH  56  59
ENDBRANCH  53  56
ENDBRANCH  50  53
ENDBRANCH   1  50
TORSDOF 19
ENDMDL
MODEL 7
REMARK VINA RESULT:     -12.2      1.571      2.659
REMARK SMILES CC1=C(CC(=O)NCCCCCCNC(=O)c2ccc(-c3c4nc(c(-c5c(F)c(F)c(F)c(F)c5F)c5ccc([nH]5)c(-c5c(F)c(F)c(F)c(F)c5F)c5nc(c(-c6c(F)c(F)c(F)c(F)c6F)c6ccc3[nH]6)C=C5)C=C4)cc2)c2cc(F)ccc2/C1=C\c1ccc([S@@+](C)O)cc1
REMARK SMILES IDX 9 1 8 4 7 7 5 8 6 9 4 11 3 14 2 15 87 16 80 17 86 18 88 19
REMARK SMILES IDX 81 20 85 21 82 23 84 25 83 27 1 29 89 33 90 34 97 35 91 36
REMARK SMILES IDX 96 38 92 40 93 43 94 44 95 48 10 50 11 53 12 56 13 59 14 62
REMARK SMILES IDX 15 63 16 65 17 66 18 67 79 68 19 69 78 71 20 73 21 76 22 77
REMARK SMILES IDX 72 78 23 79 77 80 71 81 73 82 24 83 76 84 70 86 69 88 25 90
REMARK SMILES IDX 57 93 37 94 56 95 38 96 41 97 55 98 74 99 39 100 40 102
REMARK SMILES IDX 54 104 75 105 42 108 26 110 27 111 35 112 28 113 29 114
REMARK SMILES IDX 33 115 36 116 30 117 31 118 34 119 32 120 58 121 59 122
REMARK SMILES IDX 67 123 60 124 61 125 65 126 68 127 62 128 63 129 66 130
REMARK SMILES IDX 64 131 43 132 44 133 52 134 45 135 46 136 50 137 53 138
REMARK SMILES IDX 47 139 48 140 51 141 49 142
REMARK H PARENT 9 2 9 3 8 5 8 6 7 10 4 12 4 13 88 22 81 24 85 26 84 28 1 30
REMARK H PARENT 1 31 1 32 90 37 97 39 91 41 96 42 94 45 94 46 94 47 95 49
REMARK H PARENT 10 51 10 52 11 54 11 55 12 57 12 58 13 60 13 61 14 64 18 70
REMARK H PARENT 79 72 19 74 78 75 77 85 71 87 73 89 76 91 70 92 38 101 41 103
REMARK H PARENT 74 106 39 107 75 109
REMARK Flexibility Score: inf
ROOT
ATOM      1  C   UNL A   1      37.278  23.054  25.670  1.00  0.00    -0.036 C 
ATOM      2  H   UNL A   1      37.758  22.655  26.538  1.00  0.00     0.028 H 
ATOM      3  H   UNL A   1      37.755  23.938  25.304  1.00  0.00     0.028 H 
ENDROOT
BRANCH   1   4
ATOM      4  C   UNL A   1      35.849  23.448  26.049  1.00  0.00     0.017 C 
ATOM      5  H   UNL A   1      35.874  24.371  26.589  1.00  0.00     0.049 H 
ATOM      6  H   UNL A   1      35.278  23.550  25.150  1.00  0.00     0.049 H 
BRANCH   4   7
ATOM      7  N   UNL A   1      35.225  22.436  26.874  1.00  0.00    -0.356 N 
ATOM      8  C   UNL A   1      34.118  21.685  26.619  1.00  0.00     0.224 C 
ATOM      9  O   UNL A   1      33.703  20.938  27.509  1.00  0.00    -0.275 OA
ATOM     10  H   UNL A   1      35.662  22.267  27.741  1.00  0.00     0.163 HD
BRANCH   8  11
ATOM     11  C   UNL A   1      33.450  21.727  25.246  1.00  0.00     0.053 C 
ATOM     12  H   UNL A   1      34.206  21.586  24.502  1.00  0.00     0.042 H 
ATOM     13  H   UNL A   1      32.711  20.953  25.243  1.00  0.00     0.042 H 
BRANCH  11  14
ATOM     14  C   UNL A   1      32.732  23.003  24.946  1.00  0.00    -0.027 C 
ATOM     15  C   UNL A   1      32.075  23.836  25.788  1.00  0.00    -0.039 C 
ATOM     16  C   UNL A   1      31.509  24.963  25.029  1.00  0.00    -0.014 C 
ATOM     17  C   UNL A   1      32.686  23.597  23.599  1.00  0.00    -0.011 A 
ATOM     18  C   UNL A   1      31.991  24.821  23.641  1.00  0.00    -0.010 A 
ATOM     19  C   UNL A   1      30.669  25.883  25.548  1.00  0.00    -0.047 C 
ATOM     20  C   UNL A   1      33.233  23.135  22.409  1.00  0.00    -0.018 A 
ATOM     21  C   UNL A   1      31.902  25.617  22.506  1.00  0.00    -0.051 A 
ATOM     22  H   UNL A   1      30.427  25.795  26.547  1.00  0.00     0.064 H 
ATOM     23  C   UNL A   1      33.085  23.915  21.266  1.00  0.00     0.123 A 
ATOM     24  H   UNL A   1      33.738  22.234  22.373  1.00  0.00     0.066 H 
ATOM     25  C   UNL A   1      32.438  25.148  21.305  1.00  0.00    -0.026 A 
ATOM     26  H   UNL A   1      31.445  26.542  22.550  1.00  0.00     0.063 H 
ATOM     27  F   UNL A   1      33.589  23.481  20.103  1.00  0.00    -0.207 F 
ATOM     28  H   UNL A   1      32.356  25.716  20.448  1.00  0.00     0.065 H 
BRANCH  15  29
ATOM     29  C   UNL A   1      31.920  23.712  27.269  1.00  0.00    -0.039 C 
ATOM     30  H   UNL A   1      32.780  23.224  27.679  1.00  0.00     0.028 H 
ATOM     31  H   UNL A   1      31.045  23.137  27.490  1.00  0.00     0.028 H 
ATOM     32  H   UNL A   1      31.823  24.686  27.701  1.00  0.00     0.028 H 
ENDBRANCH  15  29
BRANCH  19  33
ATOM     33  C   UNL A   1      30.073  26.997  24.806  1.00  0.00    -0.025 A 
ATOM     34  C   UNL A   1      28.889  26.832  24.079  1.00  0.00    -0.050 A 
ATOM     35  C   UNL A   1      30.771  28.203  24.718  1.00  0.00    -0.050 A 
ATOM     36  C   UNL A   1      28.488  27.810  23.163  1.00  0.00    -0.003 A 
ATOM     37  H   UNL A   1      28.310  25.988  24.219  1.00  0.00     0.063 H 
ATOM     38  C   UNL A   1      30.358  29.187  23.816  1.00  0.00    -0.003 A 
ATOM     39  H   UNL A   1      31.593  28.367  25.319  1.00  0.00     0.063 H 
ATOM     40  C   UNL A   1      29.238  28.982  23.002  1.00  0.00     0.189 A 
ATOM     41  H   UNL A   1      27.634  27.667  22.602  1.00  0.00     0.068 H 
ATOM     42  H   UNL A   1      30.883  30.073  23.750  1.00  0.00     0.068 H 
BRANCH  40  43
ATOM     43  S   UNL A   1      28.903  30.077  21.596  1.00  0.00     0.178 S 
BRANCH  43  44
ATOM     44  C   UNL A   1      28.879  31.660  22.473  1.00  0.00     0.137 C 
ATOM     45  H   UNL A   1      27.934  31.785  22.958  1.00  0.00     0.085 H 
ATOM     46  H   UNL A   1      29.030  32.456  21.775  1.00  0.00     0.085 H 
ATOM     47  H   UNL A   1      29.660  31.674  23.205  1.00  0.00     0.085 H 
ENDBRANCH  43  44
BRANCH  43  48
ATOM     48  O   UNL A   1      30.444  30.231  21.157  1.00  0.00    -0.182 OA
ATOM     49  H   UNL A   1      30.533  30.029  20.212  1.00  0.00     0.283 HD
ENDBRANCH  43  48
ENDBRANCH  40  43
ENDBRANCH  19  33
ENDBRANCH  11  14
ENDBRANCH   8  11
ENDBRANCH   4   7
ENDBRANCH   1   4
BRANCH   1  50
ATOM     50  C   UNL A   1      37.359  22.008  24.550  1.00  0.00    -0.052 C 
ATOM     51  H   UNL A   1      38.340  22.056  24.123  1.00  0.00     0.027 H 
ATOM     52  H   UNL A   1      36.579  22.253  23.860  1.00  0.00     0.027 H 
BRANCH  50  53
ATOM     53  C   UNL A   1      37.101  20.560  24.982  1.00  0.00    -0.052 C 
ATOM     54  H   UNL A   1      36.309  20.171  24.378  1.00  0.00     0.027 H 
ATOM     55  H   UNL A   1      36.866  20.598  26.024  1.00  0.00     0.027 H 
BRANCH  53  56
ATOM     56  C   UNL A   1      38.299  19.617  24.852  1.00  0.00    -0.036 C 
ATOM     57  H   UNL A   1      38.638  19.646  23.837  1.00  0.00     0.028 H 
ATOM     58  H   UNL A   1      37.956  18.650  25.155  1.00  0.00     0.028 H 
BRANCH  56  59
ATOM     59  C   UNL A   1      39.478  19.959  25.755  1.00  0.00     0.018 C 
ATOM     60  H   UNL A   1      39.111  20.142  26.743  1.00  0.00     0.049 H 
ATOM     61  H   UNL A   1      39.959  20.822  25.345  1.00  0.00     0.049 H 
BRANCH  59  62
ATOM     62  N   UNL A   1      40.467  18.893  25.817  1.00  0.00    -0.352 N 
ATOM     63  C   UNL A   1      41.820  18.975  26.049  1.00  0.00     0.251 C 
ATOM     64  H   UNL A   1      40.118  17.984  25.672  1.00  0.00     0.163 HD
ATOM     65  O   UNL A   1      42.534  17.985  25.920  1.00  0.00    -0.269 OA
BRANCH  63  66
ATOM     66  C   UNL A   1      42.423  20.274  26.419  1.00  0.00     0.039 A 
ATOM     67  C   UNL A   1      42.301  20.770  27.718  1.00  0.00    -0.049 A 
ATOM     68  C   UNL A   1      43.095  21.018  25.445  1.00  0.00    -0.049 A 
ATOM     69  C   UNL A   1      42.690  22.076  27.995  1.00  0.00    -0.053 A 
ATOM     70  H   UNL A   1      41.922  20.172  28.469  1.00  0.00     0.063 H 
ATOM     71  C   UNL A   1      43.567  22.299  25.751  1.00  0.00    -0.053 A 
ATOM     72  H   UNL A   1      43.244  20.623  24.503  1.00  0.00     0.063 H 
ATOM     73  C   UNL A   1      43.319  22.861  27.013  1.00  0.00    -0.014 A 
ATOM     74  H   UNL A   1      42.515  22.473  28.931  1.00  0.00     0.063 H 
ATOM     75  H   UNL A   1      44.099  22.833  25.046  1.00  0.00     0.063 H 
BRANCH  73  76
ATOM     76  C   UNL A   1      43.685  24.266  27.333  1.00  0.00     0.031 A 
ATOM     77  C   UNL A   1      45.069  24.784  27.047  1.00  0.00     0.074 A 
ATOM     78  C   UNL A   1      42.740  25.100  27.810  1.00  0.00     0.049 A 
ATOM     79  N   UNL A   1      45.545  25.995  27.204  1.00  0.00    -0.248 NA
ATOM     80  C   UNL A   1      46.050  23.824  26.517  1.00  0.00    -0.034 C 
ATOM     81  C   UNL A   1      41.362  24.716  28.121  1.00  0.00    -0.036 A 
ATOM     82  N   UNL A   1      42.781  26.443  28.084  1.00  0.00    -0.354 N 
ATOM     83  C   UNL A   1      46.875  25.938  26.808  1.00  0.00     0.074 A 
ATOM     84  C   UNL A   1      47.145  24.568  26.434  1.00  0.00    -0.034 C 
ATOM     85  H   UNL A   1      45.920  22.831  26.272  1.00  0.00     0.065 H 
ATOM     86  C   UNL A   1      40.673  25.808  28.480  1.00  0.00    -0.036 A 
ATOM     87  H   UNL A   1      40.982  23.758  28.071  1.00  0.00     0.065 H 
ATOM     88  C   UNL A   1      41.571  26.958  28.485  1.00  0.00     0.049 A 
ATOM     89  H   UNL A   1      43.597  26.987  28.001  1.00  0.00     0.167 HD
ATOM     90  C   UNL A   1      47.781  26.943  26.743  1.00  0.00     0.037 A 
ATOM     91  H   UNL A   1      48.070  24.215  26.140  1.00  0.00     0.065 H 
ATOM     92  H   UNL A   1      39.668  25.832  28.715  1.00  0.00     0.065 H 
ATOM     93  C   UNL A   1      41.225  28.214  28.826  1.00  0.00     0.037 A 
ATOM     94  C   UNL A   1      47.503  28.312  27.087  1.00  0.00     0.049 A 
ATOM     95  C   UNL A   1      42.264  29.298  28.786  1.00  0.00     0.074 A 
ATOM     96  C   UNL A   1      48.352  29.404  27.024  1.00  0.00    -0.036 A 
ATOM     97  N   UNL A   1      46.285  28.778  27.555  1.00  0.00    -0.354 N 
ATOM     98  N   UNL A   1      43.511  29.232  28.391  1.00  0.00    -0.248 NA
ATOM     99  C   UNL A   1      41.852  30.630  29.252  1.00  0.00    -0.034 C 
ATOM    100  C   UNL A   1      47.660  30.524  27.494  1.00  0.00    -0.036 A 
ATOM    101  H   UNL A   1      49.328  29.394  26.689  1.00  0.00     0.065 H 
ATOM    102  C   UNL A   1      46.366  30.139  27.807  1.00  0.00     0.049 A 
ATOM    103  H   UNL A   1      45.480  28.226  27.687  1.00  0.00     0.167 HD
ATOM    104  C   UNL A   1      44.031  30.509  28.552  1.00  0.00     0.074 A 
ATOM    105  C   UNL A   1      42.956  31.337  29.057  1.00  0.00    -0.034 C 
ATOM    106  H   UNL A   1      40.941  30.934  29.631  1.00  0.00     0.065 H 
ATOM    107  H   UNL A   1      48.046  31.475  27.592  1.00  0.00     0.065 H 
ATOM    108  C   UNL A   1      45.288  30.950  28.310  1.00  0.00     0.037 A 
ATOM    109  H   UNL A   1      43.038  32.349  29.242  1.00  0.00     0.065 H 
BRANCH  90 110
ATOM    110  C   UNL A   1      49.168  26.612  26.275  1.00  0.00     0.064 A 
ATOM    111  C   UNL A   1      49.560  26.814  24.943  1.00  0.00     0.173 A 
ATOM    112  C   UNL A   1      50.141  26.172  27.186  1.00  0.00     0.173 A 
ATOM    113  F   UNL A   1      48.665  27.224  24.032  1.00  0.00    -0.203 F 
ATOM    114  C   UNL A   1      50.872  26.578  24.540  1.00  0.00     0.198 A 
ATOM    115  C   UNL A   1      51.458  25.962  26.784  1.00  0.00     0.198 A 
ATOM    116  F   UNL A   1      49.821  25.971  28.473  1.00  0.00    -0.203 F 
ATOM    117  F   UNL A   1      51.217  26.755  23.256  1.00  0.00    -0.200 F 
ATOM    118  C   UNL A   1      51.821  26.164  25.461  1.00  0.00     0.200 A 
ATOM    119  F   UNL A   1      52.377  25.576  27.679  1.00  0.00    -0.200 F 
ATOM    120  F   UNL A   1      53.088  25.958  25.074  1.00  0.00    -0.200 F 
ENDBRANCH  90 110
BRANCH  93 121
ATOM    121  C   UNL A   1      39.825  28.507  29.228  1.00  0.00     0.064 A 
ATOM    122  C   UNL A   1      39.397  28.306  30.547  1.00  0.00     0.173 A 
ATOM    123  C   UNL A   1      38.893  29.014  28.309  1.00  0.00     0.173 A 
ATOM    124  F   UNL A   1      40.246  27.802  31.456  1.00  0.00    -0.203 F 
ATOM    125  C   UNL A   1      38.090  28.594  30.930  1.00  0.00     0.198 A 
ATOM    126  C   UNL A   1      37.595  29.330  28.701  1.00  0.00     0.198 A 
ATOM    127  F   UNL A   1      39.254  29.226  27.035  1.00  0.00    -0.203 F 
ATOM    128  F   UNL A   1      37.696  28.361  32.190  1.00  0.00    -0.200 F 
ATOM    129  C   UNL A   1      37.192  29.115  30.010  1.00  0.00     0.200 A 
ATOM    130  F   UNL A   1      36.737  29.848  27.812  1.00  0.00    -0.200 F 
ATOM    131  F   UNL A   1      35.938  29.405  30.383  1.00  0.00    -0.200 F 
ENDBRANCH  93 121
BRANCH 108 132
ATOM    132  C   UNL A   1      45.581  32.396  28.585  1.00  0.00     0.064 A 
ATOM    133  C   UNL A   1      46.138  32.805  29.805  1.00  0.00     0.173 A 
ATOM    134  C   UNL A   1      45.379  33.366  27.592  1.00  0.00     0.173 A 
ATOM    135  F   UNL A   1      46.336  31.915  30.789  1.00  0.00    -0.203 F 
ATOM    136  C   UNL A   1      46.475  34.137  30.025  1.00  0.00     0.198 A 
ATOM    137  C   UNL A   1      45.742  34.693  27.806  1.00  0.00     0.198 A 
ATOM    138  F   UNL A   1      44.856  33.022  26.406  1.00  0.00    -0.203 F 
ATOM    139  F   UNL A   1      46.981  34.512  31.208  1.00  0.00    -0.200 F 
ATOM    140  C   UNL A   1      46.287  35.078  29.022  1.00  0.00     0.200 A 
ATOM    141  F   UNL A   1      45.575  35.597  26.831  1.00  0.00    -0.200 F 
ATOM    142  F   UNL A   1      46.630  36.356  29.229  1.00  0.00    -0.200 F 
ENDBRANCH 108 132
ENDBRANCH  73  76
ENDBRANCH  63  66
ENDBRANCH  59  62
ENDBRANCH  56  59
ENDBRANCH  53  56
ENDBRANCH  50  53
ENDBRANCH   1  50
TORSDOF 19
ENDMDL
MODEL 8
REMARK VINA RESULT:     -11.9      6.096     12.005
REMARK SMILES CC1=C(CC(=O)NCCCCCCNC(=O)c2ccc(-c3c4nc(c(-c5c(F)c(F)c(F)c(F)c5F)c5ccc([nH]5)c(-c5c(F)c(F)c(F)c(F)c5F)c5nc(c(-c6c(F)c(F)c(F)c(F)c6F)c6ccc3[nH]6)C=C5)C=C4)cc2)c2cc(F)ccc2/C1=C\c1ccc([S@@+](C)O)cc1
REMARK SMILES IDX 9 1 8 4 7 7 5 8 6 9 4 11 3 14 2 15 87 16 80 17 86 18 88 19
REMARK SMILES IDX 81 20 85 21 82 23 84 25 83 27 1 29 89 33 90 34 97 35 91 36
REMARK SMILES IDX 96 38 92 40 93 43 94 44 95 48 10 50 11 53 12 56 13 59 14 62
REMARK SMILES IDX 15 63 16 65 17 66 18 67 79 68 19 69 78 71 20 73 21 76 22 77
REMARK SMILES IDX 72 78 23 79 77 80 71 81 73 82 24 83 76 84 70 86 69 88 25 90
REMARK SMILES IDX 57 93 37 94 56 95 38 96 41 97 55 98 74 99 39 100 40 102
REMARK SMILES IDX 54 104 75 105 42 108 26 110 27 111 35 112 28 113 29 114
REMARK SMILES IDX 33 115 36 116 30 117 31 118 34 119 32 120 58 121 59 122
REMARK SMILES IDX 67 123 60 124 61 125 65 126 68 127 62 128 63 129 66 130
REMARK SMILES IDX 64 131 43 132 44 133 52 134 45 135 46 136 50 137 53 138
REMARK SMILES IDX 47 139 48 140 51 141 49 142
REMARK H PARENT 9 2 9 3 8 5 8 6 7 10 4 12 4 13 88 22 81 24 85 26 84 28 1 30
REMARK H PARENT 1 31 1 32 90 37 97 39 91 41 96 42 94 45 94 46 94 47 95 49
REMARK H PARENT 10 51 10 52 11 54 11 55 12 57 12 58 13 60 13 61 14 64 18 70
REMARK H PARENT 79 72 19 74 78 75 77 85 71 87 73 89 76 91 70 92 38 101 41 103
REMARK H PARENT 74 106 39 107 75 109
REMARK Flexibility Score: inf
ROOT
ATOM      1  C   UNL A   1      35.140  34.695  34.108  1.00  0.00    -0.036 C 
ATOM      2  H   UNL A   1      34.883  35.273  34.971  1.00  0.00     0.028 H 
ATOM      3  H   UNL A   1      34.529  33.823  34.000  1.00  0.00     0.028 H 
ENDROOT
BRANCH   1   4
ATOM      4  C   UNL A   1      36.581  34.208  34.267  1.00  0.00     0.017 C 
ATOM      5  H   UNL A   1      36.878  33.702  33.373  1.00  0.00     0.049 H 
ATOM      6  H   UNL A   1      37.206  35.057  34.448  1.00  0.00     0.049 H 
BRANCH   4   7
ATOM      7  N   UNL A   1      36.710  33.300  35.387  1.00  0.00    -0.356 N 
ATOM      8  C   UNL A   1      37.744  32.473  35.706  1.00  0.00     0.224 C 
ATOM      9  O   UNL A   1      37.606  31.709  36.665  1.00  0.00    -0.275 OA
ATOM     10  H   UNL A   1      35.942  33.277  36.005  1.00  0.00     0.163 HD
BRANCH   8  11
ATOM     11  C   UNL A   1      39.058  32.538  34.930  1.00  0.00     0.053 C 
ATOM     12  H   UNL A   1      38.855  32.950  33.963  1.00  0.00     0.042 H 
ATOM     13  H   UNL A   1      39.725  33.141  35.509  1.00  0.00     0.042 H 
BRANCH  11  14
ATOM     14  C   UNL A   1      39.733  31.218  34.742  1.00  0.00    -0.027 C 
ATOM     15  C   UNL A   1      40.839  30.727  35.350  1.00  0.00    -0.039 C 
ATOM     16  C   UNL A   1      41.137  29.383  34.827  1.00  0.00    -0.014 C 
ATOM     17  C   UNL A   1      39.213  30.173  33.843  1.00  0.00    -0.011 A 
ATOM     18  C   UNL A   1      40.026  29.027  33.923  1.00  0.00    -0.010 A 
ATOM     19  C   UNL A   1      42.258  28.688  35.113  1.00  0.00    -0.047 C 
ATOM     20  C   UNL A   1      38.091  30.190  33.024  1.00  0.00    -0.018 A 
ATOM     21  C   UNL A   1      39.679  27.871  33.236  1.00  0.00    -0.051 A 
ATOM     22  H   UNL A   1      42.937  29.126  35.755  1.00  0.00     0.064 H 
ATOM     23  C   UNL A   1      37.788  29.043  32.296  1.00  0.00     0.123 A 
ATOM     24  H   UNL A   1      37.496  31.031  32.959  1.00  0.00     0.066 H 
ATOM     25  C   UNL A   1      38.559  27.888  32.401  1.00  0.00    -0.026 A 
ATOM     26  H   UNL A   1      40.240  27.011  33.341  1.00  0.00     0.063 H 
ATOM     27  F   UNL A   1      36.720  29.041  31.486  1.00  0.00    -0.207 F 
ATOM     28  H   UNL A   1      38.304  27.045  31.864  1.00  0.00     0.065 H 
BRANCH  15  29
ATOM     29  C   UNL A   1      41.673  31.375  36.408  1.00  0.00    -0.039 C 
ATOM     30  H   UNL A   1      41.950  32.359  36.090  1.00  0.00     0.028 H 
ATOM     31  H   UNL A   1      42.555  30.792  36.575  1.00  0.00     0.028 H 
ATOM     32  H   UNL A   1      41.111  31.438  37.316  1.00  0.00     0.028 H 
ENDBRANCH  15  29
BRANCH  19  33
ATOM     33  C   UNL A   1      42.588  27.362  34.584  1.00  0.00    -0.025 A 
ATOM     34  C   UNL A   1      42.239  26.198  35.278  1.00  0.00    -0.050 A 
ATOM     35  C   UNL A   1      43.380  27.267  33.438  1.00  0.00    -0.050 A 
ATOM     36  C   UNL A   1      42.797  24.970  34.909  1.00  0.00    -0.003 A 
ATOM     37  H   UNL A   1      41.568  26.246  36.062  1.00  0.00     0.063 H 
ATOM     38  C   UNL A   1      43.921  26.036  33.061  1.00  0.00    -0.003 A 
ATOM     39  H   UNL A   1      43.566  28.108  32.870  1.00  0.00     0.063 H 
ATOM     40  C   UNL A   1      43.667  24.885  33.816  1.00  0.00     0.189 A 
ATOM     41  H   UNL A   1      42.565  24.120  35.447  1.00  0.00     0.068 H 
ATOM     42  H   UNL A   1      44.512  25.974  32.217  1.00  0.00     0.068 H 
BRANCH  40  43
ATOM     43  S   UNL A   1      44.635  23.374  33.553  1.00  0.00     0.178 S 
BRANCH  43  44
ATOM     44  C   UNL A   1      45.657  23.433  35.046  1.00  0.00     0.137 C 
ATOM     45  H   UNL A   1      45.876  22.436  35.368  1.00  0.00     0.085 H 
ATOM     46  H   UNL A   1      45.129  23.950  35.819  1.00  0.00     0.085 H 
ATOM     47  H   UNL A   1      46.571  23.947  34.833  1.00  0.00     0.085 H 
ENDBRANCH  43  44
BRANCH  43  48
ATOM     48  O   UNL A   1      43.551  22.385  34.216  1.00  0.00    -0.182 OA
ATOM     49  H   UNL A   1      42.676  22.563  33.835  1.00  0.00     0.283 HD
ENDBRANCH  43  48
ENDBRANCH  40  43
ENDBRANCH  19  33
ENDBRANCH  11  14
ENDBRANCH   8  11
ENDBRANCH   4   7
ENDBRANCH   1   4
BRANCH   1  50
ATOM     50  C   UNL A   1      34.908  35.559  32.862  1.00  0.00    -0.052 C 
ATOM     51  H   UNL A   1      34.930  34.917  32.006  1.00  0.00     0.027 H 
ATOM     52  H   UNL A   1      35.683  36.296  32.865  1.00  0.00     0.027 H 
BRANCH  50  53
ATOM     53  C   UNL A   1      33.587  36.336  32.836  1.00  0.00    -0.052 C 
ATOM     54  H   UNL A   1      33.818  37.377  32.754  1.00  0.00     0.027 H 
ATOM     55  H   UNL A   1      33.074  36.081  33.739  1.00  0.00     0.027 H 
BRANCH  53  56
ATOM     56  C   UNL A   1      32.639  35.972  31.692  1.00  0.00    -0.036 C 
ATOM     57  H   UNL A   1      31.738  36.538  31.812  1.00  0.00     0.028 H 
ATOM     58  H   UNL A   1      32.485  34.915  31.752  1.00  0.00     0.028 H 
BRANCH  56  59
ATOM     59  C   UNL A   1      33.189  36.248  30.298  1.00  0.00     0.018 C 
ATOM     60  H   UNL A   1      34.258  36.228  30.341  1.00  0.00     0.049 H 
ATOM     61  H   UNL A   1      32.823  37.205  29.990  1.00  0.00     0.049 H 
BRANCH  59  62
ATOM     62  N   UNL A   1      32.745  35.271  29.314  1.00  0.00    -0.352 N 
ATOM     63  C   UNL A   1      33.433  34.214  28.767  1.00  0.00     0.251 C 
ATOM     64  H   UNL A   1      31.821  35.385  28.994  1.00  0.00     0.163 HD
ATOM     65  O   UNL A   1      32.953  33.575  27.835  1.00  0.00    -0.269 OA
BRANCH  63  66
ATOM     66  C   UNL A   1      34.776  33.869  29.282  1.00  0.00     0.039 A 
ATOM     67  C   UNL A   1      35.925  34.361  28.661  1.00  0.00    -0.049 A 
ATOM     68  C   UNL A   1      34.887  33.018  30.385  1.00  0.00    -0.049 A 
ATOM     69  C   UNL A   1      37.171  33.865  29.026  1.00  0.00    -0.053 A 
ATOM     70  H   UNL A   1      35.849  35.088  27.932  1.00  0.00     0.063 H 
ATOM     71  C   UNL A   1      36.149  32.589  30.810  1.00  0.00    -0.053 A 
ATOM     72  H   UNL A   1      34.039  32.707  30.887  1.00  0.00     0.063 H 
ATOM     73  C   UNL A   1      37.299  32.965  30.098  1.00  0.00    -0.014 A 
ATOM     74  H   UNL A   1      38.010  34.160  28.504  1.00  0.00     0.063 H 
ATOM     75  H   UNL A   1      36.235  31.994  31.649  1.00  0.00     0.063 H 
BRANCH  73  76
ATOM     76  C   UNL A   1      38.643  32.425  30.435  1.00  0.00     0.031 A 
ATOM     77  C   UNL A   1      39.121  31.126  29.842  1.00  0.00     0.074 A 
ATOM     78  C   UNL A   1      39.466  33.151  31.216  1.00  0.00     0.049 A 
ATOM     79  N   UNL A   1      40.284  30.537  29.976  1.00  0.00    -0.248 NA
ATOM     80  C   UNL A   1      38.176  30.389  28.989  1.00  0.00    -0.034 C 
ATOM     81  C   UNL A   1      39.119  34.427  31.844  1.00  0.00    -0.036 A 
ATOM     82  N   UNL A   1      40.770  32.941  31.589  1.00  0.00    -0.354 N 
ATOM     83  C   UNL A   1      40.204  29.362  29.240  1.00  0.00     0.074 A 
ATOM     84  C   UNL A   1      38.869  29.300  28.687  1.00  0.00    -0.034 C 
ATOM     85  H   UNL A   1      37.221  30.651  28.700  1.00  0.00     0.065 H 
ATOM     86  C   UNL A   1      40.200  34.918  32.467  1.00  0.00    -0.036 A 
ATOM     87  H   UNL A   1      38.191  34.878  31.810  1.00  0.00     0.065 H 
ATOM     88  C   UNL A   1      41.297  33.965  32.339  1.00  0.00     0.049 A 
ATOM     89  H   UNL A   1      41.279  32.135  31.342  1.00  0.00     0.167 HD
ATOM     90  C   UNL A   1      41.165  28.431  29.029  1.00  0.00     0.037 A 
ATOM     91  H   UNL A   1      38.505  28.511  28.130  1.00  0.00     0.065 H 
ATOM     92  H   UNL A   1      40.247  35.824  32.960  1.00  0.00     0.065 H 
ATOM     93  C   UNL A   1      42.526  34.117  32.869  1.00  0.00     0.037 A 
ATOM     94  C   UNL A   1      42.503  28.508  29.554  1.00  0.00     0.049 A 
ATOM     95  C   UNL A   1      43.557  33.046  32.654  1.00  0.00     0.074 A 
ATOM     96  C   UNL A   1      43.552  27.626  29.368  1.00  0.00    -0.036 A 
ATOM     97  N   UNL A   1      42.975  29.527  30.366  1.00  0.00    -0.354 N 
ATOM     98  N   UNL A   1      43.472  31.951  31.940  1.00  0.00    -0.248 NA
ATOM     99  C   UNL A   1      44.850  33.224  33.329  1.00  0.00    -0.034 C 
ATOM    100  C   UNL A   1      44.648  28.088  30.102  1.00  0.00    -0.036 A 
ATOM    101  H   UNL A   1      43.530  26.772  28.788  1.00  0.00     0.065 H 
ATOM    102  C   UNL A   1      44.296  29.283  30.709  1.00  0.00     0.049 A 
ATOM    103  H   UNL A   1      42.452  30.310  30.655  1.00  0.00     0.167 HD
ATOM    104  C   UNL A   1      44.698  31.314  32.072  1.00  0.00     0.074 A 
ATOM    105  C   UNL A   1      45.519  32.158  32.914  1.00  0.00    -0.034 C 
ATOM    106  H   UNL A   1      45.156  33.982  33.960  1.00  0.00     0.065 H 
ATOM    107  H   UNL A   1      45.564  27.620  30.179  1.00  0.00     0.065 H 
ATOM    108  C   UNL A   1      45.101  30.132  31.548  1.00  0.00     0.037 A 
ATOM    109  H   UNL A   1      46.501  31.956  33.160  1.00  0.00     0.065 H 
BRANCH  90 110
ATOM    110  C   UNL A   1      40.818  27.239  28.185  1.00  0.00     0.064 A 
ATOM    111  C   UNL A   1      39.915  26.263  28.631  1.00  0.00     0.173 A 
ATOM    112  C   UNL A   1      41.326  27.116  26.882  1.00  0.00     0.173 A 
ATOM    113  F   UNL A   1      39.409  26.330  29.872  1.00  0.00    -0.203 F 
ATOM    114  C   UNL A   1      39.541  25.204  27.809  1.00  0.00     0.198 A 
ATOM    115  C   UNL A   1      40.930  26.070  26.053  1.00  0.00     0.198 A 
ATOM    116  F   UNL A   1      42.187  28.028  26.403  1.00  0.00    -0.203 F 
ATOM    117  F   UNL A   1      38.695  24.270  28.266  1.00  0.00    -0.200 F 
ATOM    118  C   UNL A   1      40.039  25.115  26.518  1.00  0.00     0.200 A 
ATOM    119  F   UNL A   1      41.401  25.994  24.801  1.00  0.00    -0.200 F 
ATOM    120  F   UNL A   1      39.662  24.105  25.720  1.00  0.00    -0.200 F 
ENDBRANCH  90 110
BRANCH  93 121
ATOM    121  C   UNL A   1      42.843  35.341  33.650  1.00  0.00     0.064 A 
ATOM    122  C   UNL A   1      42.558  35.415  35.020  1.00  0.00     0.173 A 
ATOM    123  C   UNL A   1      43.455  36.452  33.050  1.00  0.00     0.173 A 
ATOM    124  F   UNL A   1      41.953  34.387  35.634  1.00  0.00    -0.203 F 
ATOM    125  C   UNL A   1      42.867  36.555  35.758  1.00  0.00     0.198 A 
ATOM    126  C   UNL A   1      43.790  37.579  33.795  1.00  0.00     0.198 A 
ATOM    127  F   UNL A   1      43.749  36.430  31.741  1.00  0.00    -0.203 F 
ATOM    128  F   UNL A   1      42.554  36.614  37.060  1.00  0.00    -0.200 F 
ATOM    129  C   UNL A   1      43.492  37.633  35.147  1.00  0.00     0.200 A 
ATOM    130  F   UNL A   1      44.409  38.610  33.203  1.00  0.00    -0.200 F 
ATOM    131  F   UNL A   1      43.802  38.724  35.861  1.00  0.00    -0.200 F 
ENDBRANCH  93 121
BRANCH 108 132
ATOM    132  C   UNL A   1      46.493  29.671  31.864  1.00  0.00     0.064 A 
ATOM    133  C   UNL A   1      46.786  29.016  33.069  1.00  0.00     0.173 A 
ATOM    134  C   UNL A   1      47.523  29.813  30.922  1.00  0.00     0.173 A 
ATOM    135  F   UNL A   1      45.837  28.870  34.005  1.00  0.00    -0.203 F 
ATOM    136  C   UNL A   1      48.064  28.526  33.323  1.00  0.00     0.198 A 
ATOM    137  C   UNL A   1      48.793  29.299  31.169  1.00  0.00     0.198 A 
ATOM    138  F   UNL A   1      47.290  30.426  29.752  1.00  0.00    -0.203 F 
ATOM    139  F   UNL A   1      48.329  27.928  34.492  1.00  0.00    -0.200 F 
ATOM    140  C   UNL A   1      49.063  28.659  32.369  1.00  0.00     0.200 A 
ATOM    141  F   UNL A   1      49.752  29.414  30.240  1.00  0.00    -0.200 F 
ATOM    142  F   UNL A   1      50.287  28.169  32.607  1.00  0.00    -0.200 F 
ENDBRANCH 108 132
ENDBRANCH  73  76
ENDBRANCH  63  66
ENDBRANCH  59  62
ENDBRANCH  56  59
ENDBRANCH  53  56
ENDBRANCH  50  53
ENDBRANCH   1  50
TORSDOF 19
ENDMDL
MODEL 9
REMARK VINA RESULT:     -11.9      5.838      9.744
REMARK SMILES CC1=C(CC(=O)NCCCCCCNC(=O)c2ccc(-c3c4nc(c(-c5c(F)c(F)c(F)c(F)c5F)c5ccc([nH]5)c(-c5c(F)c(F)c(F)c(F)c5F)c5nc(c(-c6c(F)c(F)c(F)c(F)c6F)c6ccc3[nH]6)C=C5)C=C4)cc2)c2cc(F)ccc2/C1=C\c1ccc([S@@+](C)O)cc1
REMARK SMILES IDX 9 1 8 4 7 7 5 8 6 9 4 11 3 14 2 15 87 16 80 17 86 18 88 19
REMARK SMILES IDX 81 20 85 21 82 23 84 25 83 27 1 29 89 33 90 34 97 35 91 36
REMARK SMILES IDX 96 38 92 40 93 43 94 44 95 48 10 50 11 53 12 56 13 59 14 62
REMARK SMILES IDX 15 63 16 65 17 66 18 67 79 68 19 69 78 71 20 73 21 76 22 77
REMARK SMILES IDX 72 78 23 79 77 80 71 81 73 82 24 83 76 84 70 86 69 88 25 90
REMARK SMILES IDX 57 93 37 94 56 95 38 96 41 97 55 98 74 99 39 100 40 102
REMARK SMILES IDX 54 104 75 105 42 108 26 110 27 111 35 112 28 113 29 114
REMARK SMILES IDX 33 115 36 116 30 117 31 118 34 119 32 120 58 121 59 122
REMARK SMILES IDX 67 123 60 124 61 125 65 126 68 127 62 128 63 129 66 130
REMARK SMILES IDX 64 131 43 132 44 133 52 134 45 135 46 136 50 137 53 138
REMARK SMILES IDX 47 139 48 140 51 141 49 142
REMARK H PARENT 9 2 9 3 8 5 8 6 7 10 4 12 4 13 88 22 81 24 85 26 84 28 1 30
REMARK H PARENT 1 31 1 32 90 37 97 39 91 41 96 42 94 45 94 46 94 47 95 49
REMARK H PARENT 10 51 10 52 11 54 11 55 12 57 12 58 13 60 13 61 14 64 18 70
REMARK H PARENT 79 72 19 74 78 75 77 85 71 87 73 89 76 91 70 92 38 101 41 103
REMARK H PARENT 74 106 39 107 75 109
REMARK Flexibility Score: inf
ROOT
ATOM      1  C   UNL A   1      43.569  22.877  24.831  1.00  0.00    -0.036 C 
ATOM      2  H   UNL A   1      42.649  23.240  25.239  1.00  0.00     0.028 H 
ATOM      3  H   UNL A   1      43.517  22.721  23.774  1.00  0.00     0.028 H 
ENDROOT
BRANCH   1   4
ATOM      4  C   UNL A   1      43.872  21.518  25.464  1.00  0.00     0.017 C 
ATOM      5  H   UNL A   1      44.770  21.125  25.033  1.00  0.00     0.049 H 
ATOM      6  H   UNL A   1      43.987  21.655  26.519  1.00  0.00     0.049 H 
BRANCH   4   7
ATOM      7  N   UNL A   1      42.793  20.580  25.241  1.00  0.00    -0.356 N 
ATOM      8  C   UNL A   1      41.928  20.037  26.142  1.00  0.00     0.224 C 
ATOM      9  O   UNL A   1      41.135  19.180  25.746  1.00  0.00    -0.275 OA
ATOM     10  H   UNL A   1      42.666  20.295  24.306  1.00  0.00     0.163 HD
BRANCH   8  11
ATOM     11  C   UNL A   1      41.909  20.524  27.590  1.00  0.00     0.053 C 
ATOM     12  H   UNL A   1      41.173  19.959  28.122  1.00  0.00     0.042 H 
ATOM     13  H   UNL A   1      42.899  20.386  27.971  1.00  0.00     0.042 H 
BRANCH  11  14
ATOM     14  C   UNL A   1      41.590  21.976  27.751  1.00  0.00    -0.027 C 
ATOM     15  C   UNL A   1      42.333  22.960  28.311  1.00  0.00    -0.039 C 
ATOM     16  C   UNL A   1      41.594  24.232  28.256  1.00  0.00    -0.014 C 
ATOM     17  C   UNL A   1      40.353  22.586  27.231  1.00  0.00    -0.011 A 
ATOM     18  C   UNL A   1      40.363  23.971  27.482  1.00  0.00    -0.010 A 
ATOM     19  C   UNL A   1      41.990  25.368  28.866  1.00  0.00    -0.047 C 
ATOM     20  C   UNL A   1      39.293  21.996  26.555  1.00  0.00    -0.018 A 
ATOM     21  C   UNL A   1      39.344  24.780  26.996  1.00  0.00    -0.051 A 
ATOM     22  H   UNL A   1      42.879  25.341  29.388  1.00  0.00     0.064 H 
ATOM     23  C   UNL A   1      38.249  22.810  26.126  1.00  0.00     0.123 A 
ATOM     24  H   UNL A   1      39.279  20.979  26.375  1.00  0.00     0.066 H 
ATOM     25  C   UNL A   1      38.269  24.189  26.328  1.00  0.00    -0.026 A 
ATOM     26  H   UNL A   1      39.380  25.803  27.126  1.00  0.00     0.063 H 
ATOM     27  F   UNL A   1      37.206  22.262  25.487  1.00  0.00    -0.207 F 
ATOM     28  H   UNL A   1      37.491  24.773  25.985  1.00  0.00     0.065 H 
BRANCH  15  29
ATOM     29  C   UNL A   1      43.702  22.857  28.900  1.00  0.00    -0.039 C 
ATOM     30  H   UNL A   1      44.408  22.642  28.124  1.00  0.00     0.028 H 
ATOM     31  H   UNL A   1      43.721  22.072  29.627  1.00  0.00     0.028 H 
ATOM     32  H   UNL A   1      43.960  23.783  29.369  1.00  0.00     0.028 H 
ENDBRANCH  15  29
BRANCH  19  33
ATOM     33  C   UNL A   1      41.259  26.637  28.846  1.00  0.00    -0.025 A 
ATOM     34  C   UNL A   1      41.614  27.664  27.965  1.00  0.00    -0.050 A 
ATOM     35  C   UNL A   1      40.280  26.871  29.814  1.00  0.00    -0.050 A 
ATOM     36  C   UNL A   1      41.098  28.951  28.146  1.00  0.00    -0.003 A 
ATOM     37  H   UNL A   1      42.257  27.472  27.180  1.00  0.00     0.063 H 
ATOM     38  C   UNL A   1      39.751  28.153  29.981  1.00  0.00    -0.003 A 
ATOM     39  H   UNL A   1      39.947  26.094  30.407  1.00  0.00     0.063 H 
ATOM     40  C   UNL A   1      40.186  29.213  29.176  1.00  0.00     0.189 A 
ATOM     41  H   UNL A   1      41.392  29.715  27.517  1.00  0.00     0.068 H 
ATOM     42  H   UNL A   1      39.034  28.321  30.704  1.00  0.00     0.068 H 
BRANCH  40  43
ATOM     43  S   UNL A   1      39.785  30.928  29.608  1.00  0.00     0.178 S 
BRANCH  43  44
ATOM     44  C   UNL A   1      38.823  30.620  31.111  1.00  0.00     0.137 C 
ATOM     45  H   UNL A   1      39.487  30.496  31.940  1.00  0.00     0.085 H 
ATOM     46  H   UNL A   1      38.240  29.732  30.985  1.00  0.00     0.085 H 
ATOM     47  H   UNL A   1      38.174  31.451  31.295  1.00  0.00     0.085 H 
ENDBRANCH  43  44
BRANCH  43  48
ATOM     48  O   UNL A   1      41.148  31.200  30.419  1.00  0.00    -0.182 OA
ATOM     49  H   UNL A   1      41.063  30.851  31.320  1.00  0.00     0.283 HD
ENDBRANCH  43  48
ENDBRANCH  40  43
ENDBRANCH  19  33
ENDBRANCH  11  14
ENDBRANCH   8  11
ENDBRANCH   4   7
ENDBRANCH   1   4
BRANCH   1  50
ATOM     50  C   UNL A   1      44.655  23.933  25.073  1.00  0.00    -0.052 C 
ATOM     51  H   UNL A   1      44.267  24.655  25.761  1.00  0.00     0.027 H 
ATOM     52  H   UNL A   1      44.890  24.340  24.111  1.00  0.00     0.027 H 
BRANCH  50  53
ATOM     53  C   UNL A   1      45.976  23.401  25.640  1.00  0.00    -0.052 C 
ATOM     54  H   UNL A   1      46.698  23.402  24.851  1.00  0.00     0.027 H 
ATOM     55  H   UNL A   1      45.763  22.426  26.024  1.00  0.00     0.027 H 
BRANCH  53  56
ATOM     56  C   UNL A   1      46.553  24.201  26.808  1.00  0.00    -0.036 C 
ATOM     57  H   UNL A   1      46.677  23.537  27.639  1.00  0.00     0.028 H 
ATOM     58  H   UNL A   1      45.862  24.995  27.001  1.00  0.00     0.028 H 
BRANCH  56  59
ATOM     59  C   UNL A   1      47.898  24.860  26.525  1.00  0.00     0.018 C 
ATOM     60  H   UNL A   1      48.669  24.125  26.628  1.00  0.00     0.049 H 
ATOM     61  H   UNL A   1      48.018  25.661  27.224  1.00  0.00     0.049 H 
BRANCH  59  62
ATOM     62  N   UNL A   1      47.975  25.431  25.188  1.00  0.00    -0.352 N 
ATOM     63  C   UNL A   1      47.410  26.586  24.702  1.00  0.00     0.251 C 
ATOM     64  H   UNL A   1      48.508  24.916  24.540  1.00  0.00     0.163 HD
ATOM     65  O   UNL A   1      47.455  26.843  23.502  1.00  0.00    -0.269 OA
BRANCH  63  66
ATOM     66  C   UNL A   1      46.711  27.505  25.626  1.00  0.00     0.039 A 
ATOM     67  C   UNL A   1      47.432  28.321  26.499  1.00  0.00    -0.049 A 
ATOM     68  C   UNL A   1      45.313  27.530  25.638  1.00  0.00    -0.049 A 
ATOM     69  C   UNL A   1      46.764  29.021  27.498  1.00  0.00    -0.053 A 
ATOM     70  H   UNL A   1      48.456  28.403  26.406  1.00  0.00     0.063 H 
ATOM     71  C   UNL A   1      44.639  28.306  26.587  1.00  0.00    -0.053 A 
ATOM     72  H   UNL A   1      44.780  26.978  24.948  1.00  0.00     0.063 H 
ATOM     73  C   UNL A   1      45.359  29.015  27.561  1.00  0.00    -0.014 A 
ATOM     74  H   UNL A   1      47.304  29.550  28.199  1.00  0.00     0.063 H 
ATOM     75  H   UNL A   1      43.608  28.358  26.571  1.00  0.00     0.063 H 
BRANCH  73  76
ATOM     76  C   UNL A   1      44.681  29.742  28.666  1.00  0.00     0.031 A 
ATOM     77  C   UNL A   1      44.354  29.045  29.960  1.00  0.00     0.074 A 
ATOM     78  C   UNL A   1      44.431  31.060  28.530  1.00  0.00     0.049 A 
ATOM     79  N   UNL A   1      43.820  29.539  31.050  1.00  0.00    -0.248 NA
ATOM     80  C   UNL A   1      44.662  27.609  30.045  1.00  0.00    -0.034 C 
ATOM     81  C   UNL A   1      44.708  31.847  27.328  1.00  0.00    -0.036 A 
ATOM     82  N   UNL A   1      43.923  31.975  29.416  1.00  0.00    -0.354 N 
ATOM     83  C   UNL A   1      43.718  28.477  31.939  1.00  0.00     0.074 A 
ATOM     84  C   UNL A   1      44.211  27.303  31.255  1.00  0.00    -0.034 C 
ATOM     85  H   UNL A   1      45.112  26.998  29.347  1.00  0.00     0.065 H 
ATOM     86  C   UNL A   1      44.429  33.135  27.572  1.00  0.00    -0.036 A 
ATOM     87  H   UNL A   1      45.064  31.470  26.434  1.00  0.00     0.065 H 
ATOM     88  C   UNL A   1      43.894  33.258  28.924  1.00  0.00     0.049 A 
ATOM     89  H   UNL A   1      43.608  31.736  30.318  1.00  0.00     0.167 HD
ATOM     90  C   UNL A   1      43.271  28.486  33.218  1.00  0.00     0.037 A 
ATOM     91  H   UNL A   1      44.214  26.352  31.655  1.00  0.00     0.065 H 
ATOM     92  H   UNL A   1      44.569  33.914  26.910  1.00  0.00     0.065 H 
ATOM     93  C   UNL A   1      43.479  34.404  29.495  1.00  0.00     0.037 A 
ATOM     94  C   UNL A   1      42.808  29.661  33.910  1.00  0.00     0.049 A 
ATOM     95  C   UNL A   1      42.947  34.375  30.900  1.00  0.00     0.074 A 
ATOM     96  C   UNL A   1      42.364  29.771  35.216  1.00  0.00    -0.036 A 
ATOM     97  N   UNL A   1      42.731  30.927  33.352  1.00  0.00    -0.354 N 
ATOM     98  N   UNL A   1      42.875  33.367  31.733  1.00  0.00    -0.248 NA
ATOM     99  C   UNL A   1      42.427  35.639  31.439  1.00  0.00    -0.034 C 
ATOM    100  C   UNL A   1      41.978  31.095  35.437  1.00  0.00    -0.036 A 
ATOM    101  H   UNL A   1      42.324  29.006  35.908  1.00  0.00     0.065 H 
ATOM    102  C   UNL A   1      42.224  31.821  34.282  1.00  0.00     0.049 A 
ATOM    103  H   UNL A   1      42.998  31.158  32.433  1.00  0.00     0.167 HD
ATOM    104  C   UNL A   1      42.311  33.874  32.896  1.00  0.00     0.074 A 
ATOM    105  C   UNL A   1      42.083  35.286  32.669  1.00  0.00    -0.034 C 
ATOM    106  H   UNL A   1      42.351  36.561  30.979  1.00  0.00     0.065 H 
ATOM    107  H   UNL A   1      41.579  31.470  36.311  1.00  0.00     0.065 H 
ATOM    108  C   UNL A   1      42.003  33.224  34.043  1.00  0.00     0.037 A 
ATOM    109  H   UNL A   1      41.701  35.935  33.375  1.00  0.00     0.065 H 
BRANCH  90 110
ATOM    110  C   UNL A   1      43.263  27.188  33.972  1.00  0.00     0.064 A 
ATOM    111  C   UNL A   1      44.453  26.586  34.408  1.00  0.00     0.173 A 
ATOM    112  C   UNL A   1      42.050  26.585  34.339  1.00  0.00     0.173 A 
ATOM    113  F   UNL A   1      45.639  27.118  34.074  1.00  0.00    -0.203 F 
ATOM    114  C   UNL A   1      44.429  25.425  35.174  1.00  0.00     0.198 A 
ATOM    115  C   UNL A   1      42.029  25.437  35.128  1.00  0.00     0.198 A 
ATOM    116  F   UNL A   1      40.883  27.125  33.955  1.00  0.00    -0.203 F 
ATOM    117  F   UNL A   1      45.580  24.853  35.558  1.00  0.00    -0.200 F 
ATOM    118  C   UNL A   1      43.218  24.858  35.542  1.00  0.00     0.200 A 
ATOM    119  F   UNL A   1      40.858  24.900  35.495  1.00  0.00    -0.200 F 
ATOM    120  F   UNL A   1      43.197  23.750  36.298  1.00  0.00    -0.200 F 
ENDBRANCH  90 110
BRANCH  93 121
ATOM    121  C   UNL A   1      43.559  35.676  28.731  1.00  0.00     0.064 A 
ATOM    122  C   UNL A   1      44.737  36.435  28.715  1.00  0.00     0.173 A 
ATOM    123  C   UNL A   1      42.468  36.149  27.985  1.00  0.00     0.173 A 
ATOM    124  F   UNL A   1      45.799  36.036  29.430  1.00  0.00    -0.203 F 
ATOM    125  C   UNL A   1      44.819  37.620  27.988  1.00  0.00     0.198 A 
ATOM    126  C   UNL A   1      42.561  37.318  27.235  1.00  0.00     0.198 A 
ATOM    127  F   UNL A   1      41.318  35.458  27.967  1.00  0.00    -0.203 F 
ATOM    128  F   UNL A   1      45.947  38.344  28.015  1.00  0.00    -0.200 F 
ATOM    129  C   UNL A   1      43.734  38.056  27.241  1.00  0.00     0.200 A 
ATOM    130  F   UNL A   1      41.516  37.726  26.502  1.00  0.00    -0.200 F 
ATOM    131  F   UNL A   1      43.819  39.189  26.530  1.00  0.00    -0.200 F 
ENDBRANCH  93 121
BRANCH 108 132
ATOM    132  C   UNL A   1      41.384  34.025  35.150  1.00  0.00     0.064 A 
ATOM    133  C   UNL A   1      40.010  33.953  35.420  1.00  0.00     0.173 A 
ATOM    134  C   UNL A   1      42.183  34.806  35.998  1.00  0.00     0.173 A 
ATOM    135  F   UNL A   1      39.204  33.230  34.628  1.00  0.00    -0.203 F 
ATOM    136  C   UNL A   1      39.456  34.642  36.495  1.00  0.00     0.198 A 
ATOM    137  C   UNL A   1      41.630  35.473  37.088  1.00  0.00     0.198 A 
ATOM    138  F   UNL A   1      43.505  34.900  35.786  1.00  0.00    -0.203 F 
ATOM    139  F   UNL A   1      38.137  34.581  36.718  1.00  0.00    -0.200 F 
ATOM    140  C   UNL A   1      40.268  35.392  37.333  1.00  0.00     0.200 A 
ATOM    141  F   UNL A   1      42.418  36.184  37.906  1.00  0.00    -0.200 F 
ATOM    142  F   UNL A   1      39.736  36.039  38.379  1.00  0.00    -0.200 F 
ENDBRANCH 108 132
ENDBRANCH  73  76
ENDBRANCH  63  66
ENDBRANCH  59  62
ENDBRANCH  56  59
ENDBRANCH  53  56
ENDBRANCH  50  53
ENDBRANCH   1  50
TORSDOF 19
ENDMDL
MODEL 10
REMARK VINA RESULT:     -11.9      3.938      8.620
REMARK SMILES CC1=C(CC(=O)NCCCCCCNC(=O)c2ccc(-c3c4nc(c(-c5c(F)c(F)c(F)c(F)c5F)c5ccc([nH]5)c(-c5c(F)c(F)c(F)c(F)c5F)c5nc(c(-c6c(F)c(F)c(F)c(F)c6F)c6ccc3[nH]6)C=C5)C=C4)cc2)c2cc(F)ccc2/C1=C\c1ccc([S@@+](C)O)cc1
REMARK SMILES IDX 9 1 8 4 7 7 5 8 6 9 4 11 3 14 2 15 87 16 80 17 86 18 88 19
REMARK SMILES IDX 81 20 85 21 82 23 84 25 83 27 1 29 89 33 90 34 97 35 91 36
REMARK SMILES IDX 96 38 92 40 93 43 94 44 95 48 10 50 11 53 12 56 13 59 14 62
REMARK SMILES IDX 15 63 16 65 17 66 18 67 79 68 19 69 78 71 20 73 21 76 22 77
REMARK SMILES IDX 72 78 23 79 77 80 71 81 73 82 24 83 76 84 70 86 69 88 25 90
REMARK SMILES IDX 57 93 37 94 56 95 38 96 41 97 55 98 74 99 39 100 40 102
REMARK SMILES IDX 54 104 75 105 42 108 26 110 27 111 35 112 28 113 29 114
REMARK SMILES IDX 33 115 36 116 30 117 31 118 34 119 32 120 58 121 59 122
REMARK SMILES IDX 67 123 60 124 61 125 65 126 68 127 62 128 63 129 66 130
REMARK SMILES IDX 64 131 43 132 44 133 52 134 45 135 46 136 50 137 53 138
REMARK SMILES IDX 47 139 48 140 51 141 49 142
REMARK H PARENT 9 2 9 3 8 5 8 6 7 10 4 12 4 13 88 22 81 24 85 26 84 28 1 30
REMARK H PARENT 1 31 1 32 90 37 97 39 91 41 96 42 94 45 94 46 94 47 95 49
REMARK H PARENT 10 51 10 52 11 54 11 55 12 57 12 58 13 60 13 61 14 64 18 70
REMARK H PARENT 79 72 19 74 78 75 77 85 71 87 73 89 76 91 70 92 38 101 41 103
REMARK H PARENT 74 106 39 107 75 109
REMARK Flexibility Score: inf
ROOT
ATOM      1  C   UNL A   1      36.548  19.362  24.626  1.00  0.00    -0.036 C 
ATOM      2  H   UNL A   1      36.676  19.341  23.564  1.00  0.00     0.028 H 
ATOM      3  H   UNL A   1      37.448  19.125  25.154  1.00  0.00     0.028 H 
ENDROOT
BRANCH   1   4
ATOM      4  C   UNL A   1      35.519  18.296  25.007  1.00  0.00     0.017 C 
ATOM      5  H   UNL A   1      36.027  17.461  25.444  1.00  0.00     0.049 H 
ATOM      6  H   UNL A   1      34.830  18.727  25.704  1.00  0.00     0.049 H 
BRANCH   4   7
ATOM      7  N   UNL A   1      34.776  17.844  23.851  1.00  0.00    -0.356 N 
ATOM      8  C   UNL A   1      33.444  17.955  23.590  1.00  0.00     0.224 C 
ATOM      9  O   UNL A   1      33.001  17.413  22.574  1.00  0.00    -0.275 OA
ATOM     10  H   UNL A   1      35.308  17.393  23.155  1.00  0.00     0.163 HD
BRANCH   8  11
ATOM     11  C   UNL A   1      32.540  18.781  24.504  1.00  0.00     0.053 C 
ATOM     12  H   UNL A   1      31.543  18.401  24.420  1.00  0.00     0.042 H 
ATOM     13  H   UNL A   1      32.941  18.688  25.492  1.00  0.00     0.042 H 
BRANCH  11  14
ATOM     14  C   UNL A   1      32.511  20.242  24.192  1.00  0.00    -0.027 C 
ATOM     15  C   UNL A   1      32.206  20.864  23.028  1.00  0.00    -0.039 C 
ATOM     16  C   UNL A   1      32.332  22.321  23.196  1.00  0.00    -0.014 C 
ATOM     17  C   UNL A   1      32.778  21.282  25.201  1.00  0.00    -0.011 A 
ATOM     18  C   UNL A   1      32.619  22.557  24.626  1.00  0.00    -0.010 A 
ATOM     19  C   UNL A   1      32.248  23.213  22.188  1.00  0.00    -0.047 C 
ATOM     20  C   UNL A   1      33.107  21.147  26.544  1.00  0.00    -0.018 A 
ATOM     21  C   UNL A   1      32.723  23.698  25.409  1.00  0.00    -0.051 A 
ATOM     22  H   UNL A   1      32.066  22.843  21.241  1.00  0.00     0.064 H 
ATOM     23  C   UNL A   1      33.267  22.301  27.304  1.00  0.00     0.123 A 
ATOM     24  H   UNL A   1      33.230  20.213  26.967  1.00  0.00     0.066 H 
ATOM     25  C   UNL A   1      33.069  23.567  26.756  1.00  0.00    -0.026 A 
ATOM     26  H   UNL A   1      32.548  24.630  25.002  1.00  0.00     0.063 H 
ATOM     27  F   UNL A   1      33.602  22.197  28.597  1.00  0.00    -0.207 F 
ATOM     28  H   UNL A   1      33.176  24.407  27.345  1.00  0.00     0.065 H 
BRANCH  15  29
ATOM     29  C   UNL A   1      31.782  20.243  21.737  1.00  0.00    -0.039 C 
ATOM     30  H   UNL A   1      32.000  20.913  20.930  1.00  0.00     0.028 H 
ATOM     31  H   UNL A   1      30.730  20.048  21.762  1.00  0.00     0.028 H 
ATOM     32  H   UNL A   1      32.311  19.325  21.591  1.00  0.00     0.028 H 
ENDBRANCH  15  29
BRANCH  19  33
ATOM     33  C   UNL A   1      32.396  24.663  22.327  1.00  0.00    -0.025 A 
ATOM     34  C   UNL A   1      33.660  25.263  22.365  1.00  0.00    -0.050 A 
ATOM     35  C   UNL A   1      31.260  25.441  22.560  1.00  0.00    -0.050 A 
ATOM     36  C   UNL A   1      33.791  26.594  22.773  1.00  0.00    -0.003 A 
ATOM     37  H   UNL A   1      34.496  24.722  22.090  1.00  0.00     0.063 H 
ATOM     38  C   UNL A   1      31.393  26.777  22.950  1.00  0.00    -0.003 A 
ATOM     39  H   UNL A   1      30.321  25.029  22.445  1.00  0.00     0.063 H 
ATOM     40  C   UNL A   1      32.660  27.352  23.099  1.00  0.00     0.189 A 
ATOM     41  H   UNL A   1      34.729  27.021  22.835  1.00  0.00     0.068 H 
ATOM     42  H   UNL A   1      30.549  27.344  23.128  1.00  0.00     0.068 H 
BRANCH  40  43
ATOM     43  S   UNL A   1      32.858  28.948  23.937  1.00  0.00     0.178 S 
BRANCH  43  44
ATOM     44  C   UNL A   1      33.682  28.373  25.444  1.00  0.00     0.137 C 
ATOM     45  H   UNL A   1      33.852  27.319  25.377  1.00  0.00     0.085 H 
ATOM     46  H   UNL A   1      33.062  28.581  26.290  1.00  0.00     0.085 H 
ATOM     47  H   UNL A   1      34.618  28.879  25.553  1.00  0.00     0.085 H 
ENDBRANCH  43  44
BRANCH  43  48
ATOM     48  O   UNL A   1      34.242  29.328  23.208  1.00  0.00    -0.182 OA
ATOM     49  H   UNL A   1      34.538  30.201  23.512  1.00  0.00     0.283 HD
ENDBRANCH  43  48
ENDBRANCH  40  43
ENDBRANCH  19  33
ENDBRANCH  11  14
ENDBRANCH   8  11
ENDBRANCH   4   7
ENDBRANCH   1   4
BRANCH   1  50
ATOM     50  C   UNL A   1      36.153  20.786  25.037  1.00  0.00    -0.052 C 
ATOM     51  H   UNL A   1      36.622  21.002  25.975  1.00  0.00     0.027 H 
ATOM     52  H   UNL A   1      35.083  20.794  25.081  1.00  0.00     0.027 H 
BRANCH  50  53
ATOM     53  C   UNL A   1      36.543  21.889  24.047  1.00  0.00    -0.052 C 
ATOM     54  H   UNL A   1      35.993  21.731  23.143  1.00  0.00     0.027 H 
ATOM     55  H   UNL A   1      37.603  21.815  23.923  1.00  0.00     0.027 H 
BRANCH  53  56
ATOM     56  C   UNL A   1      36.270  23.317  24.522  1.00  0.00    -0.036 C 
ATOM     57  H   UNL A   1      35.257  23.368  24.863  1.00  0.00     0.028 H 
ATOM     58  H   UNL A   1      36.466  23.955  23.686  1.00  0.00     0.028 H 
BRANCH  56  59
ATOM     59  C   UNL A   1      37.174  23.796  25.651  1.00  0.00     0.018 C 
ATOM     60  H   UNL A   1      36.623  23.764  26.568  1.00  0.00     0.049 H 
ATOM     61  H   UNL A   1      37.489  24.790  25.412  1.00  0.00     0.049 H 
BRANCH  59  62
ATOM     62  N   UNL A   1      38.371  22.981  25.798  1.00  0.00    -0.352 N 
ATOM     63  C   UNL A   1      39.582  23.308  26.361  1.00  0.00     0.251 C 
ATOM     64  H   UNL A   1      38.303  22.065  25.445  1.00  0.00     0.163 HD
ATOM     65  O   UNL A   1      40.537  22.543  26.270  1.00  0.00    -0.269 OA
BRANCH  63  66
ATOM     66  C   UNL A   1      39.743  24.608  27.049  1.00  0.00     0.039 A 
ATOM     67  C   UNL A   1      40.374  25.677  26.412  1.00  0.00    -0.049 A 
ATOM     68  C   UNL A   1      39.280  24.749  28.361  1.00  0.00    -0.049 A 
ATOM     69  C   UNL A   1      40.700  26.816  27.139  1.00  0.00    -0.053 A 
ATOM     70  H   UNL A   1      40.599  25.621  25.406  1.00  0.00     0.063 H 
ATOM     71  C   UNL A   1      39.530  25.932  29.063  1.00  0.00    -0.053 A 
ATOM     72  H   UNL A   1      38.754  23.982  28.809  1.00  0.00     0.063 H 
ATOM     73  C   UNL A   1      40.292  26.955  28.477  1.00  0.00    -0.014 A 
ATOM     74  H   UNL A   1      41.248  27.567  26.692  1.00  0.00     0.063 H 
ATOM     75  H   UNL A   1      39.154  26.054  30.017  1.00  0.00     0.063 H 
BRANCH  73  76
ATOM     76  C   UNL A   1      40.692  28.169  29.235  1.00  0.00     0.031 A 
ATOM     77  C   UNL A   1      39.703  29.273  29.500  1.00  0.00     0.074 A 
ATOM     78  C   UNL A   1      41.933  28.241  29.755  1.00  0.00     0.049 A 
ATOM     79  N   UNL A   1      39.861  30.373  30.193  1.00  0.00    -0.248 NA
ATOM     80  C   UNL A   1      38.362  29.128  28.912  1.00  0.00    -0.034 C 
ATOM     81  C   UNL A   1      42.978  27.232  29.573  1.00  0.00    -0.036 A 
ATOM     82  N   UNL A   1      42.516  29.179  30.568  1.00  0.00    -0.354 N 
ATOM     83  C   UNL A   1      38.652  31.052  30.113  1.00  0.00     0.074 A 
ATOM     84  C   UNL A   1      37.777  30.261  29.277  1.00  0.00    -0.034 C 
ATOM     85  H   UNL A   1      37.976  28.347  28.359  1.00  0.00     0.065 H 
ATOM     86  C   UNL A   1      44.049  27.572  30.305  1.00  0.00    -0.036 A 
ATOM     87  H   UNL A   1      42.903  26.392  28.977  1.00  0.00     0.065 H 
ATOM     88  C   UNL A   1      43.793  28.852  30.957  1.00  0.00     0.049 A 
ATOM     89  H   UNL A   1      42.064  30.008  30.846  1.00  0.00     0.167 HD
ATOM     90  C   UNL A   1      38.298  32.220  30.702  1.00  0.00     0.037 A 
ATOM     91  H   UNL A   1      36.823  30.541  29.001  1.00  0.00     0.065 H 
ATOM     92  H   UNL A   1      44.916  27.018  30.392  1.00  0.00     0.065 H 
ATOM     93  C   UNL A   1      44.662  29.510  31.747  1.00  0.00     0.037 A 
ATOM     94  C   UNL A   1      39.159  32.992  31.559  1.00  0.00     0.049 A 
ATOM     95  C   UNL A   1      44.256  30.825  32.350  1.00  0.00     0.074 A 
ATOM     96  C   UNL A   1      38.876  34.173  32.223  1.00  0.00    -0.036 A 
ATOM     97  N   UNL A   1      40.467  32.660  31.872  1.00  0.00    -0.354 N 
ATOM     98  N   UNL A   1      43.104  31.443  32.280  1.00  0.00    -0.248 NA
ATOM     99  C   UNL A   1      45.276  31.540  33.130  1.00  0.00    -0.034 C 
ATOM    100  C   UNL A   1      40.027  34.579  32.904  1.00  0.00    -0.036 A 
ATOM    101  H   UNL A   1      37.972  34.670  32.216  1.00  0.00     0.065 H 
ATOM    102  C   UNL A   1      41.014  33.626  32.702  1.00  0.00     0.049 A 
ATOM    103  H   UNL A   1      40.939  31.856  31.554  1.00  0.00     0.167 HD
ATOM    104  C   UNL A   1      43.255  32.614  33.011  1.00  0.00     0.074 A 
ATOM    105  C   UNL A   1      44.603  32.607  33.538  1.00  0.00    -0.034 C 
ATOM    106  H   UNL A   1      46.258  31.279  33.313  1.00  0.00     0.065 H 
ATOM    107  H   UNL A   1      40.126  35.440  33.463  1.00  0.00     0.065 H 
ATOM    108  C   UNL A   1      42.357  33.606  33.219  1.00  0.00     0.037 A 
ATOM    109  H   UNL A   1      44.992  33.340  34.153  1.00  0.00     0.065 H 
BRANCH  90 110
ATOM    110  C   UNL A   1      36.915  32.745  30.452  1.00  0.00     0.064 A 
ATOM    111  C   UNL A   1      35.887  32.577  31.392  1.00  0.00     0.173 A 
ATOM    112  C   UNL A   1      36.636  33.500  29.302  1.00  0.00     0.173 A 
ATOM    113  F   UNL A   1      36.100  31.855  32.503  1.00  0.00    -0.203 F 
ATOM    114  C   UNL A   1      34.629  33.137  31.185  1.00  0.00     0.198 A 
ATOM    115  C   UNL A   1      35.385  34.080  29.111  1.00  0.00     0.198 A 
ATOM    116  F   UNL A   1      37.587  33.697  28.376  1.00  0.00    -0.203 F 
ATOM    117  F   UNL A   1      33.655  32.943  32.085  1.00  0.00    -0.200 F 
ATOM    118  C   UNL A   1      34.383  33.897  30.051  1.00  0.00     0.200 A 
ATOM    119  F   UNL A   1      35.153  34.826  28.022  1.00  0.00    -0.200 F 
ATOM    120  F   UNL A   1      33.177  34.452  29.863  1.00  0.00    -0.200 F 
ENDBRANCH  90 110
BRANCH  93 121
ATOM    121  C   UNL A   1      46.001  28.925  32.014  1.00  0.00     0.064 A 
ATOM    122  C   UNL A   1      46.220  28.103  33.127  1.00  0.00     0.173 A 
ATOM    123  C   UNL A   1      47.084  29.156  31.151  1.00  0.00     0.173 A 
ATOM    124  F   UNL A   1      45.222  27.869  33.993  1.00  0.00    -0.203 F 
ATOM    125  C   UNL A   1      47.471  27.541  33.371  1.00  0.00     0.198 A 
ATOM    126  C   UNL A   1      48.326  28.570  31.380  1.00  0.00     0.198 A 
ATOM    127  F   UNL A   1      46.925  29.935  30.070  1.00  0.00    -0.203 F 
ATOM    128  F   UNL A   1      47.663  26.785  34.462  1.00  0.00    -0.200 F 
ATOM    129  C   UNL A   1      48.520  27.767  32.492  1.00  0.00     0.200 A 
ATOM    130  F   UNL A   1      49.331  28.778  30.518  1.00  0.00    -0.200 F 
ATOM    131  F   UNL A   1      49.720  27.214  32.720  1.00  0.00    -0.200 F 
ENDBRANCH  93 121
BRANCH 108 132
ATOM    132  C   UNL A   1      42.796  34.776  34.051  1.00  0.00     0.064 A 
ATOM    133  C   UNL A   1      42.724  34.740  35.451  1.00  0.00     0.173 A 
ATOM    134  C   UNL A   1      43.366  35.906  33.447  1.00  0.00     0.173 A 
ATOM    135  F   UNL A   1      42.173  33.686  36.071  1.00  0.00    -0.203 F 
ATOM    136  C   UNL A   1      43.201  35.799  36.217  1.00  0.00     0.198 A 
ATOM    137  C   UNL A   1      43.866  36.952  34.218  1.00  0.00     0.198 A 
ATOM    138  F   UNL A   1      43.464  35.984  32.112  1.00  0.00    -0.203 F 
ATOM    139  F   UNL A   1      43.097  35.756  37.552  1.00  0.00    -0.200 F 
ATOM    140  C   UNL A   1      43.780  36.899  35.601  1.00  0.00     0.200 A 
ATOM    141  F   UNL A   1      44.440  38.006  33.623  1.00  0.00    -0.200 F 
ATOM    142  F   UNL A   1      44.256  37.908  36.342  1.00  0.00    -0.200 F 
ENDBRANCH 108 132
ENDBRANCH  73  76
ENDBRANCH  63  66
ENDBRANCH  59  62
ENDBRANCH  56  59
ENDBRANCH  53  56
ENDBRANCH  50  53
ENDBRANCH   1  50
TORSDOF 19
ENDMDL
