MODEL 1
REMARK VINA RESULT:     -12.1      0.000      0.000
REMARK SMILES CCc1cc(/C=C/C(=O)NCCCCCCNC(=O)c2ccc(-c3c4nc(c(-c5c(F)c(F)c(F)c(F)c5F)c5ccc([nH]5)c(-c5c(F)c(F)c(F)c(F)c5F)c5nc(c(-c6c(F)c(F)c(F)c(F)c6F)c6ccc3[nH]6)C=C5)C=C4)cc2)cc(C(=O)c2ccccc2)c1
REMARK SMILES IDX 13 1 12 4 11 7 10 10 8 11 9 12 7 14 6 15 5 18 3 19 4 20
REMARK SMILES IDX 93 21 84 23 83 25 2 27 1 30 85 34 86 35 87 36 88 37 92 38
REMARK SMILES IDX 89 39 91 41 90 43 14 47 15 50 16 53 17 56 18 57 19 59 20 60
REMARK SMILES IDX 21 61 82 62 22 63 81 65 23 67 24 70 25 71 75 72 26 73 80 74
REMARK SMILES IDX 74 75 76 76 27 77 79 78 73 80 72 82 28 84 60 87 40 88 59 89
REMARK SMILES IDX 41 90 44 91 58 92 77 93 42 94 43 96 57 98 78 99 45 102
REMARK SMILES IDX 29 104 30 105 38 106 31 107 32 108 36 109 39 110 33 111
REMARK SMILES IDX 34 112 37 113 35 114 61 115 62 116 70 117 63 118 64 119
REMARK SMILES IDX 68 120 71 121 65 122 66 123 69 124 67 125 46 126 47 127
REMARK SMILES IDX 55 128 48 129 49 130 53 131 56 132 50 133 51 134 54 135
REMARK SMILES IDX 52 136
REMARK H PARENT 13 2 13 3 12 5 12 6 11 8 11 9 10 13 6 16 7 17 4 22 93 24 83 26
REMARK H PARENT 2 28 2 29 1 31 1 32 1 33 88 40 92 42 89 44 91 45 90 46 14 48
REMARK H PARENT 14 49 15 51 15 52 16 54 16 55 17 58 21 64 82 66 22 68 81 69
REMARK H PARENT 80 79 74 81 76 83 79 85 73 86 41 95 44 97 77 100 42 101 78 103
REMARK Flexibility Score: inf
ROOT
ATOM      1  C   UNL A   1      31.418  27.168  25.135  1.00  0.00    -0.052 C 
ATOM      2  H   UNL A   1      30.736  26.448  25.539  1.00  0.00     0.027 H 
ATOM      3  H   UNL A   1      31.463  28.069  25.710  1.00  0.00     0.027 H 
ENDROOT
BRANCH   1   4
ATOM      4  C   UNL A   1      30.922  27.565  23.738  1.00  0.00    -0.036 C 
ATOM      5  H   UNL A   1      30.025  28.138  23.844  1.00  0.00     0.028 H 
ATOM      6  H   UNL A   1      31.703  28.129  23.270  1.00  0.00     0.028 H 
BRANCH   4   7
ATOM      7  C   UNL A   1      30.629  26.359  22.844  1.00  0.00     0.018 C 
ATOM      8  H   UNL A   1      30.806  25.459  23.394  1.00  0.00     0.049 H 
ATOM      9  H   UNL A   1      29.607  26.396  22.529  1.00  0.00     0.049 H 
BRANCH   7  10
ATOM     10  N   UNL A   1      31.487  26.388  21.676  1.00  0.00    -0.353 N 
ATOM     11  C   UNL A   1      32.526  25.604  21.299  1.00  0.00     0.243 C 
ATOM     12  O   UNL A   1      33.085  25.831  20.227  1.00  0.00    -0.270 OA
ATOM     13  H   UNL A   1      31.276  27.109  21.041  1.00  0.00     0.163 HD
BRANCH  11  14
ATOM     14  C   UNL A   1      32.966  24.434  22.094  1.00  0.00     0.003 C 
ATOM     15  C   UNL A   1      34.144  24.288  22.717  1.00  0.00    -0.049 C 
ATOM     16  H   UNL A   1      34.800  25.084  22.689  1.00  0.00     0.063 H 
ATOM     17  H   UNL A   1      32.297  23.653  22.177  1.00  0.00     0.068 H 
BRANCH  15  18
ATOM     18  C   UNL A   1      34.572  23.080  23.435  1.00  0.00    -0.024 A 
ATOM     19  C   UNL A   1      36.219  21.869  24.764  1.00  0.00    -0.047 A 
ATOM     20  C   UNL A   1      35.872  22.938  23.926  1.00  0.00    -0.052 A 
ATOM     21  C   UNL A   1      35.256  20.899  25.071  1.00  0.00    -0.048 A 
ATOM     22  H   UNL A   1      36.591  23.634  23.668  1.00  0.00     0.063 H 
ATOM     23  C   UNL A   1      33.949  21.023  24.584  1.00  0.00     0.023 A 
ATOM     24  H   UNL A   1      35.512  20.090  25.657  1.00  0.00     0.063 H 
ATOM     25  C   UNL A   1      33.617  22.109  23.761  1.00  0.00    -0.044 A 
ATOM     26  H   UNL A   1      32.658  22.193  23.390  1.00  0.00     0.064 H 
BRANCH  19  27
ATOM     27  C   UNL A   1      37.592  21.827  25.389  1.00  0.00    -0.031 C 
ATOM     28  H   UNL A   1      37.578  21.149  26.218  1.00  0.00     0.031 H 
ATOM     29  H   UNL A   1      38.294  21.498  24.650  1.00  0.00     0.031 H 
BRANCH  27  30
ATOM     30  C   UNL A   1      38.011  23.209  25.879  1.00  0.00    -0.061 C 
ATOM     31  H   UNL A   1      38.405  23.773  25.060  1.00  0.00     0.023 H 
ATOM     32  H   UNL A   1      38.761  23.107  26.635  1.00  0.00     0.023 H 
ATOM     33  H   UNL A   1      37.161  23.715  26.285  1.00  0.00     0.023 H 
ENDBRANCH  27  30
ENDBRANCH  19  27
BRANCH  23  34
ATOM     34  C   UNL A   1      32.875  20.044  24.916  1.00  0.00     0.193 C 
ATOM     35  O   UNL A   1      31.777  20.441  25.299  1.00  0.00    -0.289 OA
BRANCH  34  36
ATOM     36  C   UNL A   1      33.093  18.587  24.785  1.00  0.00     0.022 A 
ATOM     37  C   UNL A   1      32.744  17.762  25.858  1.00  0.00    -0.051 A 
ATOM     38  C   UNL A   1      33.650  18.037  23.625  1.00  0.00    -0.051 A 
ATOM     39  C   UNL A   1      32.903  16.381  25.751  1.00  0.00    -0.062 A 
ATOM     40  H   UNL A   1      32.371  18.174  26.729  1.00  0.00     0.063 H 
ATOM     41  C   UNL A   1      33.808  16.654  23.522  1.00  0.00    -0.062 A 
ATOM     42  H   UNL A   1      33.944  18.652  22.849  1.00  0.00     0.063 H 
ATOM     43  C   UNL A   1      33.425  15.828  24.579  1.00  0.00    -0.062 A 
ATOM     44  H   UNL A   1      32.634  15.768  26.535  1.00  0.00     0.062 H 
ATOM     45  H   UNL A   1      34.206  16.243  22.663  1.00  0.00     0.062 H 
ATOM     46  H   UNL A   1      33.529  14.804  24.496  1.00  0.00     0.062 H 
ENDBRANCH  34  36
ENDBRANCH  23  34
ENDBRANCH  15  18
ENDBRANCH  11  14
ENDBRANCH   7  10
ENDBRANCH   4   7
ENDBRANCH   1   4
BRANCH   1  47
ATOM     47  C   UNL A   1      32.826  26.561  25.164  1.00  0.00    -0.052 C 
ATOM     48  H   UNL A   1      33.008  26.093  24.218  1.00  0.00     0.027 H 
ATOM     49  H   UNL A   1      32.844  25.872  25.982  1.00  0.00     0.027 H 
BRANCH  47  50
ATOM     50  C   UNL A   1      33.948  27.570  25.422  1.00  0.00    -0.036 C 
ATOM     51  H   UNL A   1      33.768  28.436  24.819  1.00  0.00     0.028 H 
ATOM     52  H   UNL A   1      34.869  27.084  25.173  1.00  0.00     0.028 H 
BRANCH  50  53
ATOM     53  C   UNL A   1      34.055  28.008  26.876  1.00  0.00     0.018 C 
ATOM     54  H   UNL A   1      35.040  27.792  27.234  1.00  0.00     0.049 H 
ATOM     55  H   UNL A   1      33.321  27.475  27.444  1.00  0.00     0.049 H 
BRANCH  53  56
ATOM     56  N   UNL A   1      33.801  29.433  27.021  1.00  0.00    -0.352 N 
ATOM     57  C   UNL A   1      34.529  30.376  27.701  1.00  0.00     0.251 C 
ATOM     58  H   UNL A   1      32.994  29.767  26.568  1.00  0.00     0.163 HD
ATOM     59  O   UNL A   1      34.051  31.476  27.948  1.00  0.00    -0.269 OA
BRANCH  57  60
ATOM     60  C   UNL A   1      35.901  30.049  28.136  1.00  0.00     0.039 A 
ATOM     61  C   UNL A   1      36.113  29.606  29.444  1.00  0.00    -0.049 A 
ATOM     62  C   UNL A   1      36.973  30.186  27.250  1.00  0.00    -0.049 A 
ATOM     63  C   UNL A   1      37.400  29.249  29.847  1.00  0.00    -0.053 A 
ATOM     64  H   UNL A   1      35.325  29.542  30.106  1.00  0.00     0.063 H 
ATOM     65  C   UNL A   1      38.238  29.758  27.629  1.00  0.00    -0.053 A 
ATOM     66  H   UNL A   1      36.825  30.606  26.319  1.00  0.00     0.063 H 
ATOM     67  C   UNL A   1      38.466  29.293  28.933  1.00  0.00    -0.014 A 
ATOM     68  H   UNL A   1      37.569  28.950  30.821  1.00  0.00     0.063 H 
ATOM     69  H   UNL A   1      39.013  29.781  26.949  1.00  0.00     0.063 H 
BRANCH  67  70
ATOM     70  C   UNL A   1      39.835  28.874  29.320  1.00  0.00     0.031 A 
ATOM     71  C   UNL A   1      40.693  29.792  30.144  1.00  0.00     0.074 A 
ATOM     72  C   UNL A   1      40.329  27.708  28.864  1.00  0.00     0.049 A 
ATOM     73  N   UNL A   1      41.945  29.659  30.501  1.00  0.00    -0.248 NA
ATOM     74  C   UNL A   1      40.067  31.041  30.606  1.00  0.00    -0.034 C 
ATOM     75  C   UNL A   1      39.604  26.753  28.025  1.00  0.00    -0.036 A 
ATOM     76  N   UNL A   1      41.564  27.134  29.030  1.00  0.00    -0.354 N 
ATOM     77  C   UNL A   1      42.258  30.811  31.211  1.00  0.00     0.074 A 
ATOM     78  C   UNL A   1      41.084  31.656  31.187  1.00  0.00    -0.034 C 
ATOM     79  H   UNL A   1      39.089  31.355  30.504  1.00  0.00     0.065 H 
ATOM     80  C   UNL A   1      40.400  25.704  27.764  1.00  0.00    -0.036 A 
ATOM     81  H   UNL A   1      38.636  26.867  27.687  1.00  0.00     0.065 H 
ATOM     82  C   UNL A   1      41.704  25.933  28.377  1.00  0.00     0.049 A 
ATOM     83  H   UNL A   1      42.282  27.543  29.566  1.00  0.00     0.167 HD
ATOM     84  C   UNL A   1      43.413  31.123  31.843  1.00  0.00     0.037 A 
ATOM     85  H   UNL A   1      41.046  32.613  31.573  1.00  0.00     0.065 H 
ATOM     86  H   UNL A   1      40.133  24.870  27.217  1.00  0.00     0.065 H 
ATOM     87  C   UNL A   1      42.772  25.118  28.275  1.00  0.00     0.037 A 
ATOM     88  C   UNL A   1      44.570  30.267  31.876  1.00  0.00     0.049 A 
ATOM     89  C   UNL A   1      44.053  25.501  28.965  1.00  0.00     0.074 A 
ATOM     90  C   UNL A   1      45.771  30.464  32.535  1.00  0.00    -0.036 A 
ATOM     91  N   UNL A   1      44.671  29.051  31.214  1.00  0.00    -0.354 N 
ATOM     92  N   UNL A   1      44.319  26.560  29.692  1.00  0.00    -0.248 NA
ATOM     93  C   UNL A   1      45.183  24.571  28.827  1.00  0.00    -0.034 C 
ATOM     94  C   UNL A   1      46.617  29.395  32.226  1.00  0.00    -0.036 A 
ATOM     95  H   UNL A   1      46.001  31.261  33.148  1.00  0.00     0.065 H 
ATOM     96  C   UNL A   1      45.924  28.500  31.428  1.00  0.00     0.049 A 
ATOM     97  H   UNL A   1      43.957  28.641  30.673  1.00  0.00     0.167 HD
ATOM     98  C   UNL A   1      45.630  26.409  30.123  1.00  0.00     0.074 A 
ATOM     99  C   UNL A   1      46.103  25.151  29.586  1.00  0.00    -0.034 C 
ATOM    100  H   UNL A   1      45.244  23.698  28.281  1.00  0.00     0.065 H 
ATOM    101  H   UNL A   1      47.595  29.291  32.540  1.00  0.00     0.065 H 
ATOM    102  C   UNL A   1      46.374  27.237  30.897  1.00  0.00     0.037 A 
ATOM    103  H   UNL A   1      47.037  24.754  29.770  1.00  0.00     0.065 H 
BRANCH  84 104
ATOM    104  C   UNL A   1      43.484  32.447  32.550  1.00  0.00     0.064 A 
ATOM    105  C   UNL A   1      43.920  33.610  31.896  1.00  0.00     0.173 A 
ATOM    106  C   UNL A   1      43.082  32.561  33.889  1.00  0.00     0.173 A 
ATOM    107  F   UNL A   1      44.326  33.556  30.618  1.00  0.00    -0.203 F 
ATOM    108  C   UNL A   1      43.984  34.829  32.567  1.00  0.00     0.198 A 
ATOM    109  C   UNL A   1      43.114  33.789  34.546  1.00  0.00     0.198 A 
ATOM    110  F   UNL A   1      42.649  31.484  34.561  1.00  0.00    -0.203 F 
ATOM    111  F   UNL A   1      44.459  35.913  31.938  1.00  0.00    -0.200 F 
ATOM    112  C   UNL A   1      43.575  34.918  33.888  1.00  0.00     0.200 A 
ATOM    113  F   UNL A   1      42.702  33.877  35.819  1.00  0.00    -0.200 F 
ATOM    114  F   UNL A   1      43.631  36.093  34.530  1.00  0.00    -0.200 F 
ENDBRANCH  84 104
BRANCH  87 115
ATOM    115  C   UNL A   1      42.667  23.852  27.503  1.00  0.00     0.064 A 
ATOM    116  C   UNL A   1      42.221  22.673  28.115  1.00  0.00     0.173 A 
ATOM    117  C   UNL A   1      43.012  23.792  26.144  1.00  0.00     0.173 A 
ATOM    118  F   UNL A   1      41.897  22.675  29.417  1.00  0.00    -0.203 F 
ATOM    119  C   UNL A   1      42.143  21.477  27.404  1.00  0.00     0.198 A 
ATOM    120  C   UNL A   1      42.905  22.602  25.426  1.00  0.00     0.198 A 
ATOM    121  F   UNL A   1      43.441  24.892  25.511  1.00  0.00    -0.203 F 
ATOM    122  F   UNL A   1      41.757  20.354  28.026  1.00  0.00    -0.200 F 
ATOM    123  C   UNL A   1      42.479  21.444  26.059  1.00  0.00     0.200 A 
ATOM    124  F   UNL A   1      43.215  22.578  24.124  1.00  0.00    -0.200 F 
ATOM    125  F   UNL A   1      42.400  20.295  25.374  1.00  0.00    -0.200 F 
ENDBRANCH  87 115
BRANCH 102 126
ATOM    126  C   UNL A   1      47.762  26.791  31.254  1.00  0.00     0.064 A 
ATOM    127  C   UNL A   1      48.011  25.950  32.347  1.00  0.00     0.173 A 
ATOM    128  C   UNL A   1      48.851  27.166  30.451  1.00  0.00     0.173 A 
ATOM    129  F   UNL A   1      47.007  25.576  33.154  1.00  0.00    -0.203 F 
ATOM    130  C   UNL A   1      49.303  25.518  32.637  1.00  0.00     0.198 A 
ATOM    131  C   UNL A   1      50.136  26.705  30.723  1.00  0.00     0.198 A 
ATOM    132  F   UNL A   1      48.666  27.964  29.388  1.00  0.00    -0.203 F 
ATOM    133  F   UNL A   1      49.525  24.750  33.713  1.00  0.00    -0.200 F 
ATOM    134  C   UNL A   1      50.362  25.886  31.820  1.00  0.00     0.200 A 
ATOM    135  F   UNL A   1      51.154  27.048  29.923  1.00  0.00    -0.200 F 
ATOM    136  F   UNL A   1      51.601  25.455  32.092  1.00  0.00    -0.200 F 
ENDBRANCH 102 126
ENDBRANCH  67  70
ENDBRANCH  57  60
ENDBRANCH  53  56
ENDBRANCH  50  53
ENDBRANCH  47  50
ENDBRANCH   1  47
TORSDOF 18
ENDMDL
MODEL 2
REMARK VINA RESULT:     -12.0      3.546      8.551
REMARK SMILES CCc1cc(/C=C/C(=O)NCCCCCCNC(=O)c2ccc(-c3c4nc(c(-c5c(F)c(F)c(F)c(F)c5F)c5ccc([nH]5)c(-c5c(F)c(F)c(F)c(F)c5F)c5nc(c(-c6c(F)c(F)c(F)c(F)c6F)c6ccc3[nH]6)C=C5)C=C4)cc2)cc(C(=O)c2ccccc2)c1
REMARK SMILES IDX 13 1 12 4 11 7 10 10 8 11 9 12 7 14 6 15 5 18 3 19 4 20
REMARK SMILES IDX 93 21 84 23 83 25 2 27 1 30 85 34 86 35 87 36 88 37 92 38
REMARK SMILES IDX 89 39 91 41 90 43 14 47 15 50 16 53 17 56 18 57 19 59 20 60
REMARK SMILES IDX 21 61 82 62 22 63 81 65 23 67 24 70 25 71 75 72 26 73 80 74
REMARK SMILES IDX 74 75 76 76 27 77 79 78 73 80 72 82 28 84 60 87 40 88 59 89
REMARK SMILES IDX 41 90 44 91 58 92 77 93 42 94 43 96 57 98 78 99 45 102
REMARK SMILES IDX 29 104 30 105 38 106 31 107 32 108 36 109 39 110 33 111
REMARK SMILES IDX 34 112 37 113 35 114 61 115 62 116 70 117 63 118 64 119
REMARK SMILES IDX 68 120 71 121 65 122 66 123 69 124 67 125 46 126 47 127
REMARK SMILES IDX 55 128 48 129 49 130 53 131 56 132 50 133 51 134 54 135
REMARK SMILES IDX 52 136
REMARK H PARENT 13 2 13 3 12 5 12 6 11 8 11 9 10 13 6 16 7 17 4 22 93 24 83 26
REMARK H PARENT 2 28 2 29 1 31 1 32 1 33 88 40 92 42 89 44 91 45 90 46 14 48
REMARK H PARENT 14 49 15 51 15 52 16 54 16 55 17 58 21 64 82 66 22 68 81 69
REMARK H PARENT 80 79 74 81 76 83 79 85 73 86 41 95 44 97 77 100 42 101 78 103
REMARK Flexibility Score: inf
ROOT
ATOM      1  C   UNL A   1      31.814  29.771  26.971  1.00  0.00    -0.052 C 
ATOM      2  H   UNL A   1      32.703  29.922  27.547  1.00  0.00     0.027 H 
ATOM      3  H   UNL A   1      30.939  29.658  27.575  1.00  0.00     0.027 H 
ENDROOT
BRANCH   1   4
ATOM      4  C   UNL A   1      31.971  28.466  26.180  1.00  0.00    -0.036 C 
ATOM      5  H   UNL A   1      32.950  28.074  26.360  1.00  0.00     0.028 H 
ATOM      6  H   UNL A   1      31.206  27.796  26.513  1.00  0.00     0.028 H 
BRANCH   4   7
ATOM      7  C   UNL A   1      31.791  28.655  24.673  1.00  0.00     0.018 C 
ATOM      8  H   UNL A   1      31.763  29.701  24.449  1.00  0.00     0.049 H 
ATOM      9  H   UNL A   1      32.611  28.197  24.160  1.00  0.00     0.049 H 
BRANCH   7  10
ATOM     10  N   UNL A   1      30.555  28.036  24.240  1.00  0.00    -0.353 N 
ATOM     11  C   UNL A   1      30.232  26.746  23.981  1.00  0.00     0.243 C 
ATOM     12  O   UNL A   1      29.081  26.476  23.641  1.00  0.00    -0.270 OA
ATOM     13  H   UNL A   1      29.813  28.669  24.111  1.00  0.00     0.163 HD
BRANCH  11  14
ATOM     14  C   UNL A   1      31.195  25.636  24.165  1.00  0.00     0.003 C 
ATOM     15  C   UNL A   1      32.129  25.234  23.292  1.00  0.00    -0.049 C 
ATOM     16  H   UNL A   1      32.230  25.776  22.419  1.00  0.00     0.063 H 
ATOM     17  H   UNL A   1      31.142  25.120  25.058  1.00  0.00     0.068 H 
BRANCH  15  18
ATOM     18  C   UNL A   1      33.018  24.080  23.481  1.00  0.00    -0.024 A 
ATOM     19  C   UNL A   1      35.247  23.143  23.799  1.00  0.00    -0.047 A 
ATOM     20  C   UNL A   1      34.409  24.208  23.438  1.00  0.00    -0.052 A 
ATOM     21  C   UNL A   1      34.678  21.915  24.159  1.00  0.00    -0.048 A 
ATOM     22  H   UNL A   1      34.827  25.102  23.137  1.00  0.00     0.063 H 
ATOM     23  C   UNL A   1      33.286  21.768  24.203  1.00  0.00     0.023 A 
ATOM     24  H   UNL A   1      35.287  21.116  24.391  1.00  0.00     0.063 H 
ATOM     25  C   UNL A   1      32.464  22.849  23.854  1.00  0.00    -0.044 A 
ATOM     26  H   UNL A   1      31.438  22.737  23.872  1.00  0.00     0.064 H 
BRANCH  19  27
ATOM     27  C   UNL A   1      36.738  23.363  23.879  1.00  0.00    -0.031 C 
ATOM     28  H   UNL A   1      37.240  22.465  23.581  1.00  0.00     0.031 H 
ATOM     29  H   UNL A   1      36.999  24.170  23.226  1.00  0.00     0.031 H 
BRANCH  27  30
ATOM     30  C   UNL A   1      37.161  23.726  25.298  1.00  0.00    -0.061 C 
ATOM     31  H   UNL A   1      37.033  22.878  25.937  1.00  0.00     0.023 H 
ATOM     32  H   UNL A   1      36.558  24.535  25.654  1.00  0.00     0.023 H 
ATOM     33  H   UNL A   1      38.189  24.021  25.298  1.00  0.00     0.023 H 
ENDBRANCH  27  30
ENDBRANCH  19  27
BRANCH  23  34
ATOM     34  C   UNL A   1      32.628  20.497  24.621  1.00  0.00     0.193 C 
ATOM     35  O   UNL A   1      31.657  20.525  25.372  1.00  0.00    -0.289 OA
BRANCH  34  36
ATOM     36  C   UNL A   1      33.112  19.184  24.141  1.00  0.00     0.022 A 
ATOM     37  C   UNL A   1      32.479  18.602  23.039  1.00  0.00    -0.051 A 
ATOM     38  C   UNL A   1      34.168  18.521  24.779  1.00  0.00    -0.051 A 
ATOM     39  C   UNL A   1      32.936  17.383  22.541  1.00  0.00    -0.062 A 
ATOM     40  H   UNL A   1      31.674  19.074  22.597  1.00  0.00     0.063 H 
ATOM     41  C   UNL A   1      34.621  17.301  24.276  1.00  0.00    -0.062 A 
ATOM     42  H   UNL A   1      34.609  18.933  25.616  1.00  0.00     0.063 H 
ATOM     43  C   UNL A   1      34.013  16.739  23.153  1.00  0.00    -0.062 A 
ATOM     44  H   UNL A   1      32.480  16.958  21.719  1.00  0.00     0.062 H 
ATOM     45  H   UNL A   1      35.408  16.815  24.734  1.00  0.00     0.062 H 
ATOM     46  H   UNL A   1      34.359  15.843  22.774  1.00  0.00     0.062 H 
ENDBRANCH  34  36
ENDBRANCH  23  34
ENDBRANCH  15  18
ENDBRANCH  11  14
ENDBRANCH   7  10
ENDBRANCH   4   7
ENDBRANCH   1   4
BRANCH   1  47
ATOM     47  C   UNL A   1      31.588  31.018  26.106  1.00  0.00    -0.052 C 
ATOM     48  H   UNL A   1      30.714  30.857  25.510  1.00  0.00     0.027 H 
ATOM     49  H   UNL A   1      32.475  31.148  25.522  1.00  0.00     0.027 H 
BRANCH  47  50
ATOM     50  C   UNL A   1      31.396  32.314  26.897  1.00  0.00    -0.036 C 
ATOM     51  H   UNL A   1      30.841  32.089  27.784  1.00  0.00     0.028 H 
ATOM     52  H   UNL A   1      30.879  32.998  26.256  1.00  0.00     0.028 H 
BRANCH  50  53
ATOM     53  C   UNL A   1      32.702  32.985  27.301  1.00  0.00     0.018 C 
ATOM     54  H   UNL A   1      33.385  32.941  26.479  1.00  0.00     0.049 H 
ATOM     55  H   UNL A   1      33.098  32.466  28.150  1.00  0.00     0.049 H 
BRANCH  53  56
ATOM     56  N   UNL A   1      32.492  34.376  27.670  1.00  0.00    -0.352 N 
ATOM     57  C   UNL A   1      33.031  35.085  28.713  1.00  0.00     0.251 C 
ATOM     58  H   UNL A   1      31.876  34.879  27.089  1.00  0.00     0.163 HD
ATOM     59  O   UNL A   1      32.561  36.165  29.044  1.00  0.00    -0.269 OA
BRANCH  57  60
ATOM     60  C   UNL A   1      34.190  34.528  29.437  1.00  0.00     0.039 A 
ATOM     61  C   UNL A   1      33.988  33.909  30.674  1.00  0.00    -0.049 A 
ATOM     62  C   UNL A   1      35.474  34.622  28.893  1.00  0.00    -0.049 A 
ATOM     63  C   UNL A   1      35.072  33.338  31.341  1.00  0.00    -0.053 A 
ATOM     64  H   UNL A   1      33.045  33.875  31.090  1.00  0.00     0.063 H 
ATOM     65  C   UNL A   1      36.537  33.986  29.520  1.00  0.00    -0.053 A 
ATOM     66  H   UNL A   1      35.631  35.164  28.028  1.00  0.00     0.063 H 
ATOM     67  C   UNL A   1      36.348  33.346  30.754  1.00  0.00    -0.014 A 
ATOM     68  H   UNL A   1      34.935  32.907  32.269  1.00  0.00     0.063 H 
ATOM     69  H   UNL A   1      37.468  33.984  29.077  1.00  0.00     0.063 H 
BRANCH  67  70
ATOM     70  C   UNL A   1      37.509  32.704  31.417  1.00  0.00     0.031 A 
ATOM     71  C   UNL A   1      38.190  31.535  30.764  1.00  0.00     0.074 A 
ATOM     72  C   UNL A   1      37.895  33.123  32.637  1.00  0.00     0.049 A 
ATOM     73  N   UNL A   1      39.151  30.772  31.223  1.00  0.00    -0.248 NA
ATOM     74  C   UNL A   1      37.708  31.153  29.428  1.00  0.00    -0.034 C 
ATOM     75  C   UNL A   1      37.286  34.222  33.386  1.00  0.00    -0.036 A 
ATOM     76  N   UNL A   1      38.884  32.663  33.469  1.00  0.00    -0.354 N 
ATOM     77  C   UNL A   1      39.373  29.816  30.241  1.00  0.00     0.074 A 
ATOM     78  C   UNL A   1      38.411  30.058  29.188  1.00  0.00    -0.034 C 
ATOM     79  H   UNL A   1      37.004  31.618  28.832  1.00  0.00     0.065 H 
ATOM     80  C   UNL A   1      37.924  34.363  34.558  1.00  0.00    -0.036 A 
ATOM     81  H   UNL A   1      36.491  34.797  33.065  1.00  0.00     0.065 H 
ATOM     82  C   UNL A   1      38.956  33.337  34.663  1.00  0.00     0.049 A 
ATOM     83  H   UNL A   1      39.486  31.919  33.232  1.00  0.00     0.167 HD
ATOM     84  C   UNL A   1      40.310  28.840  30.213  1.00  0.00     0.037 A 
ATOM     85  H   UNL A   1      38.289  29.454  28.359  1.00  0.00     0.065 H 
ATOM     86  H   UNL A   1      37.719  35.082  35.270  1.00  0.00     0.065 H 
ATOM     87  C   UNL A   1      39.757  33.138  35.728  1.00  0.00     0.037 A 
ATOM     88  C   UNL A   1      41.275  28.619  31.258  1.00  0.00     0.049 A 
ATOM     89  C   UNL A   1      40.773  32.028  35.682  1.00  0.00     0.074 A 
ATOM     90  C   UNL A   1      42.302  27.693  31.302  1.00  0.00    -0.036 A 
ATOM     91  N   UNL A   1      41.326  29.331  32.448  1.00  0.00    -0.354 N 
ATOM     92  N   UNL A   1      41.021  31.171  34.721  1.00  0.00    -0.248 NA
ATOM     93  C   UNL A   1      41.624  31.861  36.868  1.00  0.00    -0.034 C 
ATOM     94  C   UNL A   1      42.939  27.808  32.541  1.00  0.00    -0.036 A 
ATOM     95  H   UNL A   1      42.555  27.032  30.550  1.00  0.00     0.065 H 
ATOM     96  C   UNL A   1      42.351  28.847  33.244  1.00  0.00     0.049 A 
ATOM     97  H   UNL A   1      40.723  30.071  32.690  1.00  0.00     0.167 HD
ATOM     98  C   UNL A   1      42.075  30.388  35.170  1.00  0.00     0.074 A 
ATOM     99  C   UNL A   1      42.427  30.877  36.486  1.00  0.00    -0.034 C 
ATOM    100  H   UNL A   1      41.602  32.375  37.763  1.00  0.00     0.065 H 
ATOM    101  H   UNL A   1      43.716  27.216  32.876  1.00  0.00     0.065 H 
ATOM    102  C   UNL A   1      42.697  29.357  34.548  1.00  0.00     0.037 A 
ATOM    103  H   UNL A   1      43.205  30.509  37.056  1.00  0.00     0.065 H 
BRANCH  84 104
ATOM    104  C   UNL A   1      40.335  27.934  29.013  1.00  0.00     0.064 A 
ATOM    105  C   UNL A   1      41.094  28.241  27.873  1.00  0.00     0.173 A 
ATOM    106  C   UNL A   1      39.613  26.731  29.015  1.00  0.00     0.173 A 
ATOM    107  F   UNL A   1      41.794  29.384  27.814  1.00  0.00    -0.203 F 
ATOM    108  C   UNL A   1      41.102  27.394  26.768  1.00  0.00     0.198 A 
ATOM    109  C   UNL A   1      39.652  25.869  27.922  1.00  0.00     0.198 A 
ATOM    110  F   UNL A   1      38.877  26.384  30.081  1.00  0.00    -0.203 F 
ATOM    111  F   UNL A   1      41.788  27.736  25.669  1.00  0.00    -0.200 F 
ATOM    112  C   UNL A   1      40.387  26.206  26.796  1.00  0.00     0.200 A 
ATOM    113  F   UNL A   1      38.973  24.714  27.957  1.00  0.00    -0.200 F 
ATOM    114  F   UNL A   1      40.402  25.389  25.734  1.00  0.00    -0.200 F 
ENDBRANCH  84 104
BRANCH  87 115
ATOM    115  C   UNL A   1      39.641  34.021  36.919  1.00  0.00     0.064 A 
ATOM    116  C   UNL A   1      40.315  35.248  36.971  1.00  0.00     0.173 A 
ATOM    117  C   UNL A   1      38.860  33.658  38.027  1.00  0.00     0.173 A 
ATOM    118  F   UNL A   1      41.090  35.631  35.945  1.00  0.00    -0.203 F 
ATOM    119  C   UNL A   1      40.231  36.070  38.093  1.00  0.00     0.198 A 
ATOM    120  C   UNL A   1      38.751  34.494  39.136  1.00  0.00     0.198 A 
ATOM    121  F   UNL A   1      38.191  32.496  38.025  1.00  0.00    -0.203 F 
ATOM    122  F   UNL A   1      40.923  37.216  38.135  1.00  0.00    -0.200 F 
ATOM    123  C   UNL A   1      39.444  35.695  39.172  1.00  0.00     0.200 A 
ATOM    124  F   UNL A   1      37.978  34.136  40.169  1.00  0.00    -0.200 F 
ATOM    125  F   UNL A   1      39.359  36.487  40.249  1.00  0.00    -0.200 F 
ENDBRANCH  87 115
BRANCH 102 126
ATOM    126  C   UNL A   1      43.857  28.717  35.255  1.00  0.00     0.064 A 
ATOM    127  C   UNL A   1      45.175  29.148  35.055  1.00  0.00     0.173 A 
ATOM    128  C   UNL A   1      43.633  27.696  36.193  1.00  0.00     0.173 A 
ATOM    129  F   UNL A   1      45.443  30.110  34.159  1.00  0.00    -0.203 F 
ATOM    130  C   UNL A   1      46.231  28.566  35.751  1.00  0.00     0.198 A 
ATOM    131  C   UNL A   1      44.687  27.139  36.912  1.00  0.00     0.198 A 
ATOM    132  F   UNL A   1      42.389  27.252  36.427  1.00  0.00    -0.203 F 
ATOM    133  F   UNL A   1      47.489  28.962  35.513  1.00  0.00    -0.200 F 
ATOM    134  C   UNL A   1      45.986  27.570  36.686  1.00  0.00     0.200 A 
ATOM    135  F   UNL A   1      44.445  26.190  37.826  1.00  0.00    -0.200 F 
ATOM    136  F   UNL A   1      47.002  27.023  37.366  1.00  0.00    -0.200 F 
ENDBRANCH 102 126
ENDBRANCH  67  70
ENDBRANCH  57  60
ENDBRANCH  53  56
ENDBRANCH  50  53
ENDBRANCH  47  50
ENDBRANCH   1  47
TORSDOF 18
ENDMDL
MODEL 3
REMARK VINA RESULT:     -11.8      4.038      6.033
REMARK SMILES CCc1cc(/C=C/C(=O)NCCCCCCNC(=O)c2ccc(-c3c4nc(c(-c5c(F)c(F)c(F)c(F)c5F)c5ccc([nH]5)c(-c5c(F)c(F)c(F)c(F)c5F)c5nc(c(-c6c(F)c(F)c(F)c(F)c6F)c6ccc3[nH]6)C=C5)C=C4)cc2)cc(C(=O)c2ccccc2)c1
REMARK SMILES IDX 13 1 12 4 11 7 10 10 8 11 9 12 7 14 6 15 5 18 3 19 4 20
REMARK SMILES IDX 93 21 84 23 83 25 2 27 1 30 85 34 86 35 87 36 88 37 92 38
REMARK SMILES IDX 89 39 91 41 90 43 14 47 15 50 16 53 17 56 18 57 19 59 20 60
REMARK SMILES IDX 21 61 82 62 22 63 81 65 23 67 24 70 25 71 75 72 26 73 80 74
REMARK SMILES IDX 74 75 76 76 27 77 79 78 73 80 72 82 28 84 60 87 40 88 59 89
REMARK SMILES IDX 41 90 44 91 58 92 77 93 42 94 43 96 57 98 78 99 45 102
REMARK SMILES IDX 29 104 30 105 38 106 31 107 32 108 36 109 39 110 33 111
REMARK SMILES IDX 34 112 37 113 35 114 61 115 62 116 70 117 63 118 64 119
REMARK SMILES IDX 68 120 71 121 65 122 66 123 69 124 67 125 46 126 47 127
REMARK SMILES IDX 55 128 48 129 49 130 53 131 56 132 50 133 51 134 54 135
REMARK SMILES IDX 52 136
REMARK H PARENT 13 2 13 3 12 5 12 6 11 8 11 9 10 13 6 16 7 17 4 22 93 24 83 26
REMARK H PARENT 2 28 2 29 1 31 1 32 1 33 88 40 92 42 89 44 91 45 90 46 14 48
REMARK H PARENT 14 49 15 51 15 52 16 54 16 55 17 58 21 64 82 66 22 68 81 69
REMARK H PARENT 80 79 74 81 76 83 79 85 73 86 41 95 44 97 77 100 42 101 78 103
REMARK Flexibility Score: inf
ROOT
ATOM      1  C   UNL A   1      34.415  32.094  28.810  1.00  0.00    -0.052 C 
ATOM      2  H   UNL A   1      34.703  31.680  29.754  1.00  0.00     0.027 H 
ATOM      3  H   UNL A   1      33.387  31.920  28.574  1.00  0.00     0.027 H 
ENDROOT
BRANCH   1   4
ATOM      4  C   UNL A   1      35.239  31.406  27.713  1.00  0.00    -0.036 C 
ATOM      5  H   UNL A   1      34.957  31.818  26.766  1.00  0.00     0.028 H 
ATOM      6  H   UNL A   1      36.271  31.581  27.932  1.00  0.00     0.028 H 
BRANCH   4   7
ATOM      7  C   UNL A   1      35.028  29.892  27.669  1.00  0.00     0.018 C 
ATOM      8  H   UNL A   1      35.394  29.511  26.738  1.00  0.00     0.049 H 
ATOM      9  H   UNL A   1      35.559  29.439  28.480  1.00  0.00     0.049 H 
BRANCH   7  10
ATOM     10  N   UNL A   1      33.617  29.585  27.793  1.00  0.00    -0.353 N 
ATOM     11  C   UNL A   1      32.864  28.578  27.290  1.00  0.00     0.243 C 
ATOM     12  O   UNL A   1      31.666  28.532  27.569  1.00  0.00    -0.270 OA
ATOM     13  H   UNL A   1      33.114  30.226  28.345  1.00  0.00     0.163 HD
BRANCH  11  14
ATOM     14  C   UNL A   1      33.444  27.483  26.478  1.00  0.00     0.003 C 
ATOM     15  C   UNL A   1      32.854  26.322  26.163  1.00  0.00    -0.049 C 
ATOM     16  H   UNL A   1      31.878  26.184  26.469  1.00  0.00     0.063 H 
ATOM     17  H   UNL A   1      34.400  27.631  26.118  1.00  0.00     0.068 H 
BRANCH  15  18
ATOM     18  C   UNL A   1      33.491  25.229  25.416  1.00  0.00    -0.024 A 
ATOM     19  C   UNL A   1      35.457  23.898  24.860  1.00  0.00    -0.047 A 
ATOM     20  C   UNL A   1      34.876  25.043  25.423  1.00  0.00    -0.052 A 
ATOM     21  C   UNL A   1      34.637  22.950  24.235  1.00  0.00    -0.048 A 
ATOM     22  H   UNL A   1      35.482  25.761  25.850  1.00  0.00     0.063 H 
ATOM     23  C   UNL A   1      33.247  23.123  24.215  1.00  0.00     0.023 A 
ATOM     24  H   UNL A   1      35.058  22.122  23.787  1.00  0.00     0.063 H 
ATOM     25  C   UNL A   1      32.683  24.267  24.798  1.00  0.00    -0.044 A 
ATOM     26  H   UNL A   1      31.661  24.402  24.770  1.00  0.00     0.064 H 
BRANCH  19  27
ATOM     27  C   UNL A   1      36.940  23.663  25.012  1.00  0.00    -0.031 C 
ATOM     28  H   UNL A   1      37.409  23.755  24.054  1.00  0.00     0.031 H 
ATOM     29  H   UNL A   1      37.333  24.391  25.691  1.00  0.00     0.031 H 
BRANCH  27  30
ATOM     30  C   UNL A   1      37.217  22.272  25.574  1.00  0.00    -0.061 C 
ATOM     31  H   UNL A   1      36.294  21.812  25.859  1.00  0.00     0.023 H 
ATOM     32  H   UNL A   1      37.854  22.354  26.429  1.00  0.00     0.023 H 
ATOM     33  H   UNL A   1      37.697  21.676  24.827  1.00  0.00     0.023 H 
ENDBRANCH  27  30
ENDBRANCH  19  27
BRANCH  23  34
ATOM     34  C   UNL A   1      32.325  22.124  23.603  1.00  0.00     0.193 C 
ATOM     35  O   UNL A   1      31.459  22.489  22.812  1.00  0.00    -0.289 OA
BRANCH  34  36
ATOM     36  C   UNL A   1      32.432  20.682  23.917  1.00  0.00     0.022 A 
ATOM     37  C   UNL A   1      32.297  19.761  22.874  1.00  0.00    -0.051 A 
ATOM     38  C   UNL A   1      32.646  20.238  25.227  1.00  0.00    -0.051 A 
ATOM     39  C   UNL A   1      32.430  18.398  23.132  1.00  0.00    -0.062 A 
ATOM     40  H   UNL A   1      32.099  20.090  21.915  1.00  0.00     0.063 H 
ATOM     41  C   UNL A   1      32.778  18.871  25.480  1.00  0.00    -0.062 A 
ATOM     42  H   UNL A   1      32.706  20.917  26.002  1.00  0.00     0.063 H 
ATOM     43  C   UNL A   1      32.680  17.955  24.432  1.00  0.00    -0.062 A 
ATOM     44  H   UNL A   1      32.345  17.716  22.362  1.00  0.00     0.062 H 
ATOM     45  H   UNL A   1      32.949  18.539  26.442  1.00  0.00     0.062 H 
ATOM     46  H   UNL A   1      32.793  16.946  24.619  1.00  0.00     0.062 H 
ENDBRANCH  34  36
ENDBRANCH  23  34
ENDBRANCH  15  18
ENDBRANCH  11  14
ENDBRANCH   7  10
ENDBRANCH   4   7
ENDBRANCH   1   4
BRANCH   1  47
ATOM     47  C   UNL A   1      34.594  33.616  28.882  1.00  0.00    -0.052 C 
ATOM     48  H   UNL A   1      35.116  33.933  28.003  1.00  0.00     0.027 H 
ATOM     49  H   UNL A   1      35.132  33.817  29.784  1.00  0.00     0.027 H 
BRANCH  47  50
ATOM     50  C   UNL A   1      33.286  34.406  28.972  1.00  0.00    -0.036 C 
ATOM     51  H   UNL A   1      32.664  33.946  29.712  1.00  0.00     0.028 H 
ATOM     52  H   UNL A   1      32.842  34.390  27.998  1.00  0.00     0.028 H 
BRANCH  50  53
ATOM     53  C   UNL A   1      33.479  35.870  29.348  1.00  0.00     0.018 C 
ATOM     54  H   UNL A   1      33.237  36.481  28.504  1.00  0.00     0.049 H 
ATOM     55  H   UNL A   1      34.500  36.011  29.638  1.00  0.00     0.049 H 
BRANCH  53  56
ATOM     56  N   UNL A   1      32.628  36.247  30.466  1.00  0.00    -0.352 N 
ATOM     57  C   UNL A   1      32.652  35.797  31.761  1.00  0.00     0.251 C 
ATOM     58  H   UNL A   1      31.938  36.920  30.264  1.00  0.00     0.163 HD
ATOM     59  O   UNL A   1      31.712  36.012  32.515  1.00  0.00    -0.269 OA
BRANCH  57  60
ATOM     60  C   UNL A   1      33.827  35.043  32.238  1.00  0.00     0.039 A 
ATOM     61  C   UNL A   1      33.663  33.723  32.667  1.00  0.00    -0.049 A 
ATOM     62  C   UNL A   1      35.088  35.646  32.265  1.00  0.00    -0.049 A 
ATOM     63  C   UNL A   1      34.778  32.990  33.073  1.00  0.00    -0.053 A 
ATOM     64  H   UNL A   1      32.725  33.294  32.681  1.00  0.00     0.063 H 
ATOM     65  C   UNL A   1      36.205  34.891  32.595  1.00  0.00    -0.053 A 
ATOM     66  H   UNL A   1      35.187  36.648  32.040  1.00  0.00     0.063 H 
ATOM     67  C   UNL A   1      36.061  33.559  33.011  1.00  0.00    -0.014 A 
ATOM     68  H   UNL A   1      34.659  32.024  33.420  1.00  0.00     0.063 H 
ATOM     69  H   UNL A   1      37.145  35.311  32.534  1.00  0.00     0.063 H 
BRANCH  67  70
ATOM     70  C   UNL A   1      37.269  32.788  33.391  1.00  0.00     0.031 A 
ATOM     71  C   UNL A   1      37.982  33.101  34.675  1.00  0.00     0.074 A 
ATOM     72  C   UNL A   1      37.764  31.864  32.545  1.00  0.00     0.049 A 
ATOM     73  N   UNL A   1      39.107  32.616  35.139  1.00  0.00    -0.248 NA
ATOM     74  C   UNL A   1      37.364  34.116  35.542  1.00  0.00    -0.034 C 
ATOM     75  C   UNL A   1      37.180  31.501  31.253  1.00  0.00    -0.036 A 
ATOM     76  N   UNL A   1      38.881  31.073  32.638  1.00  0.00    -0.354 N 
ATOM     77  C   UNL A   1      39.335  33.279  36.338  1.00  0.00     0.074 A 
ATOM     78  C   UNL A   1      38.266  34.239  36.503  1.00  0.00    -0.034 C 
ATOM     79  H   UNL A   1      36.462  34.606  35.429  1.00  0.00     0.065 H 
ATOM     80  C   UNL A   1      37.932  30.548  30.683  1.00  0.00    -0.036 A 
ATOM     81  H   UNL A   1      36.326  31.914  30.845  1.00  0.00     0.065 H 
ATOM     82  C   UNL A   1      39.075  30.265  31.545  1.00  0.00     0.049 A 
ATOM     83  H   UNL A   1      39.486  31.084  33.416  1.00  0.00     0.167 HD
ATOM     84  C   UNL A   1      40.335  33.087  37.229  1.00  0.00     0.037 A 
ATOM     85  H   UNL A   1      38.213  34.928  37.269  1.00  0.00     0.065 H 
ATOM     86  H   UNL A   1      37.735  30.088  29.779  1.00  0.00     0.065 H 
ATOM     87  C   UNL A   1      40.072  29.404  31.266  1.00  0.00     0.037 A 
ATOM     88  C   UNL A   1      41.386  32.116  37.065  1.00  0.00     0.049 A 
ATOM     89  C   UNL A   1      41.187  29.228  32.261  1.00  0.00     0.074 A 
ATOM     90  C   UNL A   1      42.415  31.803  37.935  1.00  0.00    -0.036 A 
ATOM     91  N   UNL A   1      41.542  31.305  35.949  1.00  0.00    -0.354 N 
ATOM     92  N   UNL A   1      41.359  29.810  33.424  1.00  0.00    -0.248 NA
ATOM     93  C   UNL A   1      42.245  28.270  31.909  1.00  0.00    -0.034 C 
ATOM     94  C   UNL A   1      43.226  30.843  37.322  1.00  0.00    -0.036 A 
ATOM     95  H   UNL A   1      42.559  32.207  38.873  1.00  0.00     0.065 H 
ATOM     96  C   UNL A   1      42.668  30.511  36.098  1.00  0.00     0.049 A 
ATOM     97  H   UNL A   1      40.942  31.296  35.168  1.00  0.00     0.167 HD
ATOM     98  C   UNL A   1      42.521  29.267  33.955  1.00  0.00     0.074 A 
ATOM     99  C   UNL A   1      43.008  28.301  32.993  1.00  0.00    -0.034 C 
ATOM    100  H   UNL A   1      42.362  27.719  31.044  1.00  0.00     0.065 H 
ATOM    101  H   UNL A   1      44.095  30.449  37.715  1.00  0.00     0.065 H 
ATOM    102  C   UNL A   1      43.129  29.542  35.135  1.00  0.00     0.037 A 
ATOM    103  H   UNL A   1      43.842  27.711  33.132  1.00  0.00     0.065 H 
BRANCH  84 104
ATOM    104  C   UNL A   1      40.343  33.946  38.463  1.00  0.00     0.064 A 
ATOM    105  C   UNL A   1      41.061  35.151  38.518  1.00  0.00     0.173 A 
ATOM    106  C   UNL A   1      39.599  33.575  39.593  1.00  0.00     0.173 A 
ATOM    107  F   UNL A   1      41.797  35.548  37.470  1.00  0.00    -0.203 F 
ATOM    108  C   UNL A   1      41.061  35.933  39.670  1.00  0.00     0.198 A 
ATOM    109  C   UNL A   1      39.573  34.377  40.731  1.00  0.00     0.198 A 
ATOM    110  F   UNL A   1      38.888  32.437  39.592  1.00  0.00    -0.203 F 
ATOM    111  F   UNL A   1      41.801  37.049  39.719  1.00  0.00    -0.200 F 
ATOM    112  C   UNL A   1      40.313  35.549  40.772  1.00  0.00     0.200 A 
ATOM    113  F   UNL A   1      38.836  34.013  41.789  1.00  0.00    -0.200 F 
ATOM    114  F   UNL A   1      40.309  36.307  41.877  1.00  0.00    -0.200 F 
ENDBRANCH  84 104
BRANCH  87 115
ATOM    115  C   UNL A   1      40.051  28.630  29.996  1.00  0.00     0.064 A 
ATOM    116  C   UNL A   1      39.436  27.373  29.931  1.00  0.00     0.173 A 
ATOM    117  C   UNL A   1      40.646  29.126  28.826  1.00  0.00     0.173 A 
ATOM    118  F   UNL A   1      38.870  26.847  31.028  1.00  0.00    -0.203 F 
ATOM    119  C   UNL A   1      39.432  26.632  28.752  1.00  0.00     0.198 A 
ATOM    120  C   UNL A   1      40.615  28.398  27.638  1.00  0.00     0.198 A 
ATOM    121  F   UNL A   1      41.244  30.326  28.833  1.00  0.00    -0.203 F 
ATOM    122  F   UNL A   1      38.877  25.412  28.731  1.00  0.00    -0.200 F 
ATOM    123  C   UNL A   1      40.016  27.147  27.605  1.00  0.00     0.200 A 
ATOM    124  F   UNL A   1      41.166  28.906  26.529  1.00  0.00    -0.200 F 
ATOM    125  F   UNL A   1      40.010  26.437  26.469  1.00  0.00    -0.200 F 
ENDBRANCH  87 115
BRANCH 102 126
ATOM    126  C   UNL A   1      44.361  28.756  35.480  1.00  0.00     0.064 A 
ATOM    127  C   UNL A   1      44.293  27.540  36.172  1.00  0.00     0.173 A 
ATOM    128  C   UNL A   1      45.623  29.203  35.057  1.00  0.00     0.173 A 
ATOM    129  F   UNL A   1      43.113  27.077  36.611  1.00  0.00    -0.203 F 
ATOM    130  C   UNL A   1      45.445  26.808  36.448  1.00  0.00     0.198 A 
ATOM    131  C   UNL A   1      46.770  28.452  35.305  1.00  0.00     0.198 A 
ATOM    132  F   UNL A   1      45.743  30.357  34.385  1.00  0.00    -0.203 F 
ATOM    133  F   UNL A   1      45.363  25.669  37.150  1.00  0.00    -0.200 F 
ATOM    134  C   UNL A   1      46.681  27.259  36.005  1.00  0.00     0.200 A 
ATOM    135  F   UNL A   1      47.959  28.882  34.861  1.00  0.00    -0.200 F 
ATOM    136  F   UNL A   1      47.786  26.545  36.258  1.00  0.00    -0.200 F 
ENDBRANCH 102 126
ENDBRANCH  67  70
ENDBRANCH  57  60
ENDBRANCH  53  56
ENDBRANCH  50  53
ENDBRANCH  47  50
ENDBRANCH   1  47
TORSDOF 18
ENDMDL
MODEL 4
REMARK VINA RESULT:     -11.6      3.456      8.357
REMARK SMILES CCc1cc(/C=C/C(=O)NCCCCCCNC(=O)c2ccc(-c3c4nc(c(-c5c(F)c(F)c(F)c(F)c5F)c5ccc([nH]5)c(-c5c(F)c(F)c(F)c(F)c5F)c5nc(c(-c6c(F)c(F)c(F)c(F)c6F)c6ccc3[nH]6)C=C5)C=C4)cc2)cc(C(=O)c2ccccc2)c1
REMARK SMILES IDX 13 1 12 4 11 7 10 10 8 11 9 12 7 14 6 15 5 18 3 19 4 20
REMARK SMILES IDX 93 21 84 23 83 25 2 27 1 30 85 34 86 35 87 36 88 37 92 38
REMARK SMILES IDX 89 39 91 41 90 43 14 47 15 50 16 53 17 56 18 57 19 59 20 60
REMARK SMILES IDX 21 61 82 62 22 63 81 65 23 67 24 70 25 71 75 72 26 73 80 74
REMARK SMILES IDX 74 75 76 76 27 77 79 78 73 80 72 82 28 84 60 87 40 88 59 89
REMARK SMILES IDX 41 90 44 91 58 92 77 93 42 94 43 96 57 98 78 99 45 102
REMARK SMILES IDX 29 104 30 105 38 106 31 107 32 108 36 109 39 110 33 111
REMARK SMILES IDX 34 112 37 113 35 114 61 115 62 116 70 117 63 118 64 119
REMARK SMILES IDX 68 120 71 121 65 122 66 123 69 124 67 125 46 126 47 127
REMARK SMILES IDX 55 128 48 129 49 130 53 131 56 132 50 133 51 134 54 135
REMARK SMILES IDX 52 136
REMARK H PARENT 13 2 13 3 12 5 12 6 11 8 11 9 10 13 6 16 7 17 4 22 93 24 83 26
REMARK H PARENT 2 28 2 29 1 31 1 32 1 33 88 40 92 42 89 44 91 45 90 46 14 48
REMARK H PARENT 14 49 15 51 15 52 16 54 16 55 17 58 21 64 82 66 22 68 81 69
REMARK H PARENT 80 79 74 81 76 83 79 85 73 86 41 95 44 97 77 100 42 101 78 103
REMARK Flexibility Score: inf
ROOT
ATOM      1  C   UNL A   1      32.461  29.783  26.458  1.00  0.00    -0.052 C 
ATOM      2  H   UNL A   1      32.853  29.224  25.633  1.00  0.00     0.027 H 
ATOM      3  H   UNL A   1      33.212  30.335  26.982  1.00  0.00     0.027 H 
ENDROOT
BRANCH   1   4
ATOM      4  C   UNL A   1      31.863  28.792  27.466  1.00  0.00    -0.036 C 
ATOM      5  H   UNL A   1      32.391  28.888  28.392  1.00  0.00     0.028 H 
ATOM      6  H   UNL A   1      30.825  29.031  27.572  1.00  0.00     0.028 H 
BRANCH   4   7
ATOM      7  C   UNL A   1      31.954  27.338  27.001  1.00  0.00     0.018 C 
ATOM      8  H   UNL A   1      32.891  27.183  26.506  1.00  0.00     0.049 H 
ATOM      9  H   UNL A   1      31.884  26.692  27.851  1.00  0.00     0.049 H 
BRANCH   7  10
ATOM     10  N   UNL A   1      30.870  27.042  26.087  1.00  0.00    -0.353 N 
ATOM     11  C   UNL A   1      30.627  25.974  25.289  1.00  0.00     0.243 C 
ATOM     12  O   UNL A   1      29.601  25.958  24.611  1.00  0.00    -0.270 OA
ATOM     13  H   UNL A   1      30.185  27.746  26.035  1.00  0.00     0.163 HD
BRANCH  11  14
ATOM     14  C   UNL A   1      31.512  24.787  25.262  1.00  0.00     0.003 C 
ATOM     15  C   UNL A   1      32.558  24.588  24.448  1.00  0.00    -0.049 C 
ATOM     16  H   UNL A   1      32.813  25.353  23.803  1.00  0.00     0.063 H 
ATOM     17  H   UNL A   1      31.303  24.037  25.940  1.00  0.00     0.068 H 
BRANCH  15  18
ATOM     18  C   UNL A   1      33.368  23.364  24.401  1.00  0.00    -0.024 A 
ATOM     19  C   UNL A   1      35.348  22.099  25.057  1.00  0.00    -0.047 A 
ATOM     20  C   UNL A   1      34.656  23.313  24.943  1.00  0.00    -0.052 A 
ATOM     21  C   UNL A   1      34.756  20.925  24.572  1.00  0.00    -0.048 A 
ATOM     22  H   UNL A   1      35.106  24.185  25.265  1.00  0.00     0.063 H 
ATOM     23  C   UNL A   1      33.469  20.959  24.023  1.00  0.00     0.023 A 
ATOM     24  H   UNL A   1      35.272  20.033  24.619  1.00  0.00     0.063 H 
ATOM     25  C   UNL A   1      32.786  22.180  23.932  1.00  0.00    -0.044 A 
ATOM     26  H   UNL A   1      31.843  22.208  23.513  1.00  0.00     0.064 H 
BRANCH  19  27
ATOM     27  C   UNL A   1      36.674  22.061  25.776  1.00  0.00    -0.031 C 
ATOM     28  H   UNL A   1      37.091  23.047  25.793  1.00  0.00     0.031 H 
ATOM     29  H   UNL A   1      36.512  21.708  26.773  1.00  0.00     0.031 H 
BRANCH  27  30
ATOM     30  C   UNL A   1      37.647  21.118  25.077  1.00  0.00    -0.061 C 
ATOM     31  H   UNL A   1      37.804  20.252  25.685  1.00  0.00     0.023 H 
ATOM     32  H   UNL A   1      38.580  21.619  24.922  1.00  0.00     0.023 H 
ATOM     33  H   UNL A   1      37.240  20.822  24.133  1.00  0.00     0.023 H 
ENDBRANCH  27  30
ENDBRANCH  19  27
BRANCH  23  34
ATOM     34  C   UNL A   1      32.775  19.733  23.533  1.00  0.00     0.193 C 
ATOM     35  O   UNL A   1      31.934  19.817  22.641  1.00  0.00    -0.289 OA
BRANCH  34  36
ATOM     36  C   UNL A   1      33.084  18.398  24.090  1.00  0.00     0.022 A 
ATOM     37  C   UNL A   1      32.578  18.068  25.350  1.00  0.00    -0.051 A 
ATOM     38  C   UNL A   1      33.880  17.484  23.388  1.00  0.00    -0.051 A 
ATOM     39  C   UNL A   1      32.821  16.804  25.886  1.00  0.00    -0.062 A 
ATOM     40  H   UNL A   1      32.026  18.759  25.883  1.00  0.00     0.063 H 
ATOM     41  C   UNL A   1      34.120  16.220  23.929  1.00  0.00    -0.062 A 
ATOM     42  H   UNL A   1      34.286  17.744  22.476  1.00  0.00     0.063 H 
ATOM     43  C   UNL A   1      33.583  15.878  25.170  1.00  0.00    -0.062 A 
ATOM     44  H   UNL A   1      32.437  16.552  26.809  1.00  0.00     0.062 H 
ATOM     45  H   UNL A   1      34.695  15.538  23.409  1.00  0.00     0.062 H 
ATOM     46  H   UNL A   1      33.751  14.938  25.562  1.00  0.00     0.062 H 
ENDBRANCH  34  36
ENDBRANCH  23  34
ENDBRANCH  15  18
ENDBRANCH  11  14
ENDBRANCH   7  10
ENDBRANCH   4   7
ENDBRANCH   1   4
BRANCH   1  47
ATOM     47  C   UNL A   1      31.466  30.813  25.909  1.00  0.00    -0.052 C 
ATOM     48  H   UNL A   1      30.513  30.336  25.807  1.00  0.00     0.027 H 
ATOM     49  H   UNL A   1      31.865  31.154  24.977  1.00  0.00     0.027 H 
BRANCH  47  50
ATOM     50  C   UNL A   1      31.288  32.055  26.786  1.00  0.00    -0.036 C 
ATOM     51  H   UNL A   1      30.753  31.771  27.668  1.00  0.00     0.028 H 
ATOM     52  H   UNL A   1      30.756  32.776  26.201  1.00  0.00     0.028 H 
BRANCH  50  53
ATOM     53  C   UNL A   1      32.601  32.702  27.205  1.00  0.00     0.018 C 
ATOM     54  H   UNL A   1      33.309  32.602  26.409  1.00  0.00     0.049 H 
ATOM     55  H   UNL A   1      32.953  32.210  28.088  1.00  0.00     0.049 H 
BRANCH  53  56
ATOM     56  N   UNL A   1      32.424  34.114  27.507  1.00  0.00    -0.352 N 
ATOM     57  C   UNL A   1      32.996  34.863  28.503  1.00  0.00     0.251 C 
ATOM     58  H   UNL A   1      31.807  34.599  26.912  1.00  0.00     0.163 HD
ATOM     59  O   UNL A   1      32.551  35.968  28.788  1.00  0.00    -0.269 OA
BRANCH  57  60
ATOM     60  C   UNL A   1      34.156  34.320  29.235  1.00  0.00     0.039 A 
ATOM     61  C   UNL A   1      33.942  33.441  30.299  1.00  0.00    -0.049 A 
ATOM     62  C   UNL A   1      35.455  34.686  28.868  1.00  0.00    -0.049 A 
ATOM     63  C   UNL A   1      35.036  32.887  30.964  1.00  0.00    -0.053 A 
ATOM     64  H   UNL A   1      32.981  33.204  30.591  1.00  0.00     0.063 H 
ATOM     65  C   UNL A   1      36.541  34.075  29.478  1.00  0.00    -0.053 A 
ATOM     66  H   UNL A   1      35.604  35.409  28.146  1.00  0.00     0.063 H 
ATOM     67  C   UNL A   1      36.343  33.176  30.538  1.00  0.00    -0.014 A 
ATOM     68  H   UNL A   1      34.884  32.261  31.771  1.00  0.00     0.063 H 
ATOM     69  H   UNL A   1      37.498  34.281  29.152  1.00  0.00     0.063 H 
BRANCH  67  70
ATOM     70  C   UNL A   1      37.524  32.564  31.193  1.00  0.00     0.031 A 
ATOM     71  C   UNL A   1      38.252  31.436  30.520  1.00  0.00     0.074 A 
ATOM     72  C   UNL A   1      37.888  32.971  32.424  1.00  0.00     0.049 A 
ATOM     73  N   UNL A   1      39.238  30.700  30.967  1.00  0.00    -0.248 NA
ATOM     74  C   UNL A   1      37.791  31.065  29.173  1.00  0.00    -0.034 C 
ATOM     75  C   UNL A   1      37.234  34.030  33.193  1.00  0.00    -0.036 A 
ATOM     76  N   UNL A   1      38.890  32.530  33.252  1.00  0.00    -0.354 N 
ATOM     77  C   UNL A   1      39.501  29.774  29.966  1.00  0.00     0.074 A 
ATOM     78  C   UNL A   1      38.536  30.002  28.913  1.00  0.00    -0.034 C 
ATOM     79  H   UNL A   1      37.073  31.516  28.583  1.00  0.00     0.065 H 
ATOM     80  C   UNL A   1      37.862  34.169  34.372  1.00  0.00    -0.036 A 
ATOM     81  H   UNL A   1      36.420  34.581  32.880  1.00  0.00     0.065 H 
ATOM     82  C   UNL A   1      38.931  33.180  34.460  1.00  0.00     0.049 A 
ATOM     83  H   UNL A   1      39.520  31.815  33.002  1.00  0.00     0.167 HD
ATOM     84  C   UNL A   1      40.474  28.835  29.922  1.00  0.00     0.037 A 
ATOM     85  H   UNL A   1      38.441  29.413  28.071  1.00  0.00     0.065 H 
ATOM     86  H   UNL A   1      37.626  34.864  35.098  1.00  0.00     0.065 H 
ATOM     87  C   UNL A   1      39.733  32.988  35.525  1.00  0.00     0.037 A 
ATOM     88  C   UNL A   1      41.441  28.627  30.967  1.00  0.00     0.049 A 
ATOM     89  C   UNL A   1      40.790  31.918  35.461  1.00  0.00     0.074 A 
ATOM     90  C   UNL A   1      42.503  27.740  30.998  1.00  0.00    -0.036 A 
ATOM     91  N   UNL A   1      41.460  29.315  32.173  1.00  0.00    -0.354 N 
ATOM     92  N   UNL A   1      41.075  31.093  34.484  1.00  0.00    -0.248 NA
ATOM     93  C   UNL A   1      41.642  31.758  36.649  1.00  0.00    -0.034 C 
ATOM     94  C   UNL A   1      43.128  27.851  32.243  1.00  0.00    -0.036 A 
ATOM     95  H   UNL A   1      42.783  27.106  30.233  1.00  0.00     0.065 H 
ATOM     96  C   UNL A   1      42.498  28.852  32.965  1.00  0.00     0.049 A 
ATOM     97  H   UNL A   1      40.828  30.027  32.427  1.00  0.00     0.167 HD
ATOM     98  C   UNL A   1      42.155  30.340  34.922  1.00  0.00     0.074 A 
ATOM     99  C   UNL A   1      42.483  30.813  36.250  1.00  0.00    -0.034 C 
ATOM    100  H   UNL A   1      41.596  32.251  37.554  1.00  0.00     0.065 H 
ATOM    101  H   UNL A   1      43.925  27.283  32.569  1.00  0.00     0.065 H 
ATOM    102  C   UNL A   1      42.819  29.347  34.280  1.00  0.00     0.037 A 
ATOM    103  H   UNL A   1      43.271  30.462  36.816  1.00  0.00     0.065 H 
BRANCH  84 104
ATOM    104  C   UNL A   1      40.538  27.957  28.704  1.00  0.00     0.064 A 
ATOM    105  C   UNL A   1      39.852  26.735  28.637  1.00  0.00     0.173 A 
ATOM    106  C   UNL A   1      41.273  28.357  27.577  1.00  0.00     0.173 A 
ATOM    107  F   UNL A   1      39.143  26.299  29.690  1.00  0.00    -0.203 F 
ATOM    108  C   UNL A   1      39.926  25.930  27.503  1.00  0.00     0.198 A 
ATOM    109  C   UNL A   1      41.316  27.567  26.431  1.00  0.00     0.198 A 
ATOM    110  F   UNL A   1      41.943  29.519  27.582  1.00  0.00    -0.203 F 
ATOM    111  F   UNL A   1      39.309  24.741  27.485  1.00  0.00    -0.200 F 
ATOM    112  C   UNL A   1      40.652  26.350  26.399  1.00  0.00     0.200 A 
ATOM    113  F   UNL A   1      42.006  27.981  25.359  1.00  0.00    -0.200 F 
ATOM    114  F   UNL A   1      40.717  25.579  25.305  1.00  0.00    -0.200 F 
ENDBRANCH  84 104
BRANCH  87 115
ATOM    115  C   UNL A   1      39.579  33.840  36.734  1.00  0.00     0.064 A 
ATOM    116  C   UNL A   1      38.800  33.413  37.819  1.00  0.00     0.173 A 
ATOM    117  C   UNL A   1      40.200  35.094  36.831  1.00  0.00     0.173 A 
ATOM    118  F   UNL A   1      38.170  32.230  37.766  1.00  0.00    -0.203 F 
ATOM    119  C   UNL A   1      38.632  34.215  38.945  1.00  0.00     0.198 A 
ATOM    120  C   UNL A   1      40.056  35.883  37.971  1.00  0.00     0.198 A 
ATOM    121  F   UNL A   1      40.959  35.547  35.823  1.00  0.00    -0.203 F 
ATOM    122  F   UNL A   1      37.844  33.803  39.947  1.00  0.00    -0.200 F 
ATOM    123  C   UNL A   1      39.265  35.447  39.023  1.00  0.00     0.200 A 
ATOM    124  F   UNL A   1      40.682  37.065  38.049  1.00  0.00    -0.200 F 
ATOM    125  F   UNL A   1      39.106  36.217  40.108  1.00  0.00    -0.200 F 
ENDBRANCH  87 115
BRANCH 102 126
ATOM    126  C   UNL A   1      43.998  28.735  34.981  1.00  0.00     0.064 A 
ATOM    127  C   UNL A   1      43.870  27.598  35.790  1.00  0.00     0.173 A 
ATOM    128  C   UNL A   1      45.284  29.264  34.788  1.00  0.00     0.173 A 
ATOM    129  F   UNL A   1      42.660  27.064  36.018  1.00  0.00    -0.203 F 
ATOM    130  C   UNL A   1      44.983  27.024  36.399  1.00  0.00     0.198 A 
ATOM    131  C   UNL A   1      46.399  28.668  35.371  1.00  0.00     0.198 A 
ATOM    132  F   UNL A   1      45.463  30.347  34.018  1.00  0.00    -0.203 F 
ATOM    133  F   UNL A   1      44.832  25.963  37.204  1.00  0.00    -0.200 F 
ATOM    134  C   UNL A   1      46.247  27.552  36.181  1.00  0.00     0.200 A 
ATOM    135  F   UNL A   1      47.621  29.170  35.145  1.00  0.00    -0.200 F 
ATOM    136  F   UNL A   1      47.318  26.988  36.755  1.00  0.00    -0.200 F 
ENDBRANCH 102 126
ENDBRANCH  67  70
ENDBRANCH  57  60
ENDBRANCH  53  56
ENDBRANCH  50  53
ENDBRANCH  47  50
ENDBRANCH   1  47
TORSDOF 18
ENDMDL
MODEL 5
REMARK VINA RESULT:     -11.5      3.986      8.949
REMARK SMILES CCc1cc(/C=C/C(=O)NCCCCCCNC(=O)c2ccc(-c3c4nc(c(-c5c(F)c(F)c(F)c(F)c5F)c5ccc([nH]5)c(-c5c(F)c(F)c(F)c(F)c5F)c5nc(c(-c6c(F)c(F)c(F)c(F)c6F)c6ccc3[nH]6)C=C5)C=C4)cc2)cc(C(=O)c2ccccc2)c1
REMARK SMILES IDX 13 1 12 4 11 7 10 10 8 11 9 12 7 14 6 15 5 18 3 19 4 20
REMARK SMILES IDX 93 21 84 23 83 25 2 27 1 30 85 34 86 35 87 36 88 37 92 38
REMARK SMILES IDX 89 39 91 41 90 43 14 47 15 50 16 53 17 56 18 57 19 59 20 60
REMARK SMILES IDX 21 61 82 62 22 63 81 65 23 67 24 70 25 71 75 72 26 73 80 74
REMARK SMILES IDX 74 75 76 76 27 77 79 78 73 80 72 82 28 84 60 87 40 88 59 89
REMARK SMILES IDX 41 90 44 91 58 92 77 93 42 94 43 96 57 98 78 99 45 102
REMARK SMILES IDX 29 104 30 105 38 106 31 107 32 108 36 109 39 110 33 111
REMARK SMILES IDX 34 112 37 113 35 114 61 115 62 116 70 117 63 118 64 119
REMARK SMILES IDX 68 120 71 121 65 122 66 123 69 124 67 125 46 126 47 127
REMARK SMILES IDX 55 128 48 129 49 130 53 131 56 132 50 133 51 134 54 135
REMARK SMILES IDX 52 136
REMARK H PARENT 13 2 13 3 12 5 12 6 11 8 11 9 10 13 6 16 7 17 4 22 93 24 83 26
REMARK H PARENT 2 28 2 29 1 31 1 32 1 33 88 40 92 42 89 44 91 45 90 46 14 48
REMARK H PARENT 14 49 15 51 15 52 16 54 16 55 17 58 21 64 82 66 22 68 81 69
REMARK H PARENT 80 79 74 81 76 83 79 85 73 86 41 95 44 97 77 100 42 101 78 103
REMARK Flexibility Score: inf
ROOT
ATOM      1  C   UNL A   1      34.780  31.770  28.882  1.00  0.00    -0.052 C 
ATOM      2  H   UNL A   1      35.264  31.388  29.757  1.00  0.00     0.027 H 
ATOM      3  H   UNL A   1      33.735  31.546  28.852  1.00  0.00     0.027 H 
ENDROOT
BRANCH   1   4
ATOM      4  C   UNL A   1      35.409  31.098  27.654  1.00  0.00    -0.036 C 
ATOM      5  H   UNL A   1      35.001  31.547  26.773  1.00  0.00     0.028 H 
ATOM      6  H   UNL A   1      36.468  31.237  27.720  1.00  0.00     0.028 H 
BRANCH   4   7
ATOM      7  C   UNL A   1      35.147  29.592  27.599  1.00  0.00     0.018 C 
ATOM      8  H   UNL A   1      35.545  29.196  26.688  1.00  0.00     0.049 H 
ATOM      9  H   UNL A   1      35.620  29.121  28.435  1.00  0.00     0.049 H 
BRANCH   7  10
ATOM     10  N   UNL A   1      33.721  29.335  27.652  1.00  0.00    -0.353 N 
ATOM     11  C   UNL A   1      32.954  28.375  27.082  1.00  0.00     0.243 C 
ATOM     12  O   UNL A   1      31.744  28.366  27.308  1.00  0.00    -0.270 OA
ATOM     13  H   UNL A   1      33.219  29.975  28.205  1.00  0.00     0.163 HD
BRANCH  11  14
ATOM     14  C   UNL A   1      33.528  27.289  26.256  1.00  0.00     0.003 C 
ATOM     15  C   UNL A   1      33.054  26.041  26.133  1.00  0.00    -0.049 C 
ATOM     16  H   UNL A   1      32.171  25.817  26.618  1.00  0.00     0.063 H 
ATOM     17  H   UNL A   1      34.381  27.515  25.720  1.00  0.00     0.068 H 
BRANCH  15  18
ATOM     18  C   UNL A   1      33.694  24.969  25.360  1.00  0.00    -0.024 A 
ATOM     19  C   UNL A   1      35.678  23.701  24.723  1.00  0.00    -0.047 A 
ATOM     20  C   UNL A   1      35.084  24.828  25.309  1.00  0.00    -0.052 A 
ATOM     21  C   UNL A   1      34.863  22.725  24.134  1.00  0.00    -0.048 A 
ATOM     22  H   UNL A   1      35.684  25.566  25.711  1.00  0.00     0.063 H 
ATOM     23  C   UNL A   1      33.469  22.853  24.172  1.00  0.00     0.023 A 
ATOM     24  H   UNL A   1      35.292  21.911  23.669  1.00  0.00     0.063 H 
ATOM     25  C   UNL A   1      32.893  23.980  24.776  1.00  0.00    -0.044 A 
ATOM     26  H   UNL A   1      31.866  24.081  24.792  1.00  0.00     0.064 H 
BRANCH  19  27
ATOM     27  C   UNL A   1      37.172  23.514  24.814  1.00  0.00    -0.031 C 
ATOM     28  H   UNL A   1      37.406  22.481  24.659  1.00  0.00     0.031 H 
ATOM     29  H   UNL A   1      37.638  24.118  24.063  1.00  0.00     0.031 H 
BRANCH  27  30
ATOM     30  C   UNL A   1      37.694  23.946  26.180  1.00  0.00    -0.061 C 
ATOM     31  H   UNL A   1      36.880  23.999  26.873  1.00  0.00     0.023 H 
ATOM     32  H   UNL A   1      38.156  24.907  26.098  1.00  0.00     0.023 H 
ATOM     33  H   UNL A   1      38.412  23.234  26.528  1.00  0.00     0.023 H 
ENDBRANCH  27  30
ENDBRANCH  19  27
BRANCH  23  34
ATOM     34  C   UNL A   1      32.555  21.824  23.599  1.00  0.00     0.193 C 
ATOM     35  O   UNL A   1      31.732  22.139  22.743  1.00  0.00    -0.289 OA
BRANCH  34  36
ATOM     36  C   UNL A   1      32.620  20.410  24.029  1.00  0.00     0.022 A 
ATOM     37  C   UNL A   1      32.471  19.411  23.063  1.00  0.00    -0.051 A 
ATOM     38  C   UNL A   1      32.809  20.068  25.374  1.00  0.00    -0.051 A 
ATOM     39  C   UNL A   1      32.564  18.070  23.432  1.00  0.00    -0.062 A 
ATOM     40  H   UNL A   1      32.291  19.666  22.079  1.00  0.00     0.063 H 
ATOM     41  C   UNL A   1      32.902  18.724  25.738  1.00  0.00    -0.062 A 
ATOM     42  H   UNL A   1      32.879  20.806  26.092  1.00  0.00     0.063 H 
ATOM     43  C   UNL A   1      32.789  17.728  24.767  1.00  0.00    -0.062 A 
ATOM     44  H   UNL A   1      32.468  17.331  22.719  1.00  0.00     0.062 H 
ATOM     45  H   UNL A   1      33.054  18.466  26.726  1.00  0.00     0.062 H 
ATOM     46  H   UNL A   1      32.872  16.735  25.036  1.00  0.00     0.062 H 
ENDBRANCH  34  36
ENDBRANCH  23  34
ENDBRANCH  15  18
ENDBRANCH  11  14
ENDBRANCH   7  10
ENDBRANCH   4   7
ENDBRANCH   1   4
BRANCH   1  47
ATOM     47  C   UNL A   1      34.898  33.300  28.901  1.00  0.00    -0.052 C 
ATOM     48  H   UNL A   1      35.476  33.601  28.052  1.00  0.00     0.027 H 
ATOM     49  H   UNL A   1      35.356  33.558  29.833  1.00  0.00     0.027 H 
BRANCH  47  50
ATOM     50  C   UNL A   1      33.559  34.041  28.856  1.00  0.00    -0.036 C 
ATOM     51  H   UNL A   1      32.875  33.542  29.511  1.00  0.00     0.028 H 
ATOM     52  H   UNL A   1      33.230  34.029  27.837  1.00  0.00     0.028 H 
BRANCH  50  53
ATOM     53  C   UNL A   1      33.652  35.501  29.277  1.00  0.00     0.018 C 
ATOM     54  H   UNL A   1      33.396  36.121  28.443  1.00  0.00     0.049 H 
ATOM     55  H   UNL A   1      34.655  35.696  29.599  1.00  0.00     0.049 H 
BRANCH  53  56
ATOM     56  N   UNL A   1      32.751  35.794  30.380  1.00  0.00    -0.352 N 
ATOM     57  C   UNL A   1      32.809  35.363  31.681  1.00  0.00     0.251 C 
ATOM     58  H   UNL A   1      31.993  36.384  30.163  1.00  0.00     0.163 HD
ATOM     59  O   UNL A   1      31.842  35.481  32.422  1.00  0.00    -0.269 OA
BRANCH  57  60
ATOM     60  C   UNL A   1      34.055  34.750  32.180  1.00  0.00     0.039 A 
ATOM     61  C   UNL A   1      34.020  33.449  32.688  1.00  0.00    -0.049 A 
ATOM     62  C   UNL A   1      35.255  35.467  32.148  1.00  0.00    -0.049 A 
ATOM     63  C   UNL A   1      35.203  32.847  33.117  1.00  0.00    -0.053 A 
ATOM     64  H   UNL A   1      33.125  32.938  32.745  1.00  0.00     0.063 H 
ATOM     65  C   UNL A   1      36.442  34.839  32.502  1.00  0.00    -0.053 A 
ATOM     66  H   UNL A   1      35.258  36.459  31.863  1.00  0.00     0.063 H 
ATOM     67  C   UNL A   1      36.427  33.527  32.998  1.00  0.00    -0.014 A 
ATOM     68  H   UNL A   1      35.178  31.897  33.522  1.00  0.00     0.063 H 
ATOM     69  H   UNL A   1      37.338  35.339  32.400  1.00  0.00     0.063 H 
BRANCH  67  70
ATOM     70  C   UNL A   1      37.705  32.893  33.400  1.00  0.00     0.031 A 
ATOM     71  C   UNL A   1      38.334  31.852  32.518  1.00  0.00     0.074 A 
ATOM     72  C   UNL A   1      38.255  33.198  34.591  1.00  0.00     0.049 A 
ATOM     73  N   UNL A   1      39.390  31.109  32.734  1.00  0.00    -0.248 NA
ATOM     74  C   UNL A   1      37.670  31.591  31.232  1.00  0.00    -0.034 C 
ATOM     75  C   UNL A   1      37.716  34.164  35.549  1.00  0.00    -0.036 A 
ATOM     76  N   UNL A   1      39.382  32.714  35.206  1.00  0.00    -0.354 N 
ATOM     77  C   UNL A   1      39.504  30.285  31.623  1.00  0.00     0.074 A 
ATOM     78  C   UNL A   1      38.380  30.578  30.760  1.00  0.00    -0.034 C 
ATOM     79  H   UNL A   1      36.861  32.072  30.807  1.00  0.00     0.065 H 
ATOM     80  C   UNL A   1      38.520  34.216  36.622  1.00  0.00    -0.036 A 
ATOM     81  H   UNL A   1      36.854  34.717  35.420  1.00  0.00     0.065 H 
ATOM     82  C   UNL A   1      39.605  33.255  36.449  1.00  0.00     0.049 A 
ATOM     83  H   UNL A   1      39.975  32.044  34.795  1.00  0.00     0.167 HD
ATOM     84  C   UNL A   1      40.471  29.382  31.339  1.00  0.00     0.037 A 
ATOM     85  H   UNL A   1      38.161  30.064  29.892  1.00  0.00     0.065 H 
ATOM     86  H   UNL A   1      38.393  34.834  37.438  1.00  0.00     0.065 H 
ATOM     87  C   UNL A   1      40.569  32.992  37.352  1.00  0.00     0.037 A 
ATOM     88  C   UNL A   1      41.595  29.110  32.195  1.00  0.00     0.049 A 
ATOM     89  C   UNL A   1      41.618  31.963  37.023  1.00  0.00     0.074 A 
ATOM     90  C   UNL A   1      42.661  28.255  31.975  1.00  0.00    -0.036 A 
ATOM     91  N   UNL A   1      41.795  29.687  33.442  1.00  0.00    -0.354 N 
ATOM     92  N   UNL A   1      41.756  31.238  35.940  1.00  0.00    -0.248 NA
ATOM     93  C   UNL A   1      42.650  31.722  38.042  1.00  0.00    -0.034 C 
ATOM     94  C   UNL A   1      43.475  28.273  33.111  1.00  0.00    -0.036 A 
ATOM     95  H   UNL A   1      42.826  27.701  31.120  1.00  0.00     0.065 H 
ATOM     96  C   UNL A   1      42.954  29.186  34.014  1.00  0.00     0.049 A 
ATOM     97  H   UNL A   1      41.202  30.354  33.857  1.00  0.00     0.167 HD
ATOM     98  C   UNL A   1      42.904  30.481  36.131  1.00  0.00     0.074 A 
ATOM     99  C   UNL A   1      43.431  30.842  37.429  1.00  0.00    -0.034 C 
ATOM    100  H   UNL A   1      42.742  32.130  38.985  1.00  0.00     0.065 H 
ATOM    101  H   UNL A   1      44.323  27.701  33.254  1.00  0.00     0.065 H 
ATOM    102  C   UNL A   1      43.472  29.570  35.303  1.00  0.00     0.037 A 
ATOM    103  H   UNL A   1      44.304  30.465  37.829  1.00  0.00     0.065 H 
BRANCH  84 104
ATOM    104  C   UNL A   1      40.354  28.620  30.048  1.00  0.00     0.064 A 
ATOM    105  C   UNL A   1      39.637  27.416  29.965  1.00  0.00     0.173 A 
ATOM    106  C   UNL A   1      40.942  29.114  28.874  1.00  0.00     0.173 A 
ATOM    107  F   UNL A   1      39.063  26.893  31.059  1.00  0.00    -0.203 F 
ATOM    108  C   UNL A   1      39.542  26.719  28.763  1.00  0.00     0.198 A 
ATOM    109  C   UNL A   1      40.816  28.432  27.666  1.00  0.00     0.198 A 
ATOM    110  F   UNL A   1      41.634  30.263  28.895  1.00  0.00    -0.203 F 
ATOM    111  F   UNL A   1      38.901  25.544  28.721  1.00  0.00    -0.200 F 
ATOM    112  C   UNL A   1      40.126  27.231  27.614  1.00  0.00     0.200 A 
ATOM    113  F   UNL A   1      41.367  28.937  26.553  1.00  0.00    -0.200 F 
ATOM    114  F   UNL A   1      40.028  26.563  26.457  1.00  0.00    -0.200 F 
ENDBRANCH  84 104
BRANCH  87 115
ATOM    115  C   UNL A   1      40.596  33.726  38.644  1.00  0.00     0.064 A 
ATOM    116  C   UNL A   1      39.757  33.349  39.702  1.00  0.00     0.173 A 
ATOM    117  C   UNL A   1      41.454  34.817  38.849  1.00  0.00     0.173 A 
ATOM    118  F   UNL A   1      38.905  32.325  39.549  1.00  0.00    -0.203 F 
ATOM    119  C   UNL A   1      39.760  34.047  40.908  1.00  0.00     0.198 A 
ATOM    120  C   UNL A   1      41.479  35.495  40.066  1.00  0.00     0.198 A 
ATOM    121  F   UNL A   1      42.280  35.215  37.871  1.00  0.00    -0.203 F 
ATOM    122  F   UNL A   1      38.915  33.695  41.886  1.00  0.00    -0.200 F 
ATOM    123  C   UNL A   1      40.625  35.116  41.091  1.00  0.00     0.200 A 
ATOM    124  F   UNL A   1      42.327  36.516  40.244  1.00  0.00    -0.200 F 
ATOM    125  F   UNL A   1      40.631  35.785  42.252  1.00  0.00    -0.200 F 
ENDBRANCH  87 115
BRANCH 102 126
ATOM    126  C   UNL A   1      44.757  28.933  35.749  1.00  0.00     0.064 A 
ATOM    127  C   UNL A   1      44.775  27.731  36.470  1.00  0.00     0.173 A 
ATOM    128  C   UNL A   1      45.988  29.507  35.397  1.00  0.00     0.173 A 
ATOM    129  F   UNL A   1      43.625  27.150  36.844  1.00  0.00    -0.203 F 
ATOM    130  C   UNL A   1      45.979  27.137  36.840  1.00  0.00     0.198 A 
ATOM    131  C   UNL A   1      47.190  28.893  35.739  1.00  0.00     0.198 A 
ATOM    132  F   UNL A   1      46.026  30.653  34.701  1.00  0.00    -0.203 F 
ATOM    133  F   UNL A   1      45.973  26.010  37.567  1.00  0.00    -0.200 F 
ATOM    134  C   UNL A   1      47.184  27.713  36.465  1.00  0.00     0.200 A 
ATOM    135  F   UNL A   1      48.353  29.443  35.361  1.00  0.00    -0.200 F 
ATOM    136  F   UNL A   1      48.341  27.130  36.809  1.00  0.00    -0.200 F 
ENDBRANCH 102 126
ENDBRANCH  67  70
ENDBRANCH  57  60
ENDBRANCH  53  56
ENDBRANCH  50  53
ENDBRANCH  47  50
ENDBRANCH   1  47
TORSDOF 18
ENDMDL
MODEL 6
REMARK VINA RESULT:     -11.3      3.309      4.834
REMARK SMILES CCc1cc(/C=C/C(=O)NCCCCCCNC(=O)c2ccc(-c3c4nc(c(-c5c(F)c(F)c(F)c(F)c5F)c5ccc([nH]5)c(-c5c(F)c(F)c(F)c(F)c5F)c5nc(c(-c6c(F)c(F)c(F)c(F)c6F)c6ccc3[nH]6)C=C5)C=C4)cc2)cc(C(=O)c2ccccc2)c1
REMARK SMILES IDX 13 1 12 4 11 7 10 10 8 11 9 12 7 14 6 15 5 18 3 19 4 20
REMARK SMILES IDX 93 21 84 23 83 25 2 27 1 30 85 34 86 35 87 36 88 37 92 38
REMARK SMILES IDX 89 39 91 41 90 43 14 47 15 50 16 53 17 56 18 57 19 59 20 60
REMARK SMILES IDX 21 61 82 62 22 63 81 65 23 67 24 70 25 71 75 72 26 73 80 74
REMARK SMILES IDX 74 75 76 76 27 77 79 78 73 80 72 82 28 84 60 87 40 88 59 89
REMARK SMILES IDX 41 90 44 91 58 92 77 93 42 94 43 96 57 98 78 99 45 102
REMARK SMILES IDX 29 104 30 105 38 106 31 107 32 108 36 109 39 110 33 111
REMARK SMILES IDX 34 112 37 113 35 114 61 115 62 116 70 117 63 118 64 119
REMARK SMILES IDX 68 120 71 121 65 122 66 123 69 124 67 125 46 126 47 127
REMARK SMILES IDX 55 128 48 129 49 130 53 131 56 132 50 133 51 134 54 135
REMARK SMILES IDX 52 136
REMARK H PARENT 13 2 13 3 12 5 12 6 11 8 11 9 10 13 6 16 7 17 4 22 93 24 83 26
REMARK H PARENT 2 28 2 29 1 31 1 32 1 33 88 40 92 42 89 44 91 45 90 46 14 48
REMARK H PARENT 14 49 15 51 15 52 16 54 16 55 17 58 21 64 82 66 22 68 81 69
REMARK H PARENT 80 79 74 81 76 83 79 85 73 86 41 95 44 97 77 100 42 101 78 103
REMARK Flexibility Score: inf
ROOT
ATOM      1  C   UNL A   1      32.464  29.930  26.402  1.00  0.00    -0.052 C 
ATOM      2  H   UNL A   1      32.803  29.389  25.542  1.00  0.00     0.027 H 
ATOM      3  H   UNL A   1      33.245  30.477  26.886  1.00  0.00     0.027 H 
ENDROOT
BRANCH   1   4
ATOM      4  C   UNL A   1      31.939  28.916  27.428  1.00  0.00    -0.036 C 
ATOM      5  H   UNL A   1      32.508  29.017  28.329  1.00  0.00     0.028 H 
ATOM      6  H   UNL A   1      30.902  29.129  27.586  1.00  0.00     0.028 H 
BRANCH   4   7
ATOM      7  C   UNL A   1      32.043  27.469  26.946  1.00  0.00     0.018 C 
ATOM      8  H   UNL A   1      32.981  27.328  26.450  1.00  0.00     0.049 H 
ATOM      9  H   UNL A   1      31.976  26.812  27.787  1.00  0.00     0.049 H 
BRANCH   7  10
ATOM     10  N   UNL A   1      30.963  27.175  26.025  1.00  0.00    -0.353 N 
ATOM     11  C   UNL A   1      30.720  26.106  25.229  1.00  0.00     0.243 C 
ATOM     12  O   UNL A   1      29.698  26.093  24.543  1.00  0.00    -0.270 OA
ATOM     13  H   UNL A   1      30.281  27.882  25.967  1.00  0.00     0.163 HD
BRANCH  11  14
ATOM     14  C   UNL A   1      31.601  24.916  25.210  1.00  0.00     0.003 C 
ATOM     15  C   UNL A   1      32.587  24.664  24.338  1.00  0.00    -0.049 C 
ATOM     16  H   UNL A   1      32.797  25.389  23.634  1.00  0.00     0.063 H 
ATOM     17  H   UNL A   1      31.438  24.207  25.943  1.00  0.00     0.068 H 
BRANCH  15  18
ATOM     18  C   UNL A   1      33.392  23.436  24.308  1.00  0.00    -0.024 A 
ATOM     19  C   UNL A   1      35.367  22.171  24.975  1.00  0.00    -0.047 A 
ATOM     20  C   UNL A   1      34.681  23.387  24.845  1.00  0.00    -0.052 A 
ATOM     21  C   UNL A   1      34.768  20.993  24.511  1.00  0.00    -0.048 A 
ATOM     22  H   UNL A   1      35.136  24.261  25.152  1.00  0.00     0.063 H 
ATOM     23  C   UNL A   1      33.479  21.025  23.965  1.00  0.00     0.023 A 
ATOM     24  H   UNL A   1      35.279  20.099  24.570  1.00  0.00     0.063 H 
ATOM     25  C   UNL A   1      32.802  22.248  23.858  1.00  0.00    -0.044 A 
ATOM     26  H   UNL A   1      31.857  22.273  23.443  1.00  0.00     0.064 H 
BRANCH  19  27
ATOM     27  C   UNL A   1      36.696  22.138  25.690  1.00  0.00    -0.031 C 
ATOM     28  H   UNL A   1      37.163  23.097  25.604  1.00  0.00     0.031 H 
ATOM     29  H   UNL A   1      36.524  21.897  26.719  1.00  0.00     0.031 H 
BRANCH  27  30
ATOM     30  C   UNL A   1      37.613  21.079  25.087  1.00  0.00    -0.061 C 
ATOM     31  H   UNL A   1      37.731  20.272  25.780  1.00  0.00     0.023 H 
ATOM     32  H   UNL A   1      38.569  21.512  24.879  1.00  0.00     0.023 H 
ATOM     33  H   UNL A   1      37.183  20.710  24.180  1.00  0.00     0.023 H 
ENDBRANCH  27  30
ENDBRANCH  19  27
BRANCH  23  34
ATOM     34  C   UNL A   1      32.777  19.795  23.497  1.00  0.00     0.193 C 
ATOM     35  O   UNL A   1      31.939  19.868  22.603  1.00  0.00    -0.289 OA
BRANCH  34  36
ATOM     36  C   UNL A   1      33.076  18.468  24.079  1.00  0.00     0.022 A 
ATOM     37  C   UNL A   1      32.564  18.164  25.344  1.00  0.00    -0.051 A 
ATOM     38  C   UNL A   1      33.868  17.537  23.396  1.00  0.00    -0.051 A 
ATOM     39  C   UNL A   1      32.797  16.909  25.903  1.00  0.00    -0.062 A 
ATOM     40  H   UNL A   1      32.015  18.869  25.863  1.00  0.00     0.063 H 
ATOM     41  C   UNL A   1      34.098  16.281  23.961  1.00  0.00    -0.062 A 
ATOM     42  H   UNL A   1      34.278  17.777  22.481  1.00  0.00     0.063 H 
ATOM     43  C   UNL A   1      33.556  15.965  25.207  1.00  0.00    -0.062 A 
ATOM     44  H   UNL A   1      32.409  16.676  26.830  1.00  0.00     0.062 H 
ATOM     45  H   UNL A   1      34.670  15.586  23.456  1.00  0.00     0.062 H 
ATOM     46  H   UNL A   1      33.716  15.031  25.616  1.00  0.00     0.062 H 
ENDBRANCH  34  36
ENDBRANCH  23  34
ENDBRANCH  15  18
ENDBRANCH  11  14
ENDBRANCH   7  10
ENDBRANCH   4   7
ENDBRANCH   1   4
BRANCH   1  47
ATOM     47  C   UNL A   1      31.429  30.963  25.939  1.00  0.00    -0.052 C 
ATOM     48  H   UNL A   1      30.468  30.493  25.931  1.00  0.00     0.027 H 
ATOM     49  H   UNL A   1      31.742  31.295  24.972  1.00  0.00     0.027 H 
BRANCH  47  50
ATOM     50  C   UNL A   1      31.342  32.213  26.819  1.00  0.00    -0.036 C 
ATOM     51  H   UNL A   1      30.897  31.938  27.753  1.00  0.00     0.028 H 
ATOM     52  H   UNL A   1      30.757  32.931  26.284  1.00  0.00     0.028 H 
BRANCH  50  53
ATOM     53  C   UNL A   1      32.692  32.859  27.100  1.00  0.00     0.018 C 
ATOM     54  H   UNL A   1      33.274  32.857  26.202  1.00  0.00     0.049 H 
ATOM     55  H   UNL A   1      33.181  32.298  27.870  1.00  0.00     0.049 H 
BRANCH  53  56
ATOM     56  N   UNL A   1      32.538  34.230  27.562  1.00  0.00    -0.352 N 
ATOM     57  C   UNL A   1      33.107  34.847  28.646  1.00  0.00     0.251 C 
ATOM     58  H   UNL A   1      31.940  34.794  27.019  1.00  0.00     0.163 HD
ATOM     59  O   UNL A   1      32.680  35.920  29.051  1.00  0.00    -0.269 OA
BRANCH  57  60
ATOM     60  C   UNL A   1      34.245  34.198  29.326  1.00  0.00     0.039 A 
ATOM     61  C   UNL A   1      34.001  33.366  30.421  1.00  0.00    -0.049 A 
ATOM     62  C   UNL A   1      35.551  34.419  28.880  1.00  0.00    -0.049 A 
ATOM     63  C   UNL A   1      35.068  32.712  31.038  1.00  0.00    -0.053 A 
ATOM     64  H   UNL A   1      33.039  33.236  30.771  1.00  0.00     0.063 H 
ATOM     65  C   UNL A   1      36.601  33.708  29.445  1.00  0.00    -0.053 A 
ATOM     66  H   UNL A   1      35.734  35.109  28.134  1.00  0.00     0.063 H 
ATOM     67  C   UNL A   1      36.372  32.854  30.534  1.00  0.00    -0.014 A 
ATOM     68  H   UNL A   1      34.898  32.120  31.867  1.00  0.00     0.063 H 
ATOM     69  H   UNL A   1      37.554  33.807  29.061  1.00  0.00     0.063 H 
BRANCH  67  70
ATOM     70  C   UNL A   1      37.517  32.134  31.139  1.00  0.00     0.031 A 
ATOM     71  C   UNL A   1      38.019  32.534  32.497  1.00  0.00     0.074 A 
ATOM     72  C   UNL A   1      38.151  31.177  30.435  1.00  0.00     0.049 A 
ATOM     73  N   UNL A   1      39.066  32.103  33.156  1.00  0.00    -0.248 NA
ATOM     74  C   UNL A   1      37.260  33.581  33.198  1.00  0.00    -0.034 C 
ATOM     75  C   UNL A   1      37.779  30.730  29.092  1.00  0.00    -0.036 A 
ATOM     76  N   UNL A   1      39.252  30.419  30.744  1.00  0.00    -0.354 N 
ATOM     77  C   UNL A   1      39.097  32.835  34.335  1.00  0.00     0.074 A 
ATOM     78  C   UNL A   1      38.000  33.778  34.278  1.00  0.00    -0.034 C 
ATOM     79  H   UNL A   1      36.379  34.043  32.920  1.00  0.00     0.065 H 
ATOM     80  C   UNL A   1      38.624  29.764  28.700  1.00  0.00    -0.036 A 
ATOM     81  H   UNL A   1      36.992  31.098  28.535  1.00  0.00     0.065 H 
ATOM     82  C   UNL A   1      39.624  29.556  29.742  1.00  0.00     0.049 A 
ATOM     83  H   UNL A   1      39.729  30.486  31.603  1.00  0.00     0.167 HD
ATOM     84  C   UNL A   1      39.949  32.716  35.379  1.00  0.00     0.037 A 
ATOM     85  H   UNL A   1      37.820  34.507  34.985  1.00  0.00     0.065 H 
ATOM     86  H   UNL A   1      38.576  29.251  27.805  1.00  0.00     0.065 H 
ATOM     87  C   UNL A   1      40.665  28.704  29.670  1.00  0.00     0.037 A 
ATOM     88  C   UNL A   1      41.027  31.763  35.434  1.00  0.00     0.049 A 
ATOM     89  C   UNL A   1      41.615  28.610  30.834  1.00  0.00     0.074 A 
ATOM     90  C   UNL A   1      41.914  31.522  36.469  1.00  0.00    -0.036 A 
ATOM     91  N   UNL A   1      41.366  30.895  34.405  1.00  0.00    -0.354 N 
ATOM     92  N   UNL A   1      41.597  29.259  31.973  1.00  0.00    -0.248 NA
ATOM     93  C   UNL A   1      42.729  27.659  30.704  1.00  0.00    -0.034 C 
ATOM     94  C   UNL A   1      42.824  30.549  36.044  1.00  0.00    -0.036 A 
ATOM     95  H   UNL A   1      41.905  31.982  37.393  1.00  0.00     0.065 H 
ATOM     96  C   UNL A   1      42.466  30.137  34.771  1.00  0.00     0.049 A 
ATOM     97  H   UNL A   1      40.894  30.829  33.543  1.00  0.00     0.167 HD
ATOM     98  C   UNL A   1      42.671  28.774  32.707  1.00  0.00     0.074 A 
ATOM     99  C   UNL A   1      43.315  27.768  31.889  1.00  0.00    -0.034 C 
ATOM    100  H   UNL A   1      42.986  27.064  29.901  1.00  0.00     0.065 H 
ATOM    101  H   UNL A   1      43.627  30.198  36.589  1.00  0.00     0.065 H 
ATOM    102  C   UNL A   1      43.085  29.128  33.948  1.00  0.00     0.037 A 
ATOM    103  H   UNL A   1      44.126  27.206  32.188  1.00  0.00     0.065 H 
BRANCH  84 104
ATOM    104  C   UNL A   1      39.753  33.642  36.546  1.00  0.00     0.064 A 
ATOM    105  C   UNL A   1      40.375  34.900  36.604  1.00  0.00     0.173 A 
ATOM    106  C   UNL A   1      38.911  33.280  37.608  1.00  0.00     0.173 A 
ATOM    107  F   UNL A   1      41.200  35.292  35.620  1.00  0.00    -0.203 F 
ATOM    108  C   UNL A   1      40.187  35.744  37.695  1.00  0.00     0.198 A 
ATOM    109  C   UNL A   1      38.697  34.142  38.681  1.00  0.00     0.198 A 
ATOM    110  F   UNL A   1      38.285  32.094  37.602  1.00  0.00    -0.203 F 
ATOM    111  F   UNL A   1      40.837  36.914  37.753  1.00  0.00    -0.200 F 
ATOM    112  C   UNL A   1      39.344  35.367  38.729  1.00  0.00     0.200 A 
ATOM    113  F   UNL A   1      37.869  33.783  39.672  1.00  0.00    -0.200 F 
ATOM    114  F   UNL A   1      39.159  36.184  39.775  1.00  0.00    -0.200 F 
ENDBRANCH  84 104
BRANCH  87 115
ATOM    115  C   UNL A   1      40.852  27.861  28.460  1.00  0.00     0.064 A 
ATOM    116  C   UNL A   1      41.619  28.317  27.379  1.00  0.00     0.173 A 
ATOM    117  C   UNL A   1      40.268  26.590  28.355  1.00  0.00     0.173 A 
ATOM    118  F   UNL A   1      42.182  29.533  27.423  1.00  0.00    -0.203 F 
ATOM    119  C   UNL A   1      41.780  27.542  26.232  1.00  0.00     0.198 A 
ATOM    120  C   UNL A   1      40.454  25.803  27.220  1.00  0.00     0.198 A 
ATOM    121  F   UNL A   1      39.528  26.106  29.363  1.00  0.00    -0.203 F 
ATOM    122  F   UNL A   1      42.480  28.021  25.195  1.00  0.00    -0.200 F 
ATOM    123  C   UNL A   1      41.202  26.284  26.156  1.00  0.00     0.200 A 
ATOM    124  F   UNL A   1      39.908  24.582  27.157  1.00  0.00    -0.200 F 
ATOM    125  F   UNL A   1      41.359  25.537  25.055  1.00  0.00    -0.200 F 
ENDBRANCH  87 115
BRANCH 102 126
ATOM    126  C   UNL A   1      44.260  28.391  34.523  1.00  0.00     0.064 A 
ATOM    127  C   UNL A   1      45.569  28.877  34.401  1.00  0.00     0.173 A 
ATOM    128  C   UNL A   1      44.062  27.212  35.259  1.00  0.00     0.173 A 
ATOM    129  F   UNL A   1      45.814  29.991  33.696  1.00  0.00    -0.203 F 
ATOM    130  C   UNL A   1      46.641  28.198  34.976  1.00  0.00     0.198 A 
ATOM    131  C   UNL A   1      45.131  26.554  35.861  1.00  0.00     0.198 A 
ATOM    132  F   UNL A   1      42.828  26.708  35.412  1.00  0.00    -0.203 F 
ATOM    133  F   UNL A   1      47.889  28.656  34.811  1.00  0.00    -0.200 F 
ATOM    134  C   UNL A   1      46.420  27.044  35.714  1.00  0.00     0.200 A 
ATOM    135  F   UNL A   1      44.913  25.449  36.587  1.00  0.00    -0.200 F 
ATOM    136  F   UNL A   1      47.450  26.402  36.280  1.00  0.00    -0.200 F 
ENDBRANCH 102 126
ENDBRANCH  67  70
ENDBRANCH  57  60
ENDBRANCH  53  56
ENDBRANCH  50  53
ENDBRANCH  47  50
ENDBRANCH   1  47
TORSDOF 18
ENDMDL
MODEL 7
REMARK VINA RESULT:     -11.1      3.297      4.781
REMARK SMILES CCc1cc(/C=C/C(=O)NCCCCCCNC(=O)c2ccc(-c3c4nc(c(-c5c(F)c(F)c(F)c(F)c5F)c5ccc([nH]5)c(-c5c(F)c(F)c(F)c(F)c5F)c5nc(c(-c6c(F)c(F)c(F)c(F)c6F)c6ccc3[nH]6)C=C5)C=C4)cc2)cc(C(=O)c2ccccc2)c1
REMARK SMILES IDX 13 1 12 4 11 7 10 10 8 11 9 12 7 14 6 15 5 18 3 19 4 20
REMARK SMILES IDX 93 21 84 23 83 25 2 27 1 30 85 34 86 35 87 36 88 37 92 38
REMARK SMILES IDX 89 39 91 41 90 43 14 47 15 50 16 53 17 56 18 57 19 59 20 60
REMARK SMILES IDX 21 61 82 62 22 63 81 65 23 67 24 70 25 71 75 72 26 73 80 74
REMARK SMILES IDX 74 75 76 76 27 77 79 78 73 80 72 82 28 84 60 87 40 88 59 89
REMARK SMILES IDX 41 90 44 91 58 92 77 93 42 94 43 96 57 98 78 99 45 102
REMARK SMILES IDX 29 104 30 105 38 106 31 107 32 108 36 109 39 110 33 111
REMARK SMILES IDX 34 112 37 113 35 114 61 115 62 116 70 117 63 118 64 119
REMARK SMILES IDX 68 120 71 121 65 122 66 123 69 124 67 125 46 126 47 127
REMARK SMILES IDX 55 128 48 129 49 130 53 131 56 132 50 133 51 134 54 135
REMARK SMILES IDX 52 136
REMARK H PARENT 13 2 13 3 12 5 12 6 11 8 11 9 10 13 6 16 7 17 4 22 93 24 83 26
REMARK H PARENT 2 28 2 29 1 31 1 32 1 33 88 40 92 42 89 44 91 45 90 46 14 48
REMARK H PARENT 14 49 15 51 15 52 16 54 16 55 17 58 21 64 82 66 22 68 81 69
REMARK H PARENT 80 79 74 81 76 83 79 85 73 86 41 95 44 97 77 100 42 101 78 103
REMARK Flexibility Score: inf
ROOT
ATOM      1  C   UNL A   1      32.195  30.035  26.118  1.00  0.00    -0.052 C 
ATOM      2  H   UNL A   1      31.913  29.500  25.235  1.00  0.00     0.027 H 
ATOM      3  H   UNL A   1      33.222  30.334  26.115  1.00  0.00     0.027 H 
ENDROOT
BRANCH   1   4
ATOM      4  C   UNL A   1      32.017  29.099  27.322  1.00  0.00    -0.036 C 
ATOM      5  H   UNL A   1      32.736  29.363  28.069  1.00  0.00     0.028 H 
ATOM      6  H   UNL A   1      31.014  29.220  27.674  1.00  0.00     0.028 H 
BRANCH   4   7
ATOM      7  C   UNL A   1      32.203  27.624  26.964  1.00  0.00     0.018 C 
ATOM      8  H   UNL A   1      32.763  27.549  26.054  1.00  0.00     0.049 H 
ATOM      9  H   UNL A   1      32.732  27.134  27.755  1.00  0.00     0.049 H 
BRANCH   7  10
ATOM     10  N   UNL A   1      30.913  26.989  26.790  1.00  0.00    -0.353 N 
ATOM     11  C   UNL A   1      30.565  25.741  26.394  1.00  0.00     0.243 C 
ATOM     12  O   UNL A   1      29.373  25.440  26.349  1.00  0.00    -0.270 OA
ATOM     13  H   UNL A   1      30.148  27.572  26.998  1.00  0.00     0.163 HD
BRANCH  11  14
ATOM     14  C   UNL A   1      31.571  24.699  26.086  1.00  0.00     0.003 C 
ATOM     15  C   UNL A   1      31.991  24.328  24.868  1.00  0.00    -0.049 C 
ATOM     16  H   UNL A   1      31.621  24.848  24.057  1.00  0.00     0.063 H 
ATOM     17  H   UNL A   1      31.992  24.208  26.891  1.00  0.00     0.068 H 
BRANCH  15  18
ATOM     18  C   UNL A   1      32.938  23.238  24.600  1.00  0.00    -0.024 A 
ATOM     19  C   UNL A   1      35.146  22.231  24.845  1.00  0.00    -0.047 A 
ATOM     20  C   UNL A   1      34.291  23.339  24.937  1.00  0.00    -0.052 A 
ATOM     21  C   UNL A   1      34.645  21.017  24.359  1.00  0.00    -0.048 A 
ATOM     22  H   UNL A   1      34.667  24.244  25.259  1.00  0.00     0.063 H 
ATOM     23  C   UNL A   1      33.293  20.899  24.013  1.00  0.00     0.023 A 
ATOM     24  H   UNL A   1      35.274  20.206  24.254  1.00  0.00     0.063 H 
ATOM     25  C   UNL A   1      32.450  22.014  24.126  1.00  0.00    -0.044 A 
ATOM     26  H   UNL A   1      31.457  21.931  23.858  1.00  0.00     0.064 H 
BRANCH  19  27
ATOM     27  C   UNL A   1      36.563  22.340  25.352  1.00  0.00    -0.031 C 
ATOM     28  H   UNL A   1      36.772  21.505  25.988  1.00  0.00     0.031 H 
ATOM     29  H   UNL A   1      37.227  22.344  24.512  1.00  0.00     0.031 H 
BRANCH  27  30
ATOM     30  C   UNL A   1      36.764  23.631  26.138  1.00  0.00    -0.061 C 
ATOM     31  H   UNL A   1      35.964  24.308  25.923  1.00  0.00     0.023 H 
ATOM     32  H   UNL A   1      37.694  24.078  25.858  1.00  0.00     0.023 H 
ATOM     33  H   UNL A   1      36.775  23.412  27.185  1.00  0.00     0.023 H 
ENDBRANCH  27  30
ENDBRANCH  19  27
BRANCH  23  34
ATOM     34  C   UNL A   1      32.698  19.619  23.532  1.00  0.00     0.193 C 
ATOM     35  O   UNL A   1      31.895  19.625  22.603  1.00  0.00    -0.289 OA
BRANCH  34  36
ATOM     36  C   UNL A   1      33.062  18.323  24.144  1.00  0.00     0.022 A 
ATOM     37  C   UNL A   1      33.927  17.475  23.446  1.00  0.00    -0.051 A 
ATOM     38  C   UNL A   1      32.543  17.934  25.385  1.00  0.00    -0.051 A 
ATOM     39  C   UNL A   1      34.318  16.263  24.013  1.00  0.00    -0.062 A 
ATOM     40  H   UNL A   1      34.275  17.747  22.513  1.00  0.00     0.063 H 
ATOM     41  C   UNL A   1      32.937  16.719  25.948  1.00  0.00    -0.062 A 
ATOM     42  H   UNL A   1      31.873  18.542  25.881  1.00  0.00     0.063 H 
ATOM     43  C   UNL A   1      33.830  15.891  25.268  1.00  0.00    -0.062 A 
ATOM     44  H   UNL A   1      34.967  15.642  23.507  1.00  0.00     0.062 H 
ATOM     45  H   UNL A   1      32.568  16.434  26.869  1.00  0.00     0.062 H 
ATOM     46  H   UNL A   1      34.131  14.999  25.692  1.00  0.00     0.062 H 
ENDBRANCH  34  36
ENDBRANCH  23  34
ENDBRANCH  15  18
ENDBRANCH  11  14
ENDBRANCH   7  10
ENDBRANCH   4   7
ENDBRANCH   1   4
BRANCH   1  47
ATOM     47  C   UNL A   1      31.365  31.323  26.184  1.00  0.00    -0.052 C 
ATOM     48  H   UNL A   1      30.331  31.052  26.238  1.00  0.00     0.027 H 
ATOM     49  H   UNL A   1      31.606  31.885  25.306  1.00  0.00     0.027 H 
BRANCH  47  50
ATOM     50  C   UNL A   1      31.686  32.226  27.378  1.00  0.00    -0.036 C 
ATOM     51  H   UNL A   1      31.946  31.605  28.210  1.00  0.00     0.028 H 
ATOM     52  H   UNL A   1      30.813  32.816  27.567  1.00  0.00     0.028 H 
BRANCH  50  53
ATOM     53  C   UNL A   1      32.832  33.195  27.122  1.00  0.00     0.018 C 
ATOM     54  H   UNL A   1      32.945  33.332  26.067  1.00  0.00     0.049 H 
ATOM     55  H   UNL A   1      33.724  32.782  27.547  1.00  0.00     0.049 H 
BRANCH  53  56
ATOM     56  N   UNL A   1      32.584  34.487  27.744  1.00  0.00    -0.352 N 
ATOM     57  C   UNL A   1      33.076  34.988  28.922  1.00  0.00     0.251 C 
ATOM     58  H   UNL A   1      31.977  35.084  27.250  1.00  0.00     0.163 HD
ATOM     59  O   UNL A   1      32.573  35.978  29.439  1.00  0.00    -0.269 OA
BRANCH  57  60
ATOM     60  C   UNL A   1      34.221  34.317  29.566  1.00  0.00     0.039 A 
ATOM     61  C   UNL A   1      33.989  33.433  30.623  1.00  0.00    -0.049 A 
ATOM     62  C   UNL A   1      35.524  34.567  29.124  1.00  0.00    -0.049 A 
ATOM     63  C   UNL A   1      35.063  32.759  31.204  1.00  0.00    -0.053 A 
ATOM     64  H   UNL A   1      33.029  33.280  30.971  1.00  0.00     0.063 H 
ATOM     65  C   UNL A   1      36.581  33.837  29.651  1.00  0.00    -0.053 A 
ATOM     66  H   UNL A   1      35.698  35.291  28.410  1.00  0.00     0.063 H 
ATOM     67  C   UNL A   1      36.363  32.933  30.701  1.00  0.00    -0.014 A 
ATOM     68  H   UNL A   1      34.901  32.128  32.006  1.00  0.00     0.063 H 
ATOM     69  H   UNL A   1      37.531  33.960  29.268  1.00  0.00     0.063 H 
BRANCH  67  70
ATOM     70  C   UNL A   1      37.517  32.193  31.267  1.00  0.00     0.031 A 
ATOM     71  C   UNL A   1      38.068  32.582  32.609  1.00  0.00     0.074 A 
ATOM     72  C   UNL A   1      38.112  31.229  30.540  1.00  0.00     0.049 A 
ATOM     73  N   UNL A   1      39.128  32.133  33.233  1.00  0.00    -0.248 NA
ATOM     74  C   UNL A   1      37.348  33.638  33.337  1.00  0.00    -0.034 C 
ATOM     75  C   UNL A   1      37.690  30.792  29.209  1.00  0.00    -0.036 A 
ATOM     76  N   UNL A   1      39.211  30.454  30.811  1.00  0.00    -0.354 N 
ATOM     77  C   UNL A   1      39.209  32.861  34.412  1.00  0.00     0.074 A 
ATOM     78  C   UNL A   1      38.126  33.820  34.392  1.00  0.00    -0.034 C 
ATOM     79  H   UNL A   1      36.466  34.114  33.089  1.00  0.00     0.065 H 
ATOM     80  C   UNL A   1      38.508  29.814  28.787  1.00  0.00    -0.036 A 
ATOM     81  H   UNL A   1      36.892  31.174  28.678  1.00  0.00     0.065 H 
ATOM     82  C   UNL A   1      39.537  29.588  29.796  1.00  0.00     0.049 A 
ATOM     83  H   UNL A   1      39.717  30.511  31.655  1.00  0.00     0.167 HD
ATOM     84  C   UNL A   1      40.093  32.726  35.427  1.00  0.00     0.037 A 
ATOM     85  H   UNL A   1      37.979  34.550  35.108  1.00  0.00     0.065 H 
ATOM     86  H   UNL A   1      38.423  29.305  27.893  1.00  0.00     0.065 H 
ATOM     87  C   UNL A   1      40.562  28.721  29.688  1.00  0.00     0.037 A 
ATOM     88  C   UNL A   1      41.156  31.756  35.445  1.00  0.00     0.049 A 
ATOM     89  C   UNL A   1      41.548  28.609  30.820  1.00  0.00     0.074 A 
ATOM     90  C   UNL A   1      42.073  31.499  36.450  1.00  0.00    -0.036 A 
ATOM     91  N   UNL A   1      41.449  30.887  34.404  1.00  0.00    -0.354 N 
ATOM     92  N   UNL A   1      41.577  29.255  31.961  1.00  0.00    -0.248 NA
ATOM     93  C   UNL A   1      42.642  27.642  30.652  1.00  0.00    -0.034 C 
ATOM     94  C   UNL A   1      42.954  30.514  35.994  1.00  0.00    -0.036 A 
ATOM     95  H   UNL A   1      42.101  31.955  37.375  1.00  0.00     0.065 H 
ATOM     96  C   UNL A   1      42.549  30.111  34.731  1.00  0.00     0.049 A 
ATOM     97  H   UNL A   1      40.948  30.830  33.557  1.00  0.00     0.167 HD
ATOM     98  C   UNL A   1      42.666  28.751  32.658  1.00  0.00     0.074 A 
ATOM     99  C   UNL A   1      43.268  27.738  31.817  1.00  0.00    -0.034 C 
ATOM    100  H   UNL A   1      42.864  27.046  29.840  1.00  0.00     0.065 H 
ATOM    101  H   UNL A   1      43.769  30.149  36.511  1.00  0.00     0.065 H 
ATOM    102  C   UNL A   1      43.126  29.095  33.886  1.00  0.00     0.037 A 
ATOM    103  H   UNL A   1      44.080  27.163  32.089  1.00  0.00     0.065 H 
BRANCH  84 104
ATOM    104  C   UNL A   1      39.949  33.651  36.603  1.00  0.00     0.064 A 
ATOM    105  C   UNL A   1      39.123  33.336  37.694  1.00  0.00     0.173 A 
ATOM    106  C   UNL A   1      40.667  34.855  36.653  1.00  0.00     0.173 A 
ATOM    107  F   UNL A   1      38.405  32.202  37.693  1.00  0.00    -0.203 F 
ATOM    108  C   UNL A   1      38.996  34.206  38.773  1.00  0.00     0.198 A 
ATOM    109  C   UNL A   1      40.566  35.707  37.750  1.00  0.00     0.198 A 
ATOM    110  F   UNL A   1      41.477  35.204  35.642  1.00  0.00    -0.203 F 
ATOM    111  F   UNL A   1      38.158  33.910  39.775  1.00  0.00    -0.200 F 
ATOM    112  C   UNL A   1      39.723  35.387  38.803  1.00  0.00     0.200 A 
ATOM    113  F   UNL A   1      41.280  36.840  37.786  1.00  0.00    -0.200 F 
ATOM    114  F   UNL A   1      39.605  36.220  39.846  1.00  0.00    -0.200 F 
ENDBRANCH  84 104
BRANCH  87 115
ATOM    115  C   UNL A   1      40.697  27.880  28.470  1.00  0.00     0.064 A 
ATOM    116  C   UNL A   1      40.102  26.613  28.403  1.00  0.00     0.173 A 
ATOM    117  C   UNL A   1      41.423  28.319  27.352  1.00  0.00     0.173 A 
ATOM    118  F   UNL A   1      39.414  26.140  29.453  1.00  0.00    -0.203 F 
ATOM    119  C   UNL A   1      40.243  25.808  27.274  1.00  0.00     0.198 A 
ATOM    120  C   UNL A   1      41.538  27.527  26.212  1.00  0.00     0.198 A 
ATOM    121  F   UNL A   1      42.008  29.525  27.363  1.00  0.00    -0.203 F 
ATOM    122  F   UNL A   1      39.703  24.582  27.256  1.00  0.00    -0.200 F 
ATOM    123  C   UNL A   1      40.956  26.268  26.177  1.00  0.00     0.200 A 
ATOM    124  F   UNL A   1      42.214  27.981  25.148  1.00  0.00    -0.200 F 
ATOM    125  F   UNL A   1      41.089  25.496  25.090  1.00  0.00    -0.200 F 
ENDBRANCH  87 115
BRANCH 102 126
ATOM    126  C   UNL A   1      44.308  28.339  34.421  1.00  0.00     0.064 A 
ATOM    127  C   UNL A   1      44.159  27.143  35.137  1.00  0.00     0.173 A 
ATOM    128  C   UNL A   1      45.610  28.792  34.160  1.00  0.00     0.173 A 
ATOM    129  F   UNL A   1      42.935  26.676  35.425  1.00  0.00    -0.203 F 
ATOM    130  C   UNL A   1      45.270  26.438  35.590  1.00  0.00     0.198 A 
ATOM    131  C   UNL A   1      46.720  28.067  34.586  1.00  0.00     0.198 A 
ATOM    132  F   UNL A   1      45.808  29.927  33.474  1.00  0.00    -0.203 F 
ATOM    133  F   UNL A   1      45.105  25.319  36.311  1.00  0.00    -0.200 F 
ATOM    134  C   UNL A   1      46.549  26.894  35.306  1.00  0.00     0.200 A 
ATOM    135  F   UNL A   1      47.954  28.501  34.295  1.00  0.00    -0.200 F 
ATOM    136  F   UNL A   1      47.618  26.205  35.730  1.00  0.00    -0.200 F 
ENDBRANCH 102 126
ENDBRANCH  67  70
ENDBRANCH  57  60
ENDBRANCH  53  56
ENDBRANCH  50  53
ENDBRANCH  47  50
ENDBRANCH   1  47
TORSDOF 18
ENDMDL
MODEL 8
REMARK VINA RESULT:     -11.0      4.149      9.004
REMARK SMILES CCc1cc(/C=C/C(=O)NCCCCCCNC(=O)c2ccc(-c3c4nc(c(-c5c(F)c(F)c(F)c(F)c5F)c5ccc([nH]5)c(-c5c(F)c(F)c(F)c(F)c5F)c5nc(c(-c6c(F)c(F)c(F)c(F)c6F)c6ccc3[nH]6)C=C5)C=C4)cc2)cc(C(=O)c2ccccc2)c1
REMARK SMILES IDX 13 1 12 4 11 7 10 10 8 11 9 12 7 14 6 15 5 18 3 19 4 20
REMARK SMILES IDX 93 21 84 23 83 25 2 27 1 30 85 34 86 35 87 36 88 37 92 38
REMARK SMILES IDX 89 39 91 41 90 43 14 47 15 50 16 53 17 56 18 57 19 59 20 60
REMARK SMILES IDX 21 61 82 62 22 63 81 65 23 67 24 70 25 71 75 72 26 73 80 74
REMARK SMILES IDX 74 75 76 76 27 77 79 78 73 80 72 82 28 84 60 87 40 88 59 89
REMARK SMILES IDX 41 90 44 91 58 92 77 93 42 94 43 96 57 98 78 99 45 102
REMARK SMILES IDX 29 104 30 105 38 106 31 107 32 108 36 109 39 110 33 111
REMARK SMILES IDX 34 112 37 113 35 114 61 115 62 116 70 117 63 118 64 119
REMARK SMILES IDX 68 120 71 121 65 122 66 123 69 124 67 125 46 126 47 127
REMARK SMILES IDX 55 128 48 129 49 130 53 131 56 132 50 133 51 134 54 135
REMARK SMILES IDX 52 136
REMARK H PARENT 13 2 13 3 12 5 12 6 11 8 11 9 10 13 6 16 7 17 4 22 93 24 83 26
REMARK H PARENT 2 28 2 29 1 31 1 32 1 33 88 40 92 42 89 44 91 45 90 46 14 48
REMARK H PARENT 14 49 15 51 15 52 16 54 16 55 17 58 21 64 82 66 22 68 81 69
REMARK H PARENT 80 79 74 81 76 83 79 85 73 86 41 95 44 97 77 100 42 101 78 103
REMARK Flexibility Score: inf
ROOT
ATOM      1  C   UNL A   1      40.475  22.113  27.574  1.00  0.00    -0.052 C 
ATOM      2  H   UNL A   1      39.739  21.342  27.484  1.00  0.00     0.027 H 
ATOM      3  H   UNL A   1      40.747  22.315  28.589  1.00  0.00     0.027 H 
ENDROOT
BRANCH   1   4
ATOM      4  C   UNL A   1      39.879  23.413  27.014  1.00  0.00    -0.036 C 
ATOM      5  H   UNL A   1      39.698  24.083  27.829  1.00  0.00     0.028 H 
ATOM      6  H   UNL A   1      40.585  23.814  26.317  1.00  0.00     0.028 H 
BRANCH   4   7
ATOM      7  C   UNL A   1      38.566  23.192  26.263  1.00  0.00     0.018 C 
ATOM      8  H   UNL A   1      37.748  23.279  26.947  1.00  0.00     0.049 H 
ATOM      9  H   UNL A   1      38.474  23.928  25.492  1.00  0.00     0.049 H 
BRANCH   7  10
ATOM     10  N   UNL A   1      38.554  21.872  25.663  1.00  0.00    -0.353 N 
ATOM     11  C   UNL A   1      37.563  21.150  25.087  1.00  0.00     0.243 C 
ATOM     12  O   UNL A   1      37.826  20.040  24.626  1.00  0.00    -0.270 OA
ATOM     13  H   UNL A   1      39.427  21.418  25.677  1.00  0.00     0.163 HD
BRANCH  11  14
ATOM     14  C   UNL A   1      36.190  21.679  24.923  1.00  0.00     0.003 C 
ATOM     15  C   UNL A   1      35.726  22.389  23.885  1.00  0.00    -0.049 C 
ATOM     16  H   UNL A   1      36.366  22.547  23.091  1.00  0.00     0.063 H 
ATOM     17  H   UNL A   1      35.522  21.481  25.685  1.00  0.00     0.068 H 
BRANCH  15  18
ATOM     18  C   UNL A   1      34.376  22.960  23.792  1.00  0.00    -0.024 A 
ATOM     19  C   UNL A   1      32.054  23.061  24.533  1.00  0.00    -0.047 A 
ATOM     20  C   UNL A   1      33.294  22.406  24.481  1.00  0.00    -0.052 A 
ATOM     21  C   UNL A   1      31.886  24.264  23.836  1.00  0.00    -0.048 A 
ATOM     22  H   UNL A   1      33.409  21.500  24.963  1.00  0.00     0.063 H 
ATOM     23  C   UNL A   1      32.958  24.830  23.136  1.00  0.00     0.023 A 
ATOM     24  H   UNL A   1      30.968  24.734  23.839  1.00  0.00     0.063 H 
ATOM     25  C   UNL A   1      34.194  24.170  23.110  1.00  0.00    -0.044 A 
ATOM     26  H   UNL A   1      34.981  24.580  22.582  1.00  0.00     0.064 H 
BRANCH  19  27
ATOM     27  C   UNL A   1      30.954  22.506  25.404  1.00  0.00    -0.031 C 
ATOM     28  H   UNL A   1      30.063  22.405  24.820  1.00  0.00     0.031 H 
ATOM     29  H   UNL A   1      31.264  21.552  25.779  1.00  0.00     0.031 H 
BRANCH  27  30
ATOM     30  C   UNL A   1      30.676  23.428  26.586  1.00  0.00    -0.061 C 
ATOM     31  H   UNL A   1      31.263  23.119  27.425  1.00  0.00     0.023 H 
ATOM     32  H   UNL A   1      29.638  23.380  26.839  1.00  0.00     0.023 H 
ATOM     33  H   UNL A   1      30.933  24.432  26.322  1.00  0.00     0.023 H 
ENDBRANCH  27  30
ENDBRANCH  19  27
BRANCH  23  34
ATOM     34  C   UNL A   1      32.846  26.131  22.416  1.00  0.00     0.193 C 
ATOM     35  O   UNL A   1      33.472  26.314  21.375  1.00  0.00    -0.289 OA
BRANCH  34  36
ATOM     36  C   UNL A   1      31.979  27.219  22.919  1.00  0.00     0.022 A 
ATOM     37  C   UNL A   1      32.444  28.006  23.977  1.00  0.00    -0.051 A 
ATOM     38  C   UNL A   1      30.713  27.453  22.369  1.00  0.00    -0.051 A 
ATOM     39  C   UNL A   1      31.666  29.062  24.449  1.00  0.00    -0.062 A 
ATOM     40  H   UNL A   1      33.360  27.805  24.408  1.00  0.00     0.063 H 
ATOM     41  C   UNL A   1      29.938  28.511  22.846  1.00  0.00    -0.062 A 
ATOM     42  H   UNL A   1      30.355  26.846  21.615  1.00  0.00     0.063 H 
ATOM     43  C   UNL A   1      30.418  29.320  23.876  1.00  0.00    -0.062 A 
ATOM     44  H   UNL A   1      32.011  29.654  25.220  1.00  0.00     0.062 H 
ATOM     45  H   UNL A   1      29.009  28.696  22.434  1.00  0.00     0.062 H 
ATOM     46  H   UNL A   1      29.849  30.111  24.218  1.00  0.00     0.062 H 
ENDBRANCH  34  36
ENDBRANCH  23  34
ENDBRANCH  15  18
ENDBRANCH  11  14
ENDBRANCH   7  10
ENDBRANCH   4   7
ENDBRANCH   1   4
BRANCH   1  47
ATOM     47  C   UNL A   1      41.752  21.641  26.866  1.00  0.00    -0.052 C 
ATOM     48  H   UNL A   1      42.522  21.534  27.602  1.00  0.00     0.027 H 
ATOM     49  H   UNL A   1      41.980  22.378  26.126  1.00  0.00     0.027 H 
BRANCH  47  50
ATOM     50  C   UNL A   1      41.612  20.309  26.125  1.00  0.00    -0.036 C 
ATOM     51  H   UNL A   1      41.619  20.507  25.072  1.00  0.00     0.028 H 
ATOM     52  H   UNL A   1      40.694  19.865  26.450  1.00  0.00     0.028 H 
BRANCH  50  53
ATOM     53  C   UNL A   1      42.722  19.315  26.437  1.00  0.00     0.018 C 
ATOM     54  H   UNL A   1      42.292  18.436  26.870  1.00  0.00     0.049 H 
ATOM     55  H   UNL A   1      43.406  19.777  27.118  1.00  0.00     0.049 H 
BRANCH  53  56
ATOM     56  N   UNL A   1      43.453  18.942  25.235  1.00  0.00    -0.352 N 
ATOM     57  C   UNL A   1      44.189  19.733  24.391  1.00  0.00     0.251 C 
ATOM     58  H   UNL A   1      43.414  17.988  24.995  1.00  0.00     0.163 HD
ATOM     59  O   UNL A   1      44.525  19.325  23.287  1.00  0.00    -0.269 OA
BRANCH  57  60
ATOM     60  C   UNL A   1      44.571  21.090  24.827  1.00  0.00     0.039 A 
ATOM     61  C   UNL A   1      44.156  22.191  24.074  1.00  0.00    -0.049 A 
ATOM     62  C   UNL A   1      45.341  21.269  25.980  1.00  0.00    -0.049 A 
ATOM     63  C   UNL A   1      44.472  23.479  24.508  1.00  0.00    -0.053 A 
ATOM     64  H   UNL A   1      43.619  22.053  23.204  1.00  0.00     0.063 H 
ATOM     65  C   UNL A   1      45.589  22.551  26.451  1.00  0.00    -0.053 A 
ATOM     66  H   UNL A   1      45.726  20.451  26.477  1.00  0.00     0.063 H 
ATOM     67  C   UNL A   1      45.164  23.669  25.716  1.00  0.00    -0.014 A 
ATOM     68  H   UNL A   1      44.195  24.295  23.939  1.00  0.00     0.063 H 
ATOM     69  H   UNL A   1      46.085  22.683  27.345  1.00  0.00     0.063 H 
BRANCH  67  70
ATOM     70  C   UNL A   1      45.472  25.026  26.226  1.00  0.00     0.031 A 
ATOM     71  C   UNL A   1      44.383  25.857  26.843  1.00  0.00     0.074 A 
ATOM     72  C   UNL A   1      46.707  25.536  26.062  1.00  0.00     0.049 A 
ATOM     73  N   UNL A   1      44.419  27.099  27.255  1.00  0.00    -0.248 NA
ATOM     74  C   UNL A   1      43.067  25.215  26.991  1.00  0.00    -0.034 C 
ATOM     75  C   UNL A   1      47.835  24.839  25.443  1.00  0.00    -0.036 A 
ATOM     76  N   UNL A   1      47.217  26.768  26.388  1.00  0.00    -0.354 N 
ATOM     77  C   UNL A   1      43.133  27.389  27.692  1.00  0.00     0.074 A 
ATOM     78  C   UNL A   1      42.327  26.214  27.444  1.00  0.00    -0.034 C 
ATOM     79  H   UNL A   1      42.793  24.239  26.792  1.00  0.00     0.065 H 
ATOM     80  C   UNL A   1      48.908  25.645  25.450  1.00  0.00    -0.036 A 
ATOM     81  H   UNL A   1      47.809  23.881  25.061  1.00  0.00     0.065 H 
ATOM     82  C   UNL A   1      48.533  26.930  26.031  1.00  0.00     0.049 A 
ATOM     83  H   UNL A   1      46.689  27.468  26.837  1.00  0.00     0.167 HD
ATOM     84  C   UNL A   1      42.675  28.524  28.269  1.00  0.00     0.037 A 
ATOM     85  H   UNL A   1      41.307  26.162  27.600  1.00  0.00     0.065 H 
ATOM     86  H   UNL A   1      49.847  25.396  25.101  1.00  0.00     0.065 H 
ATOM     87  C   UNL A   1      49.340  28.002  26.147  1.00  0.00     0.037 A 
ATOM     88  C   UNL A   1      43.490  29.681  28.528  1.00  0.00     0.049 A 
ATOM     89  C   UNL A   1      48.798  29.262  26.768  1.00  0.00     0.074 A 
ATOM     90  C   UNL A   1      43.138  30.862  29.159  1.00  0.00    -0.036 A 
ATOM     91  N   UNL A   1      44.824  29.805  28.164  1.00  0.00    -0.354 N 
ATOM     92  N   UNL A   1      47.600  29.503  27.240  1.00  0.00    -0.248 NA
ATOM     93  C   UNL A   1      49.725  30.398  26.876  1.00  0.00    -0.034 C 
ATOM     94  C   UNL A   1      44.241  31.720  29.125  1.00  0.00    -0.036 A 
ATOM     95  H   UNL A   1      42.219  31.072  29.580  1.00  0.00     0.065 H 
ATOM     96  C   UNL A   1      45.301  31.052  28.533  1.00  0.00     0.049 A 
ATOM     97  H   UNL A   1      45.353  29.108  27.711  1.00  0.00     0.167 HD
ATOM     98  C   UNL A   1      47.636  30.801  27.731  1.00  0.00     0.074 A 
ATOM     99  C   UNL A   1      48.979  31.294  27.508  1.00  0.00    -0.034 C 
ATOM    100  H   UNL A   1      50.699  30.476  26.546  1.00  0.00     0.065 H 
ATOM    101  H   UNL A   1      44.262  32.688  29.482  1.00  0.00     0.065 H 
ATOM    102  C   UNL A   1      46.647  31.520  28.316  1.00  0.00     0.037 A 
ATOM    103  H   UNL A   1      49.315  32.223  27.804  1.00  0.00     0.065 H 
BRANCH  84 104
ATOM    104  C   UNL A   1      41.224  28.570  28.657  1.00  0.00     0.064 A 
ATOM    105  C   UNL A   1      40.228  28.953  27.745  1.00  0.00     0.173 A 
ATOM    106  C   UNL A   1      40.820  28.199  29.948  1.00  0.00     0.173 A 
ATOM    107  F   UNL A   1      40.559  29.328  26.500  1.00  0.00    -0.203 F 
ATOM    108  C   UNL A   1      38.888  28.996  28.121  1.00  0.00     0.198 A 
ATOM    109  C   UNL A   1      39.475  28.208  30.311  1.00  0.00     0.198 A 
ATOM    110  F   UNL A   1      41.728  27.817  30.858  1.00  0.00    -0.203 F 
ATOM    111  F   UNL A   1      37.963  29.420  27.250  1.00  0.00    -0.200 F 
ATOM    112  C   UNL A   1      38.512  28.617  29.401  1.00  0.00     0.200 A 
ATOM    113  F   UNL A   1      39.112  27.827  31.543  1.00  0.00    -0.200 F 
ATOM    114  F   UNL A   1      37.222  28.652  29.759  1.00  0.00    -0.200 F 
ENDBRANCH  84 104
BRANCH  87 115
ATOM    115  C   UNL A   1      50.750  27.923  25.682  1.00  0.00     0.064 A 
ATOM    116  C   UNL A   1      51.064  28.037  24.320  1.00  0.00     0.173 A 
ATOM    117  C   UNL A   1      51.809  27.731  26.582  1.00  0.00     0.173 A 
ATOM    118  F   UNL A   1      50.085  28.203  23.419  1.00  0.00    -0.203 F 
ATOM    119  C   UNL A   1      52.380  27.941  23.874  1.00  0.00     0.198 A 
ATOM    120  C   UNL A   1      53.128  27.666  26.138  1.00  0.00     0.198 A 
ATOM    121  F   UNL A   1      51.563  27.620  27.894  1.00  0.00    -0.203 F 
ATOM    122  F   UNL A   1      52.648  28.007  22.563  1.00  0.00    -0.200 F 
ATOM    123  C   UNL A   1      53.412  27.762  24.783  1.00  0.00     0.200 A 
ATOM    124  F   UNL A   1      54.123  27.508  27.020  1.00  0.00    -0.200 F 
ATOM    125  F   UNL A   1      54.678  27.673  24.355  1.00  0.00    -0.200 F 
ENDBRANCH  87 115
BRANCH 102 126
ATOM    126  C   UNL A   1      46.987  32.899  28.804  1.00  0.00     0.064 A 
ATOM    127  C   UNL A   1      47.546  33.119  30.070  1.00  0.00     0.173 A 
ATOM    128  C   UNL A   1      46.804  34.009  27.964  1.00  0.00     0.173 A 
ATOM    129  F   UNL A   1      47.727  32.093  30.916  1.00  0.00    -0.203 F 
ATOM    130  C   UNL A   1      47.889  34.402  30.488  1.00  0.00     0.198 A 
ATOM    131  C   UNL A   1      47.180  35.286  28.371  1.00  0.00     0.198 A 
ATOM    132  F   UNL A   1      46.280  33.852  26.739  1.00  0.00    -0.203 F 
ATOM    133  F   UNL A   1      48.382  34.596  31.720  1.00  0.00    -0.200 F 
ATOM    134  C   UNL A   1      47.716  35.482  29.635  1.00  0.00     0.200 A 
ATOM    135  F   UNL A   1      47.027  36.325  27.539  1.00  0.00    -0.200 F 
ATOM    136  F   UNL A   1      48.063  36.714  30.033  1.00  0.00    -0.200 F 
ENDBRANCH 102 126
ENDBRANCH  67  70
ENDBRANCH  57  60
ENDBRANCH  53  56
ENDBRANCH  50  53
ENDBRANCH  47  50
ENDBRANCH   1  47
TORSDOF 18
ENDMDL
MODEL 9
REMARK VINA RESULT:     -11.0      3.889      8.794
REMARK SMILES CCc1cc(/C=C/C(=O)NCCCCCCNC(=O)c2ccc(-c3c4nc(c(-c5c(F)c(F)c(F)c(F)c5F)c5ccc([nH]5)c(-c5c(F)c(F)c(F)c(F)c5F)c5nc(c(-c6c(F)c(F)c(F)c(F)c6F)c6ccc3[nH]6)C=C5)C=C4)cc2)cc(C(=O)c2ccccc2)c1
REMARK SMILES IDX 13 1 12 4 11 7 10 10 8 11 9 12 7 14 6 15 5 18 3 19 4 20
REMARK SMILES IDX 93 21 84 23 83 25 2 27 1 30 85 34 86 35 87 36 88 37 92 38
REMARK SMILES IDX 89 39 91 41 90 43 14 47 15 50 16 53 17 56 18 57 19 59 20 60
REMARK SMILES IDX 21 61 82 62 22 63 81 65 23 67 24 70 25 71 75 72 26 73 80 74
REMARK SMILES IDX 74 75 76 76 27 77 79 78 73 80 72 82 28 84 60 87 40 88 59 89
REMARK SMILES IDX 41 90 44 91 58 92 77 93 42 94 43 96 57 98 78 99 45 102
REMARK SMILES IDX 29 104 30 105 38 106 31 107 32 108 36 109 39 110 33 111
REMARK SMILES IDX 34 112 37 113 35 114 61 115 62 116 70 117 63 118 64 119
REMARK SMILES IDX 68 120 71 121 65 122 66 123 69 124 67 125 46 126 47 127
REMARK SMILES IDX 55 128 48 129 49 130 53 131 56 132 50 133 51 134 54 135
REMARK SMILES IDX 52 136
REMARK H PARENT 13 2 13 3 12 5 12 6 11 8 11 9 10 13 6 16 7 17 4 22 93 24 83 26
REMARK H PARENT 2 28 2 29 1 31 1 32 1 33 88 40 92 42 89 44 91 45 90 46 14 48
REMARK H PARENT 14 49 15 51 15 52 16 54 16 55 17 58 21 64 82 66 22 68 81 69
REMARK H PARENT 80 79 74 81 76 83 79 85 73 86 41 95 44 97 77 100 42 101 78 103
REMARK Flexibility Score: inf
ROOT
ATOM      1  C   UNL A   1      41.924  21.541  26.567  1.00  0.00    -0.052 C 
ATOM      2  H   UNL A   1      42.239  21.865  27.537  1.00  0.00     0.027 H 
ATOM      3  H   UNL A   1      41.735  22.352  25.895  1.00  0.00     0.027 H 
ENDROOT
BRANCH   1   4
ATOM      4  C   UNL A   1      40.597  20.785  26.722  1.00  0.00    -0.036 C 
ATOM      5  H   UNL A   1      40.690  19.830  26.247  1.00  0.00     0.028 H 
ATOM      6  H   UNL A   1      40.403  20.691  27.771  1.00  0.00     0.028 H 
BRANCH   4   7
ATOM      7  C   UNL A   1      39.411  21.525  26.101  1.00  0.00     0.018 C 
ATOM      8  H   UNL A   1      39.454  21.429  25.036  1.00  0.00     0.049 H 
ATOM      9  H   UNL A   1      38.500  21.099  26.466  1.00  0.00     0.049 H 
BRANCH   7  10
ATOM     10  N   UNL A   1      39.459  22.928  26.461  1.00  0.00    -0.353 N 
ATOM     11  C   UNL A   1      38.529  23.910  26.395  1.00  0.00     0.243 C 
ATOM     12  O   UNL A   1      38.823  25.037  26.793  1.00  0.00    -0.270 OA
ATOM     13  H   UNL A   1      40.328  23.220  26.820  1.00  0.00     0.163 HD
BRANCH  11  14
ATOM     14  C   UNL A   1      37.145  23.661  25.931  1.00  0.00     0.003 C 
ATOM     15  C   UNL A   1      36.735  23.550  24.660  1.00  0.00    -0.049 C 
ATOM     16  H   UNL A   1      37.454  23.592  23.921  1.00  0.00     0.063 H 
ATOM     17  H   UNL A   1      36.422  23.561  26.662  1.00  0.00     0.068 H 
BRANCH  15  18
ATOM     18  C   UNL A   1      35.339  23.375  24.238  1.00  0.00    -0.024 A 
ATOM     19  C   UNL A   1      33.466  23.964  22.791  1.00  0.00    -0.047 A 
ATOM     20  C   UNL A   1      34.732  24.242  23.324  1.00  0.00    -0.052 A 
ATOM     21  C   UNL A   1      32.777  22.823  23.221  1.00  0.00    -0.048 A 
ATOM     22  H   UNL A   1      35.226  25.102  23.036  1.00  0.00     0.063 H 
ATOM     23  C   UNL A   1      33.368  21.946  24.139  1.00  0.00     0.023 A 
ATOM     24  H   UNL A   1      31.830  22.629  22.861  1.00  0.00     0.063 H 
ATOM     25  C   UNL A   1      34.642  22.233  24.649  1.00  0.00    -0.044 A 
ATOM     26  H   UNL A   1      35.072  21.594  25.337  1.00  0.00     0.064 H 
BRANCH  19  27
ATOM     27  C   UNL A   1      32.906  24.845  21.702  1.00  0.00    -0.031 C 
ATOM     28  H   UNL A   1      33.520  24.757  20.829  1.00  0.00     0.031 H 
ATOM     29  H   UNL A   1      31.906  24.529  21.487  1.00  0.00     0.031 H 
BRANCH  27  30
ATOM     30  C   UNL A   1      32.871  26.304  22.145  1.00  0.00    -0.061 C 
ATOM     31  H   UNL A   1      31.962  26.757  21.811  1.00  0.00     0.023 H 
ATOM     32  H   UNL A   1      33.705  26.825  21.722  1.00  0.00     0.023 H 
ATOM     33  H   UNL A   1      32.924  26.354  23.212  1.00  0.00     0.023 H 
ENDBRANCH  27  30
ENDBRANCH  19  27
BRANCH  23  34
ATOM     34  C   UNL A   1      32.697  20.695  24.597  1.00  0.00     0.193 C 
ATOM     35  O   UNL A   1      31.744  20.755  25.369  1.00  0.00    -0.289 OA
BRANCH  34  36
ATOM     36  C   UNL A   1      33.147  19.365  24.132  1.00  0.00     0.022 A 
ATOM     37  C   UNL A   1      32.413  18.727  23.127  1.00  0.00    -0.051 A 
ATOM     38  C   UNL A   1      34.269  18.741  24.689  1.00  0.00    -0.051 A 
ATOM     39  C   UNL A   1      32.833  17.490  22.641  1.00  0.00    -0.062 A 
ATOM     40  H   UNL A   1      31.563  19.172  22.746  1.00  0.00     0.063 H 
ATOM     41  C   UNL A   1      34.684  17.501  24.200  1.00  0.00    -0.062 A 
ATOM     42  H   UNL A   1      34.786  19.194  25.459  1.00  0.00     0.063 H 
ATOM     43  C   UNL A   1      33.973  16.883  23.171  1.00  0.00    -0.062 A 
ATOM     44  H   UNL A   1      32.302  17.023  21.890  1.00  0.00     0.062 H 
ATOM     45  H   UNL A   1      35.519  17.043  24.599  1.00  0.00     0.062 H 
ATOM     46  H   UNL A   1      34.291  15.973  22.800  1.00  0.00     0.062 H 
ENDBRANCH  34  36
ENDBRANCH  23  34
ENDBRANCH  15  18
ENDBRANCH  11  14
ENDBRANCH   7  10
ENDBRANCH   4   7
ENDBRANCH   1   4
BRANCH   1  47
ATOM     47  C   UNL A   1      43.058  20.716  25.946  1.00  0.00    -0.052 C 
ATOM     48  H   UNL A   1      42.635  20.068  25.206  1.00  0.00     0.027 H 
ATOM     49  H   UNL A   1      43.523  20.185  26.750  1.00  0.00     0.027 H 
BRANCH  47  50
ATOM     50  C   UNL A   1      44.158  21.547  25.282  1.00  0.00    -0.036 C 
ATOM     51  H   UNL A   1      44.175  21.312  24.237  1.00  0.00     0.028 H 
ATOM     52  H   UNL A   1      45.077  21.297  25.770  1.00  0.00     0.028 H 
BRANCH  50  53
ATOM     53  C   UNL A   1      43.967  23.050  25.434  1.00  0.00     0.018 C 
ATOM     54  H   UNL A   1      43.819  23.279  26.469  1.00  0.00     0.049 H 
ATOM     55  H   UNL A   1      43.115  23.342  24.856  1.00  0.00     0.049 H 
BRANCH  53  56
ATOM     56  N   UNL A   1      45.125  23.784  24.947  1.00  0.00    -0.352 N 
ATOM     57  C   UNL A   1      45.463  25.098  25.149  1.00  0.00     0.251 C 
ATOM     58  H   UNL A   1      45.753  23.265  24.394  1.00  0.00     0.163 HD
ATOM     59  O   UNL A   1      46.324  25.634  24.463  1.00  0.00    -0.269 OA
BRANCH  57  60
ATOM     60  C   UNL A   1      44.773  25.864  26.205  1.00  0.00     0.039 A 
ATOM     61  C   UNL A   1      44.043  25.178  27.179  1.00  0.00    -0.049 A 
ATOM     62  C   UNL A   1      44.847  27.259  26.226  1.00  0.00    -0.049 A 
ATOM     63  C   UNL A   1      43.429  25.892  28.207  1.00  0.00    -0.053 A 
ATOM     64  H   UNL A   1      43.960  24.150  27.138  1.00  0.00     0.063 H 
ATOM     65  C   UNL A   1      44.301  27.962  27.292  1.00  0.00    -0.053 A 
ATOM     66  H   UNL A   1      45.305  27.765  25.452  1.00  0.00     0.063 H 
ATOM     67  C   UNL A   1      43.579  27.287  28.288  1.00  0.00    -0.014 A 
ATOM     68  H   UNL A   1      42.862  25.394  28.912  1.00  0.00     0.063 H 
ATOM     69  H   UNL A   1      44.427  28.984  27.352  1.00  0.00     0.063 H 
BRANCH  67  70
ATOM     70  C   UNL A   1      42.979  28.067  29.396  1.00  0.00     0.031 A 
ATOM     71  C   UNL A   1      43.679  28.141  30.723  1.00  0.00     0.074 A 
ATOM     72  C   UNL A   1      41.771  28.639  29.231  1.00  0.00     0.049 A 
ATOM     73  N   UNL A   1      43.276  28.682  31.846  1.00  0.00    -0.248 NA
ATOM     74  C   UNL A   1      44.998  27.495  30.809  1.00  0.00    -0.034 C 
ATOM     75  C   UNL A   1      40.979  28.602  28.001  1.00  0.00    -0.036 A 
ATOM     76  N   UNL A   1      40.991  29.351  30.107  1.00  0.00    -0.354 N 
ATOM     77  C   UNL A   1      44.281  28.427  32.769  1.00  0.00     0.074 A 
ATOM     78  C   UNL A   1      45.286  27.635  32.094  1.00  0.00    -0.034 C 
ATOM     79  H   UNL A   1      45.554  27.049  30.063  1.00  0.00     0.065 H 
ATOM     80  C   UNL A   1      39.834  29.276  28.195  1.00  0.00    -0.036 A 
ATOM     81  H   UNL A   1      41.255  28.132  27.125  1.00  0.00     0.065 H 
ATOM     82  C   UNL A   1      39.791  29.753  29.573  1.00  0.00     0.049 A 
ATOM     83  H   UNL A   1      41.266  29.555  31.031  1.00  0.00     0.167 HD
ATOM     84  C   UNL A   1      44.366  28.835  34.056  1.00  0.00     0.037 A 
ATOM     85  H   UNL A   1      46.118  27.232  32.554  1.00  0.00     0.065 H 
ATOM     86  H   UNL A   1      39.103  29.432  27.484  1.00  0.00     0.065 H 
ATOM     87  C   UNL A   1      38.767  30.418  30.140  1.00  0.00     0.037 A 
ATOM     88  C   UNL A   1      43.369  29.638  34.714  1.00  0.00     0.049 A 
ATOM     89  C   UNL A   1      38.875  30.839  31.581  1.00  0.00     0.074 A 
ATOM     90  C   UNL A   1      43.385  30.153  35.998  1.00  0.00    -0.036 A 
ATOM     91  N   UNL A   1      42.171  30.038  34.137  1.00  0.00    -0.354 N 
ATOM     92  N   UNL A   1      39.858  30.652  32.427  1.00  0.00    -0.248 NA
ATOM     93  C   UNL A   1      37.730  31.569  32.145  1.00  0.00    -0.034 C 
ATOM     94  C   UNL A   1      42.173  30.816  36.217  1.00  0.00    -0.036 A 
ATOM     95  H   UNL A   1      44.157  30.063  36.677  1.00  0.00     0.065 H 
ATOM     96  C   UNL A   1      41.429  30.770  35.049  1.00  0.00     0.049 A 
ATOM     97  H   UNL A   1      41.891  29.832  33.215  1.00  0.00     0.167 HD
ATOM     98  C   UNL A   1      39.469  31.267  33.609  1.00  0.00     0.074 A 
ATOM     99  C   UNL A   1      38.163  31.842  33.369  1.00  0.00    -0.034 C 
ATOM    100  H   UNL A   1      36.828  31.805  31.705  1.00  0.00     0.065 H 
ATOM    101  H   UNL A   1      41.883  31.264  37.100  1.00  0.00     0.065 H 
ATOM    102  C   UNL A   1      40.135  31.350  34.787  1.00  0.00     0.037 A 
ATOM    103  H   UNL A   1      37.635  32.396  34.060  1.00  0.00     0.065 H 
BRANCH  84 104
ATOM    104  C   UNL A   1      45.579  28.419  34.839  1.00  0.00     0.064 A 
ATOM    105  C   UNL A   1      46.745  29.200  34.866  1.00  0.00     0.173 A 
ATOM    106  C   UNL A   1      45.566  27.237  35.596  1.00  0.00     0.173 A 
ATOM    107  F   UNL A   1      46.816  30.334  34.152  1.00  0.00    -0.203 F 
ATOM    108  C   UNL A   1      47.862  28.797  35.593  1.00  0.00     0.198 A 
ATOM    109  C   UNL A   1      46.673  26.856  36.351  1.00  0.00     0.198 A 
ATOM    110  F   UNL A   1      44.476  26.456  35.614  1.00  0.00    -0.203 F 
ATOM    111  F   UNL A   1      48.983  29.531  35.556  1.00  0.00    -0.200 F 
ATOM    112  C   UNL A   1      47.823  27.629  36.339  1.00  0.00     0.200 A 
ATOM    113  F   UNL A   1      46.627  25.735  37.084  1.00  0.00    -0.200 F 
ATOM    114  F   UNL A   1      48.896  27.247  37.044  1.00  0.00    -0.200 F 
ENDBRANCH  84 104
BRANCH  87 115
ATOM    115  C   UNL A   1      37.558  30.744  29.337  1.00  0.00     0.064 A 
ATOM    116  C   UNL A   1      36.581  29.771  29.083  1.00  0.00     0.173 A 
ATOM    117  C   UNL A   1      37.355  32.026  28.805  1.00  0.00     0.173 A 
ATOM    118  F   UNL A   1      36.739  28.525  29.553  1.00  0.00    -0.203 F 
ATOM    119  C   UNL A   1      35.458  30.062  28.312  1.00  0.00     0.198 A 
ATOM    120  C   UNL A   1      36.217  32.325  28.059  1.00  0.00     0.198 A 
ATOM    121  F   UNL A   1      38.257  32.994  29.022  1.00  0.00    -0.203 F 
ATOM    122  F   UNL A   1      34.564  29.101  28.046  1.00  0.00    -0.200 F 
ATOM    123  C   UNL A   1      35.274  31.340  27.806  1.00  0.00     0.200 A 
ATOM    124  F   UNL A   1      36.034  33.564  27.586  1.00  0.00    -0.200 F 
ATOM    125  F   UNL A   1      34.191  31.621  27.067  1.00  0.00    -0.200 F 
ENDBRANCH  87 115
BRANCH 102 126
ATOM    126  C   UNL A   1      39.489  32.131  35.895  1.00  0.00     0.064 A 
ATOM    127  C   UNL A   1      39.759  33.492  36.095  1.00  0.00     0.173 A 
ATOM    128  C   UNL A   1      38.542  31.518  36.730  1.00  0.00     0.173 A 
ATOM    129  F   UNL A   1      40.667  34.120  35.334  1.00  0.00    -0.203 F 
ATOM    130  C   UNL A   1      39.119  34.206  37.105  1.00  0.00     0.198 A 
ATOM    131  C   UNL A   1      37.880  32.243  37.717  1.00  0.00     0.198 A 
ATOM    132  F   UNL A   1      38.242  30.219  36.576  1.00  0.00    -0.203 F 
ATOM    133  F   UNL A   1      39.424  35.496  37.308  1.00  0.00    -0.200 F 
ATOM    134  C   UNL A   1      38.173  33.585  37.908  1.00  0.00     0.200 A 
ATOM    135  F   UNL A   1      36.954  31.645  38.479  1.00  0.00    -0.200 F 
ATOM    136  F   UNL A   1      37.548  34.279  38.868  1.00  0.00    -0.200 F 
ENDBRANCH 102 126
ENDBRANCH  67  70
ENDBRANCH  57  60
ENDBRANCH  53  56
ENDBRANCH  50  53
ENDBRANCH  47  50
ENDBRANCH   1  47
TORSDOF 18
ENDMDL
MODEL 10
REMARK VINA RESULT:     -10.9      6.014     10.149
REMARK SMILES CCc1cc(/C=C/C(=O)NCCCCCCNC(=O)c2ccc(-c3c4nc(c(-c5c(F)c(F)c(F)c(F)c5F)c5ccc([nH]5)c(-c5c(F)c(F)c(F)c(F)c5F)c5nc(c(-c6c(F)c(F)c(F)c(F)c6F)c6ccc3[nH]6)C=C5)C=C4)cc2)cc(C(=O)c2ccccc2)c1
REMARK SMILES IDX 13 1 12 4 11 7 10 10 8 11 9 12 7 14 6 15 5 18 3 19 4 20
REMARK SMILES IDX 93 21 84 23 83 25 2 27 1 30 85 34 86 35 87 36 88 37 92 38
REMARK SMILES IDX 89 39 91 41 90 43 14 47 15 50 16 53 17 56 18 57 19 59 20 60
REMARK SMILES IDX 21 61 82 62 22 63 81 65 23 67 24 70 25 71 75 72 26 73 80 74
REMARK SMILES IDX 74 75 76 76 27 77 79 78 73 80 72 82 28 84 60 87 40 88 59 89
REMARK SMILES IDX 41 90 44 91 58 92 77 93 42 94 43 96 57 98 78 99 45 102
REMARK SMILES IDX 29 104 30 105 38 106 31 107 32 108 36 109 39 110 33 111
REMARK SMILES IDX 34 112 37 113 35 114 61 115 62 116 70 117 63 118 64 119
REMARK SMILES IDX 68 120 71 121 65 122 66 123 69 124 67 125 46 126 47 127
REMARK SMILES IDX 55 128 48 129 49 130 53 131 56 132 50 133 51 134 54 135
REMARK SMILES IDX 52 136
REMARK H PARENT 13 2 13 3 12 5 12 6 11 8 11 9 10 13 6 16 7 17 4 22 93 24 83 26
REMARK H PARENT 2 28 2 29 1 31 1 32 1 33 88 40 92 42 89 44 91 45 90 46 14 48
REMARK H PARENT 14 49 15 51 15 52 16 54 16 55 17 58 21 64 82 66 22 68 81 69
REMARK H PARENT 80 79 74 81 76 83 79 85 73 86 41 95 44 97 77 100 42 101 78 103
REMARK Flexibility Score: inf
ROOT
ATOM      1  C   UNL A   1      44.909  21.178  24.229  1.00  0.00    -0.052 C 
ATOM      2  H   UNL A   1      43.852  21.344  24.245  1.00  0.00     0.027 H 
ATOM      3  H   UNL A   1      45.385  21.598  23.368  1.00  0.00     0.027 H 
ENDROOT
BRANCH   1   4
ATOM      4  C   UNL A   1      45.156  19.664  24.171  1.00  0.00    -0.036 C 
ATOM      5  H   UNL A   1      44.612  19.262  23.342  1.00  0.00     0.028 H 
ATOM      6  H   UNL A   1      46.211  19.516  24.066  1.00  0.00     0.028 H 
BRANCH   4   7
ATOM      7  C   UNL A   1      44.714  18.938  25.442  1.00  0.00     0.018 C 
ATOM      8  H   UNL A   1      45.254  18.018  25.529  1.00  0.00     0.049 H 
ATOM      9  H   UNL A   1      44.917  19.559  26.290  1.00  0.00     0.049 H 
BRANCH   7  10
ATOM     10  N   UNL A   1      43.293  18.660  25.385  1.00  0.00    -0.353 N 
ATOM     11  C   UNL A   1      42.232  19.249  25.988  1.00  0.00     0.243 C 
ATOM     12  O   UNL A   1      41.101  18.826  25.750  1.00  0.00    -0.270 OA
ATOM     13  H   UNL A   1      43.055  17.904  24.802  1.00  0.00     0.163 HD
BRANCH  11  14
ATOM     14  C   UNL A   1      42.376  20.435  26.863  1.00  0.00     0.003 C 
ATOM     15  C   UNL A   1      41.825  21.642  26.672  1.00  0.00    -0.049 C 
ATOM     16  H   UNL A   1      41.195  21.755  25.862  1.00  0.00     0.063 H 
ATOM     17  H   UNL A   1      42.959  20.320  27.707  1.00  0.00     0.068 H 
BRANCH  15  18
ATOM     18  C   UNL A   1      42.051  22.815  27.525  1.00  0.00    -0.024 A 
ATOM     19  C   UNL A   1      43.415  24.047  29.129  1.00  0.00    -0.047 A 
ATOM     20  C   UNL A   1      43.096  22.861  28.452  1.00  0.00    -0.052 A 
ATOM     21  C   UNL A   1      42.638  25.191  28.909  1.00  0.00    -0.048 A 
ATOM     22  H   UNL A   1      43.645  22.007  28.641  1.00  0.00     0.063 H 
ATOM     23  C   UNL A   1      41.584  25.162  27.988  1.00  0.00     0.023 A 
ATOM     24  H   UNL A   1      42.842  26.058  29.429  1.00  0.00     0.063 H 
ATOM     25  C   UNL A   1      41.291  23.971  27.308  1.00  0.00    -0.044 A 
ATOM     26  H   UNL A   1      40.505  23.945  26.640  1.00  0.00     0.064 H 
BRANCH  19  27
ATOM     27  C   UNL A   1      44.637  24.095  30.012  1.00  0.00    -0.031 C 
ATOM     28  H   UNL A   1      44.384  24.577  30.934  1.00  0.00     0.031 H 
ATOM     29  H   UNL A   1      44.967  23.093  30.194  1.00  0.00     0.031 H 
BRANCH  27  30
ATOM     30  C   UNL A   1      45.767  24.867  29.339  1.00  0.00    -0.061 C 
ATOM     31  H   UNL A   1      46.099  24.331  28.474  1.00  0.00     0.023 H 
ATOM     32  H   UNL A   1      46.582  24.977  30.024  1.00  0.00     0.023 H 
ATOM     33  H   UNL A   1      45.414  25.833  29.047  1.00  0.00     0.023 H 
ENDBRANCH  27  30
ENDBRANCH  19  27
BRANCH  23  34
ATOM     34  C   UNL A   1      40.753  26.362  27.683  1.00  0.00     0.193 C 
ATOM     35  O   UNL A   1      40.412  26.597  26.527  1.00  0.00    -0.289 OA
BRANCH  34  36
ATOM     36  C   UNL A   1      40.312  27.285  28.752  1.00  0.00     0.022 A 
ATOM     37  C   UNL A   1      39.281  26.876  29.603  1.00  0.00    -0.051 A 
ATOM     38  C   UNL A   1      40.892  28.550  28.905  1.00  0.00    -0.051 A 
ATOM     39  C   UNL A   1      38.868  27.708  30.642  1.00  0.00    -0.062 A 
ATOM     40  H   UNL A   1      38.826  25.959  29.461  1.00  0.00     0.063 H 
ATOM     41  C   UNL A   1      40.475  29.379  29.947  1.00  0.00    -0.062 A 
ATOM     42  H   UNL A   1      41.625  28.867  28.252  1.00  0.00     0.063 H 
ATOM     43  C   UNL A   1      39.472  28.954  30.819  1.00  0.00    -0.062 A 
ATOM     44  H   UNL A   1      38.117  27.403  31.280  1.00  0.00     0.062 H 
ATOM     45  H   UNL A   1      40.909  30.308  30.073  1.00  0.00     0.062 H 
ATOM     46  H   UNL A   1      39.174  29.564  31.598  1.00  0.00     0.062 H 
ENDBRANCH  34  36
ENDBRANCH  23  34
ENDBRANCH  15  18
ENDBRANCH  11  14
ENDBRANCH   7  10
ENDBRANCH   4   7
ENDBRANCH   1   4
BRANCH   1  47
ATOM     47  C   UNL A   1      45.522  21.878  25.449  1.00  0.00    -0.052 C 
ATOM     48  H   UNL A   1      46.587  21.784  25.389  1.00  0.00     0.027 H 
ATOM     49  H   UNL A   1      45.108  21.401  26.312  1.00  0.00     0.027 H 
BRANCH  47  50
ATOM     50  C   UNL A   1      45.179  23.365  25.568  1.00  0.00    -0.036 C 
ATOM     51  H   UNL A   1      44.363  23.469  26.253  1.00  0.00     0.028 H 
ATOM     52  H   UNL A   1      44.934  23.709  24.585  1.00  0.00     0.028 H 
BRANCH  50  53
ATOM     53  C   UNL A   1      46.337  24.222  26.063  1.00  0.00     0.018 C 
ATOM     54  H   UNL A   1      47.153  23.585  26.331  1.00  0.00     0.049 H 
ATOM     55  H   UNL A   1      46.001  24.785  26.910  1.00  0.00     0.049 H 
BRANCH  53  56
ATOM     56  N   UNL A   1      46.781  25.156  25.039  1.00  0.00    -0.352 N 
ATOM     57  C   UNL A   1      46.537  26.501  24.932  1.00  0.00     0.251 C 
ATOM     58  H   UNL A   1      47.333  24.767  24.323  1.00  0.00     0.163 HD
ATOM     59  O   UNL A   1      46.757  27.095  23.884  1.00  0.00    -0.269 OA
BRANCH  57  60
ATOM     60  C   UNL A   1      46.001  27.230  26.098  1.00  0.00     0.039 A 
ATOM     61  C   UNL A   1      46.889  27.775  27.029  1.00  0.00    -0.049 A 
ATOM     62  C   UNL A   1      44.621  27.368  26.270  1.00  0.00    -0.049 A 
ATOM     63  C   UNL A   1      46.391  28.505  28.107  1.00  0.00    -0.053 A 
ATOM     64  H   UNL A   1      47.906  27.638  26.919  1.00  0.00     0.063 H 
ATOM     65  C   UNL A   1      44.131  28.160  27.299  1.00  0.00    -0.053 A 
ATOM     66  H   UNL A   1      43.969  26.882  25.634  1.00  0.00     0.063 H 
ATOM     67  C   UNL A   1      45.009  28.729  28.233  1.00  0.00    -0.014 A 
ATOM     68  H   UNL A   1      47.040  28.885  28.815  1.00  0.00     0.063 H 
ATOM     69  H   UNL A   1      43.116  28.332  27.377  1.00  0.00     0.063 H 
BRANCH  67  70
ATOM     70  C   UNL A   1      44.455  29.543  29.341  1.00  0.00     0.031 A 
ATOM     71  C   UNL A   1      44.340  31.033  29.189  1.00  0.00     0.074 A 
ATOM     72  C   UNL A   1      44.132  28.951  30.506  1.00  0.00     0.049 A 
ATOM     73  N   UNL A   1      43.979  31.932  30.071  1.00  0.00    -0.248 NA
ATOM     74  C   UNL A   1      44.706  31.593  27.879  1.00  0.00    -0.034 C 
ATOM     75  C   UNL A   1      44.237  27.518  30.784  1.00  0.00    -0.036 A 
ATOM     76  N   UNL A   1      43.663  29.483  31.681  1.00  0.00    -0.354 N 
ATOM     77  C   UNL A   1      44.092  33.157  29.427  1.00  0.00     0.074 A 
ATOM     78  C   UNL A   1      44.607  32.893  28.101  1.00  0.00    -0.034 C 
ATOM     79  H   UNL A   1      44.971  31.099  27.012  1.00  0.00     0.065 H 
ATOM     80  C   UNL A   1      43.829  27.282  32.041  1.00  0.00    -0.036 A 
ATOM     81  H   UNL A   1      44.573  26.803  30.121  1.00  0.00     0.065 H 
ATOM     82  C   UNL A   1      43.477  28.550  32.671  1.00  0.00     0.049 A 
ATOM     83  H   UNL A   1      43.477  30.443  31.802  1.00  0.00     0.167 HD
ATOM     84  C   UNL A   1      43.773  34.386  29.894  1.00  0.00     0.037 A 
ATOM     85  H   UNL A   1      44.865  33.624  27.419  1.00  0.00     0.065 H 
ATOM     86  H   UNL A   1      43.773  26.354  32.489  1.00  0.00     0.065 H 
ATOM     87  C   UNL A   1      43.080  28.705  33.949  1.00  0.00     0.037 A 
ATOM     88  C   UNL A   1      43.244  34.636  31.209  1.00  0.00     0.049 A 
ATOM     89  C   UNL A   1      42.756  30.087  34.452  1.00  0.00     0.074 A 
ATOM     90  C   UNL A   1      42.835  35.838  31.761  1.00  0.00    -0.036 A 
ATOM     91  N   UNL A   1      43.055  33.664  32.181  1.00  0.00    -0.354 N 
ATOM     92  N   UNL A   1      42.801  31.232  33.815  1.00  0.00    -0.248 NA
ATOM     93  C   UNL A   1      42.321  30.197  35.852  1.00  0.00    -0.034 C 
ATOM     94  C   UNL A   1      42.453  35.601  33.085  1.00  0.00    -0.036 A 
ATOM     95  H   UNL A   1      42.816  36.750  31.278  1.00  0.00     0.065 H 
ATOM     96  C   UNL A   1      42.562  34.244  33.339  1.00  0.00     0.049 A 
ATOM     97  H   UNL A   1      43.244  32.705  32.065  1.00  0.00     0.167 HD
ATOM     98  C   UNL A   1      42.370  32.191  34.721  1.00  0.00     0.074 A 
ATOM     99  C   UNL A   1      42.058  31.493  35.950  1.00  0.00    -0.034 C 
ATOM    100  H   UNL A   1      42.242  29.459  36.568  1.00  0.00     0.065 H 
ATOM    101  H   UNL A   1      42.142  36.318  33.759  1.00  0.00     0.065 H 
ATOM    102  C   UNL A   1      42.241  33.530  34.550  1.00  0.00     0.037 A 
ATOM    103  H   UNL A   1      41.678  31.945  36.796  1.00  0.00     0.065 H 
BRANCH  84 104
ATOM    104  C   UNL A   1      43.990  35.557  28.976  1.00  0.00     0.064 A 
ATOM    105  C   UNL A   1      45.237  36.193  28.875  1.00  0.00     0.173 A 
ATOM    106  C   UNL A   1      42.947  36.030  28.167  1.00  0.00     0.173 A 
ATOM    107  F   UNL A   1      46.267  35.788  29.634  1.00  0.00    -0.203 F 
ATOM    108  C   UNL A   1      45.421  37.280  28.023  1.00  0.00     0.198 A 
ATOM    109  C   UNL A   1      43.144  37.094  27.290  1.00  0.00     0.198 A 
ATOM    110  F   UNL A   1      41.736  35.454  28.217  1.00  0.00    -0.203 F 
ATOM    111  F   UNL A   1      46.605  37.907  27.987  1.00  0.00    -0.200 F 
ATOM    112  C   UNL A   1      44.377  37.724  27.227  1.00  0.00     0.200 A 
ATOM    113  F   UNL A   1      42.137  37.512  26.510  1.00  0.00    -0.200 F 
ATOM    114  F   UNL A   1      44.557  38.766  26.404  1.00  0.00    -0.200 F 
ENDBRANCH  84 104
BRANCH  87 115
ATOM    115  C   UNL A   1      42.949  27.519  34.835  1.00  0.00     0.064 A 
ATOM    116  C   UNL A   1      41.782  26.743  34.829  1.00  0.00     0.173 A 
ATOM    117  C   UNL A   1      43.982  27.137  35.705  1.00  0.00     0.173 A 
ATOM    118  F   UNL A   1      40.759  27.078  34.029  1.00  0.00    -0.203 F 
ATOM    119  C   UNL A   1      41.643  25.643  35.674  1.00  0.00     0.198 A 
ATOM    120  C   UNL A   1      43.854  26.019  36.527  1.00  0.00     0.198 A 
ATOM    121  F   UNL A   1      45.121  27.843  35.746  1.00  0.00    -0.203 F 
ATOM    122  F   UNL A   1      40.498  24.948  35.681  1.00  0.00    -0.200 F 
ATOM    123  C   UNL A   1      42.681  25.279  36.517  1.00  0.00     0.200 A 
ATOM    124  F   UNL A   1      44.865  25.661  37.329  1.00  0.00    -0.200 F 
ATOM    125  F   UNL A   1      42.550  24.219  37.327  1.00  0.00    -0.200 F 
ENDBRANCH  87 115
BRANCH 102 126
ATOM    126  C   UNL A   1      41.695  34.327  35.699  1.00  0.00     0.064 A 
ATOM    127  C   UNL A   1      40.326  34.354  35.996  1.00  0.00     0.173 A 
ATOM    128  C   UNL A   1      42.567  35.025  36.550  1.00  0.00     0.173 A 
ATOM    129  F   UNL A   1      39.450  33.716  35.205  1.00  0.00    -0.203 F 
ATOM    130  C   UNL A   1      39.845  35.069  37.090  1.00  0.00     0.198 A 
ATOM    131  C   UNL A   1      42.087  35.710  37.662  1.00  0.00     0.198 A 
ATOM    132  F   UNL A   1      43.888  35.025  36.315  1.00  0.00    -0.203 F 
ATOM    133  F   UNL A   1      38.527  35.118  37.330  1.00  0.00    -0.200 F 
ATOM    134  C   UNL A   1      40.727  35.737  37.928  1.00  0.00     0.200 A 
ATOM    135  F   UNL A   1      42.942  36.341  38.480  1.00  0.00    -0.200 F 
ATOM    136  F   UNL A   1      40.263  36.411  38.989  1.00  0.00    -0.200 F 
ENDBRANCH 102 126
ENDBRANCH  67  70
ENDBRANCH  57  60
ENDBRANCH  53  56
ENDBRANCH  50  53
ENDBRANCH  47  50
ENDBRANCH   1  47
TORSDOF 18
ENDMDL
