MODEL 1
REMARK VINA RESULT:     -11.7      0.000      0.000
REMARK SMILES COc1ccc(C(=O)c2ccccc2)cc1[C@@H](C)C(=O)NCCCCCCNC(=O)c1ccc(-c2c3nc(c(-c4c(F)c(F)c(F)c(F)c4F)c4ccc([nH]4)c(-c4c(F)c(F)c(F)c(F)c4F)c4nc(c(-c5c(F)c(F)c(F)c(F)c5F)c5ccc2[nH]5)C=C4)C=C3)cc1
REMARK SMILES IDX 24 1 23 4 22 7 21 10 19 11 20 12 17 14 16 16 3 17 4 18 5 19
REMARK SMILES IDX 15 21 6 22 2 25 1 26 7 30 8 31 9 32 10 33 14 34 11 35 13 37
REMARK SMILES IDX 12 39 18 43 25 47 26 50 27 53 28 56 29 57 30 59 31 60 32 61
REMARK SMILES IDX 93 62 33 63 92 65 34 67 35 70 36 71 86 72 37 73 91 74 85 75
REMARK SMILES IDX 87 76 38 77 90 78 84 80 83 82 39 84 71 87 51 88 70 89 52 90
REMARK SMILES IDX 55 91 69 92 88 93 53 94 54 96 68 98 89 99 56 102 40 104
REMARK SMILES IDX 41 105 49 106 42 107 43 108 47 109 50 110 44 111 45 112
REMARK SMILES IDX 48 113 46 114 72 115 73 116 81 117 74 118 75 119 79 120
REMARK SMILES IDX 82 121 76 122 77 123 80 124 78 125 57 126 58 127 66 128
REMARK SMILES IDX 59 129 60 130 64 131 67 132 61 133 62 134 65 135 63 136
REMARK H PARENT 24 2 24 3 23 5 23 6 22 8 22 9 21 13 17 15 4 20 5 23 15 24 1 27
REMARK H PARENT 1 28 1 29 10 36 14 38 11 40 13 41 12 42 18 44 18 45 18 46
REMARK H PARENT 25 48 25 49 26 51 26 52 27 54 27 55 28 58 32 64 93 66 33 68
REMARK H PARENT 92 69 91 79 85 81 87 83 90 85 84 86 52 95 55 97 88 100 53 101
REMARK H PARENT 89 103
REMARK Flexibility Score: inf
ROOT
ATOM      1  C   UNL A   1      32.379  29.813  27.139  1.00  0.00    -0.052 C 
ATOM      2  H   UNL A   1      33.306  30.347  27.170  1.00  0.00     0.027 H 
ATOM      3  H   UNL A   1      31.899  29.711  28.089  1.00  0.00     0.027 H 
ENDROOT
BRANCH   1   4
ATOM      4  C   UNL A   1      32.676  28.385  26.671  1.00  0.00    -0.036 C 
ATOM      5  H   UNL A   1      32.867  27.788  27.539  1.00  0.00     0.028 H 
ATOM      6  H   UNL A   1      31.816  28.075  26.114  1.00  0.00     0.028 H 
BRANCH   4   7
ATOM      7  C   UNL A   1      33.868  28.231  25.722  1.00  0.00     0.017 C 
ATOM      8  H   UNL A   1      34.736  28.656  26.182  1.00  0.00     0.049 H 
ATOM      9  H   UNL A   1      34.006  27.188  25.529  1.00  0.00     0.049 H 
BRANCH   7  10
ATOM     10  N   UNL A   1      33.640  28.895  24.450  1.00  0.00    -0.356 N 
ATOM     11  C   UNL A   1      33.147  28.484  23.252  1.00  0.00     0.227 C 
ATOM     12  O   UNL A   1      33.168  29.332  22.348  1.00  0.00    -0.274 OA
ATOM     13  H   UNL A   1      33.900  29.844  24.458  1.00  0.00     0.163 HD
BRANCH  11  14
ATOM     14  C   UNL A   1      32.605  27.075  22.948  1.00  0.00     0.064 C 
ATOM     15  H   UNL A   1      33.209  26.449  23.569  1.00  0.00     0.045 H 
BRANCH  14  16
ATOM     16  C   UNL A   1      31.166  26.873  23.407  1.00  0.00     0.007 A 
ATOM     17  C   UNL A   1      30.748  25.744  24.130  1.00  0.00     0.122 A 
ATOM     18  C   UNL A   1      29.419  25.612  24.548  1.00  0.00    -0.019 A 
ATOM     19  C   UNL A   1      28.477  26.595  24.236  1.00  0.00    -0.047 A 
ATOM     20  H   UNL A   1      29.132  24.782  25.089  1.00  0.00     0.066 H 
ATOM     21  C   UNL A   1      30.190  27.834  23.086  1.00  0.00    -0.043 A 
ATOM     22  C   UNL A   1      28.850  27.700  23.470  1.00  0.00     0.023 A 
ATOM     23  H   UNL A   1      27.505  26.503  24.572  1.00  0.00     0.063 H 
ATOM     24  H   UNL A   1      30.471  28.669  22.546  1.00  0.00     0.064 H 
BRANCH  17  25
ATOM     25  O   UNL A   1      31.545  24.646  24.312  1.00  0.00    -0.496 OA
BRANCH  25  26
ATOM     26  C   UNL A   1      31.166  23.523  23.518  1.00  0.00     0.078 C 
ATOM     27  H   UNL A   1      30.524  23.847  22.725  1.00  0.00     0.067 H 
ATOM     28  H   UNL A   1      30.647  22.813  24.129  1.00  0.00     0.067 H 
ATOM     29  H   UNL A   1      32.040  23.066  23.105  1.00  0.00     0.067 H 
ENDBRANCH  25  26
ENDBRANCH  17  25
BRANCH  22  30
ATOM     30  C   UNL A   1      27.814  28.715  23.128  1.00  0.00     0.193 C 
ATOM     31  O   UNL A   1      26.626  28.432  23.276  1.00  0.00    -0.289 OA
BRANCH  30  32
ATOM     32  C   UNL A   1      28.145  30.081  22.648  1.00  0.00     0.022 A 
ATOM     33  C   UNL A   1      28.484  31.036  23.611  1.00  0.00    -0.051 A 
ATOM     34  C   UNL A   1      28.079  30.454  21.299  1.00  0.00    -0.051 A 
ATOM     35  C   UNL A   1      28.778  32.343  23.226  1.00  0.00    -0.062 A 
ATOM     36  H   UNL A   1      28.517  30.774  24.608  1.00  0.00     0.063 H 
ATOM     37  C   UNL A   1      28.404  31.760  20.916  1.00  0.00    -0.062 A 
ATOM     38  H   UNL A   1      27.789  29.765  20.587  1.00  0.00     0.063 H 
ATOM     39  C   UNL A   1      28.753  32.704  21.881  1.00  0.00    -0.062 A 
ATOM     40  H   UNL A   1      29.014  33.048  23.942  1.00  0.00     0.062 H 
ATOM     41  H   UNL A   1      28.385  32.025  19.919  1.00  0.00     0.062 H 
ATOM     42  H   UNL A   1      28.994  33.667  21.599  1.00  0.00     0.062 H 
ENDBRANCH  30  32
ENDBRANCH  22  30
ENDBRANCH  14  16
BRANCH  14  43
ATOM     43  C   UNL A   1      32.898  26.515  21.559  1.00  0.00    -0.049 C 
ATOM     44  H   UNL A   1      31.977  26.352  21.038  1.00  0.00     0.024 H 
ATOM     45  H   UNL A   1      33.423  25.588  21.652  1.00  0.00     0.024 H 
ATOM     46  H   UNL A   1      33.498  27.212  21.013  1.00  0.00     0.024 H 
ENDBRANCH  14  43
ENDBRANCH  11  14
ENDBRANCH   7  10
ENDBRANCH   4   7
ENDBRANCH   1   4
BRANCH   1  47
ATOM     47  C   UNL A   1      31.403  30.621  26.270  1.00  0.00    -0.052 C 
ATOM     48  H   UNL A   1      30.417  30.247  26.455  1.00  0.00     0.027 H 
ATOM     49  H   UNL A   1      31.747  30.492  25.266  1.00  0.00     0.027 H 
BRANCH  47  50
ATOM     50  C   UNL A   1      31.376  32.138  26.500  1.00  0.00    -0.036 C 
ATOM     51  H   UNL A   1      30.621  32.345  27.229  1.00  0.00     0.028 H 
ATOM     52  H   UNL A   1      31.188  32.573  25.541  1.00  0.00     0.028 H 
BRANCH  50  53
ATOM     53  C   UNL A   1      32.684  32.765  26.989  1.00  0.00     0.018 C 
ATOM     54  H   UNL A   1      33.329  32.910  26.148  1.00  0.00     0.049 H 
ATOM     55  H   UNL A   1      33.112  32.097  27.707  1.00  0.00     0.049 H 
BRANCH  53  56
ATOM     56  N   UNL A   1      32.484  34.044  27.647  1.00  0.00    -0.352 N 
ATOM     57  C   UNL A   1      33.157  34.610  28.706  1.00  0.00     0.251 C 
ATOM     58  H   UNL A   1      31.754  34.593  27.278  1.00  0.00     0.163 HD
ATOM     59  O   UNL A   1      32.730  35.646  29.208  1.00  0.00    -0.269 OA
BRANCH  57  60
ATOM     60  C   UNL A   1      34.380  33.987  29.272  1.00  0.00     0.039 A 
ATOM     61  C   UNL A   1      34.239  32.953  30.203  1.00  0.00    -0.049 A 
ATOM     62  C   UNL A   1      35.659  34.455  28.967  1.00  0.00    -0.049 A 
ATOM     63  C   UNL A   1      35.371  32.366  30.783  1.00  0.00    -0.053 A 
ATOM     64  H   UNL A   1      33.297  32.622  30.465  1.00  0.00     0.063 H 
ATOM     65  C   UNL A   1      36.795  33.821  29.495  1.00  0.00    -0.053 A 
ATOM     66  H   UNL A   1      35.771  35.272  28.348  1.00  0.00     0.063 H 
ATOM     67  C   UNL A   1      36.667  32.772  30.419  1.00  0.00    -0.014 A 
ATOM     68  H   UNL A   1      35.252  31.622  31.489  1.00  0.00     0.063 H 
ATOM     69  H   UNL A   1      37.734  34.130  29.200  1.00  0.00     0.063 H 
BRANCH  67  70
ATOM     70  C   UNL A   1      37.860  32.094  31.012  1.00  0.00     0.031 A 
ATOM     71  C   UNL A   1      38.342  32.413  32.405  1.00  0.00     0.074 A 
ATOM     72  C   UNL A   1      38.529  31.167  30.295  1.00  0.00     0.049 A 
ATOM     73  N   UNL A   1      39.301  31.847  33.099  1.00  0.00    -0.248 NA
ATOM     74  C   UNL A   1      37.679  33.523  33.104  1.00  0.00    -0.034 C 
ATOM     75  C   UNL A   1      38.234  30.797  28.911  1.00  0.00    -0.036 A 
ATOM     76  N   UNL A   1      39.589  30.360  30.634  1.00  0.00    -0.354 N 
ATOM     77  C   UNL A   1      39.359  32.532  34.306  1.00  0.00     0.074 A 
ATOM     78  C   UNL A   1      38.374  33.591  34.231  1.00  0.00    -0.034 C 
ATOM     79  H   UNL A   1      36.880  34.100  32.798  1.00  0.00     0.065 H 
ATOM     80  C   UNL A   1      39.063  29.811  28.533  1.00  0.00    -0.036 A 
ATOM     81  H   UNL A   1      37.506  31.226  28.319  1.00  0.00     0.065 H 
ATOM     82  C   UNL A   1      39.962  29.489  29.639  1.00  0.00     0.049 A 
ATOM     83  H   UNL A   1      40.039  30.402  31.510  1.00  0.00     0.167 HD
ATOM     84  C   UNL A   1      40.137  32.290  35.391  1.00  0.00     0.037 A 
ATOM     85  H   UNL A   1      38.233  34.307  34.960  1.00  0.00     0.065 H 
ATOM     86  H   UNL A   1      39.066  29.353  27.608  1.00  0.00     0.065 H 
ATOM     87  C   UNL A   1      40.906  28.528  29.617  1.00  0.00     0.037 A 
ATOM     88  C   UNL A   1      41.099  31.222  35.496  1.00  0.00     0.049 A 
ATOM     89  C   UNL A   1      41.733  28.255  30.844  1.00  0.00     0.074 A 
ATOM     90  C   UNL A   1      41.864  30.855  36.591  1.00  0.00    -0.036 A 
ATOM     91  N   UNL A   1      41.435  30.355  34.470  1.00  0.00    -0.354 N 
ATOM     92  N   UNL A   1      41.697  28.842  32.014  1.00  0.00    -0.248 NA
ATOM     93  C   UNL A   1      42.723  27.170  30.748  1.00  0.00    -0.034 C 
ATOM     94  C   UNL A   1      42.695  29.793  36.214  1.00  0.00    -0.036 A 
ATOM     95  H   UNL A   1      41.827  31.291  37.527  1.00  0.00     0.065 H 
ATOM     96  C   UNL A   1      42.414  29.469  34.898  1.00  0.00     0.049 A 
ATOM     97  H   UNL A   1      41.039  30.365  33.569  1.00  0.00     0.167 HD
ATOM     98  C   UNL A   1      42.638  28.186  32.798  1.00  0.00     0.074 A 
ATOM     99  C   UNL A   1      43.215  27.143  31.979  1.00  0.00    -0.034 C 
ATOM    100  H   UNL A   1      42.969  26.584  29.936  1.00  0.00     0.065 H 
ATOM    101  H   UNL A   1      43.396  29.332  36.815  1.00  0.00     0.065 H 
ATOM    102  C   UNL A   1      42.989  28.431  34.084  1.00  0.00     0.037 A 
ATOM    103  H   UNL A   1      43.919  26.464  32.309  1.00  0.00     0.065 H 
BRANCH  84 104
ATOM    104  C   UNL A   1      39.972  33.195  36.579  1.00  0.00     0.064 A 
ATOM    105  C   UNL A   1      40.735  34.364  36.720  1.00  0.00     0.173 A 
ATOM    106  C   UNL A   1      39.000  32.922  37.553  1.00  0.00     0.173 A 
ATOM    107  F   UNL A   1      41.678  34.667  35.817  1.00  0.00    -0.203 F 
ATOM    108  C   UNL A   1      40.550  35.212  37.809  1.00  0.00     0.198 A 
ATOM    109  C   UNL A   1      38.799  33.788  38.627  1.00  0.00     0.198 A 
ATOM    110  F   UNL A   1      38.235  31.824  37.459  1.00  0.00    -0.203 F 
ATOM    111  F   UNL A   1      41.319  36.302  37.945  1.00  0.00    -0.200 F 
ATOM    112  C   UNL A   1      39.579  34.927  38.757  1.00  0.00     0.200 A 
ATOM    113  F   UNL A   1      37.850  33.520  39.534  1.00  0.00    -0.200 F 
ATOM    114  F   UNL A   1      39.396  35.751  39.798  1.00  0.00    -0.200 F 
ENDBRANCH  84 104
BRANCH  87 115
ATOM    115  C   UNL A   1      41.096  27.710  28.391  1.00  0.00     0.064 A 
ATOM    116  C   UNL A   1      40.387  26.515  28.205  1.00  0.00     0.173 A 
ATOM    117  C   UNL A   1      41.995  28.101  27.389  1.00  0.00     0.173 A 
ATOM    118  F   UNL A   1      39.534  26.090  29.149  1.00  0.00    -0.203 F 
ATOM    119  C   UNL A   1      40.585  25.731  27.071  1.00  0.00     0.198 A 
ATOM    120  C   UNL A   1      42.172  27.330  26.243  1.00  0.00     0.198 A 
ATOM    121  F   UNL A   1      42.693  29.239  27.519  1.00  0.00    -0.203 F 
ATOM    122  F   UNL A   1      39.928  24.571  26.939  1.00  0.00    -0.200 F 
ATOM    123  C   UNL A   1      41.473  26.142  26.088  1.00  0.00     0.200 A 
ATOM    124  F   UNL A   1      43.021  27.736  25.290  1.00  0.00    -0.200 F 
ATOM    125  F   UNL A   1      41.660  25.389  24.996  1.00  0.00    -0.200 F 
ENDBRANCH  87 115
BRANCH 102 126
ATOM    126  C   UNL A   1      44.033  27.540  34.697  1.00  0.00     0.064 A 
ATOM    127  C   UNL A   1      45.390  27.896  34.707  1.00  0.00     0.173 A 
ATOM    128  C   UNL A   1      43.669  26.327  35.300  1.00  0.00     0.173 A 
ATOM    129  F   UNL A   1      45.793  29.038  34.131  1.00  0.00    -0.203 F 
ATOM    130  C   UNL A   1      46.348  27.055  35.270  1.00  0.00     0.198 A 
ATOM    131  C   UNL A   1      44.626  25.501  35.887  1.00  0.00     0.198 A 
ATOM    132  F   UNL A   1      42.384  25.940  35.323  1.00  0.00    -0.203 F 
ATOM    133  F   UNL A   1      47.644  27.391  35.221  1.00  0.00    -0.200 F 
ATOM    134  C   UNL A   1      45.965  25.861  35.863  1.00  0.00     0.200 A 
ATOM    135  F   UNL A   1      44.252  24.353  36.469  1.00  0.00    -0.200 F 
ATOM    136  F   UNL A   1      46.887  25.054  36.405  1.00  0.00    -0.200 F 
ENDBRANCH 102 126
ENDBRANCH  67  70
ENDBRANCH  57  60
ENDBRANCH  53  56
ENDBRANCH  50  53
ENDBRANCH  47  50
ENDBRANCH   1  47
TORSDOF 19
ENDMDL
MODEL 2
REMARK VINA RESULT:     -11.6      0.389      1.683
REMARK SMILES COc1ccc(C(=O)c2ccccc2)cc1[C@@H](C)C(=O)NCCCCCCNC(=O)c1ccc(-c2c3nc(c(-c4c(F)c(F)c(F)c(F)c4F)c4ccc([nH]4)c(-c4c(F)c(F)c(F)c(F)c4F)c4nc(c(-c5c(F)c(F)c(F)c(F)c5F)c5ccc2[nH]5)C=C4)C=C3)cc1
REMARK SMILES IDX 24 1 23 4 22 7 21 10 19 11 20 12 17 14 16 16 3 17 4 18 5 19
REMARK SMILES IDX 15 21 6 22 2 25 1 26 7 30 8 31 9 32 10 33 14 34 11 35 13 37
REMARK SMILES IDX 12 39 18 43 25 47 26 50 27 53 28 56 29 57 30 59 31 60 32 61
REMARK SMILES IDX 93 62 33 63 92 65 34 67 35 70 36 71 86 72 37 73 91 74 85 75
REMARK SMILES IDX 87 76 38 77 90 78 84 80 83 82 39 84 71 87 51 88 70 89 52 90
REMARK SMILES IDX 55 91 69 92 88 93 53 94 54 96 68 98 89 99 56 102 40 104
REMARK SMILES IDX 41 105 49 106 42 107 43 108 47 109 50 110 44 111 45 112
REMARK SMILES IDX 48 113 46 114 72 115 73 116 81 117 74 118 75 119 79 120
REMARK SMILES IDX 82 121 76 122 77 123 80 124 78 125 57 126 58 127 66 128
REMARK SMILES IDX 59 129 60 130 64 131 67 132 61 133 62 134 65 135 63 136
REMARK H PARENT 24 2 24 3 23 5 23 6 22 8 22 9 21 13 17 15 4 20 5 23 15 24 1 27
REMARK H PARENT 1 28 1 29 10 36 14 38 11 40 13 41 12 42 18 44 18 45 18 46
REMARK H PARENT 25 48 25 49 26 51 26 52 27 54 27 55 28 58 32 64 93 66 33 68
REMARK H PARENT 92 69 91 79 85 81 87 83 90 85 84 86 52 95 55 97 88 100 53 101
REMARK H PARENT 89 103
REMARK Flexibility Score: inf
ROOT
ATOM      1  C   UNL A   1      32.184  29.946  27.092  1.00  0.00    -0.052 C 
ATOM      2  H   UNL A   1      33.122  30.456  27.151  1.00  0.00     0.027 H 
ATOM      3  H   UNL A   1      31.682  29.839  28.031  1.00  0.00     0.027 H 
ENDROOT
BRANCH   1   4
ATOM      4  C   UNL A   1      32.456  28.519  26.605  1.00  0.00    -0.036 C 
ATOM      5  H   UNL A   1      32.565  27.893  27.467  1.00  0.00     0.028 H 
ATOM      6  H   UNL A   1      31.624  28.259  25.984  1.00  0.00     0.028 H 
BRANCH   4   7
ATOM      7  C   UNL A   1      33.702  28.341  25.733  1.00  0.00     0.017 C 
ATOM      8  H   UNL A   1      34.544  28.765  26.239  1.00  0.00     0.049 H 
ATOM      9  H   UNL A   1      33.842  27.294  25.563  1.00  0.00     0.049 H 
BRANCH   7  10
ATOM     10  N   UNL A   1      33.558  28.989  24.440  1.00  0.00    -0.356 N 
ATOM     11  C   UNL A   1      33.143  28.562  23.218  1.00  0.00     0.227 C 
ATOM     12  O   UNL A   1      33.224  29.398  22.306  1.00  0.00    -0.274 OA
ATOM     13  H   UNL A   1      33.819  29.937  24.452  1.00  0.00     0.163 HD
BRANCH  11  14
ATOM     14  C   UNL A   1      32.617  27.150  22.899  1.00  0.00     0.064 C 
ATOM     15  H   UNL A   1      33.233  26.524  23.509  1.00  0.00     0.045 H 
BRANCH  14  16
ATOM     16  C   UNL A   1      31.184  26.923  23.361  1.00  0.00     0.007 A 
ATOM     17  C   UNL A   1      30.783  25.778  24.069  1.00  0.00     0.122 A 
ATOM     18  C   UNL A   1      29.458  25.623  24.491  1.00  0.00    -0.019 A 
ATOM     19  C   UNL A   1      28.502  26.599  24.199  1.00  0.00    -0.047 A 
ATOM     20  H   UNL A   1      29.184  24.781  25.021  1.00  0.00     0.066 H 
ATOM     21  C   UNL A   1      30.194  27.877  23.060  1.00  0.00    -0.043 A 
ATOM     22  C   UNL A   1      28.858  27.720  23.449  1.00  0.00     0.023 A 
ATOM     23  H   UNL A   1      27.533  26.489  24.538  1.00  0.00     0.063 H 
ATOM     24  H   UNL A   1      30.462  28.723  22.532  1.00  0.00     0.064 H 
BRANCH  17  25
ATOM     25  O   UNL A   1      31.595  24.687  24.230  1.00  0.00    -0.496 OA
BRANCH  25  26
ATOM     26  C   UNL A   1      32.174  24.589  25.531  1.00  0.00     0.078 C 
ATOM     27  H   UNL A   1      31.681  23.817  26.084  1.00  0.00     0.067 H 
ATOM     28  H   UNL A   1      32.061  25.522  26.043  1.00  0.00     0.067 H 
ATOM     29  H   UNL A   1      33.214  24.355  25.442  1.00  0.00     0.067 H 
ENDBRANCH  25  26
ENDBRANCH  17  25
BRANCH  22  30
ATOM     30  C   UNL A   1      27.807  28.727  23.128  1.00  0.00     0.193 C 
ATOM     31  O   UNL A   1      26.624  28.404  23.207  1.00  0.00    -0.289 OA
BRANCH  30  32
ATOM     32  C   UNL A   1      28.118  30.130  22.749  1.00  0.00     0.022 A 
ATOM     33  C   UNL A   1      28.068  30.455  21.390  1.00  0.00    -0.051 A 
ATOM     34  C   UNL A   1      28.504  31.105  23.678  1.00  0.00    -0.051 A 
ATOM     35  C   UNL A   1      28.377  31.747  20.969  1.00  0.00    -0.062 A 
ATOM     36  H   UNL A   1      27.802  29.737  20.698  1.00  0.00     0.063 H 
ATOM     37  C   UNL A   1      28.784  32.408  23.251  1.00  0.00    -0.062 A 
ATOM     38  H   UNL A   1      28.583  30.861  24.678  1.00  0.00     0.063 H 
ATOM     39  C   UNL A   1      28.720  32.728  21.896  1.00  0.00    -0.062 A 
ATOM     40  H   UNL A   1      28.352  31.978  19.964  1.00  0.00     0.062 H 
ATOM     41  H   UNL A   1      29.037  33.132  23.941  1.00  0.00     0.062 H 
ATOM     42  H   UNL A   1      28.924  33.688  21.582  1.00  0.00     0.062 H 
ENDBRANCH  30  32
ENDBRANCH  22  30
ENDBRANCH  14  16
BRANCH  14  43
ATOM     43  C   UNL A   1      32.911  26.612  21.501  1.00  0.00    -0.049 C 
ATOM     44  H   UNL A   1      33.794  26.007  21.529  1.00  0.00     0.024 H 
ATOM     45  H   UNL A   1      33.061  27.431  20.829  1.00  0.00     0.024 H 
ATOM     46  H   UNL A   1      32.085  26.021  21.165  1.00  0.00     0.024 H 
ENDBRANCH  14  43
ENDBRANCH  11  14
ENDBRANCH   7  10
ENDBRANCH   4   7
ENDBRANCH   1   4
BRANCH   1  47
ATOM     47  C   UNL A   1      31.245  30.792  26.219  1.00  0.00    -0.052 C 
ATOM     48  H   UNL A   1      30.250  30.427  26.364  1.00  0.00     0.027 H 
ATOM     49  H   UNL A   1      31.617  30.687  25.221  1.00  0.00     0.027 H 
BRANCH  47  50
ATOM     50  C   UNL A   1      31.231  32.302  26.491  1.00  0.00    -0.036 C 
ATOM     51  H   UNL A   1      30.461  32.498  27.207  1.00  0.00     0.028 H 
ATOM     52  H   UNL A   1      31.073  32.766  25.541  1.00  0.00     0.028 H 
BRANCH  50  53
ATOM     53  C   UNL A   1      32.534  32.897  27.031  1.00  0.00     0.018 C 
ATOM     54  H   UNL A   1      33.223  33.005  26.219  1.00  0.00     0.049 H 
ATOM     55  H   UNL A   1      32.907  32.231  27.780  1.00  0.00     0.049 H 
BRANCH  53  56
ATOM     56  N   UNL A   1      32.345  34.195  27.654  1.00  0.00    -0.352 N 
ATOM     57  C   UNL A   1      33.036  34.793  28.684  1.00  0.00     0.251 C 
ATOM     58  H   UNL A   1      31.608  34.732  27.282  1.00  0.00     0.163 HD
ATOM     59  O   UNL A   1      32.618  35.843  29.163  1.00  0.00    -0.269 OA
BRANCH  57  60
ATOM     60  C   UNL A   1      34.270  34.186  29.246  1.00  0.00     0.039 A 
ATOM     61  C   UNL A   1      34.150  33.255  30.282  1.00  0.00    -0.049 A 
ATOM     62  C   UNL A   1      35.544  34.578  28.830  1.00  0.00    -0.049 A 
ATOM     63  C   UNL A   1      35.296  32.689  30.858  1.00  0.00    -0.053 A 
ATOM     64  H   UNL A   1      33.215  32.983  30.623  1.00  0.00     0.063 H 
ATOM     65  C   UNL A   1      36.688  33.961  29.360  1.00  0.00    -0.053 A 
ATOM     66  H   UNL A   1      35.645  35.326  28.127  1.00  0.00     0.063 H 
ATOM     67  C   UNL A   1      36.580  33.014  30.389  1.00  0.00    -0.014 A 
ATOM     68  H   UNL A   1      35.194  32.022  31.640  1.00  0.00     0.063 H 
ATOM     69  H   UNL A   1      37.618  34.208  28.988  1.00  0.00     0.063 H 
BRANCH  67  70
ATOM     70  C   UNL A   1      37.784  32.356  30.985  1.00  0.00     0.031 A 
ATOM     71  C   UNL A   1      38.282  32.716  32.362  1.00  0.00     0.074 A 
ATOM     72  C   UNL A   1      38.448  31.413  30.284  1.00  0.00     0.049 A 
ATOM     73  N   UNL A   1      39.254  32.173  33.059  1.00  0.00    -0.248 NA
ATOM     74  C   UNL A   1      37.624  33.842  33.039  1.00  0.00    -0.034 C 
ATOM     75  C   UNL A   1      38.136  31.004  28.915  1.00  0.00    -0.036 A 
ATOM     76  N   UNL A   1      39.516  30.619  30.632  1.00  0.00    -0.354 N 
ATOM     77  C   UNL A   1      39.324  32.891  34.246  1.00  0.00     0.074 A 
ATOM     78  C   UNL A   1      38.334  33.944  34.155  1.00  0.00    -0.034 C 
ATOM     79  H   UNL A   1      36.819  34.407  32.727  1.00  0.00     0.065 H 
ATOM     80  C   UNL A   1      38.965  30.011  28.554  1.00  0.00    -0.036 A 
ATOM     81  H   UNL A   1      37.399  31.413  28.322  1.00  0.00     0.065 H 
ATOM     82  C   UNL A   1      39.880  29.723  29.657  1.00  0.00     0.049 A 
ATOM     83  H   UNL A   1      39.977  30.688  31.500  1.00  0.00     0.167 HD
ATOM     84  C   UNL A   1      40.117  32.682  35.326  1.00  0.00     0.037 A 
ATOM     85  H   UNL A   1      38.198  34.679  34.865  1.00  0.00     0.065 H 
ATOM     86  H   UNL A   1      38.958  29.528  27.642  1.00  0.00     0.065 H 
ATOM     87  C   UNL A   1      40.828  28.766  29.648  1.00  0.00     0.037 A 
ATOM     88  C   UNL A   1      41.085  31.621  35.448  1.00  0.00     0.049 A 
ATOM     89  C   UNL A   1      41.671  28.530  30.871  1.00  0.00     0.074 A 
ATOM     90  C   UNL A   1      41.866  31.288  36.543  1.00  0.00    -0.036 A 
ATOM     91  N   UNL A   1      41.411  30.728  34.442  1.00  0.00    -0.354 N 
ATOM     92  N   UNL A   1      41.649  29.149  32.025  1.00  0.00    -0.248 NA
ATOM     93  C   UNL A   1      42.665  27.447  30.792  1.00  0.00    -0.034 C 
ATOM     94  C   UNL A   1      42.696  30.219  36.184  1.00  0.00    -0.036 A 
ATOM     95  H   UNL A   1      41.840  31.749  37.466  1.00  0.00     0.065 H 
ATOM     96  C   UNL A   1      42.400  29.858  34.881  1.00  0.00     0.049 A 
ATOM     97  H   UNL A   1      41.004  30.711  33.546  1.00  0.00     0.167 HD
ATOM     98  C   UNL A   1      42.603  28.518  32.815  1.00  0.00     0.074 A 
ATOM     99  C   UNL A   1      43.173  27.455  32.017  1.00  0.00    -0.034 C 
ATOM    100  H   UNL A   1      42.903  26.840  29.993  1.00  0.00     0.065 H 
ATOM    101  H   UNL A   1      43.407  29.778  36.788  1.00  0.00     0.065 H 
ATOM    102  C   UNL A   1      42.969  28.800  34.089  1.00  0.00     0.037 A 
ATOM    103  H   UNL A   1      43.884  26.789  32.356  1.00  0.00     0.065 H 
BRANCH  84 104
ATOM    104  C   UNL A   1      39.964  33.619  36.491  1.00  0.00     0.064 A 
ATOM    105  C   UNL A   1      39.070  33.346  37.538  1.00  0.00     0.173 A 
ATOM    106  C   UNL A   1      40.762  34.769  36.591  1.00  0.00     0.173 A 
ATOM    107  F   UNL A   1      38.284  32.261  37.487  1.00  0.00    -0.203 F 
ATOM    108  C   UNL A   1      38.961  34.204  38.628  1.00  0.00     0.198 A 
ATOM    109  C   UNL A   1      40.669  35.611  37.697  1.00  0.00     0.198 A 
ATOM    110  F   UNL A   1      41.641  35.069  35.623  1.00  0.00    -0.203 F 
ATOM    111  F   UNL A   1      38.071  33.945  39.596  1.00  0.00    -0.200 F 
ATOM    112  C   UNL A   1      39.764  35.332  38.710  1.00  0.00     0.200 A 
ATOM    113  F   UNL A   1      41.456  36.692  37.783  1.00  0.00    -0.200 F 
ATOM    114  F   UNL A   1      39.664  36.152  39.766  1.00  0.00    -0.200 F 
ENDBRANCH  84 104
BRANCH  87 115
ATOM    115  C   UNL A   1      41.005  27.915  28.443  1.00  0.00     0.064 A 
ATOM    116  C   UNL A   1      41.841  28.320  27.393  1.00  0.00     0.173 A 
ATOM    117  C   UNL A   1      40.337  26.690  28.313  1.00  0.00     0.173 A 
ATOM    118  F   UNL A   1      42.483  29.496  27.463  1.00  0.00    -0.203 F 
ATOM    119  C   UNL A   1      41.986  27.540  26.248  1.00  0.00     0.198 A 
ATOM    120  C   UNL A   1      40.504  25.898  27.179  1.00  0.00     0.198 A 
ATOM    121  F   UNL A   1      39.529  26.258  29.293  1.00  0.00    -0.203 F 
ATOM    122  F   UNL A   1      42.756  27.970  25.240  1.00  0.00    -0.200 F 
ATOM    123  C   UNL A   1      41.322  26.327  26.145  1.00  0.00     0.200 A 
ATOM    124  F   UNL A   1      39.870  24.721  27.088  1.00  0.00    -0.200 F 
ATOM    125  F   UNL A   1      41.465  25.575  25.045  1.00  0.00    -0.200 F 
ENDBRANCH  87 115
BRANCH 102 126
ATOM    126  C   UNL A   1      44.025  27.931  34.712  1.00  0.00     0.064 A 
ATOM    127  C   UNL A   1      45.381  28.290  34.690  1.00  0.00     0.173 A 
ATOM    128  C   UNL A   1      43.673  26.735  35.356  1.00  0.00     0.173 A 
ATOM    129  F   UNL A   1      45.771  29.415  34.074  1.00  0.00    -0.203 F 
ATOM    130  C   UNL A   1      46.349  27.468  35.264  1.00  0.00     0.198 A 
ATOM    131  C   UNL A   1      44.641  25.930  35.954  1.00  0.00     0.198 A 
ATOM    132  F   UNL A   1      42.390  26.346  35.411  1.00  0.00    -0.203 F 
ATOM    133  F   UNL A   1      47.644  27.806  35.185  1.00  0.00    -0.200 F 
ATOM    134  C   UNL A   1      45.979  26.292  35.898  1.00  0.00     0.200 A 
ATOM    135  F   UNL A   1      44.280  24.799  36.575  1.00  0.00    -0.200 F 
ATOM    136  F   UNL A   1      46.912  25.504  36.450  1.00  0.00    -0.200 F 
ENDBRANCH 102 126
ENDBRANCH  67  70
ENDBRANCH  57  60
ENDBRANCH  53  56
ENDBRANCH  50  53
ENDBRANCH  47  50
ENDBRANCH   1  47
TORSDOF 19
ENDMDL
MODEL 3
REMARK VINA RESULT:     -11.5      2.059      3.729
REMARK SMILES COc1ccc(C(=O)c2ccccc2)cc1[C@@H](C)C(=O)NCCCCCCNC(=O)c1ccc(-c2c3nc(c(-c4c(F)c(F)c(F)c(F)c4F)c4ccc([nH]4)c(-c4c(F)c(F)c(F)c(F)c4F)c4nc(c(-c5c(F)c(F)c(F)c(F)c5F)c5ccc2[nH]5)C=C4)C=C3)cc1
REMARK SMILES IDX 24 1 23 4 22 7 21 10 19 11 20 12 17 14 16 16 3 17 4 18 5 19
REMARK SMILES IDX 15 21 6 22 2 25 1 26 7 30 8 31 9 32 10 33 14 34 11 35 13 37
REMARK SMILES IDX 12 39 18 43 25 47 26 50 27 53 28 56 29 57 30 59 31 60 32 61
REMARK SMILES IDX 93 62 33 63 92 65 34 67 35 70 36 71 86 72 37 73 91 74 85 75
REMARK SMILES IDX 87 76 38 77 90 78 84 80 83 82 39 84 71 87 51 88 70 89 52 90
REMARK SMILES IDX 55 91 69 92 88 93 53 94 54 96 68 98 89 99 56 102 40 104
REMARK SMILES IDX 41 105 49 106 42 107 43 108 47 109 50 110 44 111 45 112
REMARK SMILES IDX 48 113 46 114 72 115 73 116 81 117 74 118 75 119 79 120
REMARK SMILES IDX 82 121 76 122 77 123 80 124 78 125 57 126 58 127 66 128
REMARK SMILES IDX 59 129 60 130 64 131 67 132 61 133 62 134 65 135 63 136
REMARK H PARENT 24 2 24 3 23 5 23 6 22 8 22 9 21 13 17 15 4 20 5 23 15 24 1 27
REMARK H PARENT 1 28 1 29 10 36 14 38 11 40 13 41 12 42 18 44 18 45 18 46
REMARK H PARENT 25 48 25 49 26 51 26 52 27 54 27 55 28 58 32 64 93 66 33 68
REMARK H PARENT 92 69 91 79 85 81 87 83 90 85 84 86 52 95 55 97 88 100 53 101
REMARK H PARENT 89 103
REMARK Flexibility Score: inf
ROOT
ATOM      1  C   UNL A   1      32.126  26.940  26.494  1.00  0.00    -0.052 C 
ATOM      2  H   UNL A   1      32.683  27.024  25.585  1.00  0.00     0.027 H 
ATOM      3  H   UNL A   1      32.386  26.093  27.094  1.00  0.00     0.027 H 
ENDROOT
BRANCH   1   4
ATOM      4  C   UNL A   1      30.652  26.746  26.125  1.00  0.00    -0.036 C 
ATOM      5  H   UNL A   1      30.078  26.792  27.027  1.00  0.00     0.028 H 
ATOM      6  H   UNL A   1      30.422  27.522  25.425  1.00  0.00     0.028 H 
BRANCH   4   7
ATOM      7  C   UNL A   1      30.313  25.430  25.417  1.00  0.00     0.017 C 
ATOM      8  H   UNL A   1      29.560  25.616  24.680  1.00  0.00     0.049 H 
ATOM      9  H   UNL A   1      31.208  25.055  24.967  1.00  0.00     0.049 H 
BRANCH   7  10
ATOM     10  N   UNL A   1      29.823  24.425  26.344  1.00  0.00    -0.356 N 
ATOM     11  C   UNL A   1      30.347  23.274  26.845  1.00  0.00     0.227 C 
ATOM     12  O   UNL A   1      29.591  22.618  27.576  1.00  0.00    -0.274 OA
ATOM     13  H   UNL A   1      28.918  24.616  26.680  1.00  0.00     0.163 HD
BRANCH  11  14
ATOM     14  C   UNL A   1      31.763  22.741  26.555  1.00  0.00     0.064 C 
ATOM     15  H   UNL A   1      31.756  21.782  27.028  1.00  0.00     0.045 H 
BRANCH  14  16
ATOM     16  C   UNL A   1      32.018  22.487  25.075  1.00  0.00     0.007 A 
ATOM     17  C   UNL A   1      31.999  21.202  24.508  1.00  0.00     0.122 A 
ATOM     18  C   UNL A   1      32.219  21.020  23.137  1.00  0.00    -0.019 A 
ATOM     19  C   UNL A   1      32.481  22.114  22.311  1.00  0.00    -0.047 A 
ATOM     20  H   UNL A   1      32.189  20.070  22.736  1.00  0.00     0.066 H 
ATOM     21  C   UNL A   1      32.309  23.567  24.222  1.00  0.00    -0.043 A 
ATOM     22  C   UNL A   1      32.562  23.396  22.855  1.00  0.00     0.023 A 
ATOM     23  H   UNL A   1      32.615  21.974  21.296  1.00  0.00     0.063 H 
ATOM     24  H   UNL A   1      32.337  24.521  24.617  1.00  0.00     0.064 H 
BRANCH  17  25
ATOM     25  O   UNL A   1      31.946  20.062  25.263  1.00  0.00    -0.496 OA
BRANCH  25  26
ATOM     26  C   UNL A   1      33.113  19.248  25.156  1.00  0.00     0.078 C 
ATOM     27  H   UNL A   1      32.896  18.263  25.515  1.00  0.00     0.067 H 
ATOM     28  H   UNL A   1      33.901  19.674  25.742  1.00  0.00     0.067 H 
ATOM     29  H   UNL A   1      33.419  19.194  24.133  1.00  0.00     0.067 H 
ENDBRANCH  25  26
ENDBRANCH  17  25
BRANCH  22  30
ATOM     30  C   UNL A   1      32.874  24.539  21.950  1.00  0.00     0.193 C 
ATOM     31  O   UNL A   1      33.321  24.309  20.828  1.00  0.00    -0.289 OA
BRANCH  30  32
ATOM     32  C   UNL A   1      32.634  25.957  22.323  1.00  0.00     0.022 A 
ATOM     33  C   UNL A   1      33.699  26.661  22.893  1.00  0.00    -0.051 A 
ATOM     34  C   UNL A   1      31.390  26.585  22.176  1.00  0.00    -0.051 A 
ATOM     35  C   UNL A   1      33.528  27.985  23.290  1.00  0.00    -0.062 A 
ATOM     36  H   UNL A   1      34.612  26.198  23.021  1.00  0.00     0.063 H 
ATOM     37  C   UNL A   1      31.234  27.925  22.549  1.00  0.00    -0.062 A 
ATOM     38  H   UNL A   1      30.588  26.060  21.794  1.00  0.00     0.063 H 
ATOM     39  C   UNL A   1      32.304  28.624  23.106  1.00  0.00    -0.062 A 
ATOM     40  H   UNL A   1      34.312  28.496  23.724  1.00  0.00     0.062 H 
ATOM     41  H   UNL A   1      30.327  28.396  22.411  1.00  0.00     0.062 H 
ATOM     42  H   UNL A   1      32.189  29.612  23.380  1.00  0.00     0.062 H 
ENDBRANCH  30  32
ENDBRANCH  22  30
ENDBRANCH  14  16
BRANCH  14  43
ATOM     43  C   UNL A   1      32.915  23.437  27.273  1.00  0.00    -0.049 C 
ATOM     44  H   UNL A   1      32.885  24.486  27.064  1.00  0.00     0.024 H 
ATOM     45  H   UNL A   1      33.845  23.032  26.931  1.00  0.00     0.024 H 
ATOM     46  H   UNL A   1      32.825  23.281  28.328  1.00  0.00     0.024 H 
ENDBRANCH  14  43
ENDBRANCH  11  14
ENDBRANCH   7  10
ENDBRANCH   4   7
ENDBRANCH   1   4
BRANCH   1  47
ATOM     47  C   UNL A   1      32.451  28.169  27.356  1.00  0.00    -0.052 C 
ATOM     48  H   UNL A   1      33.515  28.292  27.359  1.00  0.00     0.027 H 
ATOM     49  H   UNL A   1      32.025  27.962  28.316  1.00  0.00     0.027 H 
BRANCH  47  50
ATOM     50  C   UNL A   1      31.830  29.500  26.915  1.00  0.00    -0.036 C 
ATOM     51  H   UNL A   1      31.447  29.989  27.786  1.00  0.00     0.028 H 
ATOM     52  H   UNL A   1      31.083  29.247  26.193  1.00  0.00     0.028 H 
BRANCH  50  53
ATOM     53  C   UNL A   1      32.774  30.477  26.207  1.00  0.00     0.018 C 
ATOM     54  H   UNL A   1      32.654  30.362  25.150  1.00  0.00     0.049 H 
ATOM     55  H   UNL A   1      33.770  30.247  26.521  1.00  0.00     0.049 H 
BRANCH  53  56
ATOM     56  N   UNL A   1      32.514  31.863  26.555  1.00  0.00    -0.352 N 
ATOM     57  C   UNL A   1      33.161  32.688  27.447  1.00  0.00     0.251 C 
ATOM     58  H   UNL A   1      31.758  32.278  26.079  1.00  0.00     0.163 HD
ATOM     59  O   UNL A   1      32.686  33.792  27.703  1.00  0.00    -0.269 OA
BRANCH  57  60
ATOM     60  C   UNL A   1      34.413  32.269  28.127  1.00  0.00     0.039 A 
ATOM     61  C   UNL A   1      34.425  31.059  28.828  1.00  0.00    -0.049 A 
ATOM     62  C   UNL A   1      35.547  33.081  28.156  1.00  0.00    -0.049 A 
ATOM     63  C   UNL A   1      35.580  30.650  29.508  1.00  0.00    -0.053 A 
ATOM     64  H   UNL A   1      33.581  30.466  28.844  1.00  0.00     0.063 H 
ATOM     65  C   UNL A   1      36.725  32.640  28.779  1.00  0.00    -0.053 A 
ATOM     66  H   UNL A   1      35.521  34.013  27.714  1.00  0.00     0.063 H 
ATOM     67  C   UNL A   1      36.755  31.421  29.473  1.00  0.00    -0.014 A 
ATOM     68  H   UNL A   1      35.566  29.767  30.044  1.00  0.00     0.063 H 
ATOM     69  H   UNL A   1      37.577  33.219  28.727  1.00  0.00     0.063 H 
BRANCH  67  70
ATOM     70  C   UNL A   1      37.990  30.936  30.164  1.00  0.00     0.031 A 
ATOM     71  C   UNL A   1      38.315  31.339  31.580  1.00  0.00     0.074 A 
ATOM     72  C   UNL A   1      38.840  30.114  29.516  1.00  0.00     0.049 A 
ATOM     73  N   UNL A   1      39.295  30.932  32.353  1.00  0.00    -0.248 NA
ATOM     74  C   UNL A   1      37.444  32.344  32.207  1.00  0.00    -0.034 C 
ATOM     75  C   UNL A   1      38.706  29.689  28.122  1.00  0.00    -0.036 A 
ATOM     76  N   UNL A   1      39.982  29.479  29.947  1.00  0.00    -0.354 N 
ATOM     77  C   UNL A   1      39.161  31.630  33.546  1.00  0.00     0.074 A 
ATOM     78  C   UNL A   1      38.037  32.528  33.379  1.00  0.00    -0.034 C 
ATOM     79  H   UNL A   1      36.592  32.790  31.833  1.00  0.00     0.065 H 
ATOM     80  C   UNL A   1      39.699  28.835  27.826  1.00  0.00    -0.036 A 
ATOM     81  H   UNL A   1      37.967  29.997  27.472  1.00  0.00     0.065 H 
ATOM     82  C   UNL A   1      40.553  28.665  28.999  1.00  0.00     0.049 A 
ATOM     83  H   UNL A   1      40.355  29.598  30.850  1.00  0.00     0.167 HD
ATOM     84  C   UNL A   1      39.885  31.520  34.687  1.00  0.00     0.037 A 
ATOM     85  H   UNL A   1      37.737  33.221  34.080  1.00  0.00     0.065 H 
ATOM     86  H   UNL A   1      39.838  28.373  26.913  1.00  0.00     0.065 H 
ATOM     87  C   UNL A   1      41.630  27.857  29.064  1.00  0.00     0.037 A 
ATOM     88  C   UNL A   1      40.986  30.611  34.883  1.00  0.00     0.049 A 
ATOM     89  C   UNL A   1      42.396  27.725  30.352  1.00  0.00     0.074 A 
ATOM     90  C   UNL A   1      41.716  30.375  36.037  1.00  0.00    -0.036 A 
ATOM     91  N   UNL A   1      41.522  29.794  33.902  1.00  0.00    -0.354 N 
ATOM     92  N   UNL A   1      42.187  28.312  31.504  1.00  0.00    -0.248 NA
ATOM     93  C   UNL A   1      43.542  26.801  30.349  1.00  0.00    -0.034 C 
ATOM     94  C   UNL A   1      42.721  29.447  35.743  1.00  0.00    -0.036 A 
ATOM     95  H   UNL A   1      41.546  30.810  36.958  1.00  0.00     0.065 H 
ATOM     96  C   UNL A   1      42.589  29.070  34.417  1.00  0.00     0.049 A 
ATOM     97  H   UNL A   1      41.197  29.734  32.975  1.00  0.00     0.167 HD
ATOM     98  C   UNL A   1      43.156  27.814  32.367  1.00  0.00     0.074 A 
ATOM     99  C   UNL A   1      43.941  26.861  31.612  1.00  0.00    -0.034 C 
ATOM    100  H   UNL A   1      43.931  26.250  29.569  1.00  0.00     0.065 H 
ATOM    101  H   UNL A   1      43.438  29.104  36.401  1.00  0.00     0.065 H 
ATOM    102  C   UNL A   1      43.372  28.122  33.668  1.00  0.00     0.037 A 
ATOM    103  H   UNL A   1      44.713  26.300  32.006  1.00  0.00     0.065 H 
BRANCH  84 104
ATOM    104  C   UNL A   1      39.500  32.402  35.841  1.00  0.00     0.064 A 
ATOM    105  C   UNL A   1      38.550  31.995  36.790  1.00  0.00     0.173 A 
ATOM    106  C   UNL A   1      40.132  33.640  36.034  1.00  0.00     0.173 A 
ATOM    107  F   UNL A   1      37.916  30.821  36.648  1.00  0.00    -0.203 F 
ATOM    108  C   UNL A   1      38.225  32.807  37.873  1.00  0.00     0.198 A 
ATOM    109  C   UNL A   1      39.825  34.438  37.134  1.00  0.00     0.198 A 
ATOM    110  F   UNL A   1      41.057  34.071  35.163  1.00  0.00    -0.203 F 
ATOM    111  F   UNL A   1      37.285  32.415  38.743  1.00  0.00    -0.200 F 
ATOM    112  C   UNL A   1      38.867  34.024  38.048  1.00  0.00     0.200 A 
ATOM    113  F   UNL A   1      40.456  35.606  37.311  1.00  0.00    -0.200 F 
ATOM    114  F   UNL A   1      38.560  34.799  39.097  1.00  0.00    -0.200 F 
ENDBRANCH  84 104
BRANCH  87 115
ATOM    115  C   UNL A   1      42.029  27.065  27.872  1.00  0.00     0.064 A 
ATOM    116  C   UNL A   1      42.951  27.572  26.946  1.00  0.00     0.173 A 
ATOM    117  C   UNL A   1      41.491  25.793  27.631  1.00  0.00     0.173 A 
ATOM    118  F   UNL A   1      43.474  28.794  27.124  1.00  0.00    -0.203 F 
ATOM    119  C   UNL A   1      43.304  26.845  25.812  1.00  0.00     0.198 A 
ATOM    120  C   UNL A   1      41.866  25.055  26.511  1.00  0.00     0.198 A 
ATOM    121  F   UNL A   1      40.608  25.263  28.491  1.00  0.00    -0.203 F 
ATOM    122  F   UNL A   1      44.154  27.371  24.919  1.00  0.00    -0.200 F 
ATOM    123  C   UNL A   1      42.766  25.585  25.598  1.00  0.00     0.200 A 
ATOM    124  F   UNL A   1      41.353  23.833  26.315  1.00  0.00    -0.200 F 
ATOM    125  F   UNL A   1      43.109  24.884  24.510  1.00  0.00    -0.200 F 
ENDBRANCH  87 115
BRANCH 102 126
ATOM    126  C   UNL A   1      44.490  27.406  34.372  1.00  0.00     0.064 A 
ATOM    127  C   UNL A   1      44.293  26.162  34.991  1.00  0.00     0.173 A 
ATOM    128  C   UNL A   1      45.778  27.961  34.411  1.00  0.00     0.173 A 
ATOM    129  F   UNL A   1      43.078  25.595  34.995  1.00  0.00    -0.203 F 
ATOM    130  C   UNL A   1      45.337  25.515  35.648  1.00  0.00     0.198 A 
ATOM    131  C   UNL A   1      46.827  27.298  35.045  1.00  0.00     0.198 A 
ATOM    132  F   UNL A   1      46.023  29.146  33.831  1.00  0.00    -0.203 F 
ATOM    133  F   UNL A   1      45.113  24.353  36.277  1.00  0.00    -0.200 F 
ATOM    134  C   UNL A   1      46.604  26.081  35.671  1.00  0.00     0.200 A 
ATOM    135  F   UNL A   1      48.052  27.842  35.058  1.00  0.00    -0.200 F 
ATOM    136  F   UNL A   1      47.607  25.457  36.304  1.00  0.00    -0.200 F 
ENDBRANCH 102 126
ENDBRANCH  67  70
ENDBRANCH  57  60
ENDBRANCH  53  56
ENDBRANCH  50  53
ENDBRANCH  47  50
ENDBRANCH   1  47
TORSDOF 19
ENDMDL
MODEL 4
REMARK VINA RESULT:     -11.4      2.159      3.349
REMARK SMILES COc1ccc(C(=O)c2ccccc2)cc1[C@@H](C)C(=O)NCCCCCCNC(=O)c1ccc(-c2c3nc(c(-c4c(F)c(F)c(F)c(F)c4F)c4ccc([nH]4)c(-c4c(F)c(F)c(F)c(F)c4F)c4nc(c(-c5c(F)c(F)c(F)c(F)c5F)c5ccc2[nH]5)C=C4)C=C3)cc1
REMARK SMILES IDX 24 1 23 4 22 7 21 10 19 11 20 12 17 14 16 16 3 17 4 18 5 19
REMARK SMILES IDX 15 21 6 22 2 25 1 26 7 30 8 31 9 32 10 33 14 34 11 35 13 37
REMARK SMILES IDX 12 39 18 43 25 47 26 50 27 53 28 56 29 57 30 59 31 60 32 61
REMARK SMILES IDX 93 62 33 63 92 65 34 67 35 70 36 71 86 72 37 73 91 74 85 75
REMARK SMILES IDX 87 76 38 77 90 78 84 80 83 82 39 84 71 87 51 88 70 89 52 90
REMARK SMILES IDX 55 91 69 92 88 93 53 94 54 96 68 98 89 99 56 102 40 104
REMARK SMILES IDX 41 105 49 106 42 107 43 108 47 109 50 110 44 111 45 112
REMARK SMILES IDX 48 113 46 114 72 115 73 116 81 117 74 118 75 119 79 120
REMARK SMILES IDX 82 121 76 122 77 123 80 124 78 125 57 126 58 127 66 128
REMARK SMILES IDX 59 129 60 130 64 131 67 132 61 133 62 134 65 135 63 136
REMARK H PARENT 24 2 24 3 23 5 23 6 22 8 22 9 21 13 17 15 4 20 5 23 15 24 1 27
REMARK H PARENT 1 28 1 29 10 36 14 38 11 40 13 41 12 42 18 44 18 45 18 46
REMARK H PARENT 25 48 25 49 26 51 26 52 27 54 27 55 28 58 32 64 93 66 33 68
REMARK H PARENT 92 69 91 79 85 81 87 83 90 85 84 86 52 95 55 97 88 100 53 101
REMARK H PARENT 89 103
REMARK Flexibility Score: inf
ROOT
ATOM      1  C   UNL A   1      31.994  26.974  26.210  1.00  0.00    -0.052 C 
ATOM      2  H   UNL A   1      32.419  27.322  25.291  1.00  0.00     0.027 H 
ATOM      3  H   UNL A   1      32.405  26.052  26.563  1.00  0.00     0.027 H 
ENDROOT
BRANCH   1   4
ATOM      4  C   UNL A   1      30.509  26.694  25.962  1.00  0.00    -0.036 C 
ATOM      5  H   UNL A   1      30.003  26.744  26.904  1.00  0.00     0.028 H 
ATOM      6  H   UNL A   1      30.186  27.433  25.258  1.00  0.00     0.028 H 
BRANCH   4   7
ATOM      7  C   UNL A   1      30.185  25.339  25.324  1.00  0.00     0.017 C 
ATOM      8  H   UNL A   1      29.386  25.468  24.623  1.00  0.00     0.049 H 
ATOM      9  H   UNL A   1      31.069  24.981  24.840  1.00  0.00     0.049 H 
BRANCH   7  10
ATOM     10  N   UNL A   1      29.786  24.354  26.314  1.00  0.00    -0.356 N 
ATOM     11  C   UNL A   1      30.392  23.259  26.845  1.00  0.00     0.227 C 
ATOM     12  O   UNL A   1      29.701  22.598  27.634  1.00  0.00    -0.274 OA
ATOM     13  H   UNL A   1      28.885  24.512  26.675  1.00  0.00     0.163 HD
BRANCH  11  14
ATOM     14  C   UNL A   1      31.824  22.790  26.525  1.00  0.00     0.064 C 
ATOM     15  H   UNL A   1      31.880  21.843  27.018  1.00  0.00     0.045 H 
BRANCH  14  16
ATOM     16  C   UNL A   1      32.049  22.515  25.043  1.00  0.00     0.007 A 
ATOM     17  C   UNL A   1      32.003  21.224  24.492  1.00  0.00     0.122 A 
ATOM     18  C   UNL A   1      32.196  21.022  23.120  1.00  0.00    -0.019 A 
ATOM     19  C   UNL A   1      32.457  22.103  22.276  1.00  0.00    -0.047 A 
ATOM     20  H   UNL A   1      32.147  20.068  22.731  1.00  0.00     0.066 H 
ATOM     21  C   UNL A   1      32.338  23.581  24.171  1.00  0.00    -0.043 A 
ATOM     22  C   UNL A   1      32.564  23.390  22.802  1.00  0.00     0.023 A 
ATOM     23  H   UNL A   1      32.571  21.949  21.261  1.00  0.00     0.063 H 
ATOM     24  H   UNL A   1      32.386  24.539  24.555  1.00  0.00     0.064 H 
BRANCH  17  25
ATOM     25  O   UNL A   1      31.950  20.093  25.262  1.00  0.00    -0.496 OA
BRANCH  25  26
ATOM     26  C   UNL A   1      32.836  19.061  24.830  1.00  0.00     0.078 C 
ATOM     27  H   UNL A   1      33.848  19.374  24.981  1.00  0.00     0.067 H 
ATOM     28  H   UNL A   1      32.675  18.864  23.791  1.00  0.00     0.067 H 
ATOM     29  H   UNL A   1      32.651  18.172  25.394  1.00  0.00     0.067 H 
ENDBRANCH  25  26
ENDBRANCH  17  25
BRANCH  22  30
ATOM     30  C   UNL A   1      32.874  24.518  21.878  1.00  0.00     0.193 C 
ATOM     31  O   UNL A   1      33.308  24.269  20.755  1.00  0.00    -0.289 OA
BRANCH  30  32
ATOM     32  C   UNL A   1      32.647  25.942  22.233  1.00  0.00     0.022 A 
ATOM     33  C   UNL A   1      33.734  26.658  22.744  1.00  0.00    -0.051 A 
ATOM     34  C   UNL A   1      31.397  26.566  22.127  1.00  0.00    -0.051 A 
ATOM     35  C   UNL A   1      33.577  27.991  23.121  1.00  0.00    -0.062 A 
ATOM     36  H   UNL A   1      34.653  26.200  22.842  1.00  0.00     0.063 H 
ATOM     37  C   UNL A   1      31.254  27.913  22.479  1.00  0.00    -0.062 A 
ATOM     38  H   UNL A   1      30.581  26.032  21.789  1.00  0.00     0.063 H 
ATOM     39  C   UNL A   1      32.345  28.624  22.977  1.00  0.00    -0.062 A 
ATOM     40  H   UNL A   1      34.378  28.510  23.511  1.00  0.00     0.062 H 
ATOM     41  H   UNL A   1      30.341  28.379  22.371  1.00  0.00     0.062 H 
ATOM     42  H   UNL A   1      32.240  29.617  23.236  1.00  0.00     0.062 H 
ENDBRANCH  30  32
ENDBRANCH  22  30
ENDBRANCH  14  16
BRANCH  14  43
ATOM     43  C   UNL A   1      32.960  23.559  27.193  1.00  0.00    -0.049 C 
ATOM     44  H   UNL A   1      32.634  23.923  28.145  1.00  0.00     0.024 H 
ATOM     45  H   UNL A   1      33.244  24.384  26.573  1.00  0.00     0.024 H 
ATOM     46  H   UNL A   1      33.800  22.910  27.328  1.00  0.00     0.024 H 
ENDBRANCH  14  43
ENDBRANCH  11  14
ENDBRANCH   7  10
ENDBRANCH   4   7
ENDBRANCH   1   4
BRANCH   1  47
ATOM     47  C   UNL A   1      32.316  28.010  27.296  1.00  0.00    -0.052 C 
ATOM     48  H   UNL A   1      33.379  28.023  27.428  1.00  0.00     0.027 H 
ATOM     49  H   UNL A   1      31.765  27.697  28.158  1.00  0.00     0.027 H 
BRANCH  47  50
ATOM     50  C   UNL A   1      31.864  29.451  27.026  1.00  0.00    -0.036 C 
ATOM     51  H   UNL A   1      31.675  29.918  27.969  1.00  0.00     0.028 H 
ATOM     52  H   UNL A   1      31.001  29.371  26.397  1.00  0.00     0.028 H 
BRANCH  50  53
ATOM     53  C   UNL A   1      32.854  30.331  26.258  1.00  0.00     0.018 C 
ATOM     54  H   UNL A   1      32.680  30.206  25.209  1.00  0.00     0.049 H 
ATOM     55  H   UNL A   1      33.840  30.024  26.537  1.00  0.00     0.049 H 
BRANCH  53  56
ATOM     56  N   UNL A   1      32.725  31.740  26.584  1.00  0.00    -0.352 N 
ATOM     57  C   UNL A   1      33.443  32.514  27.468  1.00  0.00     0.251 C 
ATOM     58  H   UNL A   1      32.015  32.217  26.097  1.00  0.00     0.163 HD
ATOM     59  O   UNL A   1      33.074  33.661  27.704  1.00  0.00    -0.269 OA
BRANCH  57  60
ATOM     60  C   UNL A   1      34.647  31.988  28.160  1.00  0.00     0.039 A 
ATOM     61  C   UNL A   1      35.801  32.777  28.196  1.00  0.00    -0.049 A 
ATOM     62  C   UNL A   1      34.687  30.703  28.703  1.00  0.00    -0.049 A 
ATOM     63  C   UNL A   1      36.965  32.297  28.812  1.00  0.00    -0.053 A 
ATOM     64  H   UNL A   1      35.796  33.715  27.767  1.00  0.00     0.063 H 
ATOM     65  C   UNL A   1      35.831  30.249  29.379  1.00  0.00    -0.053 A 
ATOM     66  H   UNL A   1      33.870  30.081  28.607  1.00  0.00     0.063 H 
ATOM     67  C   UNL A   1      36.990  31.038  29.435  1.00  0.00    -0.014 A 
ATOM     68  H   UNL A   1      37.818  32.879  28.807  1.00  0.00     0.063 H 
ATOM     69  H   UNL A   1      35.818  29.326  29.840  1.00  0.00     0.063 H 
BRANCH  67  70
ATOM     70  C   UNL A   1      38.229  30.571  30.131  1.00  0.00     0.031 A 
ATOM     71  C   UNL A   1      38.532  30.964  31.555  1.00  0.00     0.074 A 
ATOM     72  C   UNL A   1      39.102  29.774  29.481  1.00  0.00     0.049 A 
ATOM     73  N   UNL A   1      39.514  30.568  32.332  1.00  0.00    -0.248 NA
ATOM     74  C   UNL A   1      37.635  31.942  32.185  1.00  0.00    -0.034 C 
ATOM     75  C   UNL A   1      38.990  29.363  28.082  1.00  0.00    -0.036 A 
ATOM     76  N   UNL A   1      40.253  29.158  29.916  1.00  0.00    -0.354 N 
ATOM     77  C   UNL A   1      39.355  31.249  33.532  1.00  0.00     0.074 A 
ATOM     78  C   UNL A   1      38.214  32.125  33.364  1.00  0.00    -0.034 C 
ATOM     79  H   UNL A   1      36.778  32.375  31.808  1.00  0.00     0.065 H 
ATOM     80  C   UNL A   1      40.003  28.533  27.785  1.00  0.00    -0.036 A 
ATOM     81  H   UNL A   1      38.250  29.663  27.429  1.00  0.00     0.065 H 
ATOM     82  C   UNL A   1      40.850  28.367  28.965  1.00  0.00     0.049 A 
ATOM     83  H   UNL A   1      40.616  29.274  30.824  1.00  0.00     0.167 HD
ATOM     84  C   UNL A   1      40.070  31.140  34.679  1.00  0.00     0.037 A 
ATOM     85  H   UNL A   1      37.892  32.804  34.071  1.00  0.00     0.065 H 
ATOM     86  H   UNL A   1      40.160  28.085  26.869  1.00  0.00     0.065 H 
ATOM     87  C   UNL A   1      41.942  27.581  29.030  1.00  0.00     0.037 A 
ATOM     88  C   UNL A   1      41.189  30.252  34.874  1.00  0.00     0.049 A 
ATOM     89  C   UNL A   1      42.699  27.450  30.324  1.00  0.00     0.074 A 
ATOM     90  C   UNL A   1      41.912  30.018  36.032  1.00  0.00    -0.036 A 
ATOM     91  N   UNL A   1      41.750  29.458  33.889  1.00  0.00    -0.354 N 
ATOM     92  N   UNL A   1      42.468  28.019  31.480  1.00  0.00    -0.248 NA
ATOM     93  C   UNL A   1      43.864  26.550  30.321  1.00  0.00    -0.034 C 
ATOM     94  C   UNL A   1      42.939  29.114  35.737  1.00  0.00    -0.036 A 
ATOM     95  H   UNL A   1      41.725  30.438  36.957  1.00  0.00     0.065 H 
ATOM     96  C   UNL A   1      42.827  28.751  34.406  1.00  0.00     0.049 A 
ATOM     97  H   UNL A   1      41.434  29.403  32.958  1.00  0.00     0.167 HD
ATOM     98  C   UNL A   1      43.439  27.530  32.346  1.00  0.00     0.074 A 
ATOM     99  C   UNL A   1      44.250  26.603  31.588  1.00  0.00    -0.034 C 
ATOM    100  H   UNL A   1      44.272  26.017  29.538  1.00  0.00     0.065 H 
ATOM    101  H   UNL A   1      43.657  28.778  36.398  1.00  0.00     0.065 H 
ATOM    102  C   UNL A   1      43.636  27.828  33.653  1.00  0.00     0.037 A 
ATOM    103  H   UNL A   1      45.030  26.054  31.982  1.00  0.00     0.065 H 
BRANCH  84 104
ATOM    104  C   UNL A   1      39.657  32.001  35.839  1.00  0.00     0.064 A 
ATOM    105  C   UNL A   1      40.271  33.237  36.091  1.00  0.00     0.173 A 
ATOM    106  C   UNL A   1      38.594  31.614  36.670  1.00  0.00     0.173 A 
ATOM    107  F   UNL A   1      41.293  33.649  35.326  1.00  0.00    -0.203 F 
ATOM    108  C   UNL A   1      39.857  34.040  37.149  1.00  0.00     0.198 A 
ATOM    109  C   UNL A   1      38.165  32.433  37.712  1.00  0.00     0.198 A 
ATOM    110  F   UNL A   1      37.964  30.448  36.466  1.00  0.00    -0.203 F 
ATOM    111  F   UNL A   1      40.486  35.197  37.395  1.00  0.00    -0.200 F 
ATOM    112  C   UNL A   1      38.801  33.642  37.954  1.00  0.00     0.200 A 
ATOM    113  F   UNL A   1      37.134  32.055  38.480  1.00  0.00    -0.200 F 
ATOM    114  F   UNL A   1      38.397  34.422  38.966  1.00  0.00    -0.200 F 
ENDBRANCH  84 104
BRANCH  87 115
ATOM    115  C   UNL A   1      42.369  26.811  27.833  1.00  0.00     0.064 A 
ATOM    116  C   UNL A   1      41.840  25.540  27.569  1.00  0.00     0.173 A 
ATOM    117  C   UNL A   1      43.317  27.325  26.938  1.00  0.00     0.173 A 
ATOM    118  F   UNL A   1      40.948  24.997  28.410  1.00  0.00    -0.203 F 
ATOM    119  C   UNL A   1      42.261  24.803  26.464  1.00  0.00     0.198 A 
ATOM    120  C   UNL A   1      43.716  26.599  25.819  1.00  0.00     0.198 A 
ATOM    121  F   UNL A   1      43.848  28.539  27.146  1.00  0.00    -0.203 F 
ATOM    122  F   UNL A   1      41.774  23.571  26.258  1.00  0.00    -0.200 F 
ATOM    123  C   UNL A   1      43.194  25.335  25.587  1.00  0.00     0.200 A 
ATOM    124  F   UNL A   1      44.609  27.122  24.968  1.00  0.00    -0.200 F 
ATOM    125  F   UNL A   1      43.595  24.627  24.523  1.00  0.00    -0.200 F 
ENDBRANCH  87 115
BRANCH 102 126
ATOM    126  C   UNL A   1      44.762  27.127  34.359  1.00  0.00     0.064 A 
ATOM    127  C   UNL A   1      46.046  27.688  34.435  1.00  0.00     0.173 A 
ATOM    128  C   UNL A   1      44.550  25.889  34.985  1.00  0.00     0.173 A 
ATOM    129  F   UNL A   1      46.306  28.862  33.841  1.00  0.00    -0.203 F 
ATOM    130  C   UNL A   1      47.082  27.021  35.085  1.00  0.00     0.198 A 
ATOM    131  C   UNL A   1      45.581  25.238  35.659  1.00  0.00     0.198 A 
ATOM    132  F   UNL A   1      43.340  25.310  34.948  1.00  0.00    -0.203 F 
ATOM    133  F   UNL A   1      48.313  27.552  35.099  1.00  0.00    -0.200 F 
ATOM    134  C   UNL A   1      46.849  25.800  35.699  1.00  0.00     0.200 A 
ATOM    135  F   UNL A   1      45.351  24.063  36.260  1.00  0.00    -0.200 F 
ATOM    136  F   UNL A   1      47.847  25.160  36.324  1.00  0.00    -0.200 F 
ENDBRANCH 102 126
ENDBRANCH  67  70
ENDBRANCH  57  60
ENDBRANCH  53  56
ENDBRANCH  50  53
ENDBRANCH  47  50
ENDBRANCH   1  47
TORSDOF 19
ENDMDL
MODEL 5
REMARK VINA RESULT:     -11.4      4.622     10.044
REMARK SMILES COc1ccc(C(=O)c2ccccc2)cc1[C@@H](C)C(=O)NCCCCCCNC(=O)c1ccc(-c2c3nc(c(-c4c(F)c(F)c(F)c(F)c4F)c4ccc([nH]4)c(-c4c(F)c(F)c(F)c(F)c4F)c4nc(c(-c5c(F)c(F)c(F)c(F)c5F)c5ccc2[nH]5)C=C4)C=C3)cc1
REMARK SMILES IDX 24 1 23 4 22 7 21 10 19 11 20 12 17 14 16 16 3 17 4 18 5 19
REMARK SMILES IDX 15 21 6 22 2 25 1 26 7 30 8 31 9 32 10 33 14 34 11 35 13 37
REMARK SMILES IDX 12 39 18 43 25 47 26 50 27 53 28 56 29 57 30 59 31 60 32 61
REMARK SMILES IDX 93 62 33 63 92 65 34 67 35 70 36 71 86 72 37 73 91 74 85 75
REMARK SMILES IDX 87 76 38 77 90 78 84 80 83 82 39 84 71 87 51 88 70 89 52 90
REMARK SMILES IDX 55 91 69 92 88 93 53 94 54 96 68 98 89 99 56 102 40 104
REMARK SMILES IDX 41 105 49 106 42 107 43 108 47 109 50 110 44 111 45 112
REMARK SMILES IDX 48 113 46 114 72 115 73 116 81 117 74 118 75 119 79 120
REMARK SMILES IDX 82 121 76 122 77 123 80 124 78 125 57 126 58 127 66 128
REMARK SMILES IDX 59 129 60 130 64 131 67 132 61 133 62 134 65 135 63 136
REMARK H PARENT 24 2 24 3 23 5 23 6 22 8 22 9 21 13 17 15 4 20 5 23 15 24 1 27
REMARK H PARENT 1 28 1 29 10 36 14 38 11 40 13 41 12 42 18 44 18 45 18 46
REMARK H PARENT 25 48 25 49 26 51 26 52 27 54 27 55 28 58 32 64 93 66 33 68
REMARK H PARENT 92 69 91 79 85 81 87 83 90 85 84 86 52 95 55 97 88 100 53 101
REMARK H PARENT 89 103
REMARK Flexibility Score: inf
ROOT
ATOM      1  C   UNL A   1      33.884  21.368  24.607  1.00  0.00    -0.052 C 
ATOM      2  H   UNL A   1      34.284  20.407  24.858  1.00  0.00     0.027 H 
ATOM      3  H   UNL A   1      33.599  21.959  25.452  1.00  0.00     0.027 H 
ENDROOT
BRANCH   1   4
ATOM      4  C   UNL A   1      32.597  21.145  23.806  1.00  0.00    -0.036 C 
ATOM      5  H   UNL A   1      32.591  20.129  23.471  1.00  0.00     0.028 H 
ATOM      6  H   UNL A   1      31.794  21.387  24.471  1.00  0.00     0.028 H 
BRANCH   4   7
ATOM      7  C   UNL A   1      32.413  22.046  22.581  1.00  0.00     0.017 C 
ATOM      8  H   UNL A   1      33.334  22.555  22.383  1.00  0.00     0.049 H 
ATOM      9  H   UNL A   1      32.128  21.429  21.756  1.00  0.00     0.049 H 
BRANCH   7  10
ATOM     10  N   UNL A   1      31.367  23.034  22.785  1.00  0.00    -0.356 N 
ATOM     11  C   UNL A   1      31.289  24.183  23.508  1.00  0.00     0.227 C 
ATOM     12  O   UNL A   1      30.183  24.742  23.501  1.00  0.00    -0.274 OA
ATOM     13  H   UNL A   1      30.539  22.825  22.297  1.00  0.00     0.163 HD
BRANCH  11  14
ATOM     14  C   UNL A   1      32.439  24.800  24.326  1.00  0.00     0.064 C 
ATOM     15  H   UNL A   1      33.285  24.223  24.019  1.00  0.00     0.045 H 
BRANCH  14  16
ATOM     16  C   UNL A   1      32.742  26.243  23.941  1.00  0.00     0.007 A 
ATOM     17  C   UNL A   1      33.228  26.608  22.675  1.00  0.00     0.122 A 
ATOM     18  C   UNL A   1      33.473  27.950  22.360  1.00  0.00    -0.019 A 
ATOM     19  C   UNL A   1      33.256  28.951  23.310  1.00  0.00    -0.047 A 
ATOM     20  H   UNL A   1      33.817  28.201  21.421  1.00  0.00     0.066 H 
ATOM     21  C   UNL A   1      32.557  27.270  24.884  1.00  0.00    -0.043 A 
ATOM     22  C   UNL A   1      32.828  28.614  24.594  1.00  0.00     0.023 A 
ATOM     23  H   UNL A   1      33.413  29.941  23.061  1.00  0.00     0.063 H 
ATOM     24  H   UNL A   1      32.209  27.026  25.826  1.00  0.00     0.064 H 
BRANCH  17  25
ATOM     25  O   UNL A   1      33.653  25.690  21.753  1.00  0.00    -0.496 OA
BRANCH  25  26
ATOM     26  C   UNL A   1      32.798  25.578  20.616  1.00  0.00     0.078 C 
ATOM     27  H   UNL A   1      31.824  25.945  20.865  1.00  0.00     0.067 H 
ATOM     28  H   UNL A   1      32.727  24.552  20.322  1.00  0.00     0.067 H 
ATOM     29  H   UNL A   1      33.199  26.154  19.809  1.00  0.00     0.067 H 
ENDBRANCH  25  26
ENDBRANCH  17  25
BRANCH  22  30
ATOM     30  C   UNL A   1      32.636  29.703  25.593  1.00  0.00     0.193 C 
ATOM     31  O   UNL A   1      31.577  30.328  25.601  1.00  0.00    -0.289 OA
BRANCH  30  32
ATOM     32  C   UNL A   1      33.654  30.052  26.617  1.00  0.00     0.022 A 
ATOM     33  C   UNL A   1      34.654  29.110  26.876  1.00  0.00    -0.051 A 
ATOM     34  C   UNL A   1      33.618  31.242  27.356  1.00  0.00    -0.051 A 
ATOM     35  C   UNL A   1      35.621  29.368  27.846  1.00  0.00    -0.062 A 
ATOM     36  H   UNL A   1      34.676  28.224  26.349  1.00  0.00     0.063 H 
ATOM     37  C   UNL A   1      34.609  31.507  28.306  1.00  0.00    -0.062 A 
ATOM     38  H   UNL A   1      32.858  31.923  27.199  1.00  0.00     0.063 H 
ATOM     39  C   UNL A   1      35.611  30.569  28.551  1.00  0.00    -0.062 A 
ATOM     40  H   UNL A   1      36.349  28.663  28.043  1.00  0.00     0.062 H 
ATOM     41  H   UNL A   1      34.599  32.397  28.827  1.00  0.00     0.062 H 
ATOM     42  H   UNL A   1      36.343  30.764  29.251  1.00  0.00     0.062 H 
ENDBRANCH  30  32
ENDBRANCH  22  30
ENDBRANCH  14  16
BRANCH  14  43
ATOM     43  C   UNL A   1      32.418  24.551  25.831  1.00  0.00    -0.049 C 
ATOM     44  H   UNL A   1      33.238  25.063  26.290  1.00  0.00     0.024 H 
ATOM     45  H   UNL A   1      32.503  23.501  26.019  1.00  0.00     0.024 H 
ATOM     46  H   UNL A   1      31.498  24.913  26.240  1.00  0.00     0.024 H 
ENDBRANCH  14  43
ENDBRANCH  11  14
ENDBRANCH   7  10
ENDBRANCH   4   7
ENDBRANCH   1   4
BRANCH   1  47
ATOM     47  C   UNL A   1      34.991  22.166  23.903  1.00  0.00    -0.052 C 
ATOM     48  H   UNL A   1      34.544  22.686  23.081  1.00  0.00     0.027 H 
ATOM     49  H   UNL A   1      35.727  21.442  23.623  1.00  0.00     0.027 H 
BRANCH  47  50
ATOM     50  C   UNL A   1      35.740  23.198  24.755  1.00  0.00    -0.036 C 
ATOM     51  H   UNL A   1      35.086  24.030  24.913  1.00  0.00     0.028 H 
ATOM     52  H   UNL A   1      36.627  23.438  24.207  1.00  0.00     0.028 H 
BRANCH  50  53
ATOM     53  C   UNL A   1      36.220  22.714  26.126  1.00  0.00     0.018 C 
ATOM     54  H   UNL A   1      35.375  22.349  26.673  1.00  0.00     0.049 H 
ATOM     55  H   UNL A   1      36.682  23.544  26.617  1.00  0.00     0.049 H 
BRANCH  53  56
ATOM     56  N   UNL A   1      37.207  21.653  26.035  1.00  0.00    -0.352 N 
ATOM     57  C   UNL A   1      38.579  21.710  26.126  1.00  0.00     0.251 C 
ATOM     58  H   UNL A   1      36.838  20.752  25.885  1.00  0.00     0.163 HD
ATOM     59  O   UNL A   1      39.244  20.709  25.871  1.00  0.00    -0.269 OA
BRANCH  57  60
ATOM     60  C   UNL A   1      39.281  22.962  26.507  1.00  0.00     0.039 A 
ATOM     61  C   UNL A   1      40.236  22.914  27.527  1.00  0.00    -0.049 A 
ATOM     62  C   UNL A   1      38.960  24.194  25.936  1.00  0.00    -0.049 A 
ATOM     63  C   UNL A   1      40.893  24.083  27.935  1.00  0.00    -0.053 A 
ATOM     64  H   UNL A   1      40.457  22.015  27.982  1.00  0.00     0.063 H 
ATOM     65  C   UNL A   1      39.666  25.353  26.296  1.00  0.00    -0.053 A 
ATOM     66  H   UNL A   1      38.198  24.254  25.243  1.00  0.00     0.063 H 
ATOM     67  C   UNL A   1      40.637  25.315  27.308  1.00  0.00    -0.014 A 
ATOM     68  H   UNL A   1      41.576  24.038  28.708  1.00  0.00     0.063 H 
ATOM     69  H   UNL A   1      39.468  26.242  25.810  1.00  0.00     0.063 H 
BRANCH  67  70
ATOM     70  C   UNL A   1      41.389  26.539  27.725  1.00  0.00     0.031 A 
ATOM     71  C   UNL A   1      42.803  26.793  27.267  1.00  0.00     0.074 A 
ATOM     72  C   UNL A   1      40.798  27.447  28.528  1.00  0.00     0.049 A 
ATOM     73  N   UNL A   1      43.560  27.848  27.463  1.00  0.00    -0.248 NA
ATOM     74  C   UNL A   1      43.465  25.720  26.512  1.00  0.00    -0.034 C 
ATOM     75  C   UNL A   1      39.463  27.315  29.113  1.00  0.00    -0.036 A 
ATOM     76  N   UNL A   1      41.238  28.669  28.982  1.00  0.00    -0.354 N 
ATOM     77  C   UNL A   1      44.779  27.564  26.862  1.00  0.00     0.074 A 
ATOM     78  C   UNL A   1      44.683  26.216  26.341  1.00  0.00    -0.034 C 
ATOM     79  H   UNL A   1      43.082  24.815  26.196  1.00  0.00     0.065 H 
ATOM     80  C   UNL A   1      39.178  28.425  29.813  1.00  0.00    -0.036 A 
ATOM     81  H   UNL A   1      38.842  26.499  29.005  1.00  0.00     0.065 H 
ATOM     82  C   UNL A   1      40.315  29.341  29.744  1.00  0.00     0.049 A 
ATOM     83  H   UNL A   1      42.133  29.027  28.779  1.00  0.00     0.167 HD
ATOM     84  C   UNL A   1      45.872  28.356  26.729  1.00  0.00     0.037 A 
ATOM     85  H   UNL A   1      45.461  25.707  25.896  1.00  0.00     0.065 H 
ATOM     86  H   UNL A   1      38.297  28.602  30.320  1.00  0.00     0.065 H 
ATOM     87  C   UNL A   1      40.361  30.562  30.312  1.00  0.00     0.037 A 
ATOM     88  C   UNL A   1      45.975  29.710  27.212  1.00  0.00     0.049 A 
ATOM     89  C   UNL A   1      41.571  31.436  30.121  1.00  0.00     0.074 A 
ATOM     90  C   UNL A   1      47.015  30.610  27.041  1.00  0.00    -0.036 A 
ATOM     91  N   UNL A   1      45.011  30.357  27.967  1.00  0.00    -0.354 N 
ATOM     92  N   UNL A   1      42.672  31.193  29.456  1.00  0.00    -0.248 NA
ATOM     93  C   UNL A   1      41.532  32.767  30.749  1.00  0.00    -0.034 C 
ATOM     94  C   UNL A   1      46.697  31.787  27.729  1.00  0.00    -0.036 A 
ATOM     95  H   UNL A   1      47.876  30.442  26.498  1.00  0.00     0.065 H 
ATOM     96  C   UNL A   1      45.441  31.637  28.290  1.00  0.00     0.049 A 
ATOM     97  H   UNL A   1      44.148  29.968  28.235  1.00  0.00     0.167 HD
ATOM     98  C   UNL A   1      43.446  32.342  29.566  1.00  0.00     0.074 A 
ATOM     99  C   UNL A   1      42.680  33.292  30.343  1.00  0.00    -0.034 C 
ATOM    100  H   UNL A   1      40.803  33.183  31.348  1.00  0.00     0.065 H 
ATOM    101  H   UNL A   1      47.298  32.623  27.805  1.00  0.00     0.065 H 
ATOM    102  C   UNL A   1      44.681  32.583  29.064  1.00  0.00     0.037 A 
ATOM    103  H   UNL A   1      42.987  34.254  30.554  1.00  0.00     0.065 H 
BRANCH  84 104
ATOM    104  C   UNL A   1      47.061  27.784  26.008  1.00  0.00     0.064 A 
ATOM    105  C   UNL A   1      47.130  27.769  24.607  1.00  0.00     0.173 A 
ATOM    106  C   UNL A   1      48.166  27.303  26.727  1.00  0.00     0.173 A 
ATOM    107  F   UNL A   1      46.099  28.215  23.876  1.00  0.00    -0.203 F 
ATOM    108  C   UNL A   1      48.250  27.266  23.952  1.00  0.00     0.198 A 
ATOM    109  C   UNL A   1      49.296  26.826  26.067  1.00  0.00     0.198 A 
ATOM    110  F   UNL A   1      48.156  27.306  28.068  1.00  0.00    -0.203 F 
ATOM    111  F   UNL A   1      48.278  27.224  22.612  1.00  0.00    -0.200 F 
ATOM    112  C   UNL A   1      49.335  26.802  24.681  1.00  0.00     0.200 A 
ATOM    113  F   UNL A   1      50.349  26.391  26.772  1.00  0.00    -0.200 F 
ATOM    114  F   UNL A   1      50.416  26.328  24.047  1.00  0.00    -0.200 F 
ENDBRANCH  84 104
BRANCH  87 115
ATOM    115  C   UNL A   1      39.196  31.058  31.090  1.00  0.00     0.064 A 
ATOM    116  C   UNL A   1      38.239  31.894  30.499  1.00  0.00     0.173 A 
ATOM    117  C   UNL A   1      39.023  30.715  32.438  1.00  0.00     0.173 A 
ATOM    118  F   UNL A   1      38.376  32.268  29.218  1.00  0.00    -0.203 F 
ATOM    119  C   UNL A   1      37.162  32.385  31.234  1.00  0.00     0.198 A 
ATOM    120  C   UNL A   1      37.932  31.184  33.164  1.00  0.00     0.198 A 
ATOM    121  F   UNL A   1      39.911  29.914  33.046  1.00  0.00    -0.203 F 
ATOM    122  F   UNL A   1      36.285  33.218  30.658  1.00  0.00    -0.200 F 
ATOM    123  C   UNL A   1      37.006  32.025  32.564  1.00  0.00     0.200 A 
ATOM    124  F   UNL A   1      37.778  30.825  34.445  1.00  0.00    -0.200 F 
ATOM    125  F   UNL A   1      35.968  32.495  33.269  1.00  0.00    -0.200 F 
ENDBRANCH  87 115
BRANCH 102 126
ATOM    126  C   UNL A   1      45.278  33.938  29.319  1.00  0.00     0.064 A 
ATOM    127  C   UNL A   1      46.084  34.188  30.440  1.00  0.00     0.173 A 
ATOM    128  C   UNL A   1      45.058  34.994  28.422  1.00  0.00     0.173 A 
ATOM    129  F   UNL A   1      46.313  33.217  31.336  1.00  0.00    -0.203 F 
ATOM    130  C   UNL A   1      46.623  35.452  30.669  1.00  0.00     0.198 A 
ATOM    131  C   UNL A   1      45.622  36.250  28.639  1.00  0.00     0.198 A 
ATOM    132  F   UNL A   1      44.300  34.809  27.331  1.00  0.00    -0.203 F 
ATOM    133  F   UNL A   1      47.347  35.681  31.774  1.00  0.00    -0.200 F 
ATOM    134  C   UNL A   1      46.395  36.481  29.767  1.00  0.00     0.200 A 
ATOM    135  F   UNL A   1      45.409  37.240  27.760  1.00  0.00    -0.200 F 
ATOM    136  F   UNL A   1      46.914  37.696  29.989  1.00  0.00    -0.200 F 
ENDBRANCH 102 126
ENDBRANCH  67  70
ENDBRANCH  57  60
ENDBRANCH  53  56
ENDBRANCH  50  53
ENDBRANCH  47  50
ENDBRANCH   1  47
TORSDOF 19
ENDMDL
MODEL 6
REMARK VINA RESULT:     -11.3      2.181      8.273
REMARK SMILES COc1ccc(C(=O)c2ccccc2)cc1[C@@H](C)C(=O)NCCCCCCNC(=O)c1ccc(-c2c3nc(c(-c4c(F)c(F)c(F)c(F)c4F)c4ccc([nH]4)c(-c4c(F)c(F)c(F)c(F)c4F)c4nc(c(-c5c(F)c(F)c(F)c(F)c5F)c5ccc2[nH]5)C=C4)C=C3)cc1
REMARK SMILES IDX 24 1 23 4 22 7 21 10 19 11 20 12 17 14 16 16 3 17 4 18 5 19
REMARK SMILES IDX 15 21 6 22 2 25 1 26 7 30 8 31 9 32 10 33 14 34 11 35 13 37
REMARK SMILES IDX 12 39 18 43 25 47 26 50 27 53 28 56 29 57 30 59 31 60 32 61
REMARK SMILES IDX 93 62 33 63 92 65 34 67 35 70 36 71 86 72 37 73 91 74 85 75
REMARK SMILES IDX 87 76 38 77 90 78 84 80 83 82 39 84 71 87 51 88 70 89 52 90
REMARK SMILES IDX 55 91 69 92 88 93 53 94 54 96 68 98 89 99 56 102 40 104
REMARK SMILES IDX 41 105 49 106 42 107 43 108 47 109 50 110 44 111 45 112
REMARK SMILES IDX 48 113 46 114 72 115 73 116 81 117 74 118 75 119 79 120
REMARK SMILES IDX 82 121 76 122 77 123 80 124 78 125 57 126 58 127 66 128
REMARK SMILES IDX 59 129 60 130 64 131 67 132 61 133 62 134 65 135 63 136
REMARK H PARENT 24 2 24 3 23 5 23 6 22 8 22 9 21 13 17 15 4 20 5 23 15 24 1 27
REMARK H PARENT 1 28 1 29 10 36 14 38 11 40 13 41 12 42 18 44 18 45 18 46
REMARK H PARENT 25 48 25 49 26 51 26 52 27 54 27 55 28 58 32 64 93 66 33 68
REMARK H PARENT 92 69 91 79 85 81 87 83 90 85 84 86 52 95 55 97 88 100 53 101
REMARK H PARENT 89 103
REMARK Flexibility Score: inf
ROOT
ATOM      1  C   UNL A   1      34.522  32.610  29.229  1.00  0.00    -0.052 C 
ATOM      2  H   UNL A   1      35.261  32.476  29.992  1.00  0.00     0.027 H 
ATOM      3  H   UNL A   1      33.520  32.418  29.549  1.00  0.00     0.027 H 
ENDROOT
BRANCH   1   4
ATOM      4  C   UNL A   1      34.803  31.591  28.120  1.00  0.00    -0.036 C 
ATOM      5  H   UNL A   1      35.481  32.040  27.425  1.00  0.00     0.028 H 
ATOM      6  H   UNL A   1      35.196  30.725  28.612  1.00  0.00     0.028 H 
BRANCH   4   7
ATOM      7  C   UNL A   1      33.578  31.106  27.338  1.00  0.00     0.017 C 
ATOM      8  H   UNL A   1      32.859  30.713  28.027  1.00  0.00     0.049 H 
ATOM      9  H   UNL A   1      33.179  31.939  26.798  1.00  0.00     0.049 H 
BRANCH   7  10
ATOM     10  N   UNL A   1      33.920  30.073  26.377  1.00  0.00    -0.356 N 
ATOM     11  C   UNL A   1      33.273  28.970  25.914  1.00  0.00     0.227 C 
ATOM     12  O   UNL A   1      33.922  28.262  25.130  1.00  0.00    -0.274 OA
ATOM     13  H   UNL A   1      34.811  30.196  25.977  1.00  0.00     0.163 HD
BRANCH  11  14
ATOM     14  C   UNL A   1      31.845  28.545  26.305  1.00  0.00     0.064 C 
ATOM     15  H   UNL A   1      31.245  29.334  25.903  1.00  0.00     0.045 H 
BRANCH  14  16
ATOM     16  C   UNL A   1      31.389  27.266  25.615  1.00  0.00     0.007 A 
ATOM     17  C   UNL A   1      30.862  27.248  24.313  1.00  0.00     0.122 A 
ATOM     18  C   UNL A   1      30.474  26.044  23.713  1.00  0.00    -0.019 A 
ATOM     19  C   UNL A   1      30.587  24.838  24.408  1.00  0.00    -0.047 A 
ATOM     20  H   UNL A   1      30.101  26.048  22.751  1.00  0.00     0.066 H 
ATOM     21  C   UNL A   1      31.467  26.039  26.299  1.00  0.00    -0.043 A 
ATOM     22  C   UNL A   1      31.054  24.831  25.722  1.00  0.00     0.023 A 
ATOM     23  H   UNL A   1      30.325  23.951  23.948  1.00  0.00     0.063 H 
ATOM     24  H   UNL A   1      31.843  26.028  27.261  1.00  0.00     0.064 H 
BRANCH  17  25
ATOM     25  O   UNL A   1      30.533  28.389  23.633  1.00  0.00    -0.496 OA
BRANCH  25  26
ATOM     26  C   UNL A   1      29.217  28.370  23.081  1.00  0.00     0.078 C 
ATOM     27  H   UNL A   1      28.615  27.666  23.618  1.00  0.00     0.067 H 
ATOM     28  H   UNL A   1      29.266  28.085  22.051  1.00  0.00     0.067 H 
ATOM     29  H   UNL A   1      28.782  29.344  23.162  1.00  0.00     0.067 H 
ENDBRANCH  25  26
ENDBRANCH  17  25
BRANCH  22  30
ATOM     30  C   UNL A   1      31.133  23.531  26.446  1.00  0.00     0.193 C 
ATOM     31  O   UNL A   1      30.305  23.281  27.320  1.00  0.00    -0.289 OA
BRANCH  30  32
ATOM     32  C   UNL A   1      32.149  22.491  26.137  1.00  0.00     0.022 A 
ATOM     33  C   UNL A   1      31.786  21.485  25.237  1.00  0.00    -0.051 A 
ATOM     34  C   UNL A   1      33.412  22.453  26.743  1.00  0.00    -0.051 A 
ATOM     35  C   UNL A   1      32.685  20.466  24.928  1.00  0.00    -0.062 A 
ATOM     36  H   UNL A   1      30.851  21.497  24.801  1.00  0.00     0.063 H 
ATOM     37  C   UNL A   1      34.320  21.444  26.405  1.00  0.00    -0.062 A 
ATOM     38  H   UNL A   1      33.671  23.169  27.439  1.00  0.00     0.063 H 
ATOM     39  C   UNL A   1      33.956  20.451  25.498  1.00  0.00    -0.062 A 
ATOM     40  H   UNL A   1      32.406  19.718  24.275  1.00  0.00     0.062 H 
ATOM     41  H   UNL A   1      35.261  21.435  26.829  1.00  0.00     0.062 H 
ATOM     42  H   UNL A   1      34.626  19.707  25.248  1.00  0.00     0.062 H 
ENDBRANCH  30  32
ENDBRANCH  22  30
ENDBRANCH  14  16
BRANCH  14  43
ATOM     43  C   UNL A   1      31.496  28.610  27.789  1.00  0.00    -0.049 C 
ATOM     44  H   UNL A   1      30.437  28.725  27.902  1.00  0.00     0.024 H 
ATOM     45  H   UNL A   1      31.995  29.444  28.236  1.00  0.00     0.024 H 
ATOM     46  H   UNL A   1      31.810  27.707  28.269  1.00  0.00     0.024 H 
ENDBRANCH  14  43
ENDBRANCH  11  14
ENDBRANCH   7  10
ENDBRANCH   4   7
ENDBRANCH   1   4
BRANCH   1  47
ATOM     47  C   UNL A   1      34.545  34.088  28.812  1.00  0.00    -0.052 C 
ATOM     48  H   UNL A   1      34.856  34.132  27.788  1.00  0.00     0.027 H 
ATOM     49  H   UNL A   1      35.209  34.566  29.500  1.00  0.00     0.027 H 
BRANCH  47  50
ATOM     50  C   UNL A   1      33.220  34.853  28.928  1.00  0.00    -0.036 C 
ATOM     51  H   UNL A   1      32.559  34.274  29.537  1.00  0.00     0.028 H 
ATOM     52  H   UNL A   1      32.878  34.995  27.925  1.00  0.00     0.028 H 
BRANCH  50  53
ATOM     53  C   UNL A   1      33.309  36.256  29.536  1.00  0.00     0.018 C 
ATOM     54  H   UNL A   1      33.044  36.971  28.785  1.00  0.00     0.049 H 
ATOM     55  H   UNL A   1      34.312  36.394  29.881  1.00  0.00     0.049 H 
BRANCH  53  56
ATOM     56  N   UNL A   1      32.426  36.432  30.676  1.00  0.00    -0.352 N 
ATOM     57  C   UNL A   1      32.495  35.895  31.941  1.00  0.00     0.251 C 
ATOM     58  H   UNL A   1      31.659  37.030  30.520  1.00  0.00     0.163 HD
ATOM     59  O   UNL A   1      31.558  36.057  32.718  1.00  0.00    -0.269 OA
BRANCH  57  60
ATOM     60  C   UNL A   1      33.670  35.104  32.387  1.00  0.00     0.039 A 
ATOM     61  C   UNL A   1      34.941  35.680  32.299  1.00  0.00    -0.049 A 
ATOM     62  C   UNL A   1      33.554  33.779  32.810  1.00  0.00    -0.049 A 
ATOM     63  C   UNL A   1      36.075  34.949  32.679  1.00  0.00    -0.053 A 
ATOM     64  H   UNL A   1      35.044  36.647  31.954  1.00  0.00     0.063 H 
ATOM     65  C   UNL A   1      34.681  33.071  33.255  1.00  0.00    -0.053 A 
ATOM     66  H   UNL A   1      32.632  33.317  32.797  1.00  0.00     0.063 H 
ATOM     67  C   UNL A   1      35.960  33.643  33.187  1.00  0.00    -0.014 A 
ATOM     68  H   UNL A   1      37.010  35.378  32.585  1.00  0.00     0.063 H 
ATOM     69  H   UNL A   1      34.567  32.118  33.635  1.00  0.00     0.063 H 
BRANCH  67  70
ATOM     70  C   UNL A   1      37.180  32.904  33.635  1.00  0.00     0.031 A 
ATOM     71  C   UNL A   1      37.861  31.890  32.750  1.00  0.00     0.074 A 
ATOM     72  C   UNL A   1      37.697  33.143  34.858  1.00  0.00     0.049 A 
ATOM     73  N   UNL A   1      38.980  31.232  32.952  1.00  0.00    -0.248 NA
ATOM     74  C   UNL A   1      37.195  31.550  31.485  1.00  0.00    -0.034 C 
ATOM     75  C   UNL A   1      37.118  34.040  35.858  1.00  0.00    -0.036 A 
ATOM     76  N   UNL A   1      38.834  32.662  35.464  1.00  0.00    -0.354 N 
ATOM     77  C   UNL A   1      39.145  30.405  31.850  1.00  0.00     0.074 A 
ATOM     78  C   UNL A   1      37.985  30.601  31.004  1.00  0.00    -0.034 C 
ATOM     79  H   UNL A   1      36.334  31.948  31.076  1.00  0.00     0.065 H 
ATOM     80  C   UNL A   1      37.920  34.075  36.934  1.00  0.00    -0.036 A 
ATOM     81  H   UNL A   1      36.234  34.560  35.753  1.00  0.00     0.065 H 
ATOM     82  C   UNL A   1      39.062  33.191  36.711  1.00  0.00     0.049 A 
ATOM     83  H   UNL A   1      39.429  31.999  35.043  1.00  0.00     0.167 HD
ATOM     84  C   UNL A   1      40.176  29.577  31.549  1.00  0.00     0.037 A 
ATOM     85  H   UNL A   1      37.798  30.070  30.140  1.00  0.00     0.065 H 
ATOM     86  H   UNL A   1      37.756  34.637  37.784  1.00  0.00     0.065 H 
ATOM     87  C   UNL A   1      40.079  33.005  37.576  1.00  0.00     0.037 A 
ATOM     88  C   UNL A   1      41.352  29.392  32.361  1.00  0.00     0.049 A 
ATOM     89  C   UNL A   1      41.228  32.108  37.204  1.00  0.00     0.074 A 
ATOM     90  C   UNL A   1      42.482  28.639  32.085  1.00  0.00    -0.036 A 
ATOM     91  N   UNL A   1      41.549  29.958  33.610  1.00  0.00    -0.354 N 
ATOM     92  N   UNL A   1      41.420  31.418  36.108  1.00  0.00    -0.248 NA
ATOM     93  C   UNL A   1      42.314  31.980  38.190  1.00  0.00    -0.034 C 
ATOM     94  C   UNL A   1      43.343  28.715  33.186  1.00  0.00    -0.036 A 
ATOM     95  H   UNL A   1      42.658  28.112  31.215  1.00  0.00     0.065 H 
ATOM     96  C   UNL A   1      42.771  29.552  34.128  1.00  0.00     0.049 A 
ATOM     97  H   UNL A   1      40.916  30.559  34.064  1.00  0.00     0.167 HD
ATOM     98  C   UNL A   1      42.653  30.794  36.261  1.00  0.00     0.074 A 
ATOM     99  C   UNL A   1      43.174  31.203  37.547  1.00  0.00    -0.034 C 
ATOM    100  H   UNL A   1      42.386  32.388  39.135  1.00  0.00     0.065 H 
ATOM    101  H   UNL A   1      44.249  28.229  33.279  1.00  0.00     0.065 H 
ATOM    102  C   UNL A   1      43.291  29.957  35.407  1.00  0.00     0.037 A 
ATOM    103  H   UNL A   1      44.097  30.926  37.916  1.00  0.00     0.065 H 
BRANCH  84 104
ATOM    104  C   UNL A   1      40.093  28.804  30.262  1.00  0.00     0.064 A 
ATOM    105  C   UNL A   1      40.682  29.282  29.082  1.00  0.00     0.173 A 
ATOM    106  C   UNL A   1      39.472  27.547  30.225  1.00  0.00     0.173 A 
ATOM    107  F   UNL A   1      41.285  30.479  29.066  1.00  0.00    -0.203 F 
ATOM    108  C   UNL A   1      40.627  28.542  27.904  1.00  0.00     0.198 A 
ATOM    109  C   UNL A   1      39.443  26.797  29.051  1.00  0.00     0.198 A 
ATOM    110  F   UNL A   1      38.904  27.038  31.329  1.00  0.00    -0.203 F 
ATOM    111  F   UNL A   1      41.161  29.037  26.779  1.00  0.00    -0.200 F 
ATOM    112  C   UNL A   1      40.014  27.298  27.891  1.00  0.00     0.200 A 
ATOM    113  F   UNL A   1      38.864  25.589  29.042  1.00  0.00    -0.200 F 
ATOM    114  F   UNL A   1      39.972  26.583  26.758  1.00  0.00    -0.200 F 
ENDBRANCH  84 104
BRANCH  87 115
ATOM    115  C   UNL A   1      40.081  33.722  38.876  1.00  0.00     0.064 A 
ATOM    116  C   UNL A   1      40.816  34.904  39.045  1.00  0.00     0.173 A 
ATOM    117  C   UNL A   1      39.358  33.237  39.975  1.00  0.00     0.173 A 
ATOM    118  F   UNL A   1      41.541  35.392  38.028  1.00  0.00    -0.203 F 
ATOM    119  C   UNL A   1      40.844  35.563  40.272  1.00  0.00     0.198 A 
ATOM    120  C   UNL A   1      39.365  33.912  41.193  1.00  0.00     0.198 A 
ATOM    121  F   UNL A   1      38.636  32.113  39.860  1.00  0.00    -0.203 F 
ATOM    122  F   UNL A   1      41.590  36.666  40.421  1.00  0.00    -0.200 F 
ATOM    123  C   UNL A   1      40.114  35.070  41.343  1.00  0.00     0.200 A 
ATOM    124  F   UNL A   1      38.650  33.439  42.222  1.00  0.00    -0.200 F 
ATOM    125  F   UNL A   1      40.139  35.706  42.522  1.00  0.00    -0.200 F 
ENDBRANCH  87 115
BRANCH 102 126
ATOM    126  C   UNL A   1      44.639  29.441  35.825  1.00  0.00     0.064 A 
ATOM    127  C   UNL A   1      45.821  30.125  35.502  1.00  0.00     0.173 A 
ATOM    128  C   UNL A   1      44.749  28.259  36.573  1.00  0.00     0.173 A 
ATOM    129  F   UNL A   1      45.772  31.251  34.776  1.00  0.00    -0.203 F 
ATOM    130  C   UNL A   1      47.064  29.628  35.888  1.00  0.00     0.198 A 
ATOM    131  C   UNL A   1      45.992  27.780  36.981  1.00  0.00     0.198 A 
ATOM    132  F   UNL A   1      43.650  27.568  36.914  1.00  0.00    -0.203 F 
ATOM    133  F   UNL A   1      48.183  30.271  35.523  1.00  0.00    -0.200 F 
ATOM    134  C   UNL A   1      47.149  28.460  36.630  1.00  0.00     0.200 A 
ATOM    135  F   UNL A   1      46.071  26.657  37.707  1.00  0.00    -0.200 F 
ATOM    136  F   UNL A   1      48.346  27.984  37.000  1.00  0.00    -0.200 F 
ENDBRANCH 102 126
ENDBRANCH  67  70
ENDBRANCH  57  60
ENDBRANCH  53  56
ENDBRANCH  50  53
ENDBRANCH  47  50
ENDBRANCH   1  47
TORSDOF 19
ENDMDL
MODEL 7
REMARK VINA RESULT:     -11.3      1.257      3.287
REMARK SMILES COc1ccc(C(=O)c2ccccc2)cc1[C@@H](C)C(=O)NCCCCCCNC(=O)c1ccc(-c2c3nc(c(-c4c(F)c(F)c(F)c(F)c4F)c4ccc([nH]4)c(-c4c(F)c(F)c(F)c(F)c4F)c4nc(c(-c5c(F)c(F)c(F)c(F)c5F)c5ccc2[nH]5)C=C4)C=C3)cc1
REMARK SMILES IDX 24 1 23 4 22 7 21 10 19 11 20 12 17 14 16 16 3 17 4 18 5 19
REMARK SMILES IDX 15 21 6 22 2 25 1 26 7 30 8 31 9 32 10 33 14 34 11 35 13 37
REMARK SMILES IDX 12 39 18 43 25 47 26 50 27 53 28 56 29 57 30 59 31 60 32 61
REMARK SMILES IDX 93 62 33 63 92 65 34 67 35 70 36 71 86 72 37 73 91 74 85 75
REMARK SMILES IDX 87 76 38 77 90 78 84 80 83 82 39 84 71 87 51 88 70 89 52 90
REMARK SMILES IDX 55 91 69 92 88 93 53 94 54 96 68 98 89 99 56 102 40 104
REMARK SMILES IDX 41 105 49 106 42 107 43 108 47 109 50 110 44 111 45 112
REMARK SMILES IDX 48 113 46 114 72 115 73 116 81 117 74 118 75 119 79 120
REMARK SMILES IDX 82 121 76 122 77 123 80 124 78 125 57 126 58 127 66 128
REMARK SMILES IDX 59 129 60 130 64 131 67 132 61 133 62 134 65 135 63 136
REMARK H PARENT 24 2 24 3 23 5 23 6 22 8 22 9 21 13 17 15 4 20 5 23 15 24 1 27
REMARK H PARENT 1 28 1 29 10 36 14 38 11 40 13 41 12 42 18 44 18 45 18 46
REMARK H PARENT 25 48 25 49 26 51 26 52 27 54 27 55 28 58 32 64 93 66 33 68
REMARK H PARENT 92 69 91 79 85 81 87 83 90 85 84 86 52 95 55 97 88 100 53 101
REMARK H PARENT 89 103
REMARK Flexibility Score: inf
ROOT
ATOM      1  C   UNL A   1      32.635  30.044  27.244  1.00  0.00    -0.052 C 
ATOM      2  H   UNL A   1      33.546  30.512  26.932  1.00  0.00     0.027 H 
ATOM      3  H   UNL A   1      32.395  30.194  28.275  1.00  0.00     0.027 H 
ENDROOT
BRANCH   1   4
ATOM      4  C   UNL A   1      32.804  28.531  27.076  1.00  0.00    -0.036 C 
ATOM      5  H   UNL A   1      32.839  28.094  28.052  1.00  0.00     0.028 H 
ATOM      6  H   UNL A   1      31.971  28.208  26.485  1.00  0.00     0.028 H 
BRANCH   4   7
ATOM      7  C   UNL A   1      34.056  28.083  26.314  1.00  0.00     0.017 C 
ATOM      8  H   UNL A   1      34.923  28.373  26.871  1.00  0.00     0.049 H 
ATOM      9  H   UNL A   1      34.010  27.021  26.197  1.00  0.00     0.049 H 
BRANCH   7  10
ATOM     10  N   UNL A   1      34.129  28.676  24.991  1.00  0.00    -0.356 N 
ATOM     11  C   UNL A   1      33.879  28.210  23.738  1.00  0.00     0.227 C 
ATOM     12  O   UNL A   1      34.127  29.001  22.816  1.00  0.00    -0.274 OA
ATOM     13  H   UNL A   1      34.423  29.615  25.003  1.00  0.00     0.163 HD
BRANCH  11  14
ATOM     14  C   UNL A   1      33.348  26.804  23.400  1.00  0.00     0.064 C 
ATOM     15  H   UNL A   1      34.118  26.164  23.775  1.00  0.00     0.045 H 
BRANCH  14  16
ATOM     16  C   UNL A   1      32.081  26.442  24.163  1.00  0.00     0.007 A 
ATOM     17  C   UNL A   1      30.930  27.247  24.156  1.00  0.00     0.122 A 
ATOM     18  C   UNL A   1      29.781  26.863  24.857  1.00  0.00    -0.019 A 
ATOM     19  C   UNL A   1      29.764  25.676  25.592  1.00  0.00    -0.047 A 
ATOM     20  H   UNL A   1      28.941  27.461  24.831  1.00  0.00     0.066 H 
ATOM     21  C   UNL A   1      32.041  25.264  24.932  1.00  0.00    -0.043 A 
ATOM     22  C   UNL A   1      30.909  24.883  25.663  1.00  0.00     0.023 A 
ATOM     23  H   UNL A   1      28.903  25.386  26.083  1.00  0.00     0.063 H 
ATOM     24  H   UNL A   1      32.878  24.660  24.960  1.00  0.00     0.064 H 
BRANCH  17  25
ATOM     25  O   UNL A   1      30.916  28.512  23.631  1.00  0.00    -0.496 OA
BRANCH  25  26
ATOM     26  C   UNL A   1      30.203  28.615  22.400  1.00  0.00     0.078 C 
ATOM     27  H   UNL A   1      29.233  28.175  22.512  1.00  0.00     0.067 H 
ATOM     28  H   UNL A   1      30.740  28.101  21.631  1.00  0.00     0.067 H 
ATOM     29  H   UNL A   1      30.097  29.645  22.133  1.00  0.00     0.067 H 
ENDBRANCH  25  26
ENDBRANCH  17  25
BRANCH  22  30
ATOM     30  C   UNL A   1      30.867  23.638  26.481  1.00  0.00     0.193 C 
ATOM     31  O   UNL A   1      29.979  23.503  27.321  1.00  0.00    -0.289 OA
BRANCH  30  32
ATOM     32  C   UNL A   1      31.831  22.521  26.308  1.00  0.00     0.022 A 
ATOM     33  C   UNL A   1      32.925  22.475  27.177  1.00  0.00    -0.051 A 
ATOM     34  C   UNL A   1      31.715  21.563  25.292  1.00  0.00    -0.051 A 
ATOM     35  C   UNL A   1      33.879  21.468  27.046  1.00  0.00    -0.062 A 
ATOM     36  H   UNL A   1      33.027  23.188  27.916  1.00  0.00     0.063 H 
ATOM     37  C   UNL A   1      32.661  20.537  25.186  1.00  0.00    -0.062 A 
ATOM     38  H   UNL A   1      30.933  21.614  24.621  1.00  0.00     0.063 H 
ATOM     39  C   UNL A   1      33.743  20.490  26.064  1.00  0.00    -0.062 A 
ATOM     40  H   UNL A   1      34.693  21.447  27.681  1.00  0.00     0.062 H 
ATOM     41  H   UNL A   1      32.557  19.814  24.457  1.00  0.00     0.062 H 
ATOM     42  H   UNL A   1      34.439  19.733  25.986  1.00  0.00     0.062 H 
ENDBRANCH  30  32
ENDBRANCH  22  30
ENDBRANCH  14  16
BRANCH  14  43
ATOM     43  C   UNL A   1      33.314  26.424  21.923  1.00  0.00    -0.049 C 
ATOM     44  H   UNL A   1      33.375  25.360  21.826  1.00  0.00     0.024 H 
ATOM     45  H   UNL A   1      34.144  26.876  21.420  1.00  0.00     0.024 H 
ATOM     46  H   UNL A   1      32.401  26.770  21.486  1.00  0.00     0.024 H 
ENDBRANCH  14  43
ENDBRANCH  11  14
ENDBRANCH   7  10
ENDBRANCH   4   7
ENDBRANCH   1   4
BRANCH   1  47
ATOM     47  C   UNL A   1      31.485  30.689  26.457  1.00  0.00    -0.052 C 
ATOM     48  H   UNL A   1      30.568  30.273  26.820  1.00  0.00     0.027 H 
ATOM     49  H   UNL A   1      31.693  30.478  25.429  1.00  0.00     0.027 H 
BRANCH  47  50
ATOM     50  C   UNL A   1      31.368  32.217  26.541  1.00  0.00    -0.036 C 
ATOM     51  H   UNL A   1      30.630  32.448  27.280  1.00  0.00     0.028 H 
ATOM     52  H   UNL A   1      31.116  32.543  25.554  1.00  0.00     0.028 H 
BRANCH  50  53
ATOM     53  C   UNL A   1      32.650  32.967  26.910  1.00  0.00     0.018 C 
ATOM     54  H   UNL A   1      33.184  33.195  26.011  1.00  0.00     0.049 H 
ATOM     55  H   UNL A   1      33.218  32.334  27.559  1.00  0.00     0.049 H 
BRANCH  53  56
ATOM     56  N   UNL A   1      32.393  34.206  27.623  1.00  0.00    -0.352 N 
ATOM     57  C   UNL A   1      33.031  34.749  28.715  1.00  0.00     0.251 C 
ATOM     58  H   UNL A   1      31.647  34.743  27.269  1.00  0.00     0.163 HD
ATOM     59  O   UNL A   1      32.558  35.743  29.258  1.00  0.00    -0.269 OA
BRANCH  57  60
ATOM     60  C   UNL A   1      34.270  34.147  29.269  1.00  0.00     0.039 A 
ATOM     61  C   UNL A   1      34.158  33.170  30.263  1.00  0.00    -0.049 A 
ATOM     62  C   UNL A   1      35.540  34.585  28.889  1.00  0.00    -0.049 A 
ATOM     63  C   UNL A   1      35.308  32.606  30.832  1.00  0.00    -0.053 A 
ATOM     64  H   UNL A   1      33.225  32.864  30.579  1.00  0.00     0.063 H 
ATOM     65  C   UNL A   1      36.691  33.972  29.408  1.00  0.00    -0.053 A 
ATOM     66  H   UNL A   1      35.633  35.364  28.219  1.00  0.00     0.063 H 
ATOM     67  C   UNL A   1      36.591  32.979  30.395  1.00  0.00    -0.014 A 
ATOM     68  H   UNL A   1      35.211  31.905  31.584  1.00  0.00     0.063 H 
ATOM     69  H   UNL A   1      37.620  34.255  29.060  1.00  0.00     0.063 H 
BRANCH  67  70
ATOM     70  C   UNL A   1      37.802  32.325  30.980  1.00  0.00     0.031 A 
ATOM     71  C   UNL A   1      38.305  32.677  32.358  1.00  0.00     0.074 A 
ATOM     72  C   UNL A   1      38.467  31.391  30.270  1.00  0.00     0.049 A 
ATOM     73  N   UNL A   1      39.283  32.135  33.046  1.00  0.00    -0.248 NA
ATOM     74  C   UNL A   1      37.644  33.795  33.046  1.00  0.00    -0.034 C 
ATOM     75  C   UNL A   1      38.151  30.990  28.899  1.00  0.00    -0.036 A 
ATOM     76  N   UNL A   1      39.542  30.601  30.606  1.00  0.00    -0.354 N 
ATOM     77  C   UNL A   1      39.355  32.844  34.237  1.00  0.00     0.074 A 
ATOM     78  C   UNL A   1      38.358  33.892  34.159  1.00  0.00    -0.034 C 
ATOM     79  H   UNL A   1      36.833  34.357  32.742  1.00  0.00     0.065 H 
ATOM     80  C   UNL A   1      38.984  30.004  28.526  1.00  0.00    -0.036 A 
ATOM     81  H   UNL A   1      37.408  31.399  28.312  1.00  0.00     0.065 H 
ATOM     82  C   UNL A   1      39.906  29.714  29.622  1.00  0.00     0.049 A 
ATOM     83  H   UNL A   1      40.007  30.665  31.472  1.00  0.00     0.167 HD
ATOM     84  C   UNL A   1      40.155  32.632  35.312  1.00  0.00     0.037 A 
ATOM     85  H   UNL A   1      38.222  34.621  34.875  1.00  0.00     0.065 H 
ATOM     86  H   UNL A   1      38.975  29.527  27.611  1.00  0.00     0.065 H 
ATOM     87  C   UNL A   1      40.859  28.762  29.602  1.00  0.00     0.037 A 
ATOM     88  C   UNL A   1      41.130  31.577  35.421  1.00  0.00     0.049 A 
ATOM     89  C   UNL A   1      41.711  28.522  30.819  1.00  0.00     0.074 A 
ATOM     90  C   UNL A   1      41.918  31.240  36.510  1.00  0.00    -0.036 A 
ATOM     91  N   UNL A   1      41.456  30.692  34.407  1.00  0.00    -0.354 N 
ATOM     92  N   UNL A   1      41.690  29.132  31.978  1.00  0.00    -0.248 NA
ATOM     93  C   UNL A   1      42.710  27.445  30.727  1.00  0.00    -0.034 C 
ATOM     94  C   UNL A   1      42.752  30.179  36.139  1.00  0.00    -0.036 A 
ATOM     95  H   UNL A   1      41.894  31.694  37.437  1.00  0.00     0.065 H 
ATOM     96  C   UNL A   1      42.452  29.825  34.835  1.00  0.00     0.049 A 
ATOM     97  H   UNL A   1      41.044  30.680  33.513  1.00  0.00     0.167 HD
ATOM     98  C   UNL A   1      42.652  28.502  32.758  1.00  0.00     0.074 A 
ATOM     99  C   UNL A   1      43.224  27.448  31.949  1.00  0.00    -0.034 C 
ATOM    100  H   UNL A   1      42.947  26.845  29.923  1.00  0.00     0.065 H 
ATOM    101  H   UNL A   1      43.469  29.737  36.736  1.00  0.00     0.065 H 
ATOM    102  C   UNL A   1      43.023  28.776  34.032  1.00  0.00     0.037 A 
ATOM    103  H   UNL A   1      43.941  26.783  32.280  1.00  0.00     0.065 H 
BRANCH  84 104
ATOM    104  C   UNL A   1      40.002  33.560  36.484  1.00  0.00     0.064 A 
ATOM    105  C   UNL A   1      40.735  34.753  36.575  1.00  0.00     0.173 A 
ATOM    106  C   UNL A   1      39.070  33.283  37.496  1.00  0.00     0.173 A 
ATOM    107  F   UNL A   1      41.640  35.061  35.635  1.00  0.00    -0.203 F 
ATOM    108  C   UNL A   1      40.561  35.620  37.650  1.00  0.00     0.198 A 
ATOM    109  C   UNL A   1      38.879  34.167  38.556  1.00  0.00     0.198 A 
ATOM    110  F   UNL A   1      38.334  32.162  37.451  1.00  0.00    -0.203 F 
ATOM    111  F   UNL A   1      41.301  36.734  37.736  1.00  0.00    -0.200 F 
ATOM    112  C   UNL A   1      39.629  35.330  38.635  1.00  0.00     0.200 A 
ATOM    113  F   UNL A   1      37.967  33.893  39.499  1.00  0.00    -0.200 F 
ATOM    114  F   UNL A   1      39.456  36.173  39.663  1.00  0.00    -0.200 F 
ENDBRANCH  84 104
BRANCH  87 115
ATOM    115  C   UNL A   1      41.035  27.921  28.390  1.00  0.00     0.064 A 
ATOM    116  C   UNL A   1      40.349  26.707  28.249  1.00  0.00     0.173 A 
ATOM    117  C   UNL A   1      41.898  28.310  27.355  1.00  0.00     0.173 A 
ATOM    118  F   UNL A   1      39.532  26.284  29.225  1.00  0.00    -0.203 F 
ATOM    119  C   UNL A   1      40.536  25.902  27.128  1.00  0.00     0.198 A 
ATOM    120  C   UNL A   1      42.062  27.517  26.222  1.00  0.00     0.198 A 
ATOM    121  F   UNL A   1      42.572  29.466  27.442  1.00  0.00    -0.203 F 
ATOM    122  F   UNL A   1      39.903  24.725  27.038  1.00  0.00    -0.200 F 
ATOM    123  C   UNL A   1      41.387  26.310  26.112  1.00  0.00     0.200 A 
ATOM    124  F   UNL A   1      42.877  27.921  25.238  1.00  0.00    -0.200 F 
ATOM    125  F   UNL A   1      41.563  25.538  25.032  1.00  0.00    -0.200 F 
ENDBRANCH  87 115
BRANCH 102 126
ATOM    126  C   UNL A   1      44.087  27.909  34.643  1.00  0.00     0.064 A 
ATOM    127  C   UNL A   1      45.441  28.275  34.617  1.00  0.00     0.173 A 
ATOM    128  C   UNL A   1      43.746  26.707  35.282  1.00  0.00     0.173 A 
ATOM    129  F   UNL A   1      45.822  29.407  34.006  1.00  0.00    -0.203 F 
ATOM    130  C   UNL A   1      46.417  27.456  35.180  1.00  0.00     0.198 A 
ATOM    131  C   UNL A   1      44.721  25.903  35.868  1.00  0.00     0.198 A 
ATOM    132  F   UNL A   1      42.465  26.311  35.341  1.00  0.00    -0.203 F 
ATOM    133  F   UNL A   1      47.709  27.801  35.096  1.00  0.00    -0.200 F 
ATOM    134  C   UNL A   1      46.056  26.273  35.808  1.00  0.00     0.200 A 
ATOM    135  F   UNL A   1      44.369  24.765  36.484  1.00  0.00    -0.200 F 
ATOM    136  F   UNL A   1      46.997  25.486  36.349  1.00  0.00    -0.200 F 
ENDBRANCH 102 126
ENDBRANCH  67  70
ENDBRANCH  57  60
ENDBRANCH  53  56
ENDBRANCH  50  53
ENDBRANCH  47  50
ENDBRANCH   1  47
TORSDOF 19
ENDMDL
MODEL 8
REMARK VINA RESULT:     -11.3      9.400     13.104
REMARK SMILES COc1ccc(C(=O)c2ccccc2)cc1[C@@H](C)C(=O)NCCCCCCNC(=O)c1ccc(-c2c3nc(c(-c4c(F)c(F)c(F)c(F)c4F)c4ccc([nH]4)c(-c4c(F)c(F)c(F)c(F)c4F)c4nc(c(-c5c(F)c(F)c(F)c(F)c5F)c5ccc2[nH]5)C=C4)C=C3)cc1
REMARK SMILES IDX 24 1 23 4 22 7 21 10 19 11 20 12 17 14 16 16 3 17 4 18 5 19
REMARK SMILES IDX 15 21 6 22 2 25 1 26 7 30 8 31 9 32 10 33 14 34 11 35 13 37
REMARK SMILES IDX 12 39 18 43 25 47 26 50 27 53 28 56 29 57 30 59 31 60 32 61
REMARK SMILES IDX 93 62 33 63 92 65 34 67 35 70 36 71 86 72 37 73 91 74 85 75
REMARK SMILES IDX 87 76 38 77 90 78 84 80 83 82 39 84 71 87 51 88 70 89 52 90
REMARK SMILES IDX 55 91 69 92 88 93 53 94 54 96 68 98 89 99 56 102 40 104
REMARK SMILES IDX 41 105 49 106 42 107 43 108 47 109 50 110 44 111 45 112
REMARK SMILES IDX 48 113 46 114 72 115 73 116 81 117 74 118 75 119 79 120
REMARK SMILES IDX 82 121 76 122 77 123 80 124 78 125 57 126 58 127 66 128
REMARK SMILES IDX 59 129 60 130 64 131 67 132 61 133 62 134 65 135 63 136
REMARK H PARENT 24 2 24 3 23 5 23 6 22 8 22 9 21 13 17 15 4 20 5 23 15 24 1 27
REMARK H PARENT 1 28 1 29 10 36 14 38 11 40 13 41 12 42 18 44 18 45 18 46
REMARK H PARENT 25 48 25 49 26 51 26 52 27 54 27 55 28 58 32 64 93 66 33 68
REMARK H PARENT 92 69 91 79 85 81 87 83 90 85 84 86 52 95 55 97 88 100 53 101
REMARK H PARENT 89 103
REMARK Flexibility Score: inf
ROOT
ATOM      1  C   UNL A   1      43.287  41.160  26.056  1.00  0.00    -0.052 C 
ATOM      2  H   UNL A   1      42.849  41.173  25.080  1.00  0.00     0.027 H 
ATOM      3  H   UNL A   1      42.699  41.643  26.808  1.00  0.00     0.027 H 
ENDROOT
BRANCH   1   4
ATOM      4  C   UNL A   1      44.600  41.946  25.992  1.00  0.00    -0.036 C 
ATOM      5  H   UNL A   1      44.401  42.945  26.321  1.00  0.00     0.028 H 
ATOM      6  H   UNL A   1      45.290  41.414  26.614  1.00  0.00     0.028 H 
BRANCH   4   7
ATOM      7  C   UNL A   1      45.258  42.028  24.611  1.00  0.00     0.017 C 
ATOM      8  H   UNL A   1      46.278  41.715  24.693  1.00  0.00     0.049 H 
ATOM      9  H   UNL A   1      44.713  41.392  23.945  1.00  0.00     0.049 H 
BRANCH   7  10
ATOM     10  N   UNL A   1      45.223  43.376  24.070  1.00  0.00    -0.356 N 
ATOM     11  C   UNL A   1      45.272  43.883  22.810  1.00  0.00     0.227 C 
ATOM     12  O   UNL A   1      45.292  45.120  22.734  1.00  0.00    -0.274 OA
ATOM     13  H   UNL A   1      45.151  44.069  24.765  1.00  0.00     0.163 HD
BRANCH  11  14
ATOM     14  C   UNL A   1      45.326  43.050  21.516  1.00  0.00     0.064 C 
ATOM     15  H   UNL A   1      45.296  42.045  21.879  1.00  0.00     0.045 H 
BRANCH  14  16
ATOM     16  C   UNL A   1      44.094  43.225  20.637  1.00  0.00     0.007 A 
ATOM     17  C   UNL A   1      42.808  42.829  21.040  1.00  0.00     0.122 A 
ATOM     18  C   UNL A   1      41.702  43.028  20.206  1.00  0.00    -0.019 A 
ATOM     19  C   UNL A   1      41.860  43.610  18.946  1.00  0.00    -0.047 A 
ATOM     20  H   UNL A   1      40.763  42.742  20.523  1.00  0.00     0.066 H 
ATOM     21  C   UNL A   1      44.226  43.785  19.353  1.00  0.00    -0.043 A 
ATOM     22  C   UNL A   1      43.133  43.962  18.496  1.00  0.00     0.023 A 
ATOM     23  H   UNL A   1      41.036  43.779  18.348  1.00  0.00     0.063 H 
ATOM     24  H   UNL A   1      45.163  44.076  19.031  1.00  0.00     0.064 H 
BRANCH  17  25
ATOM     25  O   UNL A   1      42.584  42.079  22.163  1.00  0.00    -0.496 OA
BRANCH  25  26
ATOM     26  C   UNL A   1      41.591  42.626  23.030  1.00  0.00     0.078 C 
ATOM     27  H   UNL A   1      41.232  41.862  23.688  1.00  0.00     0.067 H 
ATOM     28  H   UNL A   1      40.778  43.005  22.447  1.00  0.00     0.067 H 
ATOM     29  H   UNL A   1      42.017  43.420  23.606  1.00  0.00     0.067 H 
ENDBRANCH  25  26
ENDBRANCH  17  25
BRANCH  22  30
ATOM     30  C   UNL A   1      43.272  44.552  17.134  1.00  0.00     0.193 C 
ATOM     31  O   UNL A   1      43.452  43.805  16.174  1.00  0.00    -0.289 OA
BRANCH  30  32
ATOM     32  C   UNL A   1      43.163  46.009  16.867  1.00  0.00     0.022 A 
ATOM     33  C   UNL A   1      44.311  46.785  17.054  1.00  0.00    -0.051 A 
ATOM     34  C   UNL A   1      41.963  46.630  16.494  1.00  0.00    -0.051 A 
ATOM     35  C   UNL A   1      44.265  48.162  16.847  1.00  0.00    -0.062 A 
ATOM     36  H   UNL A   1      45.193  46.337  17.347  1.00  0.00     0.063 H 
ATOM     37  C   UNL A   1      41.932  48.009  16.259  1.00  0.00    -0.062 A 
ATOM     38  H   UNL A   1      41.102  46.071  16.394  1.00  0.00     0.063 H 
ATOM     39  C   UNL A   1      43.084  48.775  16.436  1.00  0.00    -0.062 A 
ATOM     40  H   UNL A   1      45.112  48.732  17.001  1.00  0.00     0.062 H 
ATOM     41  H   UNL A   1      41.056  48.460  15.954  1.00  0.00     0.062 H 
ATOM     42  H   UNL A   1      43.061  49.791  16.261  1.00  0.00     0.062 H 
ENDBRANCH  30  32
ENDBRANCH  22  30
ENDBRANCH  14  16
BRANCH  14  43
ATOM     43  C   UNL A   1      46.644  43.067  20.747  1.00  0.00    -0.049 C 
ATOM     44  H   UNL A   1      46.681  43.934  20.120  1.00  0.00     0.024 H 
ATOM     45  H   UNL A   1      46.715  42.186  20.143  1.00  0.00     0.024 H 
ATOM     46  H   UNL A   1      47.460  43.091  21.438  1.00  0.00     0.024 H 
ENDBRANCH  14  43
ENDBRANCH  11  14
ENDBRANCH   7  10
ENDBRANCH   4   7
ENDBRANCH   1   4
BRANCH   1  47
ATOM     47  C   UNL A   1      43.397  39.694  26.500  1.00  0.00    -0.052 C 
ATOM     48  H   UNL A   1      44.437  39.453  26.572  1.00  0.00     0.027 H 
ATOM     49  H   UNL A   1      42.861  39.134  25.762  1.00  0.00     0.027 H 
BRANCH  47  50
ATOM     50  C   UNL A   1      42.741  39.332  27.839  1.00  0.00    -0.036 C 
ATOM     51  H   UNL A   1      42.010  38.573  27.652  1.00  0.00     0.028 H 
ATOM     52  H   UNL A   1      42.335  40.245  28.220  1.00  0.00     0.028 H 
BRANCH  50  53
ATOM     53  C   UNL A   1      43.685  38.814  28.928  1.00  0.00     0.018 C 
ATOM     54  H   UNL A   1      43.422  37.801  29.154  1.00  0.00     0.049 H 
ATOM     55  H   UNL A   1      43.575  39.452  29.779  1.00  0.00     0.049 H 
BRANCH  53  56
ATOM     56  N   UNL A   1      45.081  38.852  28.529  1.00  0.00    -0.352 N 
ATOM     57  C   UNL A   1      45.980  37.826  28.351  1.00  0.00     0.251 C 
ATOM     58  H   UNL A   1      45.441  39.753  28.359  1.00  0.00     0.163 HD
ATOM     59  O   UNL A   1      47.163  38.087  28.152  1.00  0.00    -0.269 OA
BRANCH  57  60
ATOM     60  C   UNL A   1      45.557  36.403  28.411  1.00  0.00     0.039 A 
ATOM     61  C   UNL A   1      44.813  35.877  27.351  1.00  0.00    -0.049 A 
ATOM     62  C   UNL A   1      45.808  35.603  29.527  1.00  0.00    -0.049 A 
ATOM     63  C   UNL A   1      44.369  34.548  27.392  1.00  0.00    -0.053 A 
ATOM     64  H   UNL A   1      44.590  36.469  26.536  1.00  0.00     0.063 H 
ATOM     65  C   UNL A   1      45.423  34.253  29.538  1.00  0.00    -0.053 A 
ATOM     66  H   UNL A   1      46.282  36.006  30.350  1.00  0.00     0.063 H 
ATOM     67  C   UNL A   1      44.688  33.709  28.474  1.00  0.00    -0.014 A 
ATOM     68  H   UNL A   1      43.797  34.180  26.615  1.00  0.00     0.063 H 
ATOM     69  H   UNL A   1      45.682  33.656  30.338  1.00  0.00     0.063 H 
BRANCH  67  70
ATOM     70  C   UNL A   1      44.248  32.280  28.469  1.00  0.00     0.031 A 
ATOM     71  C   UNL A   1      42.948  31.850  29.103  1.00  0.00     0.074 A 
ATOM     72  C   UNL A   1      45.021  31.343  27.883  1.00  0.00     0.049 A 
ATOM     73  N   UNL A   1      42.378  30.667  29.102  1.00  0.00    -0.248 NA
ATOM     74  C   UNL A   1      42.200  32.868  29.853  1.00  0.00    -0.034 C 
ATOM     75  C   UNL A   1      46.336  31.584  27.289  1.00  0.00    -0.036 A 
ATOM     76  N   UNL A   1      44.808  29.999  27.679  1.00  0.00    -0.354 N 
ATOM     77  C   UNL A   1      41.216  30.799  29.850  1.00  0.00     0.074 A 
ATOM     78  C   UNL A   1      41.186  32.163  30.335  1.00  0.00    -0.034 C 
ATOM     79  H   UNL A   1      42.410  33.872  29.973  1.00  0.00     0.065 H 
ATOM     80  C   UNL A   1      46.794  30.440  26.755  1.00  0.00    -0.036 A 
ATOM     81  H   UNL A   1      46.832  32.488  27.283  1.00  0.00     0.065 H 
ATOM     82  C   UNL A   1      45.816  29.378  26.982  1.00  0.00     0.049 A 
ATOM     83  H   UNL A   1      44.007  29.526  28.004  1.00  0.00     0.167 HD
ATOM     84  C   UNL A   1      40.245  29.883  30.091  1.00  0.00     0.037 A 
ATOM     85  H   UNL A   1      40.469  32.538  30.975  1.00  0.00     0.065 H 
ATOM     86  H   UNL A   1      47.694  30.329  26.262  1.00  0.00     0.065 H 
ATOM     87  C   UNL A   1      45.940  28.106  26.556  1.00  0.00     0.037 A 
ATOM     88  C   UNL A   1      40.242  28.532  29.591  1.00  0.00     0.049 A 
ATOM     89  C   UNL A   1      44.833  27.117  26.806  1.00  0.00     0.074 A 
ATOM     90  C   UNL A   1      39.254  27.568  29.716  1.00  0.00    -0.036 A 
ATOM     91  N   UNL A   1      41.275  27.949  28.877  1.00  0.00    -0.354 N 
ATOM     92  N   UNL A   1      43.691  27.290  27.421  1.00  0.00    -0.248 NA
ATOM     93  C   UNL A   1      45.032  25.756  26.283  1.00  0.00    -0.034 C 
ATOM     94  C   UNL A   1      39.708  26.389  29.115  1.00  0.00    -0.036 A 
ATOM     95  H   UNL A   1      38.338  27.698  30.174  1.00  0.00     0.065 H 
ATOM     96  C   UNL A   1      40.960  26.631  28.575  1.00  0.00     0.049 A 
ATOM     97  H   UNL A   1      42.111  28.401  28.620  1.00  0.00     0.167 HD
ATOM     98  C   UNL A   1      43.026  26.073  27.340  1.00  0.00     0.074 A 
ATOM     99  C   UNL A   1      43.883  25.174  26.599  1.00  0.00    -0.034 C 
ATOM    100  H   UNL A   1      45.851  25.358  25.798  1.00  0.00     0.065 H 
ATOM    101  H   UNL A   1      39.198  25.492  29.082  1.00  0.00     0.065 H 
ATOM    102  C   UNL A   1      41.812  25.735  27.838  1.00  0.00     0.037 A 
ATOM    103  H   UNL A   1      43.634  24.205  26.347  1.00  0.00     0.065 H 
BRANCH  84 104
ATOM    104  C   UNL A   1      39.077  30.315  30.932  1.00  0.00     0.064 A 
ATOM    105  C   UNL A   1      39.072  30.141  32.324  1.00  0.00     0.173 A 
ATOM    106  C   UNL A   1      37.978  30.964  30.346  1.00  0.00     0.173 A 
ATOM    107  F   UNL A   1      40.097  29.525  32.930  1.00  0.00    -0.203 F 
ATOM    108  C   UNL A   1      37.998  30.575  33.096  1.00  0.00     0.198 A 
ATOM    109  C   UNL A   1      36.918  31.421  31.126  1.00  0.00     0.198 A 
ATOM    110  F   UNL A   1      37.939  31.167  29.021  1.00  0.00    -0.203 F 
ATOM    111  F   UNL A   1      37.997  30.362  34.419  1.00  0.00    -0.200 F 
ATOM    112  C   UNL A   1      36.926  31.221  32.498  1.00  0.00     0.200 A 
ATOM    113  F   UNL A   1      35.890  32.058  30.550  1.00  0.00    -0.200 F 
ATOM    114  F   UNL A   1      35.898  31.647  33.245  1.00  0.00    -0.200 F 
ENDBRANCH  84 104
BRANCH  87 115
ATOM    115  C   UNL A   1      47.152  27.697  25.801  1.00  0.00     0.064 A 
ATOM    116  C   UNL A   1      48.311  27.281  26.470  1.00  0.00     0.173 A 
ATOM    117  C   UNL A   1      47.178  27.723  24.399  1.00  0.00     0.173 A 
ATOM    118  F   UNL A   1      48.339  27.263  27.811  1.00  0.00    -0.203 F 
ATOM    119  C   UNL A   1      49.459  26.926  25.766  1.00  0.00     0.198 A 
ATOM    120  C   UNL A   1      48.318  27.341  23.696  1.00  0.00     0.198 A 
ATOM    121  F   UNL A   1      46.092  28.109  23.714  1.00  0.00    -0.203 F 
ATOM    122  F   UNL A   1      50.568  26.575  26.430  1.00  0.00    -0.200 F 
ATOM    123  C   UNL A   1      49.460  26.951  24.379  1.00  0.00     0.200 A 
ATOM    124  F   UNL A   1      48.311  27.355  22.356  1.00  0.00    -0.200 F 
ATOM    125  F   UNL A   1      50.563  26.605  23.702  1.00  0.00    -0.200 F 
ENDBRANCH  87 115
BRANCH 102 126
ATOM    126  C   UNL A   1      41.323  24.338  27.580  1.00  0.00     0.064 A 
ATOM    127  C   UNL A   1      41.916  23.225  28.197  1.00  0.00     0.173 A 
ATOM    128  C   UNL A   1      40.236  24.110  26.723  1.00  0.00     0.173 A 
ATOM    129  F   UNL A   1      42.967  23.387  29.013  1.00  0.00    -0.203 F 
ATOM    130  C   UNL A   1      41.458  21.935  27.940  1.00  0.00     0.198 A 
ATOM    131  C   UNL A   1      39.763  22.820  26.489  1.00  0.00     0.198 A 
ATOM    132  F   UNL A   1      39.629  25.138  26.111  1.00  0.00    -0.203 F 
ATOM    133  F   UNL A   1      42.074  20.883  28.499  1.00  0.00    -0.200 F 
ATOM    134  C   UNL A   1      40.380  21.733  27.090  1.00  0.00     0.200 A 
ATOM    135  F   UNL A   1      38.715  22.629  25.677  1.00  0.00    -0.200 F 
ATOM    136  F   UNL A   1      39.942  20.491  26.845  1.00  0.00    -0.200 F 
ENDBRANCH 102 126
ENDBRANCH  67  70
ENDBRANCH  57  60
ENDBRANCH  53  56
ENDBRANCH  50  53
ENDBRANCH  47  50
ENDBRANCH   1  47
TORSDOF 19
ENDMDL
MODEL 9
REMARK VINA RESULT:     -11.2      1.947      3.966
REMARK SMILES COc1ccc(C(=O)c2ccccc2)cc1[C@@H](C)C(=O)NCCCCCCNC(=O)c1ccc(-c2c3nc(c(-c4c(F)c(F)c(F)c(F)c4F)c4ccc([nH]4)c(-c4c(F)c(F)c(F)c(F)c4F)c4nc(c(-c5c(F)c(F)c(F)c(F)c5F)c5ccc2[nH]5)C=C4)C=C3)cc1
REMARK SMILES IDX 24 1 23 4 22 7 21 10 19 11 20 12 17 14 16 16 3 17 4 18 5 19
REMARK SMILES IDX 15 21 6 22 2 25 1 26 7 30 8 31 9 32 10 33 14 34 11 35 13 37
REMARK SMILES IDX 12 39 18 43 25 47 26 50 27 53 28 56 29 57 30 59 31 60 32 61
REMARK SMILES IDX 93 62 33 63 92 65 34 67 35 70 36 71 86 72 37 73 91 74 85 75
REMARK SMILES IDX 87 76 38 77 90 78 84 80 83 82 39 84 71 87 51 88 70 89 52 90
REMARK SMILES IDX 55 91 69 92 88 93 53 94 54 96 68 98 89 99 56 102 40 104
REMARK SMILES IDX 41 105 49 106 42 107 43 108 47 109 50 110 44 111 45 112
REMARK SMILES IDX 48 113 46 114 72 115 73 116 81 117 74 118 75 119 79 120
REMARK SMILES IDX 82 121 76 122 77 123 80 124 78 125 57 126 58 127 66 128
REMARK SMILES IDX 59 129 60 130 64 131 67 132 61 133 62 134 65 135 63 136
REMARK H PARENT 24 2 24 3 23 5 23 6 22 8 22 9 21 13 17 15 4 20 5 23 15 24 1 27
REMARK H PARENT 1 28 1 29 10 36 14 38 11 40 13 41 12 42 18 44 18 45 18 46
REMARK H PARENT 25 48 25 49 26 51 26 52 27 54 27 55 28 58 32 64 93 66 33 68
REMARK H PARENT 92 69 91 79 85 81 87 83 90 85 84 86 52 95 55 97 88 100 53 101
REMARK H PARENT 89 103
REMARK Flexibility Score: inf
ROOT
ATOM      1  C   UNL A   1      34.496  32.579  29.115  1.00  0.00    -0.052 C 
ATOM      2  H   UNL A   1      35.277  32.447  29.835  1.00  0.00     0.027 H 
ATOM      3  H   UNL A   1      33.515  32.370  29.487  1.00  0.00     0.027 H 
ENDROOT
BRANCH   1   4
ATOM      4  C   UNL A   1      34.730  31.574  27.983  1.00  0.00    -0.036 C 
ATOM      5  H   UNL A   1      35.208  32.092  27.177  1.00  0.00     0.028 H 
ATOM      6  H   UNL A   1      35.324  30.790  28.406  1.00  0.00     0.028 H 
BRANCH   4   7
ATOM      7  C   UNL A   1      33.474  30.895  27.427  1.00  0.00     0.017 C 
ATOM      8  H   UNL A   1      33.004  30.340  28.212  1.00  0.00     0.049 H 
ATOM      9  H   UNL A   1      32.824  31.657  27.051  1.00  0.00     0.049 H 
BRANCH   7  10
ATOM     10  N   UNL A   1      33.783  29.991  26.333  1.00  0.00    -0.356 N 
ATOM     11  C   UNL A   1      33.160  28.900  25.812  1.00  0.00     0.227 C 
ATOM     12  O   UNL A   1      33.771  28.322  24.902  1.00  0.00    -0.274 OA
ATOM     13  H   UNL A   1      34.624  30.214  25.873  1.00  0.00     0.163 HD
BRANCH  11  14
ATOM     14  C   UNL A   1      31.802  28.343  26.279  1.00  0.00     0.064 C 
ATOM     15  H   UNL A   1      31.131  29.150  26.074  1.00  0.00     0.045 H 
BRANCH  14  16
ATOM     16  C   UNL A   1      31.319  27.163  25.446  1.00  0.00     0.007 A 
ATOM     17  C   UNL A   1      30.662  27.318  24.214  1.00  0.00     0.122 A 
ATOM     18  C   UNL A   1      30.254  26.202  23.473  1.00  0.00    -0.019 A 
ATOM     19  C   UNL A   1      30.476  24.911  23.956  1.00  0.00    -0.047 A 
ATOM     20  H   UNL A   1      29.784  26.335  22.564  1.00  0.00     0.066 H 
ATOM     21  C   UNL A   1      31.507  25.851  25.918  1.00  0.00    -0.043 A 
ATOM     22  C   UNL A   1      31.076  24.727  25.202  1.00  0.00     0.023 A 
ATOM     23  H   UNL A   1      30.197  24.094  23.391  1.00  0.00     0.063 H 
ATOM     24  H   UNL A   1      31.979  25.711  26.826  1.00  0.00     0.064 H 
BRANCH  17  25
ATOM     25  O   UNL A   1      30.228  28.533  23.755  1.00  0.00    -0.496 OA
BRANCH  25  26
ATOM     26  C   UNL A   1      30.880  28.962  22.561  1.00  0.00     0.078 C 
ATOM     27  H   UNL A   1      31.306  29.932  22.715  1.00  0.00     0.067 H 
ATOM     28  H   UNL A   1      30.168  29.009  21.763  1.00  0.00     0.067 H 
ATOM     29  H   UNL A   1      31.655  28.269  22.307  1.00  0.00     0.067 H 
ENDBRANCH  25  26
ENDBRANCH  17  25
BRANCH  22  30
ATOM     30  C   UNL A   1      31.271  23.336  25.703  1.00  0.00     0.193 C 
ATOM     31  O   UNL A   1      30.295  22.699  26.095  1.00  0.00    -0.289 OA
BRANCH  30  32
ATOM     32  C   UNL A   1      32.592  22.658  25.718  1.00  0.00     0.022 A 
ATOM     33  C   UNL A   1      33.303  22.662  26.922  1.00  0.00    -0.051 A 
ATOM     34  C   UNL A   1      33.164  22.074  24.580  1.00  0.00    -0.051 A 
ATOM     35  C   UNL A   1      34.561  22.067  26.992  1.00  0.00    -0.062 A 
ATOM     36  H   UNL A   1      32.896  23.107  27.759  1.00  0.00     0.063 H 
ATOM     37  C   UNL A   1      34.414  21.451  24.666  1.00  0.00    -0.062 A 
ATOM     38  H   UNL A   1      32.663  22.103  23.678  1.00  0.00     0.063 H 
ATOM     39  C   UNL A   1      35.112  21.449  25.872  1.00  0.00    -0.062 A 
ATOM     40  H   UNL A   1      35.088  22.085  27.879  1.00  0.00     0.062 H 
ATOM     41  H   UNL A   1      34.820  20.994  23.834  1.00  0.00     0.062 H 
ATOM     42  H   UNL A   1      36.034  20.989  25.936  1.00  0.00     0.062 H 
ENDBRANCH  30  32
ENDBRANCH  22  30
ENDBRANCH  14  16
BRANCH  14  43
ATOM     43  C   UNL A   1      31.621  28.156  27.782  1.00  0.00    -0.049 C 
ATOM     44  H   UNL A   1      32.126  27.266  28.096  1.00  0.00     0.024 H 
ATOM     45  H   UNL A   1      30.578  28.072  28.007  1.00  0.00     0.024 H 
ATOM     46  H   UNL A   1      32.030  29.000  28.298  1.00  0.00     0.024 H 
ENDBRANCH  14  43
ENDBRANCH  11  14
ENDBRANCH   7  10
ENDBRANCH   4   7
ENDBRANCH   1   4
BRANCH   1  47
ATOM     47  C   UNL A   1      34.476  34.060  28.713  1.00  0.00    -0.052 C 
ATOM     48  H   UNL A   1      34.783  34.124  27.689  1.00  0.00     0.027 H 
ATOM     49  H   UNL A   1      35.128  34.550  29.404  1.00  0.00     0.027 H 
BRANCH  47  50
ATOM     50  C   UNL A   1      33.130  34.787  28.839  1.00  0.00    -0.036 C 
ATOM     51  H   UNL A   1      32.463  34.150  29.381  1.00  0.00     0.028 H 
ATOM     52  H   UNL A   1      32.818  34.995  27.838  1.00  0.00     0.028 H 
BRANCH  50  53
ATOM     53  C   UNL A   1      33.165  36.142  29.552  1.00  0.00     0.018 C 
ATOM     54  H   UNL A   1      32.805  36.891  28.878  1.00  0.00     0.049 H 
ATOM     55  H   UNL A   1      34.178  36.325  29.845  1.00  0.00     0.049 H 
BRANCH  53  56
ATOM     56  N   UNL A   1      32.350  36.168  30.753  1.00  0.00    -0.352 N 
ATOM     57  C   UNL A   1      32.546  35.556  31.971  1.00  0.00     0.251 C 
ATOM     58  H   UNL A   1      31.529  36.708  30.688  1.00  0.00     0.163 HD
ATOM     59  O   UNL A   1      31.653  35.587  32.813  1.00  0.00    -0.269 OA
BRANCH  57  60
ATOM     60  C   UNL A   1      33.808  34.840  32.286  1.00  0.00     0.039 A 
ATOM     61  C   UNL A   1      35.021  35.524  32.155  1.00  0.00    -0.049 A 
ATOM     62  C   UNL A   1      33.826  33.486  32.627  1.00  0.00    -0.049 A 
ATOM     63  C   UNL A   1      36.232  34.868  32.411  1.00  0.00    -0.053 A 
ATOM     64  H   UNL A   1      35.023  36.515  31.868  1.00  0.00     0.063 H 
ATOM     65  C   UNL A   1      35.034  32.848  32.950  1.00  0.00    -0.053 A 
ATOM     66  H   UNL A   1      32.945  32.951  32.643  1.00  0.00     0.063 H 
ATOM     67  C   UNL A   1      36.257  33.528  32.837  1.00  0.00    -0.014 A 
ATOM     68  H   UNL A   1      37.122  35.377  32.285  1.00  0.00     0.063 H 
ATOM     69  H   UNL A   1      35.022  31.869  33.273  1.00  0.00     0.063 H 
BRANCH  67  70
ATOM     70  C   UNL A   1      37.559  32.866  33.155  1.00  0.00     0.031 A 
ATOM     71  C   UNL A   1      38.308  33.164  34.431  1.00  0.00     0.074 A 
ATOM     72  C   UNL A   1      38.087  31.976  32.290  1.00  0.00     0.049 A 
ATOM     73  N   UNL A   1      39.400  32.606  34.899  1.00  0.00    -0.248 NA
ATOM     74  C   UNL A   1      37.779  34.238  35.282  1.00  0.00    -0.034 C 
ATOM     75  C   UNL A   1      37.524  31.633  30.984  1.00  0.00    -0.036 A 
ATOM     76  N   UNL A   1      39.211  31.188  32.383  1.00  0.00    -0.354 N 
ATOM     77  C   UNL A   1      39.688  33.262  36.088  1.00  0.00     0.074 A 
ATOM     78  C   UNL A   1      38.687  34.296  36.246  1.00  0.00    -0.034 C 
ATOM     79  H   UNL A   1      36.922  34.801  35.162  1.00  0.00     0.065 H 
ATOM     80  C   UNL A   1      38.279  30.678  30.417  1.00  0.00    -0.036 A 
ATOM     81  H   UNL A   1      36.682  32.057  30.566  1.00  0.00     0.065 H 
ATOM     82  C   UNL A   1      39.391  30.353  31.308  1.00  0.00     0.049 A 
ATOM     83  H   UNL A   1      39.829  31.221  33.150  1.00  0.00     0.167 HD
ATOM     84  C   UNL A   1      40.676  33.013  36.984  1.00  0.00     0.037 A 
ATOM     85  H   UNL A   1      38.682  34.990  37.009  1.00  0.00     0.065 H 
ATOM     86  H   UNL A   1      38.103  30.244  29.498  1.00  0.00     0.065 H 
ATOM     87  C   UNL A   1      40.331  29.418  31.065  1.00  0.00     0.037 A 
ATOM     88  C   UNL A   1      41.661  31.969  36.860  1.00  0.00     0.049 A 
ATOM     89  C   UNL A   1      41.395  29.137  32.091  1.00  0.00     0.074 A 
ATOM     90  C   UNL A   1      42.641  31.595  37.766  1.00  0.00    -0.036 A 
ATOM     91  N   UNL A   1      41.799  31.137  35.762  1.00  0.00    -0.354 N 
ATOM     92  N   UNL A   1      41.587  29.693  33.260  1.00  0.00    -0.248 NA
ATOM     93  C   UNL A   1      42.367  28.081  31.763  1.00  0.00    -0.034 C 
ATOM     94  C   UNL A   1      43.399  30.565  37.197  1.00  0.00    -0.036 A 
ATOM     95  H   UNL A   1      42.786  32.006  38.702  1.00  0.00     0.065 H 
ATOM     96  C   UNL A   1      42.863  30.267  35.956  1.00  0.00     0.049 A 
ATOM     97  H   UNL A   1      41.228  31.159  34.961  1.00  0.00     0.167 HD
ATOM     98  C   UNL A   1      42.681  29.042  33.817  1.00  0.00     0.074 A 
ATOM     99  C   UNL A   1      43.100  28.035  32.868  1.00  0.00    -0.034 C 
ATOM    100  H   UNL A   1      42.455  27.522  30.901  1.00  0.00     0.065 H 
ATOM    101  H   UNL A   1      44.217  30.108  37.629  1.00  0.00     0.065 H 
ATOM    102  C   UNL A   1      43.281  29.264  35.012  1.00  0.00     0.037 A 
ATOM    103  H   UNL A   1      43.870  27.368  33.027  1.00  0.00     0.065 H 
BRANCH  84 104
ATOM    104  C   UNL A   1      40.738  33.884  38.208  1.00  0.00     0.064 A 
ATOM    105  C   UNL A   1      41.545  35.031  38.250  1.00  0.00     0.173 A 
ATOM    106  C   UNL A   1      39.936  33.603  39.324  1.00  0.00     0.173 A 
ATOM    107  F   UNL A   1      42.331  35.341  37.210  1.00  0.00    -0.203 F 
ATOM    108  C   UNL A   1      41.569  35.848  39.377  1.00  0.00     0.198 A 
ATOM    109  C   UNL A   1      39.942  34.438  40.440  1.00  0.00     0.198 A 
ATOM    110  F   UNL A   1      39.136  32.525  39.330  1.00  0.00    -0.203 F 
ATOM    111  F   UNL A   1      42.379  36.915  39.411  1.00  0.00    -0.200 F 
ATOM    112  C   UNL A   1      40.763  35.555  40.467  1.00  0.00     0.200 A 
ATOM    113  F   UNL A   1      39.152  34.163  41.486  1.00  0.00    -0.200 F 
ATOM    114  F   UNL A   1      40.781  36.350  41.547  1.00  0.00    -0.200 F 
ENDBRANCH  84 104
BRANCH  87 115
ATOM    115  C   UNL A   1      40.284  28.636  29.803  1.00  0.00     0.064 A 
ATOM    116  C   UNL A   1      39.576  27.428  29.730  1.00  0.00     0.173 A 
ATOM    117  C   UNL A   1      40.951  29.075  28.651  1.00  0.00     0.173 A 
ATOM    118  F   UNL A   1      38.942  26.957  30.814  1.00  0.00    -0.203 F 
ATOM    119  C   UNL A   1      39.556  26.678  28.556  1.00  0.00     0.198 A 
ATOM    120  C   UNL A   1      40.907  28.338  27.471  1.00  0.00     0.198 A 
ATOM    121  F   UNL A   1      41.637  30.228  28.671  1.00  0.00    -0.203 F 
ATOM    122  F   UNL A   1      38.910  25.504  28.526  1.00  0.00    -0.200 F 
ATOM    123  C   UNL A   1      40.216  27.136  27.426  1.00  0.00     0.200 A 
ATOM    124  F   UNL A   1      41.536  28.790  26.377  1.00  0.00    -0.200 F 
ATOM    125  F   UNL A   1      40.192  26.416  26.297  1.00  0.00    -0.200 F 
ENDBRANCH  87 115
BRANCH 102 126
ATOM    126  C   UNL A   1      44.447  28.387  35.373  1.00  0.00     0.064 A 
ATOM    127  C   UNL A   1      45.765  28.745  35.055  1.00  0.00     0.173 A 
ATOM    128  C   UNL A   1      44.244  27.183  36.064  1.00  0.00     0.173 A 
ATOM    129  F   UNL A   1      46.012  29.879  34.382  1.00  0.00    -0.203 F 
ATOM    130  C   UNL A   1      46.834  27.916  35.388  1.00  0.00     0.198 A 
ATOM    131  C   UNL A   1      45.317  26.369  36.421  1.00  0.00     0.198 A 
ATOM    132  F   UNL A   1      43.004  26.794  36.398  1.00  0.00    -0.203 F 
ATOM    133  F   UNL A   1      48.080  28.255  35.027  1.00  0.00    -0.200 F 
ATOM    134  C   UNL A   1      46.610  26.732  36.074  1.00  0.00     0.200 A 
ATOM    135  F   UNL A   1      45.100  25.230  37.093  1.00  0.00    -0.200 F 
ATOM    136  F   UNL A   1      47.640  25.936  36.393  1.00  0.00    -0.200 F 
ENDBRANCH 102 126
ENDBRANCH  67  70
ENDBRANCH  57  60
ENDBRANCH  53  56
ENDBRANCH  50  53
ENDBRANCH  47  50
ENDBRANCH   1  47
TORSDOF 19
ENDMDL
MODEL 10
REMARK VINA RESULT:     -11.2      6.019     11.336
REMARK SMILES COc1ccc(C(=O)c2ccccc2)cc1[C@@H](C)C(=O)NCCCCCCNC(=O)c1ccc(-c2c3nc(c(-c4c(F)c(F)c(F)c(F)c4F)c4ccc([nH]4)c(-c4c(F)c(F)c(F)c(F)c4F)c4nc(c(-c5c(F)c(F)c(F)c(F)c5F)c5ccc2[nH]5)C=C4)C=C3)cc1
REMARK SMILES IDX 24 1 23 4 22 7 21 10 19 11 20 12 17 14 16 16 3 17 4 18 5 19
REMARK SMILES IDX 15 21 6 22 2 25 1 26 7 30 8 31 9 32 10 33 14 34 11 35 13 37
REMARK SMILES IDX 12 39 18 43 25 47 26 50 27 53 28 56 29 57 30 59 31 60 32 61
REMARK SMILES IDX 93 62 33 63 92 65 34 67 35 70 36 71 86 72 37 73 91 74 85 75
REMARK SMILES IDX 87 76 38 77 90 78 84 80 83 82 39 84 71 87 51 88 70 89 52 90
REMARK SMILES IDX 55 91 69 92 88 93 53 94 54 96 68 98 89 99 56 102 40 104
REMARK SMILES IDX 41 105 49 106 42 107 43 108 47 109 50 110 44 111 45 112
REMARK SMILES IDX 48 113 46 114 72 115 73 116 81 117 74 118 75 119 79 120
REMARK SMILES IDX 82 121 76 122 77 123 80 124 78 125 57 126 58 127 66 128
REMARK SMILES IDX 59 129 60 130 64 131 67 132 61 133 62 134 65 135 63 136
REMARK H PARENT 24 2 24 3 23 5 23 6 22 8 22 9 21 13 17 15 4 20 5 23 15 24 1 27
REMARK H PARENT 1 28 1 29 10 36 14 38 11 40 13 41 12 42 18 44 18 45 18 46
REMARK H PARENT 25 48 25 49 26 51 26 52 27 54 27 55 28 58 32 64 93 66 33 68
REMARK H PARENT 92 69 91 79 85 81 87 83 90 85 84 86 52 95 55 97 88 100 53 101
REMARK H PARENT 89 103
REMARK Flexibility Score: inf
ROOT
ATOM      1  C   UNL A   1      41.228  21.991  26.613  1.00  0.00    -0.052 C 
ATOM      2  H   UNL A   1      41.938  22.538  27.199  1.00  0.00     0.027 H 
ATOM      3  H   UNL A   1      41.480  21.915  25.576  1.00  0.00     0.027 H 
ENDROOT
BRANCH   1   4
ATOM      4  C   UNL A   1      39.899  22.752  26.660  1.00  0.00    -0.036 C 
ATOM      5  H   UNL A   1      39.678  22.965  27.686  1.00  0.00     0.028 H 
ATOM      6  H   UNL A   1      40.041  23.625  26.057  1.00  0.00     0.028 H 
BRANCH   4   7
ATOM      7  C   UNL A   1      38.694  22.020  26.061  1.00  0.00     0.017 C 
ATOM      8  H   UNL A   1      38.792  22.003  24.996  1.00  0.00     0.049 H 
ATOM      9  H   UNL A   1      38.675  21.028  26.462  1.00  0.00     0.049 H 
BRANCH   7  10
ATOM     10  N   UNL A   1      37.439  22.666  26.406  1.00  0.00    -0.356 N 
ATOM     11  C   UNL A   1      36.273  22.868  25.737  1.00  0.00     0.227 C 
ATOM     12  O   UNL A   1      35.424  23.541  26.339  1.00  0.00    -0.274 OA
ATOM     13  H   UNL A   1      37.433  23.037  27.317  1.00  0.00     0.163 HD
BRANCH  11  14
ATOM     14  C   UNL A   1      35.958  22.353  24.320  1.00  0.00     0.064 C 
ATOM     15  H   UNL A   1      35.992  21.291  24.440  1.00  0.00     0.045 H 
BRANCH  14  16
ATOM     16  C   UNL A   1      34.545  22.687  23.859  1.00  0.00     0.007 A 
ATOM     17  C   UNL A   1      33.444  21.852  24.112  1.00  0.00     0.122 A 
ATOM     18  C   UNL A   1      32.159  22.211  23.686  1.00  0.00    -0.019 A 
ATOM     19  C   UNL A   1      31.952  23.400  22.984  1.00  0.00    -0.047 A 
ATOM     20  H   UNL A   1      31.360  21.592  23.892  1.00  0.00     0.066 H 
ATOM     21  C   UNL A   1      34.309  23.865  23.128  1.00  0.00    -0.043 A 
ATOM     22  C   UNL A   1      33.035  24.222  22.669  1.00  0.00     0.023 A 
ATOM     23  H   UNL A   1      30.998  23.670  22.698  1.00  0.00     0.063 H 
ATOM     24  H   UNL A   1      35.105  24.491  22.922  1.00  0.00     0.064 H 
BRANCH  17  25
ATOM     25  O   UNL A   1      33.576  20.586  24.616  1.00  0.00    -0.496 OA
BRANCH  25  26
ATOM     26  C   UNL A   1      32.527  19.700  24.226  1.00  0.00     0.078 C 
ATOM     27  H   UNL A   1      31.892  20.190  23.516  1.00  0.00     0.067 H 
ATOM     28  H   UNL A   1      31.954  19.425  25.086  1.00  0.00     0.067 H 
ATOM     29  H   UNL A   1      32.948  18.823  23.781  1.00  0.00     0.067 H 
ENDBRANCH  25  26
ENDBRANCH  17  25
BRANCH  22  30
ATOM     30  C   UNL A   1      32.784  25.468  21.891  1.00  0.00     0.193 C 
ATOM     31  O   UNL A   1      33.034  25.483  20.688  1.00  0.00    -0.289 OA
BRANCH  30  32
ATOM     32  C   UNL A   1      32.205  26.696  22.493  1.00  0.00     0.022 A 
ATOM     33  C   UNL A   1      33.096  27.654  22.984  1.00  0.00    -0.051 A 
ATOM     34  C   UNL A   1      30.825  26.901  22.633  1.00  0.00    -0.051 A 
ATOM     35  C   UNL A   1      32.614  28.815  23.586  1.00  0.00    -0.062 A 
ATOM     36  H   UNL A   1      34.113  27.502  22.901  1.00  0.00     0.063 H 
ATOM     37  C   UNL A   1      30.348  28.083  23.211  1.00  0.00    -0.062 A 
ATOM     38  H   UNL A   1      30.161  26.180  22.311  1.00  0.00     0.063 H 
ATOM     39  C   UNL A   1      31.243  29.039  23.687  1.00  0.00    -0.062 A 
ATOM     40  H   UNL A   1      33.276  29.512  23.959  1.00  0.00     0.062 H 
ATOM     41  H   UNL A   1      29.332  28.246  23.285  1.00  0.00     0.062 H 
ATOM     42  H   UNL A   1      30.891  29.911  24.112  1.00  0.00     0.062 H 
ENDBRANCH  30  32
ENDBRANCH  22  30
ENDBRANCH  14  16
BRANCH  14  43
ATOM     43  C   UNL A   1      37.028  22.582  23.256  1.00  0.00    -0.049 C 
ATOM     44  H   UNL A   1      36.729  23.387  22.617  1.00  0.00     0.024 H 
ATOM     45  H   UNL A   1      37.150  21.692  22.676  1.00  0.00     0.024 H 
ATOM     46  H   UNL A   1      37.955  22.828  23.730  1.00  0.00     0.024 H 
ENDBRANCH  14  43
ENDBRANCH  11  14
ENDBRANCH   7  10
ENDBRANCH   4   7
ENDBRANCH   1   4
BRANCH   1  47
ATOM     47  C   UNL A   1      41.202  20.548  27.137  1.00  0.00    -0.052 C 
ATOM     48  H   UNL A   1      40.216  20.355  27.508  1.00  0.00     0.027 H 
ATOM     49  H   UNL A   1      41.972  20.502  27.877  1.00  0.00     0.027 H 
BRANCH  47  50
ATOM     50  C   UNL A   1      41.543  19.446  26.126  1.00  0.00    -0.036 C 
ATOM     51  H   UNL A   1      41.459  19.863  25.144  1.00  0.00     0.028 H 
ATOM     52  H   UNL A   1      40.856  18.650  26.322  1.00  0.00     0.028 H 
BRANCH  50  53
ATOM     53  C   UNL A   1      42.938  18.828  26.254  1.00  0.00     0.018 C 
ATOM     54  H   UNL A   1      42.839  17.844  26.662  1.00  0.00     0.049 H 
ATOM     55  H   UNL A   1      43.515  19.466  26.890  1.00  0.00     0.049 H 
BRANCH  53  56
ATOM     56  N   UNL A   1      43.632  18.735  24.981  1.00  0.00    -0.352 N 
ATOM     57  C   UNL A   1      44.305  19.700  24.267  1.00  0.00     0.251 C 
ATOM     58  H   UNL A   1      43.620  17.843  24.565  1.00  0.00     0.163 HD
ATOM     59  O   UNL A   1      44.699  19.447  23.132  1.00  0.00    -0.269 OA
BRANCH  57  60
ATOM     60  C   UNL A   1      44.551  21.053  24.829  1.00  0.00     0.039 A 
ATOM     61  C   UNL A   1      44.120  22.170  24.107  1.00  0.00    -0.049 A 
ATOM     62  C   UNL A   1      45.269  21.245  26.010  1.00  0.00    -0.049 A 
ATOM     63  C   UNL A   1      44.366  23.462  24.592  1.00  0.00    -0.053 A 
ATOM     64  H   UNL A   1      43.619  22.043  23.214  1.00  0.00     0.063 H 
ATOM     65  C   UNL A   1      45.456  22.535  26.530  1.00  0.00    -0.053 A 
ATOM     66  H   UNL A   1      45.665  20.431  26.506  1.00  0.00     0.063 H 
ATOM     67  C   UNL A   1      45.014  23.664  25.823  1.00  0.00    -0.014 A 
ATOM     68  H   UNL A   1      44.066  24.278  24.035  1.00  0.00     0.063 H 
ATOM     69  H   UNL A   1      45.923  22.654  27.443  1.00  0.00     0.063 H 
BRANCH  67  70
ATOM     70  C   UNL A   1      45.218  25.051  26.344  1.00  0.00     0.031 A 
ATOM     71  C   UNL A   1      46.560  25.736  26.269  1.00  0.00     0.074 A 
ATOM     72  C   UNL A   1      44.183  25.718  26.893  1.00  0.00     0.049 A 
ATOM     73  N   UNL A   1      46.879  26.968  26.589  1.00  0.00    -0.248 NA
ATOM     74  C   UNL A   1      47.696  24.933  25.795  1.00  0.00    -0.034 C 
ATOM     75  C   UNL A   1      42.842  25.171  27.104  1.00  0.00    -0.036 A 
ATOM     76  N   UNL A   1      44.092  27.007  27.366  1.00  0.00    -0.354 N 
ATOM     77  C   UNL A   1      48.244  27.084  26.361  1.00  0.00     0.074 A 
ATOM     78  C   UNL A   1      48.705  25.782  25.926  1.00  0.00    -0.034 C 
ATOM     79  H   UNL A   1      47.705  23.961  25.449  1.00  0.00     0.065 H 
ATOM     80  C   UNL A   1      42.054  26.126  27.624  1.00  0.00    -0.036 A 
ATOM     81  H   UNL A   1      42.550  24.206  26.888  1.00  0.00     0.065 H 
ATOM     82  C   UNL A   1      42.835  27.348  27.803  1.00  0.00     0.049 A 
ATOM     83  H   UNL A   1      44.857  27.627  27.389  1.00  0.00     0.167 HD
ATOM     84  C   UNL A   1      49.040  28.176  26.475  1.00  0.00     0.037 A 
ATOM     85  H   UNL A   1      49.692  25.545  25.743  1.00  0.00     0.065 H 
ATOM     86  H   UNL A   1      41.056  26.014  27.861  1.00  0.00     0.065 H 
ATOM     87  C   UNL A   1      42.353  28.513  28.279  1.00  0.00     0.037 A 
ATOM     88  C   UNL A   1      48.594  29.487  26.876  1.00  0.00     0.049 A 
ATOM     89  C   UNL A   1      43.248  29.720  28.363  1.00  0.00     0.074 A 
ATOM     90  C   UNL A   1      49.320  30.666  26.931  1.00  0.00    -0.036 A 
ATOM     91  N   UNL A   1      47.310  29.791  27.296  1.00  0.00    -0.354 N 
ATOM     92  N   UNL A   1      44.511  29.839  28.038  1.00  0.00    -0.248 NA
ATOM     93  C   UNL A   1      42.639  30.962  28.865  1.00  0.00    -0.034 C 
ATOM     94  C   UNL A   1      48.486  31.675  27.426  1.00  0.00    -0.036 A 
ATOM     95  H   UNL A   1      50.307  30.780  26.653  1.00  0.00     0.065 H 
ATOM     96  C   UNL A   1      47.228  31.135  27.636  1.00  0.00     0.049 A 
ATOM     97  H   UNL A   1      46.565  29.151  27.347  1.00  0.00     0.167 HD
ATOM     98  C   UNL A   1      44.841  31.168  28.274  1.00  0.00     0.074 A 
ATOM     99  C   UNL A   1      43.642  31.822  28.750  1.00  0.00    -0.034 C 
ATOM    100  H   UNL A   1      41.682  31.122  29.215  1.00  0.00     0.065 H 
ATOM    101  H   UNL A   1      48.762  32.653  27.605  1.00  0.00     0.065 H 
ATOM    102  C   UNL A   1      46.036  31.787  28.110  1.00  0.00     0.037 A 
ATOM    103  H   UNL A   1      43.574  32.828  28.971  1.00  0.00     0.065 H 
BRANCH  84 104
ATOM    104  C   UNL A   1      50.497  28.011  26.143  1.00  0.00     0.064 A 
ATOM    105  C   UNL A   1      50.956  28.063  24.818  1.00  0.00     0.173 A 
ATOM    106  C   UNL A   1      51.448  27.859  27.163  1.00  0.00     0.173 A 
ATOM    107  F   UNL A   1      50.087  28.204  23.808  1.00  0.00    -0.203 F 
ATOM    108  C   UNL A   1      52.312  27.941  24.526  1.00  0.00     0.198 A 
ATOM    109  C   UNL A   1      52.806  27.765  26.868  1.00  0.00     0.198 A 
ATOM    110  F   UNL A   1      51.062  27.815  28.448  1.00  0.00    -0.203 F 
ATOM    111  F   UNL A   1      52.724  27.953  23.250  1.00  0.00    -0.200 F 
ATOM    112  C   UNL A   1      53.236  27.799  25.550  1.00  0.00     0.200 A 
ATOM    113  F   UNL A   1      53.699  27.643  27.859  1.00  0.00    -0.200 F 
ATOM    114  F   UNL A   1      54.541  27.693  25.266  1.00  0.00    -0.200 F 
ENDBRANCH  84 104
BRANCH  87 115
ATOM    115  C   UNL A   1      40.926  28.612  28.678  1.00  0.00     0.064 A 
ATOM    116  C   UNL A   1      39.947  29.013  27.757  1.00  0.00     0.173 A 
ATOM    117  C   UNL A   1      40.514  28.318  29.985  1.00  0.00     0.173 A 
ATOM    118  F   UNL A   1      40.298  29.328  26.502  1.00  0.00    -0.203 F 
ATOM    119  C   UNL A   1      38.612  29.137  28.136  1.00  0.00     0.198 A 
ATOM    120  C   UNL A   1      39.175  28.415  30.355  1.00  0.00     0.198 A 
ATOM    121  F   UNL A   1      41.413  27.925  30.899  1.00  0.00    -0.203 F 
ATOM    122  F   UNL A   1      37.703  29.565  27.250  1.00  0.00    -0.200 F 
ATOM    123  C   UNL A   1      38.227  28.832  29.433  1.00  0.00     0.200 A 
ATOM    124  F   UNL A   1      38.805  28.108  31.605  1.00  0.00    -0.200 F 
ATOM    125  F   UNL A   1      36.942  28.946  29.796  1.00  0.00    -0.200 F 
ENDBRANCH  87 115
BRANCH 102 126
ATOM    126  C   UNL A   1      46.103  33.255  28.425  1.00  0.00     0.064 A 
ATOM    127  C   UNL A   1      46.446  33.718  29.704  1.00  0.00     0.173 A 
ATOM    128  C   UNL A   1      45.842  34.209  27.430  1.00  0.00     0.173 A 
ATOM    129  F   UNL A   1      46.690  32.847  30.694  1.00  0.00    -0.203 F 
ATOM    130  C   UNL A   1      46.494  35.082  29.984  1.00  0.00     0.198 A 
ATOM    131  C   UNL A   1      45.918  35.573  27.706  1.00  0.00     0.198 A 
ATOM    132  F   UNL A   1      45.515  33.822  26.188  1.00  0.00    -0.203 F 
ATOM    133  F   UNL A   1      46.773  35.500  31.227  1.00  0.00    -0.200 F 
ATOM    134  C   UNL A   1      46.235  36.008  28.984  1.00  0.00     0.200 A 
ATOM    135  F   UNL A   1      45.678  36.466  26.736  1.00  0.00    -0.200 F 
ATOM    136  F   UNL A   1      46.282  37.320  29.255  1.00  0.00    -0.200 F 
ENDBRANCH 102 126
ENDBRANCH  67  70
ENDBRANCH  57  60
ENDBRANCH  53  56
ENDBRANCH  50  53
ENDBRANCH  47  50
ENDBRANCH   1  47
TORSDOF 19
ENDMDL
