MODEL 1
REMARK VINA RESULT:     -11.8      0.000      0.000
REMARK SMILES O=C(Cc1ccn(C(F)F)c(=O)c1)NCCCCCCNC(=O)c1ccc(-c2c3nc(c(-c4c(F)c(F)c(F)c(F)c4F)c4ccc([nH]4)c(-c4c(F)c(F)c(F)c(F)c4F)c4nc(c(-c5c(F)c(F)c(F)c(F)c5F)c5ccc2[nH]5)C=C4)C=C3)cc1
REMARK SMILES IDX 17 1 16 4 15 7 14 10 1 11 2 12 3 14 4 17 5 18 13 19 6 20
REMARK SMILES IDX 11 22 7 24 12 26 8 27 9 28 10 29 18 31 19 34 20 37 21 40
REMARK SMILES IDX 22 41 23 43 24 44 25 45 86 46 26 47 85 49 27 51 28 54 29 55
REMARK SMILES IDX 79 56 30 57 84 58 78 59 80 60 31 61 83 62 77 64 76 66 32 68
REMARK SMILES IDX 64 71 44 72 63 73 45 74 48 75 62 76 81 77 46 78 47 80 61 82
REMARK SMILES IDX 82 83 49 86 33 88 34 89 42 90 35 91 36 92 40 93 43 94 37 95
REMARK SMILES IDX 38 96 41 97 39 98 65 99 66 100 74 101 67 102 68 103 72 104
REMARK SMILES IDX 75 105 69 106 70 107 73 108 71 109 50 110 51 111 59 112
REMARK SMILES IDX 52 113 53 114 57 115 60 116 54 117 55 118 58 119 56 120
REMARK H PARENT 17 2 17 3 16 5 16 6 15 8 15 9 14 13 3 15 3 16 5 21 13 23 6 25
REMARK H PARENT 8 30 18 32 18 33 19 35 19 36 20 38 20 39 21 42 25 48 86 50
REMARK H PARENT 26 52 85 53 84 63 78 65 80 67 83 69 77 70 45 79 48 81 81 84
REMARK H PARENT 46 85 82 87
REMARK Flexibility Score: inf
ROOT
ATOM      1  C   UNL A   1      32.627  29.982  25.624  1.00  0.00    -0.052 C 
ATOM      2  H   UNL A   1      31.989  29.661  24.827  1.00  0.00     0.027 H 
ATOM      3  H   UNL A   1      33.255  30.811  25.371  1.00  0.00     0.027 H 
ENDROOT
BRANCH   1   4
ATOM      4  C   UNL A   1      33.576  28.825  25.963  1.00  0.00    -0.036 C 
ATOM      5  H   UNL A   1      34.232  28.679  25.132  1.00  0.00     0.028 H 
ATOM      6  H   UNL A   1      34.086  29.108  26.861  1.00  0.00     0.028 H 
BRANCH   4   7
ATOM      7  C   UNL A   1      32.888  27.496  26.264  1.00  0.00     0.017 C 
ATOM      8  H   UNL A   1      33.605  26.706  26.176  1.00  0.00     0.049 H 
ATOM      9  H   UNL A   1      32.489  27.544  27.256  1.00  0.00     0.049 H 
BRANCH   7  10
ATOM     10  N   UNL A   1      31.795  27.239  25.350  1.00  0.00    -0.356 N 
ATOM     11  O   UNL A   1      33.013  26.008  23.840  1.00  0.00    -0.275 OA
ATOM     12  C   UNL A   1      31.948  26.503  24.197  1.00  0.00     0.224 C 
ATOM     13  H   UNL A   1      30.906  27.607  25.562  1.00  0.00     0.163 HD
BRANCH  12  14
ATOM     14  C   UNL A   1      30.658  26.330  23.401  1.00  0.00     0.052 C 
ATOM     15  H   UNL A   1      29.996  25.719  23.979  1.00  0.00     0.042 H 
ATOM     16  H   UNL A   1      30.950  25.894  22.468  1.00  0.00     0.042 H 
BRANCH  14  17
ATOM     17  C   UNL A   1      29.924  27.603  23.046  1.00  0.00    -0.032 A 
ATOM     18  C   UNL A   1      30.598  28.728  22.425  1.00  0.00    -0.042 A 
ATOM     19  C   UNL A   1      28.611  27.712  23.316  1.00  0.00     0.007 A 
ATOM     20  C   UNL A   1      29.921  29.840  22.112  1.00  0.00     0.013 A 
ATOM     21  H   UNL A   1      31.609  28.671  22.222  1.00  0.00     0.064 H 
ATOM     22  C   UNL A   1      27.848  28.951  22.999  1.00  0.00     0.255 A 
ATOM     23  H   UNL A   1      28.120  26.917  23.754  1.00  0.00     0.068 H 
ATOM     24  N   UNL A   1      28.572  29.959  22.385  1.00  0.00    -0.258 N 
ATOM     25  H   UNL A   1      30.416  30.624  21.660  1.00  0.00     0.082 H 
ATOM     26  O   UNL A   1      26.657  28.996  23.291  1.00  0.00    -0.269 OA
BRANCH  24  27
ATOM     27  C   UNL A   1      27.871  31.183  22.092  1.00  0.00     0.321 C 
ATOM     28  F   UNL A   1      27.640  31.900  23.218  1.00  0.00    -0.185 F 
ATOM     29  F   UNL A   1      28.585  31.956  21.240  1.00  0.00    -0.185 F 
ATOM     30  H   UNL A   1      26.939  30.906  21.645  1.00  0.00     0.131 H 
ENDBRANCH  24  27
ENDBRANCH  14  17
ENDBRANCH  12  14
ENDBRANCH   7  10
ENDBRANCH   4   7
ENDBRANCH   1   4
BRANCH   1  31
ATOM     31  C   UNL A   1      31.737  30.468  26.772  1.00  0.00    -0.052 C 
ATOM     32  H   UNL A   1      32.195  30.171  27.693  1.00  0.00     0.027 H 
ATOM     33  H   UNL A   1      30.777  30.025  26.608  1.00  0.00     0.027 H 
BRANCH  31  34
ATOM     34  C   UNL A   1      31.501  31.977  26.827  1.00  0.00    -0.036 C 
ATOM     35  H   UNL A   1      30.731  32.165  27.545  1.00  0.00     0.028 H 
ATOM     36  H   UNL A   1      31.240  32.273  25.832  1.00  0.00     0.028 H 
BRANCH  34  37
ATOM     37  C   UNL A   1      32.719  32.811  27.210  1.00  0.00     0.018 C 
ATOM     38  H   UNL A   1      33.369  32.872  26.361  1.00  0.00     0.049 H 
ATOM     39  H   UNL A   1      33.188  32.326  28.040  1.00  0.00     0.049 H 
BRANCH  37  40
ATOM     40  N   UNL A   1      32.381  34.161  27.632  1.00  0.00    -0.352 N 
ATOM     41  C   UNL A   1      32.966  34.940  28.604  1.00  0.00     0.251 C 
ATOM     42  H   UNL A   1      31.629  34.578  27.154  1.00  0.00     0.163 HD
ATOM     43  O   UNL A   1      32.473  36.022  28.910  1.00  0.00    -0.269 OA
BRANCH  41  44
ATOM     44  C   UNL A   1      34.169  34.451  29.315  1.00  0.00     0.039 A 
ATOM     45  C   UNL A   1      35.447  34.680  28.801  1.00  0.00    -0.049 A 
ATOM     46  C   UNL A   1      34.012  33.732  30.504  1.00  0.00    -0.049 A 
ATOM     47  C   UNL A   1      36.544  34.048  29.376  1.00  0.00    -0.053 A 
ATOM     48  H   UNL A   1      35.576  35.316  27.998  1.00  0.00     0.063 H 
ATOM     49  C   UNL A   1      35.129  33.170  31.130  1.00  0.00    -0.053 A 
ATOM     50  H   UNL A   1      33.074  33.617  30.919  1.00  0.00     0.063 H 
ATOM     51  C   UNL A   1      36.398  33.280  30.542  1.00  0.00    -0.014 A 
ATOM     52  H   UNL A   1      37.474  34.145  28.940  1.00  0.00     0.063 H 
ATOM     53  H   UNL A   1      35.019  32.671  32.027  1.00  0.00     0.063 H 
BRANCH  51  54
ATOM     54  C   UNL A   1      37.591  32.605  31.121  1.00  0.00     0.031 A 
ATOM     55  C   UNL A   1      38.073  32.941  32.506  1.00  0.00     0.074 A 
ATOM     56  C   UNL A   1      38.197  31.632  30.416  1.00  0.00     0.049 A 
ATOM     57  N   UNL A   1      39.054  32.407  33.190  1.00  0.00    -0.248 NA
ATOM     58  C   UNL A   1      37.367  34.018  33.219  1.00  0.00    -0.034 C 
ATOM     59  C   UNL A   1      37.820  31.214  29.065  1.00  0.00    -0.036 A 
ATOM     60  N   UNL A   1      39.234  30.794  30.745  1.00  0.00    -0.354 N 
ATOM     61  C   UNL A   1      39.091  33.085  34.401  1.00  0.00     0.074 A 
ATOM     62  C   UNL A   1      38.056  34.095  34.350  1.00  0.00    -0.034 C 
ATOM     63  H   UNL A   1      36.549  34.569  32.918  1.00  0.00     0.065 H 
ATOM     64  C   UNL A   1      38.567  30.160  28.707  1.00  0.00    -0.036 A 
ATOM     65  H   UNL A   1      37.093  31.659  28.482  1.00  0.00     0.065 H 
ATOM     66  C   UNL A   1      39.515  29.864  29.775  1.00  0.00     0.049 A 
ATOM     67  H   UNL A   1      39.727  30.856  31.594  1.00  0.00     0.167 HD
ATOM     68  C   UNL A   1      39.904  32.874  35.464  1.00  0.00     0.037 A 
ATOM     69  H   UNL A   1      37.877  34.785  35.096  1.00  0.00     0.065 H 
ATOM     70  H   UNL A   1      38.484  29.642  27.817  1.00  0.00     0.065 H 
ATOM     71  C   UNL A   1      40.436  28.882  29.745  1.00  0.00     0.037 A 
ATOM     72  C   UNL A   1      40.917  31.853  35.523  1.00  0.00     0.049 A 
ATOM     73  C   UNL A   1      41.348  28.694  30.924  1.00  0.00     0.074 A 
ATOM     74  C   UNL A   1      41.772  31.548  36.568  1.00  0.00    -0.036 A 
ATOM     75  N   UNL A   1      41.213  30.971  34.494  1.00  0.00    -0.354 N 
ATOM     76  N   UNL A   1      41.360  29.333  32.068  1.00  0.00    -0.248 NA
ATOM     77  C   UNL A   1      42.382  27.657  30.804  1.00  0.00    -0.034 C 
ATOM     78  C   UNL A   1      42.612  30.509  36.158  1.00  0.00    -0.036 A 
ATOM     79  H   UNL A   1      41.786  32.007  37.492  1.00  0.00     0.065 H 
ATOM     80  C   UNL A   1      42.252  30.136  34.872  1.00  0.00     0.049 A 
ATOM     81  H   UNL A   1      40.754  30.944  33.624  1.00  0.00     0.167 HD
ATOM     82  C   UNL A   1      42.390  28.770  32.807  1.00  0.00     0.074 A 
ATOM     83  C   UNL A   1      42.970  27.725  31.990  1.00  0.00    -0.034 C 
ATOM     84  H   UNL A   1      42.594  27.037  30.005  1.00  0.00     0.065 H 
ATOM     85  H   UNL A   1      43.372  30.090  36.717  1.00  0.00     0.065 H 
ATOM     86  C   UNL A   1      42.818  29.098  34.050  1.00  0.00     0.037 A 
ATOM     87  H   UNL A   1      43.742  27.110  32.293  1.00  0.00     0.065 H 
BRANCH  68  88
ATOM     88  C   UNL A   1      39.738  33.763  36.662  1.00  0.00     0.064 A 
ATOM     89  C   UNL A   1      40.346  35.024  36.729  1.00  0.00     0.173 A 
ATOM     90  C   UNL A   1      38.898  33.382  37.720  1.00  0.00     0.173 A 
ATOM     91  F   UNL A   1      41.166  35.431  35.748  1.00  0.00    -0.203 F 
ATOM     92  C   UNL A   1      40.134  35.865  37.818  1.00  0.00     0.198 A 
ATOM     93  C   UNL A   1      38.667  34.237  38.795  1.00  0.00     0.198 A 
ATOM     94  F   UNL A   1      38.285  32.190  37.702  1.00  0.00    -0.203 F 
ATOM     95  F   UNL A   1      40.752  37.054  37.875  1.00  0.00    -0.200 F 
ATOM     96  C   UNL A   1      39.288  35.475  38.846  1.00  0.00     0.200 A 
ATOM     97  F   UNL A   1      37.839  33.864  39.781  1.00  0.00    -0.200 F 
ATOM     98  F   UNL A   1      39.073  36.294  39.884  1.00  0.00    -0.200 F 
ENDBRANCH  68  88
BRANCH  71  99
ATOM     99  C   UNL A   1      40.517  27.994  28.559  1.00  0.00     0.064 A 
ATOM    100  C   UNL A   1      41.286  28.354  27.444  1.00  0.00     0.173 A 
ATOM    101  C   UNL A   1      39.867  26.751  28.531  1.00  0.00     0.173 A 
ATOM    102  F   UNL A   1      41.911  29.541  27.417  1.00  0.00    -0.203 F 
ATOM    103  C   UNL A   1      41.400  27.505  26.345  1.00  0.00     0.198 A 
ATOM    104  C   UNL A   1      40.004  25.892  27.444  1.00  0.00     0.198 A 
ATOM    105  F   UNL A   1      39.123  26.361  29.576  1.00  0.00    -0.203 F 
ATOM    106  F   UNL A   1      42.121  27.883  25.282  1.00  0.00    -0.200 F 
ATOM    107  C   UNL A   1      40.767  26.270  26.350  1.00  0.00     0.200 A 
ATOM    108  F   UNL A   1      39.404  24.693  27.461  1.00  0.00    -0.200 F 
ATOM    109  F   UNL A   1      40.892  25.447  25.302  1.00  0.00    -0.200 F 
ENDBRANCH  71  99
BRANCH  86 110
ATOM    110  C   UNL A   1      43.964  28.315  34.618  1.00  0.00     0.064 A 
ATOM    111  C   UNL A   1      43.755  27.108  35.301  1.00  0.00     0.173 A 
ATOM    112  C   UNL A   1      45.286  28.735  34.409  1.00  0.00     0.173 A 
ATOM    113  F   UNL A   1      42.508  26.673  35.536  1.00  0.00    -0.203 F 
ATOM    114  C   UNL A   1      44.829  26.354  35.761  1.00  0.00     0.198 A 
ATOM    115  C   UNL A   1      46.359  27.965  34.850  1.00  0.00     0.198 A 
ATOM    116  F   UNL A   1      45.537  29.879  33.756  1.00  0.00    -0.203 F 
ATOM    117  F   UNL A   1      44.607  25.216  36.435  1.00  0.00    -0.200 F 
ATOM    118  C   UNL A   1      46.130  26.777  35.527  1.00  0.00     0.200 A 
ATOM    119  F   UNL A   1      47.615  28.369  34.611  1.00  0.00    -0.200 F 
ATOM    120  F   UNL A   1      47.163  26.040  35.957  1.00  0.00    -0.200 F 
ENDBRANCH  86 110
ENDBRANCH  51  54
ENDBRANCH  41  44
ENDBRANCH  37  40
ENDBRANCH  34  37
ENDBRANCH  31  34
ENDBRANCH   1  31
TORSDOF 15
ENDMDL
MODEL 2
REMARK VINA RESULT:     -11.7      0.667      7.545
REMARK SMILES O=C(Cc1ccn(C(F)F)c(=O)c1)NCCCCCCNC(=O)c1ccc(-c2c3nc(c(-c4c(F)c(F)c(F)c(F)c4F)c4ccc([nH]4)c(-c4c(F)c(F)c(F)c(F)c4F)c4nc(c(-c5c(F)c(F)c(F)c(F)c5F)c5ccc2[nH]5)C=C4)C=C3)cc1
REMARK SMILES IDX 17 1 16 4 15 7 14 10 1 11 2 12 3 14 4 17 5 18 13 19 6 20
REMARK SMILES IDX 11 22 7 24 12 26 8 27 9 28 10 29 18 31 19 34 20 37 21 40
REMARK SMILES IDX 22 41 23 43 24 44 25 45 86 46 26 47 85 49 27 51 28 54 29 55
REMARK SMILES IDX 79 56 30 57 84 58 78 59 80 60 31 61 83 62 77 64 76 66 32 68
REMARK SMILES IDX 64 71 44 72 63 73 45 74 48 75 62 76 81 77 46 78 47 80 61 82
REMARK SMILES IDX 82 83 49 86 33 88 34 89 42 90 35 91 36 92 40 93 43 94 37 95
REMARK SMILES IDX 38 96 41 97 39 98 65 99 66 100 74 101 67 102 68 103 72 104
REMARK SMILES IDX 75 105 69 106 70 107 73 108 71 109 50 110 51 111 59 112
REMARK SMILES IDX 52 113 53 114 57 115 60 116 54 117 55 118 58 119 56 120
REMARK H PARENT 17 2 17 3 16 5 16 6 15 8 15 9 14 13 3 15 3 16 5 21 13 23 6 25
REMARK H PARENT 8 30 18 32 18 33 19 35 19 36 20 38 20 39 21 42 25 48 86 50
REMARK H PARENT 26 52 85 53 84 63 78 65 80 67 83 69 77 70 45 79 48 81 81 84
REMARK H PARENT 46 85 82 87
REMARK Flexibility Score: inf
ROOT
ATOM      1  C   UNL A   1      32.145  29.552  27.004  1.00  0.00    -0.052 C 
ATOM      2  H   UNL A   1      32.179  29.931  28.004  1.00  0.00     0.027 H 
ATOM      3  H   UNL A   1      31.416  28.784  26.854  1.00  0.00     0.027 H 
ENDROOT
BRANCH   1   4
ATOM      4  C   UNL A   1      33.503  28.906  26.699  1.00  0.00    -0.036 C 
ATOM      5  H   UNL A   1      33.975  29.474  25.925  1.00  0.00     0.028 H 
ATOM      6  H   UNL A   1      34.050  28.907  27.619  1.00  0.00     0.028 H 
BRANCH   4   7
ATOM      7  C   UNL A   1      33.435  27.450  26.245  1.00  0.00     0.017 C 
ATOM      8  H   UNL A   1      34.248  27.257  25.576  1.00  0.00     0.049 H 
ATOM      9  H   UNL A   1      33.496  26.827  27.112  1.00  0.00     0.049 H 
BRANCH   7  10
ATOM     10  N   UNL A   1      32.191  27.159  25.565  1.00  0.00    -0.356 N 
ATOM     11  O   UNL A   1      33.135  26.544  23.563  1.00  0.00    -0.275 OA
ATOM     12  C   UNL A   1      32.141  26.720  24.261  1.00  0.00     0.224 C 
ATOM     13  H   UNL A   1      31.345  27.279  26.056  1.00  0.00     0.163 HD
BRANCH  12  14
ATOM     14  C   UNL A   1      30.728  26.443  23.757  1.00  0.00     0.052 C 
ATOM     15  H   UNL A   1      30.195  25.939  24.537  1.00  0.00     0.042 H 
ATOM     16  H   UNL A   1      30.846  25.863  22.866  1.00  0.00     0.042 H 
BRANCH  14  17
ATOM     17  C   UNL A   1      29.920  27.655  23.353  1.00  0.00    -0.032 A 
ATOM     18  C   UNL A   1      30.546  28.849  22.814  1.00  0.00    -0.042 A 
ATOM     19  C   UNL A   1      28.583  27.644  23.499  1.00  0.00     0.007 A 
ATOM     20  C   UNL A   1      29.805  29.904  22.455  1.00  0.00     0.013 A 
ATOM     21  H   UNL A   1      31.573  28.884  22.707  1.00  0.00     0.064 H 
ATOM     22  C   UNL A   1      27.746  28.819  23.129  1.00  0.00     0.255 A 
ATOM     23  H   UNL A   1      28.126  26.799  23.877  1.00  0.00     0.068 H 
ATOM     24  N   UNL A   1      28.432  29.899  22.600  1.00  0.00    -0.258 N 
ATOM     25  H   UNL A   1      30.270  30.738  22.062  1.00  0.00     0.082 H 
ATOM     26  O   UNL A   1      26.534  28.754  23.307  1.00  0.00    -0.269 OA
BRANCH  24  27
ATOM     27  C   UNL A   1      27.655  31.063  22.260  1.00  0.00     0.321 C 
ATOM     28  F   UNL A   1      27.620  31.950  23.284  1.00  0.00    -0.185 F 
ATOM     29  F   UNL A   1      28.176  31.691  21.178  1.00  0.00    -0.185 F 
ATOM     30  H   UNL A   1      26.664  30.722  22.046  1.00  0.00     0.131 H 
ENDBRANCH  24  27
ENDBRANCH  14  17
ENDBRANCH  12  14
ENDBRANCH   7  10
ENDBRANCH   4   7
ENDBRANCH   1   4
BRANCH   1  31
ATOM     31  C   UNL A   1      31.736  30.702  26.079  1.00  0.00    -0.052 C 
ATOM     32  H   UNL A   1      30.852  30.405  25.554  1.00  0.00     0.027 H 
ATOM     33  H   UNL A   1      32.576  30.879  25.440  1.00  0.00     0.027 H 
BRANCH  31  34
ATOM     34  C   UNL A   1      31.447  32.033  26.773  1.00  0.00    -0.036 C 
ATOM     35  H   UNL A   1      30.795  31.840  27.599  1.00  0.00     0.028 H 
ATOM     36  H   UNL A   1      31.016  32.668  26.028  1.00  0.00     0.028 H 
BRANCH  34  37
ATOM     37  C   UNL A   1      32.673  32.770  27.300  1.00  0.00     0.018 C 
ATOM     38  H   UNL A   1      33.439  32.733  26.553  1.00  0.00     0.049 H 
ATOM     39  H   UNL A   1      32.970  32.284  28.205  1.00  0.00     0.049 H 
BRANCH  37  40
ATOM     40  N   UNL A   1      32.410  34.164  27.625  1.00  0.00    -0.352 N 
ATOM     41  C   UNL A   1      32.972  34.949  28.604  1.00  0.00     0.251 C 
ATOM     42  H   UNL A   1      31.734  34.608  27.064  1.00  0.00     0.163 HD
ATOM     43  O   UNL A   1      32.544  36.081  28.812  1.00  0.00    -0.269 OA
BRANCH  41  44
ATOM     44  C   UNL A   1      34.071  34.413  29.439  1.00  0.00     0.039 A 
ATOM     45  C   UNL A   1      35.401  34.525  29.030  1.00  0.00    -0.049 A 
ATOM     46  C   UNL A   1      33.761  33.766  30.639  1.00  0.00    -0.049 A 
ATOM     47  C   UNL A   1      36.396  33.846  29.727  1.00  0.00    -0.053 A 
ATOM     48  H   UNL A   1      35.645  35.109  28.215  1.00  0.00     0.063 H 
ATOM     49  C   UNL A   1      34.775  33.158  31.385  1.00  0.00    -0.053 A 
ATOM     50  H   UNL A   1      32.784  33.738  30.974  1.00  0.00     0.063 H 
ATOM     51  C   UNL A   1      36.094  33.149  30.907  1.00  0.00    -0.014 A 
ATOM     52  H   UNL A   1      37.364  33.856  29.371  1.00  0.00     0.063 H 
ATOM     53  H   UNL A   1      34.552  32.713  32.289  1.00  0.00     0.063 H 
BRANCH  51  54
ATOM     54  C   UNL A   1      37.179  32.421  31.618  1.00  0.00     0.031 A 
ATOM     55  C   UNL A   1      37.924  31.299  30.947  1.00  0.00     0.074 A 
ATOM     56  C   UNL A   1      37.540  32.826  32.850  1.00  0.00     0.049 A 
ATOM     57  N   UNL A   1      38.939  30.599  31.395  1.00  0.00    -0.248 NA
ATOM     58  C   UNL A   1      37.476  30.905  29.603  1.00  0.00    -0.034 C 
ATOM     59  C   UNL A   1      36.896  33.904  33.601  1.00  0.00    -0.036 A 
ATOM     60  N   UNL A   1      38.555  32.405  33.675  1.00  0.00    -0.354 N 
ATOM     61  C   UNL A   1      39.239  29.681  30.398  1.00  0.00     0.074 A 
ATOM     62  C   UNL A   1      38.281  29.886  29.333  1.00  0.00    -0.034 C 
ATOM     63  H   UNL A   1      36.729  31.314  29.021  1.00  0.00     0.065 H 
ATOM     64  C   UNL A   1      37.568  34.104  34.744  1.00  0.00    -0.036 A 
ATOM     65  H   UNL A   1      36.059  34.426  33.299  1.00  0.00     0.065 H 
ATOM     66  C   UNL A   1      38.653  33.133  34.835  1.00  0.00     0.049 A 
ATOM     67  H   UNL A   1      39.153  31.656  33.454  1.00  0.00     0.167 HD
ATOM     68  C   UNL A   1      40.234  28.762  30.367  1.00  0.00     0.037 A 
ATOM     69  H   UNL A   1      38.231  29.313  28.475  1.00  0.00     0.065 H 
ATOM     70  H   UNL A   1      37.352  34.830  35.447  1.00  0.00     0.065 H 
ATOM     71  C   UNL A   1      39.518  33.029  35.862  1.00  0.00     0.037 A 
ATOM     72  C   UNL A   1      41.202  28.575  31.416  1.00  0.00     0.049 A 
ATOM     73  C   UNL A   1      40.588  31.977  35.817  1.00  0.00     0.074 A 
ATOM     74  C   UNL A   1      42.262  27.686  31.462  1.00  0.00    -0.036 A 
ATOM     75  N   UNL A   1      41.229  29.291  32.604  1.00  0.00    -0.354 N 
ATOM     76  N   UNL A   1      40.870  31.127  34.860  1.00  0.00    -0.248 NA
ATOM     77  C   UNL A   1      41.455  31.861  36.999  1.00  0.00    -0.034 C 
ATOM     78  C   UNL A   1      42.905  27.834  32.694  1.00  0.00    -0.036 A 
ATOM     79  H   UNL A   1      42.532  27.028  30.714  1.00  0.00     0.065 H 
ATOM     80  C   UNL A   1      42.274  28.847  33.398  1.00  0.00     0.049 A 
ATOM     81  H   UNL A   1      40.598  30.006  32.848  1.00  0.00     0.167 HD
ATOM     82  C   UNL A   1      41.950  30.384  35.317  1.00  0.00     0.074 A 
ATOM     83  C   UNL A   1      42.286  30.896  36.629  1.00  0.00    -0.034 C 
ATOM     84  H   UNL A   1      41.425  32.393  37.883  1.00  0.00     0.065 H 
ATOM     85  H   UNL A   1      43.713  27.283  33.023  1.00  0.00     0.065 H 
ATOM     86  C   UNL A   1      42.598  29.366  34.702  1.00  0.00     0.037 A 
ATOM     87  H   UNL A   1      43.072  30.553  37.204  1.00  0.00     0.065 H 
BRANCH  68  88
ATOM     88  C   UNL A   1      40.336  27.878  29.158  1.00  0.00     0.064 A 
ATOM     89  C   UNL A   1      39.594  26.693  29.052  1.00  0.00     0.173 A 
ATOM     90  C   UNL A   1      41.124  28.260  28.061  1.00  0.00     0.173 A 
ATOM     91  F   UNL A   1      38.834  26.279  30.076  1.00  0.00    -0.203 F 
ATOM     92  C   UNL A   1      39.650  25.914  27.899  1.00  0.00     0.198 A 
ATOM     93  C   UNL A   1      41.156  27.491  26.899  1.00  0.00     0.198 A 
ATOM     94  F   UNL A   1      41.846  29.389  28.107  1.00  0.00    -0.203 F 
ATOM     95  F   UNL A   1      38.956  24.768  27.832  1.00  0.00    -0.200 F 
ATOM     96  C   UNL A   1      40.423  26.318  26.821  1.00  0.00     0.200 A 
ATOM     97  F   UNL A   1      41.894  27.891  25.854  1.00  0.00    -0.200 F 
ATOM     98  F   UNL A   1      40.462  25.574  25.707  1.00  0.00    -0.200 F 
ENDBRANCH  68  88
BRANCH  71  99
ATOM     99  C   UNL A   1      39.408  33.968  37.006  1.00  0.00     0.064 A 
ATOM    100  C   UNL A   1      38.667  33.628  38.146  1.00  0.00     0.173 A 
ATOM    101  C   UNL A   1      40.074  35.203  37.003  1.00  0.00     0.173 A 
ATOM    102  F   UNL A   1      37.998  32.466  38.186  1.00  0.00    -0.203 F 
ATOM    103  C   UNL A   1      38.596  34.488  39.239  1.00  0.00     0.198 A 
ATOM    104  C   UNL A   1      40.024  36.049  38.108  1.00  0.00     0.198 A 
ATOM    105  F   UNL A   1      40.799  35.571  35.937  1.00  0.00    -0.203 F 
ATOM    106  F   UNL A   1      37.861  34.150  40.307  1.00  0.00    -0.200 F 
ATOM    107  C   UNL A   1      39.282  35.693  39.224  1.00  0.00     0.200 A 
ATOM    108  F   UNL A   1      40.703  37.205  38.095  1.00  0.00    -0.200 F 
ATOM    109  F   UNL A   1      39.229  36.511  40.284  1.00  0.00    -0.200 F 
ENDBRANCH  71  99
BRANCH  86 110
ATOM    110  C   UNL A   1      43.748  28.737  35.430  1.00  0.00     0.064 A 
ATOM    111  C   UNL A   1      43.552  27.669  36.318  1.00  0.00     0.173 A 
ATOM    112  C   UNL A   1      45.064  29.153  35.179  1.00  0.00     0.173 A 
ATOM    113  F   UNL A   1      42.312  27.245  36.600  1.00  0.00    -0.203 F 
ATOM    114  C   UNL A   1      44.633  27.046  36.934  1.00  0.00     0.198 A 
ATOM    115  C   UNL A   1      46.144  28.512  35.778  1.00  0.00     0.198 A 
ATOM    116  F   UNL A   1      45.303  30.166  34.333  1.00  0.00    -0.203 F 
ATOM    117  F   UNL A   1      44.423  26.045  37.800  1.00  0.00    -0.200 F 
ATOM    118  C   UNL A   1      45.928  27.461  36.657  1.00  0.00     0.200 A 
ATOM    119  F   UNL A   1      47.395  28.906  35.499  1.00  0.00    -0.200 F 
ATOM    120  F   UNL A   1      46.968  26.848  37.239  1.00  0.00    -0.200 F 
ENDBRANCH  86 110
ENDBRANCH  51  54
ENDBRANCH  41  44
ENDBRANCH  37  40
ENDBRANCH  34  37
ENDBRANCH  31  34
ENDBRANCH   1  31
TORSDOF 15
ENDMDL
MODEL 3
REMARK VINA RESULT:     -11.6      6.352     11.727
REMARK SMILES O=C(Cc1ccn(C(F)F)c(=O)c1)NCCCCCCNC(=O)c1ccc(-c2c3nc(c(-c4c(F)c(F)c(F)c(F)c4F)c4ccc([nH]4)c(-c4c(F)c(F)c(F)c(F)c4F)c4nc(c(-c5c(F)c(F)c(F)c(F)c5F)c5ccc2[nH]5)C=C4)C=C3)cc1
REMARK SMILES IDX 17 1 16 4 15 7 14 10 1 11 2 12 3 14 4 17 5 18 13 19 6 20
REMARK SMILES IDX 11 22 7 24 12 26 8 27 9 28 10 29 18 31 19 34 20 37 21 40
REMARK SMILES IDX 22 41 23 43 24 44 25 45 86 46 26 47 85 49 27 51 28 54 29 55
REMARK SMILES IDX 79 56 30 57 84 58 78 59 80 60 31 61 83 62 77 64 76 66 32 68
REMARK SMILES IDX 64 71 44 72 63 73 45 74 48 75 62 76 81 77 46 78 47 80 61 82
REMARK SMILES IDX 82 83 49 86 33 88 34 89 42 90 35 91 36 92 40 93 43 94 37 95
REMARK SMILES IDX 38 96 41 97 39 98 65 99 66 100 74 101 67 102 68 103 72 104
REMARK SMILES IDX 75 105 69 106 70 107 73 108 71 109 50 110 51 111 59 112
REMARK SMILES IDX 52 113 53 114 57 115 60 116 54 117 55 118 58 119 56 120
REMARK H PARENT 17 2 17 3 16 5 16 6 15 8 15 9 14 13 3 15 3 16 5 21 13 23 6 25
REMARK H PARENT 8 30 18 32 18 33 19 35 19 36 20 38 20 39 21 42 25 48 86 50
REMARK H PARENT 26 52 85 53 84 63 78 65 80 67 83 69 77 70 45 79 48 81 81 84
REMARK H PARENT 46 85 82 87
REMARK Flexibility Score: inf
ROOT
ATOM      1  C   UNL A   1      36.892  22.094  24.164  1.00  0.00    -0.052 C 
ATOM      2  H   UNL A   1      37.920  22.191  23.883  1.00  0.00     0.027 H 
ATOM      3  H   UNL A   1      36.226  21.961  23.337  1.00  0.00     0.027 H 
ENDROOT
BRANCH   1   4
ATOM      4  C   UNL A   1      36.463  23.403  24.840  1.00  0.00    -0.036 C 
ATOM      5  H   UNL A   1      36.233  23.188  25.863  1.00  0.00     0.028 H 
ATOM      6  H   UNL A   1      37.281  24.083  24.724  1.00  0.00     0.028 H 
BRANCH   4   7
ATOM      7  C   UNL A   1      35.249  24.083  24.213  1.00  0.00     0.017 C 
ATOM      8  H   UNL A   1      35.061  25.002  24.729  1.00  0.00     0.049 H 
ATOM      9  H   UNL A   1      35.463  24.261  23.180  1.00  0.00     0.049 H 
BRANCH   7  10
ATOM     10  N   UNL A   1      34.067  23.251  24.293  1.00  0.00    -0.356 N 
ATOM     11  O   UNL A   1      33.625  23.224  22.038  1.00  0.00    -0.275 OA
ATOM     12  C   UNL A   1      33.342  22.881  23.182  1.00  0.00     0.224 C 
ATOM     13  H   UNL A   1      33.770  22.937  25.178  1.00  0.00     0.163 HD
BRANCH  12  14
ATOM     14  C   UNL A   1      32.155  21.975  23.495  1.00  0.00     0.052 C 
ATOM     15  H   UNL A   1      31.539  21.929  22.621  1.00  0.00     0.042 H 
ATOM     16  H   UNL A   1      31.674  22.412  24.345  1.00  0.00     0.042 H 
BRANCH  14  17
ATOM     17  C   UNL A   1      32.493  20.559  23.901  1.00  0.00    -0.032 A 
ATOM     18  C   UNL A   1      32.830  20.212  25.269  1.00  0.00    -0.042 A 
ATOM     19  C   UNL A   1      32.494  19.583  22.974  1.00  0.00     0.007 A 
ATOM     20  C   UNL A   1      33.115  18.947  25.601  1.00  0.00     0.013 A 
ATOM     21  H   UNL A   1      32.849  20.948  25.993  1.00  0.00     0.064 H 
ATOM     22  C   UNL A   1      32.835  18.175  23.321  1.00  0.00     0.255 A 
ATOM     23  H   UNL A   1      32.252  19.817  21.998  1.00  0.00     0.068 H 
ATOM     24  N   UNL A   1      33.116  17.940  24.656  1.00  0.00    -0.258 N 
ATOM     25  H   UNL A   1      33.340  18.720  26.583  1.00  0.00     0.082 H 
ATOM     26  O   UNL A   1      32.840  17.336  22.426  1.00  0.00    -0.269 OA
BRANCH  24  27
ATOM     27  C   UNL A   1      33.480  16.595  25.021  1.00  0.00     0.321 C 
ATOM     28  F   UNL A   1      32.454  15.733  24.814  1.00  0.00    -0.185 F 
ATOM     29  F   UNL A   1      34.541  16.168  24.295  1.00  0.00    -0.185 F 
ATOM     30  H   UNL A   1      33.729  16.613  26.061  1.00  0.00     0.131 H 
ENDBRANCH  24  27
ENDBRANCH  14  17
ENDBRANCH  12  14
ENDBRANCH   7  10
ENDBRANCH   4   7
ENDBRANCH   1   4
BRANCH   1  31
ATOM     31  C   UNL A   1      36.754  20.830  25.018  1.00  0.00    -0.052 C 
ATOM     32  H   UNL A   1      35.860  20.324  24.716  1.00  0.00     0.027 H 
ATOM     33  H   UNL A   1      36.735  21.162  26.034  1.00  0.00     0.027 H 
BRANCH  31  34
ATOM     34  C   UNL A   1      37.914  19.840  24.919  1.00  0.00    -0.036 C 
ATOM     35  H   UNL A   1      38.250  19.825  23.903  1.00  0.00     0.028 H 
ATOM     36  H   UNL A   1      37.530  18.900  25.256  1.00  0.00     0.028 H 
BRANCH  34  37
ATOM     37  C   UNL A   1      39.112  20.152  25.809  1.00  0.00     0.018 C 
ATOM     38  H   UNL A   1      38.760  20.314  26.807  1.00  0.00     0.049 H 
ATOM     39  H   UNL A   1      39.589  21.020  25.405  1.00  0.00     0.049 H 
BRANCH  37  40
ATOM     40  N   UNL A   1      40.101  19.086  25.835  1.00  0.00    -0.352 N 
ATOM     41  C   UNL A   1      41.456  19.164  26.061  1.00  0.00     0.251 C 
ATOM     42  H   UNL A   1      39.753  18.182  25.667  1.00  0.00     0.163 HD
ATOM     43  O   UNL A   1      42.164  18.170  25.929  1.00  0.00    -0.269 OA
BRANCH  41  44
ATOM     44  C   UNL A   1      42.070  20.462  26.423  1.00  0.00     0.039 A 
ATOM     45  C   UNL A   1      42.168  20.860  27.758  1.00  0.00    -0.049 A 
ATOM     46  C   UNL A   1      42.534  21.303  25.406  1.00  0.00    -0.049 A 
ATOM     47  C   UNL A   1      42.566  22.158  28.062  1.00  0.00    -0.053 A 
ATOM     48  H   UNL A   1      41.948  20.194  28.514  1.00  0.00     0.063 H 
ATOM     49  C   UNL A   1      43.015  22.578  25.722  1.00  0.00    -0.053 A 
ATOM     50  H   UNL A   1      42.520  20.984  24.424  1.00  0.00     0.063 H 
ATOM     51  C   UNL A   1      42.986  23.034  27.048  1.00  0.00    -0.014 A 
ATOM     52  H   UNL A   1      42.550  22.479  29.042  1.00  0.00     0.063 H 
ATOM     53  H   UNL A   1      43.392  23.184  24.977  1.00  0.00     0.063 H 
BRANCH  51  54
ATOM     54  C   UNL A   1      43.389  24.420  27.408  1.00  0.00     0.031 A 
ATOM     55  C   UNL A   1      44.783  24.916  27.134  1.00  0.00     0.074 A 
ATOM     56  C   UNL A   1      42.467  25.257  27.921  1.00  0.00     0.049 A 
ATOM     57  N   UNL A   1      45.285  26.111  27.324  1.00  0.00    -0.248 NA
ATOM     58  C   UNL A   1      45.741  23.948  26.578  1.00  0.00    -0.034 C 
ATOM     59  C   UNL A   1      41.083  24.894  28.227  1.00  0.00    -0.036 A 
ATOM     60  N   UNL A   1      42.540  26.589  28.242  1.00  0.00    -0.354 N 
ATOM     61  C   UNL A   1      46.613  26.036  26.924  1.00  0.00     0.074 A 
ATOM     62  C   UNL A   1      46.852  24.671  26.511  1.00  0.00    -0.034 C 
ATOM     63  H   UNL A   1      45.590  22.964  26.309  1.00  0.00     0.065 H 
ATOM     64  C   UNL A   1      40.421  25.988  28.630  1.00  0.00    -0.036 A 
ATOM     65  H   UNL A   1      40.680  23.946  28.147  1.00  0.00     0.065 H 
ATOM     66  C   UNL A   1      41.345  27.116  28.666  1.00  0.00     0.049 A 
ATOM     67  H   UNL A   1      43.369  27.115  28.175  1.00  0.00     0.167 HD
ATOM     68  C   UNL A   1      47.542  27.021  26.889  1.00  0.00     0.037 A 
ATOM     69  H   UNL A   1      47.768  24.306  26.204  1.00  0.00     0.065 H 
ATOM     70  H   UNL A   1      39.418  26.025  28.874  1.00  0.00     0.065 H 
ATOM     71  C   UNL A   1      41.026  28.368  29.046  1.00  0.00     0.037 A 
ATOM     72  C   UNL A   1      47.296  28.385  27.277  1.00  0.00     0.049 A 
ATOM     73  C   UNL A   1      42.086  29.432  29.032  1.00  0.00     0.074 A 
ATOM     74  C   UNL A   1      48.170  29.459  27.252  1.00  0.00    -0.036 A 
ATOM     75  N   UNL A   1      46.088  28.865  27.761  1.00  0.00    -0.354 N 
ATOM     76  N   UNL A   1      43.333  29.350  28.635  1.00  0.00    -0.248 NA
ATOM     77  C   UNL A   1      41.700  30.760  29.528  1.00  0.00    -0.034 C 
ATOM     78  C   UNL A   1      47.504  30.578  27.758  1.00  0.00    -0.036 A 
ATOM     79  H   UNL A   1      49.146  29.437  26.915  1.00  0.00     0.065 H 
ATOM     80  C   UNL A   1      46.201  30.214  28.058  1.00  0.00     0.049 A 
ATOM     81  H   UNL A   1      45.272  28.327  27.878  1.00  0.00     0.167 HD
ATOM     82  C   UNL A   1      43.876  30.613  28.823  1.00  0.00     0.074 A 
ATOM     83  C   UNL A   1      42.819  31.450  29.351  1.00  0.00    -0.034 C 
ATOM     84  H   UNL A   1      40.794  31.074  29.912  1.00  0.00     0.065 H 
ATOM     85  H   UNL A   1      47.913  31.517  27.887  1.00  0.00     0.065 H 
ATOM     86  C   UNL A   1      45.140  31.036  28.582  1.00  0.00     0.037 A 
ATOM     87  H   UNL A   1      42.923  32.455  29.562  1.00  0.00     0.065 H 
BRANCH  68  88
ATOM     88  C   UNL A   1      48.921  26.668  26.413  1.00  0.00     0.064 A 
ATOM     89  C   UNL A   1      49.316  26.883  25.085  1.00  0.00     0.173 A 
ATOM     90  C   UNL A   1      49.883  26.184  27.314  1.00  0.00     0.173 A 
ATOM     91  F   UNL A   1      48.432  27.335  24.183  1.00  0.00    -0.203 F 
ATOM     92  C   UNL A   1      50.618  26.610  24.671  1.00  0.00     0.198 A 
ATOM     93  C   UNL A   1      51.190  25.937  26.902  1.00  0.00     0.198 A 
ATOM     94  F   UNL A   1      49.559  25.969  28.598  1.00  0.00    -0.203 F 
ATOM     95  F   UNL A   1      50.964  26.793  23.389  1.00  0.00    -0.200 F 
ATOM     96  C   UNL A   1      51.556  26.146  25.582  1.00  0.00     0.200 A 
ATOM     97  F   UNL A   1      52.098  25.501  27.787  1.00  0.00    -0.200 F 
ATOM     98  F   UNL A   1      52.811  25.900  25.185  1.00  0.00    -0.200 F 
ENDBRANCH  68  88
BRANCH  71  99
ATOM     99  C   UNL A   1      39.632  28.676  29.450  1.00  0.00     0.064 A 
ATOM    100  C   UNL A   1      39.212  28.492  30.774  1.00  0.00     0.173 A 
ATOM    101  C   UNL A   1      38.705  29.198  28.536  1.00  0.00     0.173 A 
ATOM    102  F   UNL A   1      40.057  27.977  31.679  1.00  0.00    -0.203 F 
ATOM    103  C   UNL A   1      37.916  28.818  31.169  1.00  0.00     0.198 A 
ATOM    104  C   UNL A   1      37.419  29.550  28.938  1.00  0.00     0.198 A 
ATOM    105  F   UNL A   1      39.061  29.396  27.259  1.00  0.00    -0.203 F 
ATOM    106  F   UNL A   1      37.531  28.611  32.435  1.00  0.00    -0.200 F 
ATOM    107  C   UNL A   1      37.024  29.357  30.253  1.00  0.00     0.200 A 
ATOM    108  F   UNL A   1      36.566  30.085  28.053  1.00  0.00    -0.200 F 
ATOM    109  F   UNL A   1      35.784  29.688  30.637  1.00  0.00    -0.200 F 
ENDBRANCH  71  99
BRANCH  86 110
ATOM    110  C   UNL A   1      45.458  32.471  28.874  1.00  0.00     0.064 A 
ATOM    111  C   UNL A   1      45.223  33.478  27.928  1.00  0.00     0.173 A 
ATOM    112  C   UNL A   1      45.930  32.852  30.140  1.00  0.00     0.173 A 
ATOM    113  F   UNL A   1      44.785  33.161  26.700  1.00  0.00    -0.203 F 
ATOM    114  C   UNL A   1      45.455  34.815  28.235  1.00  0.00     0.198 A 
ATOM    115  C   UNL A   1      46.138  34.193  30.452  1.00  0.00     0.198 A 
ATOM    116  F   UNL A   1      46.165  31.926  31.081  1.00  0.00    -0.203 F 
ATOM    117  F   UNL A   1      45.249  35.760  27.307  1.00  0.00    -0.200 F 
ATOM    118  C   UNL A   1      45.903  35.172  29.499  1.00  0.00     0.200 A 
ATOM    119  F   UNL A   1      46.558  34.537  31.677  1.00  0.00    -0.200 F 
ATOM    120  F   UNL A   1      46.110  36.462  29.798  1.00  0.00    -0.200 F 
ENDBRANCH  86 110
ENDBRANCH  51  54
ENDBRANCH  41  44
ENDBRANCH  37  40
ENDBRANCH  34  37
ENDBRANCH  31  34
ENDBRANCH   1  31
TORSDOF 15
ENDMDL
MODEL 4
REMARK VINA RESULT:     -11.6      6.326     11.667
REMARK SMILES O=C(Cc1ccn(C(F)F)c(=O)c1)NCCCCCCNC(=O)c1ccc(-c2c3nc(c(-c4c(F)c(F)c(F)c(F)c4F)c4ccc([nH]4)c(-c4c(F)c(F)c(F)c(F)c4F)c4nc(c(-c5c(F)c(F)c(F)c(F)c5F)c5ccc2[nH]5)C=C4)C=C3)cc1
REMARK SMILES IDX 17 1 16 4 15 7 14 10 1 11 2 12 3 14 4 17 5 18 13 19 6 20
REMARK SMILES IDX 11 22 7 24 12 26 8 27 9 28 10 29 18 31 19 34 20 37 21 40
REMARK SMILES IDX 22 41 23 43 24 44 25 45 86 46 26 47 85 49 27 51 28 54 29 55
REMARK SMILES IDX 79 56 30 57 84 58 78 59 80 60 31 61 83 62 77 64 76 66 32 68
REMARK SMILES IDX 64 71 44 72 63 73 45 74 48 75 62 76 81 77 46 78 47 80 61 82
REMARK SMILES IDX 82 83 49 86 33 88 34 89 42 90 35 91 36 92 40 93 43 94 37 95
REMARK SMILES IDX 38 96 41 97 39 98 65 99 66 100 74 101 67 102 68 103 72 104
REMARK SMILES IDX 75 105 69 106 70 107 73 108 71 109 50 110 51 111 59 112
REMARK SMILES IDX 52 113 53 114 57 115 60 116 54 117 55 118 58 119 56 120
REMARK H PARENT 17 2 17 3 16 5 16 6 15 8 15 9 14 13 3 15 3 16 5 21 13 23 6 25
REMARK H PARENT 8 30 18 32 18 33 19 35 19 36 20 38 20 39 21 42 25 48 86 50
REMARK H PARENT 26 52 85 53 84 63 78 65 80 67 83 69 77 70 45 79 48 81 81 84
REMARK H PARENT 46 85 82 87
REMARK Flexibility Score: inf
ROOT
ATOM      1  C   UNL A   1      36.421  22.146  24.295  1.00  0.00    -0.052 C 
ATOM      2  H   UNL A   1      37.181  22.176  23.543  1.00  0.00     0.027 H 
ATOM      3  H   UNL A   1      35.435  21.988  23.910  1.00  0.00     0.027 H 
ENDROOT
BRANCH   1   4
ATOM      4  C   UNL A   1      36.386  23.516  24.985  1.00  0.00    -0.036 C 
ATOM      5  H   UNL A   1      36.428  23.356  26.042  1.00  0.00     0.028 H 
ATOM      6  H   UNL A   1      37.224  24.065  24.607  1.00  0.00     0.028 H 
BRANCH   4   7
ATOM      7  C   UNL A   1      35.150  24.358  24.681  1.00  0.00     0.017 C 
ATOM      8  H   UNL A   1      34.991  25.044  25.487  1.00  0.00     0.049 H 
ATOM      9  H   UNL A   1      35.320  24.879  23.761  1.00  0.00     0.049 H 
BRANCH   7  10
ATOM     10  N   UNL A   1      33.968  23.538  24.524  1.00  0.00    -0.356 N 
ATOM     11  O   UNL A   1      34.013  23.467  22.228  1.00  0.00    -0.275 OA
ATOM     12  C   UNL A   1      33.490  23.151  23.292  1.00  0.00     0.224 C 
ATOM     13  H   UNL A   1      33.486  23.245  25.332  1.00  0.00     0.163 HD
BRANCH  12  14
ATOM     14  C   UNL A   1      32.252  22.262  23.363  1.00  0.00     0.052 C 
ATOM     15  H   UNL A   1      31.724  22.360  22.437  1.00  0.00     0.042 H 
ATOM     16  H   UNL A   1      31.701  22.600  24.216  1.00  0.00     0.042 H 
BRANCH  14  17
ATOM     17  C   UNL A   1      32.507  20.791  23.599  1.00  0.00    -0.032 A 
ATOM     18  C   UNL A   1      33.088  20.302  24.836  1.00  0.00    -0.042 A 
ATOM     19  C   UNL A   1      32.199  19.899  22.640  1.00  0.00     0.007 A 
ATOM     20  C   UNL A   1      33.294  18.992  25.021  1.00  0.00     0.013 A 
ATOM     21  H   UNL A   1      33.346  20.970  25.580  1.00  0.00     0.064 H 
ATOM     22  C   UNL A   1      32.445  18.441  22.819  1.00  0.00     0.255 A 
ATOM     23  H   UNL A   1      31.781  20.235  21.758  1.00  0.00     0.068 H 
ATOM     24  N   UNL A   1      32.978  18.071  24.042  1.00  0.00    -0.258 N 
ATOM     25  H   UNL A   1      33.697  18.664  25.913  1.00  0.00     0.082 H 
ATOM     26  O   UNL A   1      32.163  17.682  21.897  1.00  0.00    -0.269 OA
BRANCH  24  27
ATOM     27  C   UNL A   1      33.257  16.671  24.236  1.00  0.00     0.321 C 
ATOM     28  F   UNL A   1      34.456  16.328  23.704  1.00  0.00    -0.185 F 
ATOM     29  F   UNL A   1      33.279  16.362  25.555  1.00  0.00    -0.185 F 
ATOM     30  H   UNL A   1      32.477  16.129  23.744  1.00  0.00     0.131 H 
ENDBRANCH  24  27
ENDBRANCH  14  17
ENDBRANCH  12  14
ENDBRANCH   7  10
ENDBRANCH   4   7
ENDBRANCH   1   4
BRANCH   1  31
ATOM     31  C   UNL A   1      36.710  20.950  25.208  1.00  0.00    -0.052 C 
ATOM     32  H   UNL A   1      35.898  20.259  25.114  1.00  0.00     0.027 H 
ATOM     33  H   UNL A   1      36.820  21.352  26.193  1.00  0.00     0.027 H 
BRANCH  31  34
ATOM     34  C   UNL A   1      38.007  20.197  24.913  1.00  0.00    -0.036 C 
ATOM     35  H   UNL A   1      38.440  20.617  24.030  1.00  0.00     0.028 H 
ATOM     36  H   UNL A   1      37.734  19.168  24.808  1.00  0.00     0.028 H 
BRANCH  34  37
ATOM     37  C   UNL A   1      39.052  20.246  26.022  1.00  0.00     0.018 C 
ATOM     38  H   UNL A   1      38.552  20.155  26.964  1.00  0.00     0.049 H 
ATOM     39  H   UNL A   1      39.569  21.178  25.929  1.00  0.00     0.049 H 
BRANCH  37  40
ATOM     40  N   UNL A   1      40.046  19.188  25.922  1.00  0.00    -0.352 N 
ATOM     41  C   UNL A   1      41.416  19.271  26.016  1.00  0.00     0.251 C 
ATOM     42  H   UNL A   1      39.687  18.285  25.765  1.00  0.00     0.163 HD
ATOM     43  O   UNL A   1      42.113  18.286  25.789  1.00  0.00    -0.269 OA
BRANCH  41  44
ATOM     44  C   UNL A   1      42.055  20.563  26.352  1.00  0.00     0.039 A 
ATOM     45  C   UNL A   1      42.327  20.904  27.678  1.00  0.00    -0.049 A 
ATOM     46  C   UNL A   1      42.365  21.457  25.322  1.00  0.00    -0.049 A 
ATOM     47  C   UNL A   1      42.744  22.195  27.986  1.00  0.00    -0.053 A 
ATOM     48  H   UNL A   1      42.219  20.202  28.426  1.00  0.00     0.063 H 
ATOM     49  C   UNL A   1      42.867  22.725  25.629  1.00  0.00    -0.053 A 
ATOM     50  H   UNL A   1      42.224  21.180  24.337  1.00  0.00     0.063 H 
ATOM     51  C   UNL A   1      43.012  23.123  26.966  1.00  0.00    -0.014 A 
ATOM     52  H   UNL A   1      42.856  22.473  28.973  1.00  0.00     0.063 H 
ATOM     53  H   UNL A   1      43.132  23.371  24.869  1.00  0.00     0.063 H 
BRANCH  51  54
ATOM     54  C   UNL A   1      43.441  24.500  27.332  1.00  0.00     0.031 A 
ATOM     55  C   UNL A   1      44.839  24.975  27.047  1.00  0.00     0.074 A 
ATOM     56  C   UNL A   1      42.537  25.347  27.861  1.00  0.00     0.049 A 
ATOM     57  N   UNL A   1      45.363  26.161  27.241  1.00  0.00    -0.248 NA
ATOM     58  C   UNL A   1      45.776  23.997  26.474  1.00  0.00    -0.034 C 
ATOM     59  C   UNL A   1      41.151  25.003  28.179  1.00  0.00    -0.036 A 
ATOM     60  N   UNL A   1      42.635  26.676  28.191  1.00  0.00    -0.354 N 
ATOM     61  C   UNL A   1      46.684  26.068  26.826  1.00  0.00     0.074 A 
ATOM     62  C   UNL A   1      46.898  24.702  26.400  1.00  0.00    -0.034 C 
ATOM     63  H   UNL A   1      45.606  23.017  26.199  1.00  0.00     0.065 H 
ATOM     64  C   UNL A   1      40.511  26.105  28.597  1.00  0.00    -0.036 A 
ATOM     65  H   UNL A   1      40.732  24.063  28.096  1.00  0.00     0.065 H 
ATOM     66  C   UNL A   1      41.453  27.218  28.632  1.00  0.00     0.049 A 
ATOM     67  H   UNL A   1      43.472  27.188  28.119  1.00  0.00     0.167 HD
ATOM     68  C   UNL A   1      47.629  27.038  26.788  1.00  0.00     0.037 A 
ATOM     69  H   UNL A   1      47.804  24.324  26.081  1.00  0.00     0.065 H 
ATOM     70  H   UNL A   1      39.511  26.157  28.852  1.00  0.00     0.065 H 
ATOM     71  C   UNL A   1      41.158  28.473  29.024  1.00  0.00     0.037 A 
ATOM     72  C   UNL A   1      47.409  28.403  27.190  1.00  0.00     0.049 A 
ATOM     73  C   UNL A   1      42.235  29.519  29.006  1.00  0.00     0.074 A 
ATOM     74  C   UNL A   1      48.300  29.463  27.163  1.00  0.00    -0.036 A 
ATOM     75  N   UNL A   1      46.214  28.898  27.690  1.00  0.00    -0.354 N 
ATOM     76  N   UNL A   1      43.476  29.420  28.597  1.00  0.00    -0.248 NA
ATOM     77  C   UNL A   1      41.875  30.850  29.517  1.00  0.00    -0.034 C 
ATOM     78  C   UNL A   1      47.657  30.588  27.685  1.00  0.00    -0.036 A 
ATOM     79  H   UNL A   1      49.271  29.428  26.816  1.00  0.00     0.065 H 
ATOM     80  C   UNL A   1      46.351  30.243  27.995  1.00  0.00     0.049 A 
ATOM     81  H   UNL A   1      45.391  28.372  27.811  1.00  0.00     0.167 HD
ATOM     82  C   UNL A   1      44.041  30.673  28.787  1.00  0.00     0.074 A 
ATOM     83  C   UNL A   1      43.003  31.522  29.333  1.00  0.00    -0.034 C 
ATOM     84  H   UNL A   1      40.979  31.175  29.913  1.00  0.00     0.065 H 
ATOM     85  H   UNL A   1      48.082  31.520  27.816  1.00  0.00     0.065 H 
ATOM     86  C   UNL A   1      45.310  31.077  28.536  1.00  0.00     0.037 A 
ATOM     87  H   UNL A   1      43.125  32.524  29.550  1.00  0.00     0.065 H 
BRANCH  68  88
ATOM     88  C   UNL A   1      48.997  26.667  26.296  1.00  0.00     0.064 A 
ATOM     89  C   UNL A   1      49.354  26.806  24.947  1.00  0.00     0.173 A 
ATOM     90  C   UNL A   1      49.987  26.242  27.196  1.00  0.00     0.173 A 
ATOM     91  F   UNL A   1      48.442  27.199  24.045  1.00  0.00    -0.203 F 
ATOM     92  C   UNL A   1      50.646  26.517  24.514  1.00  0.00     0.198 A 
ATOM     93  C   UNL A   1      51.285  25.979  26.763  1.00  0.00     0.198 A 
ATOM     94  F   UNL A   1      49.701  26.100  28.498  1.00  0.00    -0.203 F 
ATOM     95  F   UNL A   1      50.955  26.628  23.214  1.00  0.00    -0.200 F 
ATOM     96  C   UNL A   1      51.612  26.114  25.423  1.00  0.00     0.200 A 
ATOM     97  F   UNL A   1      52.220  25.602  27.646  1.00  0.00    -0.200 F 
ATOM     98  F   UNL A   1      52.858  25.852  25.006  1.00  0.00    -0.200 F 
ENDBRANCH  68  88
BRANCH  71  99
ATOM     99  C   UNL A   1      39.773  28.799  29.445  1.00  0.00     0.064 A 
ATOM    100  C   UNL A   1      38.820  29.225  28.511  1.00  0.00     0.173 A 
ATOM    101  C   UNL A   1      39.362  28.650  30.778  1.00  0.00     0.173 A 
ATOM    102  F   UNL A   1      39.172  29.401  27.229  1.00  0.00    -0.203 F 
ATOM    103  C   UNL A   1      37.508  29.492  28.895  1.00  0.00     0.198 A 
ATOM    104  C   UNL A   1      38.044  28.890  31.155  1.00  0.00     0.198 A 
ATOM    105  F   UNL A   1      40.237  28.240  31.708  1.00  0.00    -0.203 F 
ATOM    106  F   UNL A   1      36.621  29.922  27.987  1.00  0.00    -0.200 F 
ATOM    107  C   UNL A   1      37.117  29.315  30.214  1.00  0.00     0.200 A 
ATOM    108  F   UNL A   1      37.668  28.702  32.428  1.00  0.00    -0.200 F 
ATOM    109  F   UNL A   1      35.851  29.553  30.578  1.00  0.00    -0.200 F 
ENDBRANCH  71  99
BRANCH  86 110
ATOM    110  C   UNL A   1      45.654  32.505  28.836  1.00  0.00     0.064 A 
ATOM    111  C   UNL A   1      46.152  32.887  30.090  1.00  0.00     0.173 A 
ATOM    112  C   UNL A   1      45.558  33.485  27.837  1.00  0.00     0.173 A 
ATOM    113  F   UNL A   1      46.249  31.988  31.080  1.00  0.00    -0.203 F 
ATOM    114  C   UNL A   1      46.535  34.202  30.335  1.00  0.00     0.198 A 
ATOM    115  C   UNL A   1      45.965  34.795  28.079  1.00  0.00     0.198 A 
ATOM    116  F   UNL A   1      45.093  33.168  26.620  1.00  0.00    -0.203 F 
ATOM    117  F   UNL A   1      46.984  34.553  31.549  1.00  0.00    -0.200 F 
ATOM    118  C   UNL A   1      46.451  35.152  29.327  1.00  0.00     0.200 A 
ATOM    119  F   UNL A   1      45.895  35.708  27.100  1.00  0.00    -0.200 F 
ATOM    120  F   UNL A   1      46.836  36.415  29.561  1.00  0.00    -0.200 F 
ENDBRANCH  86 110
ENDBRANCH  51  54
ENDBRANCH  41  44
ENDBRANCH  37  40
ENDBRANCH  34  37
ENDBRANCH  31  34
ENDBRANCH   1  31
TORSDOF 15
ENDMDL
MODEL 5
REMARK VINA RESULT:     -11.5      6.402     10.635
REMARK SMILES O=C(Cc1ccn(C(F)F)c(=O)c1)NCCCCCCNC(=O)c1ccc(-c2c3nc(c(-c4c(F)c(F)c(F)c(F)c4F)c4ccc([nH]4)c(-c4c(F)c(F)c(F)c(F)c4F)c4nc(c(-c5c(F)c(F)c(F)c(F)c5F)c5ccc2[nH]5)C=C4)C=C3)cc1
REMARK SMILES IDX 17 1 16 4 15 7 14 10 1 11 2 12 3 14 4 17 5 18 13 19 6 20
REMARK SMILES IDX 11 22 7 24 12 26 8 27 9 28 10 29 18 31 19 34 20 37 21 40
REMARK SMILES IDX 22 41 23 43 24 44 25 45 86 46 26 47 85 49 27 51 28 54 29 55
REMARK SMILES IDX 79 56 30 57 84 58 78 59 80 60 31 61 83 62 77 64 76 66 32 68
REMARK SMILES IDX 64 71 44 72 63 73 45 74 48 75 62 76 81 77 46 78 47 80 61 82
REMARK SMILES IDX 82 83 49 86 33 88 34 89 42 90 35 91 36 92 40 93 43 94 37 95
REMARK SMILES IDX 38 96 41 97 39 98 65 99 66 100 74 101 67 102 68 103 72 104
REMARK SMILES IDX 75 105 69 106 70 107 73 108 71 109 50 110 51 111 59 112
REMARK SMILES IDX 52 113 53 114 57 115 60 116 54 117 55 118 58 119 56 120
REMARK H PARENT 17 2 17 3 16 5 16 6 15 8 15 9 14 13 3 15 3 16 5 21 13 23 6 25
REMARK H PARENT 8 30 18 32 18 33 19 35 19 36 20 38 20 39 21 42 25 48 86 50
REMARK H PARENT 26 52 85 53 84 63 78 65 80 67 83 69 77 70 45 79 48 81 81 84
REMARK H PARENT 46 85 82 87
REMARK Flexibility Score: inf
ROOT
ATOM      1  C   UNL A   1      36.575  21.893  25.754  1.00  0.00    -0.052 C 
ATOM      2  H   UNL A   1      35.554  21.597  25.867  1.00  0.00     0.027 H 
ATOM      3  H   UNL A   1      37.192  21.657  26.595  1.00  0.00     0.027 H 
ENDROOT
BRANCH   1   4
ATOM      4  C   UNL A   1      36.612  23.421  25.625  1.00  0.00    -0.036 C 
ATOM      5  H   UNL A   1      36.427  23.841  26.591  1.00  0.00     0.028 H 
ATOM      6  H   UNL A   1      37.578  23.667  25.234  1.00  0.00     0.028 H 
BRANCH   4   7
ATOM      7  C   UNL A   1      35.595  24.009  24.649  1.00  0.00     0.017 C 
ATOM      8  H   UNL A   1      35.376  25.016  24.941  1.00  0.00     0.049 H 
ATOM      9  H   UNL A   1      36.019  23.978  23.667  1.00  0.00     0.049 H 
BRANCH   7  10
ATOM     10  N   UNL A   1      34.365  23.248  24.634  1.00  0.00    -0.356 N 
ATOM     11  O   UNL A   1      34.028  23.356  22.364  1.00  0.00    -0.275 OA
ATOM     12  C   UNL A   1      33.672  22.976  23.475  1.00  0.00     0.224 C 
ATOM     13  H   UNL A   1      34.008  22.910  25.488  1.00  0.00     0.163 HD
BRANCH  12  14
ATOM     14  C   UNL A   1      32.421  22.130  23.689  1.00  0.00     0.052 C 
ATOM     15  H   UNL A   1      31.758  22.313  22.869  1.00  0.00     0.042 H 
ATOM     16  H   UNL A   1      32.030  22.427  24.640  1.00  0.00     0.042 H 
BRANCH  14  17
ATOM     17  C   UNL A   1      32.640  20.638  23.786  1.00  0.00    -0.032 A 
ATOM     18  C   UNL A   1      33.245  20.026  24.954  1.00  0.00    -0.042 A 
ATOM     19  C   UNL A   1      32.277  19.843  22.762  1.00  0.00     0.007 A 
ATOM     20  C   UNL A   1      33.418  18.699  25.017  1.00  0.00     0.013 A 
ATOM     21  H   UNL A   1      33.544  20.618  25.746  1.00  0.00     0.064 H 
ATOM     22  C   UNL A   1      32.486  18.369  22.804  1.00  0.00     0.255 A 
ATOM     23  H   UNL A   1      31.842  20.267  21.928  1.00  0.00     0.068 H 
ATOM     24  N   UNL A   1      33.045  17.878  23.971  1.00  0.00    -0.258 N 
ATOM     25  H   UNL A   1      33.838  18.283  25.863  1.00  0.00     0.082 H 
ATOM     26  O   UNL A   1      32.154  17.703  21.829  1.00  0.00    -0.269 OA
BRANCH  24  27
ATOM     27  C   UNL A   1      33.289  16.459  24.032  1.00  0.00     0.321 C 
ATOM     28  F   UNL A   1      34.388  16.116  23.317  1.00  0.00    -0.185 F 
ATOM     29  F   UNL A   1      33.477  16.057  25.312  1.00  0.00    -0.185 F 
ATOM     30  H   UNL A   1      32.427  15.979  23.618  1.00  0.00     0.131 H 
ENDBRANCH  24  27
ENDBRANCH  14  17
ENDBRANCH  12  14
ENDBRANCH   7  10
ENDBRANCH   4   7
ENDBRANCH   1   4
BRANCH   1  31
ATOM     31  C   UNL A   1      37.163  21.114  24.573  1.00  0.00    -0.052 C 
ATOM     32  H   UNL A   1      37.756  21.791  23.993  1.00  0.00     0.027 H 
ATOM     33  H   UNL A   1      36.327  20.712  24.040  1.00  0.00     0.027 H 
BRANCH  31  34
ATOM     34  C   UNL A   1      38.040  19.919  24.946  1.00  0.00    -0.036 C 
ATOM     35  H   UNL A   1      38.485  19.543  24.049  1.00  0.00     0.028 H 
ATOM     36  H   UNL A   1      37.393  19.217  25.430  1.00  0.00     0.028 H 
BRANCH  34  37
ATOM     37  C   UNL A   1      39.158  20.218  25.939  1.00  0.00     0.018 C 
ATOM     38  H   UNL A   1      38.727  20.319  26.914  1.00  0.00     0.049 H 
ATOM     39  H   UNL A   1      39.636  21.118  25.616  1.00  0.00     0.049 H 
BRANCH  37  40
ATOM     40  N   UNL A   1      40.176  19.180  25.988  1.00  0.00    -0.352 N 
ATOM     41  C   UNL A   1      41.539  19.306  26.124  1.00  0.00     0.251 C 
ATOM     42  H   UNL A   1      39.842  18.257  25.914  1.00  0.00     0.163 HD
ATOM     43  O   UNL A   1      42.264  18.320  26.028  1.00  0.00    -0.269 OA
BRANCH  41  44
ATOM     44  C   UNL A   1      42.138  20.642  26.344  1.00  0.00     0.039 A 
ATOM     45  C   UNL A   1      42.279  21.158  27.634  1.00  0.00    -0.049 A 
ATOM     46  C   UNL A   1      42.543  21.397  25.240  1.00  0.00    -0.049 A 
ATOM     47  C   UNL A   1      42.659  22.485  27.806  1.00  0.00    -0.053 A 
ATOM     48  H   UNL A   1      42.102  20.559  28.455  1.00  0.00     0.063 H 
ATOM     49  C   UNL A   1      43.008  22.703  25.422  1.00  0.00    -0.053 A 
ATOM     50  H   UNL A   1      42.498  20.991  24.291  1.00  0.00     0.063 H 
ATOM     51  C   UNL A   1      43.021  23.276  26.703  1.00  0.00    -0.014 A 
ATOM     52  H   UNL A   1      42.675  22.892  28.754  1.00  0.00     0.063 H 
ATOM     53  H   UNL A   1      43.342  23.248  24.612  1.00  0.00     0.063 H 
BRANCH  51  54
ATOM     54  C   UNL A   1      43.407  24.695  26.922  1.00  0.00     0.031 A 
ATOM     55  C   UNL A   1      42.441  25.673  27.534  1.00  0.00     0.074 A 
ATOM     56  C   UNL A   1      44.664  25.083  26.632  1.00  0.00     0.049 A 
ATOM     57  N   UNL A   1      42.631  26.929  27.854  1.00  0.00    -0.248 NA
ATOM     58  C   UNL A   1      41.084  25.184  27.821  1.00  0.00    -0.034 C 
ATOM     59  C   UNL A   1      45.691  24.226  26.040  1.00  0.00    -0.036 A 
ATOM     60  N   UNL A   1      45.302  26.283  26.826  1.00  0.00    -0.354 N 
ATOM     61  C   UNL A   1      41.423  27.380  28.368  1.00  0.00     0.074 A 
ATOM     62  C   UNL A   1      40.492  26.276  28.287  1.00  0.00    -0.034 C 
ATOM     63  H   UNL A   1      40.693  24.237  27.695  1.00  0.00     0.065 H 
ATOM     64  C   UNL A   1      46.846  24.904  25.979  1.00  0.00    -0.036 A 
ATOM     65  H   UNL A   1      45.549  23.254  25.721  1.00  0.00     0.065 H 
ATOM     66  C   UNL A   1      46.629  26.260  26.471  1.00  0.00     0.049 A 
ATOM     67  H   UNL A   1      44.852  27.081  27.185  1.00  0.00     0.167 HD
ATOM     68  C   UNL A   1      41.123  28.600  28.875  1.00  0.00     0.037 A 
ATOM     69  H   UNL A   1      39.497  26.331  28.556  1.00  0.00     0.065 H 
ATOM     70  H   UNL A   1      47.745  24.527  25.638  1.00  0.00     0.065 H 
ATOM     71  C   UNL A   1      47.567  27.224  26.532  1.00  0.00     0.037 A 
ATOM     72  C   UNL A   1      42.056  29.691  28.977  1.00  0.00     0.049 A 
ATOM     73  C   UNL A   1      47.196  28.578  27.065  1.00  0.00     0.074 A 
ATOM     74  C   UNL A   1      41.849  30.956  29.501  1.00  0.00    -0.036 A 
ATOM     75  N   UNL A   1      43.374  29.647  28.548  1.00  0.00    -0.354 N 
ATOM     76  N   UNL A   1      46.054  28.984  27.562  1.00  0.00    -0.248 NA
ATOM     77  C   UNL A   1      48.241  29.611  27.037  1.00  0.00    -0.034 C 
ATOM     78  C   UNL A   1      43.029  31.690  29.351  1.00  0.00    -0.036 A 
ATOM     79  H   UNL A   1      40.974  31.297  29.929  1.00  0.00     0.065 H 
ATOM     80  C   UNL A   1      43.986  30.870  28.776  1.00  0.00     0.049 A 
ATOM     81  H   UNL A   1      43.811  28.864  28.141  1.00  0.00     0.167 HD
ATOM     82  C   UNL A   1      46.244  30.313  27.915  1.00  0.00     0.074 A 
ATOM     83  C   UNL A   1      47.617  30.640  27.593  1.00  0.00    -0.034 C 
ATOM     84  H   UNL A   1      49.208  29.550  26.679  1.00  0.00     0.065 H 
ATOM     85  H   UNL A   1      43.164  32.677  29.624  1.00  0.00     0.065 H 
ATOM     86  C   UNL A   1      45.354  31.182  28.452  1.00  0.00     0.037 A 
ATOM     87  H   UNL A   1      48.055  31.557  27.774  1.00  0.00     0.065 H 
BRANCH  68  88
ATOM     88  C   UNL A   1      39.723  28.831  29.364  1.00  0.00     0.064 A 
ATOM     89  C   UNL A   1      39.353  28.556  30.689  1.00  0.00     0.173 A 
ATOM     90  C   UNL A   1      38.760  29.408  28.521  1.00  0.00     0.173 A 
ATOM     91  F   UNL A   1      40.233  27.995  31.532  1.00  0.00    -0.203 F 
ATOM     92  C   UNL A   1      38.068  28.833  31.147  1.00  0.00     0.198 A 
ATOM     93  C   UNL A   1      37.483  29.708  28.991  1.00  0.00     0.198 A 
ATOM     94  F   UNL A   1      39.064  29.699  27.248  1.00  0.00    -0.203 F 
ATOM     95  F   UNL A   1      37.728  28.532  32.409  1.00  0.00    -0.200 F 
ATOM     96  C   UNL A   1      37.137  29.418  30.301  1.00  0.00     0.200 A 
ATOM     97  F   UNL A   1      36.590  30.285  28.175  1.00  0.00    -0.200 F 
ATOM     98  F   UNL A   1      35.906  29.699  30.749  1.00  0.00    -0.200 F 
ENDBRANCH  68  88
BRANCH  71  99
ATOM     99  C   UNL A   1      48.952  26.922  26.090  1.00  0.00     0.064 A 
ATOM    100  C   UNL A   1      49.340  27.123  24.758  1.00  0.00     0.173 A 
ATOM    101  C   UNL A   1      49.924  26.471  26.994  1.00  0.00     0.173 A 
ATOM    102  F   UNL A   1      48.439  27.535  23.854  1.00  0.00    -0.203 F 
ATOM    103  C   UNL A   1      50.649  26.882  24.348  1.00  0.00     0.198 A 
ATOM    104  C   UNL A   1      51.239  26.257  26.588  1.00  0.00     0.198 A 
ATOM    105  F   UNL A   1      49.602  26.268  28.280  1.00  0.00    -0.203 F 
ATOM    106  F   UNL A   1      50.989  27.058  23.064  1.00  0.00    -0.200 F 
ATOM    107  C   UNL A   1      51.600  26.459  25.264  1.00  0.00     0.200 A 
ATOM    108  F   UNL A   1      52.158  25.864  27.481  1.00  0.00    -0.200 F 
ATOM    109  F   UNL A   1      52.863  26.246  24.873  1.00  0.00    -0.200 F 
ENDBRANCH  71  99
BRANCH  86 110
ATOM    110  C   UNL A   1      45.832  32.573  28.741  1.00  0.00     0.064 A 
ATOM    111  C   UNL A   1      46.475  32.888  29.947  1.00  0.00     0.173 A 
ATOM    112  C   UNL A   1      45.717  33.581  27.772  1.00  0.00     0.173 A 
ATOM    113  F   UNL A   1      46.597  31.961  30.908  1.00  0.00    -0.203 F 
ATOM    114  C   UNL A   1      46.978  34.165  30.175  1.00  0.00     0.198 A 
ATOM    115  C   UNL A   1      46.243  34.850  27.995  1.00  0.00     0.198 A 
ATOM    116  F   UNL A   1      45.115  33.327  26.601  1.00  0.00    -0.203 F 
ATOM    117  F   UNL A   1      47.566  34.452  31.346  1.00  0.00    -0.200 F 
ATOM    118  C   UNL A   1      46.871  35.142  29.196  1.00  0.00     0.200 A 
ATOM    119  F   UNL A   1      46.150  35.789  27.042  1.00  0.00    -0.200 F 
ATOM    120  F   UNL A   1      47.371  36.366  29.412  1.00  0.00    -0.200 F 
ENDBRANCH  86 110
ENDBRANCH  51  54
ENDBRANCH  41  44
ENDBRANCH  37  40
ENDBRANCH  34  37
ENDBRANCH  31  34
ENDBRANCH   1  31
TORSDOF 15
ENDMDL
MODEL 6
REMARK VINA RESULT:     -11.3      2.814      8.114
REMARK SMILES O=C(Cc1ccn(C(F)F)c(=O)c1)NCCCCCCNC(=O)c1ccc(-c2c3nc(c(-c4c(F)c(F)c(F)c(F)c4F)c4ccc([nH]4)c(-c4c(F)c(F)c(F)c(F)c4F)c4nc(c(-c5c(F)c(F)c(F)c(F)c5F)c5ccc2[nH]5)C=C4)C=C3)cc1
REMARK SMILES IDX 17 1 16 4 15 7 14 10 1 11 2 12 3 14 4 17 5 18 13 19 6 20
REMARK SMILES IDX 11 22 7 24 12 26 8 27 9 28 10 29 18 31 19 34 20 37 21 40
REMARK SMILES IDX 22 41 23 43 24 44 25 45 86 46 26 47 85 49 27 51 28 54 29 55
REMARK SMILES IDX 79 56 30 57 84 58 78 59 80 60 31 61 83 62 77 64 76 66 32 68
REMARK SMILES IDX 64 71 44 72 63 73 45 74 48 75 62 76 81 77 46 78 47 80 61 82
REMARK SMILES IDX 82 83 49 86 33 88 34 89 42 90 35 91 36 92 40 93 43 94 37 95
REMARK SMILES IDX 38 96 41 97 39 98 65 99 66 100 74 101 67 102 68 103 72 104
REMARK SMILES IDX 75 105 69 106 70 107 73 108 71 109 50 110 51 111 59 112
REMARK SMILES IDX 52 113 53 114 57 115 60 116 54 117 55 118 58 119 56 120
REMARK H PARENT 17 2 17 3 16 5 16 6 15 8 15 9 14 13 3 15 3 16 5 21 13 23 6 25
REMARK H PARENT 8 30 18 32 18 33 19 35 19 36 20 38 20 39 21 42 25 48 86 50
REMARK H PARENT 26 52 85 53 84 63 78 65 80 67 83 69 77 70 45 79 48 81 81 84
REMARK H PARENT 46 85 82 87
REMARK Flexibility Score: inf
ROOT
ATOM      1  C   UNL A   1      35.365  32.604  28.216  1.00  0.00    -0.052 C 
ATOM      2  H   UNL A   1      35.127  33.090  27.293  1.00  0.00     0.027 H 
ATOM      3  H   UNL A   1      36.353  32.807  28.573  1.00  0.00     0.027 H 
ENDROOT
BRANCH   1   4
ATOM      4  C   UNL A   1      35.309  31.089  27.979  1.00  0.00    -0.036 C 
ATOM      5  H   UNL A   1      36.051  30.839  27.250  1.00  0.00     0.028 H 
ATOM      6  H   UNL A   1      35.480  30.629  28.931  1.00  0.00     0.028 H 
BRANCH   4   7
ATOM      7  C   UNL A   1      33.963  30.564  27.487  1.00  0.00     0.017 C 
ATOM      8  H   UNL A   1      33.652  29.758  28.119  1.00  0.00     0.049 H 
ATOM      9  H   UNL A   1      33.259  31.370  27.517  1.00  0.00     0.049 H 
BRANCH   7  10
ATOM     10  N   UNL A   1      34.041  30.085  26.123  1.00  0.00    -0.356 N 
ATOM     11  O   UNL A   1      31.897  29.267  26.020  1.00  0.00    -0.275 OA
ATOM     12  C   UNL A   1      32.985  29.468  25.490  1.00  0.00     0.224 C 
ATOM     13  H   UNL A   1      34.884  30.204  25.628  1.00  0.00     0.163 HD
BRANCH  12  14
ATOM     14  C   UNL A   1      33.277  29.074  24.046  1.00  0.00     0.052 C 
ATOM     15  H   UNL A   1      34.185  29.560  23.751  1.00  0.00     0.042 H 
ATOM     16  H   UNL A   1      32.419  29.377  23.483  1.00  0.00     0.042 H 
BRANCH  14  17
ATOM     17  C   UNL A   1      33.437  27.594  23.784  1.00  0.00    -0.032 A 
ATOM     18  C   UNL A   1      33.731  26.654  24.849  1.00  0.00    -0.042 A 
ATOM     19  C   UNL A   1      33.315  27.123  22.529  1.00  0.00     0.007 A 
ATOM     20  C   UNL A   1      33.857  25.347  24.589  1.00  0.00     0.013 A 
ATOM     21  H   UNL A   1      33.843  26.996  25.817  1.00  0.00     0.064 H 
ATOM     22  C   UNL A   1      33.478  25.676  22.218  1.00  0.00     0.255 A 
ATOM     23  H   UNL A   1      33.101  27.782  21.764  1.00  0.00     0.068 H 
ATOM     24  N   UNL A   1      33.731  24.855  23.304  1.00  0.00    -0.258 N 
ATOM     25  H   UNL A   1      34.054  24.693  25.364  1.00  0.00     0.082 H 
ATOM     26  O   UNL A   1      33.377  25.313  21.051  1.00  0.00    -0.269 OA
BRANCH  24  27
ATOM     27  C   UNL A   1      33.925  23.454  23.034  1.00  0.00     0.321 C 
ATOM     28  F   UNL A   1      35.231  23.170  22.814  1.00  0.00    -0.185 F 
ATOM     29  F   UNL A   1      33.500  22.699  24.076  1.00  0.00    -0.185 F 
ATOM     30  H   UNL A   1      33.355  23.226  22.158  1.00  0.00     0.131 H 
ENDBRANCH  24  27
ENDBRANCH  14  17
ENDBRANCH  12  14
ENDBRANCH   7  10
ENDBRANCH   4   7
ENDBRANCH   1   4
BRANCH   1  31
ATOM     31  C   UNL A   1      34.415  33.142  29.290  1.00  0.00    -0.052 C 
ATOM     32  H   UNL A   1      35.008  33.582  30.065  1.00  0.00     0.027 H 
ATOM     33  H   UNL A   1      33.835  32.305  29.617  1.00  0.00     0.027 H 
BRANCH  31  34
ATOM     34  C   UNL A   1      33.410  34.189  28.813  1.00  0.00    -0.036 C 
ATOM     35  H   UNL A   1      32.434  33.877  29.122  1.00  0.00     0.028 H 
ATOM     36  H   UNL A   1      33.524  34.247  27.750  1.00  0.00     0.028 H 
BRANCH  34  37
ATOM     37  C   UNL A   1      33.643  35.601  29.339  1.00  0.00     0.018 C 
ATOM     38  H   UNL A   1      33.585  36.284  28.516  1.00  0.00     0.049 H 
ATOM     39  H   UNL A   1      34.607  35.612  29.802  1.00  0.00     0.049 H 
BRANCH  37  40
ATOM     40  N   UNL A   1      32.674  36.007  30.345  1.00  0.00    -0.352 N 
ATOM     41  C   UNL A   1      32.679  35.771  31.701  1.00  0.00     0.251 C 
ATOM     42  H   UNL A   1      31.908  36.524  30.010  1.00  0.00     0.163 HD
ATOM     43  O   UNL A   1      31.714  36.090  32.388  1.00  0.00    -0.269 OA
BRANCH  41  44
ATOM     44  C   UNL A   1      33.836  35.090  32.327  1.00  0.00     0.039 A 
ATOM     45  C   UNL A   1      35.091  35.701  32.364  1.00  0.00    -0.049 A 
ATOM     46  C   UNL A   1      33.664  33.811  32.863  1.00  0.00    -0.049 A 
ATOM     47  C   UNL A   1      36.200  34.970  32.777  1.00  0.00    -0.053 A 
ATOM     48  H   UNL A   1      35.195  36.689  32.088  1.00  0.00     0.063 H 
ATOM     49  C   UNL A   1      34.768  33.109  33.359  1.00  0.00    -0.053 A 
ATOM     50  H   UNL A   1      32.724  33.384  32.894  1.00  0.00     0.063 H 
ATOM     51  C   UNL A   1      36.054  33.664  33.272  1.00  0.00    -0.014 A 
ATOM     52  H   UNL A   1      37.140  35.392  32.718  1.00  0.00     0.063 H 
ATOM     53  H   UNL A   1      34.636  32.181  33.789  1.00  0.00     0.063 H 
BRANCH  51  54
ATOM     54  C   UNL A   1      37.263  32.906  33.689  1.00  0.00     0.031 A 
ATOM     55  C   UNL A   1      37.906  31.908  32.766  1.00  0.00     0.074 A 
ATOM     56  C   UNL A   1      37.824  33.176  34.883  1.00  0.00     0.049 A 
ATOM     57  N   UNL A   1      39.000  31.206  32.941  1.00  0.00    -0.248 NA
ATOM     58  C   UNL A   1      37.239  31.658  31.479  1.00  0.00    -0.034 C 
ATOM     59  C   UNL A   1      37.296  34.125  35.863  1.00  0.00    -0.036 A 
ATOM     60  N   UNL A   1      38.977  32.706  35.463  1.00  0.00    -0.354 N 
ATOM     61  C   UNL A   1      39.143  30.429  31.800  1.00  0.00     0.074 A 
ATOM     62  C   UNL A   1      38.010  30.717  30.949  1.00  0.00    -0.034 C 
ATOM     63  H   UNL A   1      36.393  32.100  31.089  1.00  0.00     0.065 H 
ATOM     64  C   UNL A   1      38.151  34.217  36.891  1.00  0.00    -0.036 A 
ATOM     65  H   UNL A   1      36.406  34.642  35.777  1.00  0.00     0.065 H 
ATOM     66  C   UNL A   1      39.258  33.292  36.673  1.00  0.00     0.049 A 
ATOM     67  H   UNL A   1      39.544  32.016  35.051  1.00  0.00     0.167 HD
ATOM     68  C   UNL A   1      40.140  29.567  31.484  1.00  0.00     0.037 A 
ATOM     69  H   UNL A   1      37.824  30.250  30.046  1.00  0.00     0.065 H 
ATOM     70  H   UNL A   1      38.044  34.842  37.706  1.00  0.00     0.065 H 
ATOM     71  C   UNL A   1      40.292  33.105  37.516  1.00  0.00     0.037 A 
ATOM     72  C   UNL A   1      41.280  29.300  32.321  1.00  0.00     0.049 A 
ATOM     73  C   UNL A   1      41.363  32.115  37.157  1.00  0.00     0.074 A 
ATOM     74  C   UNL A   1      42.353  28.460  32.074  1.00  0.00    -0.036 A 
ATOM     75  N   UNL A   1      41.496  29.867  33.568  1.00  0.00    -0.354 N 
ATOM     76  N   UNL A   1      41.493  31.400  36.067  1.00  0.00    -0.248 NA
ATOM     77  C   UNL A   1      42.425  31.898  38.149  1.00  0.00    -0.034 C 
ATOM     78  C   UNL A   1      43.197  28.488  33.186  1.00  0.00    -0.036 A 
ATOM     79  H   UNL A   1      42.503  27.910  31.213  1.00  0.00     0.065 H 
ATOM     80  C   UNL A   1      42.675  29.379  34.110  1.00  0.00     0.049 A 
ATOM     81  H   UNL A   1      40.901  30.519  34.004  1.00  0.00     0.167 HD
ATOM     82  C   UNL A   1      42.653  30.658  36.235  1.00  0.00     0.074 A 
ATOM     83  C   UNL A   1      43.201  31.023  37.525  1.00  0.00    -0.034 C 
ATOM     84  H   UNL A   1      42.537  32.318  39.086  1.00  0.00     0.065 H 
ATOM     85  H   UNL A   1      44.063  27.938  33.301  1.00  0.00     0.065 H 
ATOM     86  C   UNL A   1      43.209  29.752  35.395  1.00  0.00     0.037 A 
ATOM     87  H   UNL A   1      44.084  30.650  37.909  1.00  0.00     0.065 H 
BRANCH  68  88
ATOM     88  C   UNL A   1      40.050  28.841  30.174  1.00  0.00     0.064 A 
ATOM     89  C   UNL A   1      40.632  29.358  29.007  1.00  0.00     0.173 A 
ATOM     90  C   UNL A   1      39.444  27.577  30.100  1.00  0.00     0.173 A 
ATOM     91  F   UNL A   1      41.215  30.566  29.022  1.00  0.00    -0.203 F 
ATOM     92  C   UNL A   1      40.596  28.645  27.812  1.00  0.00     0.198 A 
ATOM     93  C   UNL A   1      39.433  26.856  28.909  1.00  0.00     0.198 A 
ATOM     94  F   UNL A   1      38.880  27.033  31.189  1.00  0.00    -0.203 F 
ATOM     95  F   UNL A   1      41.132  29.173  26.702  1.00  0.00    -0.200 F 
ATOM     96  C   UNL A   1      40.005  27.391  27.765  1.00  0.00     0.200 A 
ATOM     97  F   UNL A   1      38.873  25.638  28.870  1.00  0.00    -0.200 F 
ATOM     98  F   UNL A   1      39.986  26.700  26.618  1.00  0.00    -0.200 F 
ENDBRANCH  68  88
BRANCH  71  99
ATOM     99  C   UNL A   1      40.361  33.894  38.771  1.00  0.00     0.064 A 
ATOM    100  C   UNL A   1      41.060  35.107  38.819  1.00  0.00     0.173 A 
ATOM    101  C   UNL A   1      39.696  33.475  39.933  1.00  0.00     0.173 A 
ATOM    102  F   UNL A   1      41.727  35.538  37.738  1.00  0.00    -0.203 F 
ATOM    103  C   UNL A   1      41.092  35.872  39.983  1.00  0.00     0.198 A 
ATOM    104  C   UNL A   1      39.706  34.254  41.088  1.00  0.00     0.198 A 
ATOM    105  F   UNL A   1      39.010  32.323  39.936  1.00  0.00    -0.203 F 
ATOM    106  F   UNL A   1      41.788  37.016  40.011  1.00  0.00    -0.200 F 
ATOM    107  C   UNL A   1      40.407  35.450  41.114  1.00  0.00     0.200 A 
ATOM    108  F   UNL A   1      39.029  33.850  42.172  1.00  0.00    -0.200 F 
ATOM    109  F   UNL A   1      40.423  36.195  42.226  1.00  0.00    -0.200 F 
ENDBRANCH  71  99
BRANCH  86 110
ATOM    110  C   UNL A   1      44.483  29.092  35.831  1.00  0.00     0.064 A 
ATOM    111  C   UNL A   1      44.473  27.876  36.528  1.00  0.00     0.173 A 
ATOM    112  C   UNL A   1      45.725  29.642  35.481  1.00  0.00     0.173 A 
ATOM    113  F   UNL A   1      43.309  27.318  36.895  1.00  0.00    -0.203 F 
ATOM    114  C   UNL A   1      45.661  27.237  36.866  1.00  0.00     0.198 A 
ATOM    115  C   UNL A   1      46.912  28.988  35.800  1.00  0.00     0.198 A 
ATOM    116  F   UNL A   1      45.787  30.801  34.810  1.00  0.00    -0.203 F 
ATOM    117  F   UNL A   1      45.630  26.087  37.555  1.00  0.00    -0.200 F 
ATOM    118  C   UNL A   1      46.879  27.788  36.493  1.00  0.00     0.200 A 
ATOM    119  F   UNL A   1      48.087  29.515  35.428  1.00  0.00    -0.200 F 
ATOM    120  F   UNL A   1      48.022  27.162  36.806  1.00  0.00    -0.200 F 
ENDBRANCH  86 110
ENDBRANCH  51  54
ENDBRANCH  41  44
ENDBRANCH  37  40
ENDBRANCH  34  37
ENDBRANCH  31  34
ENDBRANCH   1  31
TORSDOF 15
ENDMDL
MODEL 7
REMARK VINA RESULT:     -11.2      6.410     10.694
REMARK SMILES O=C(Cc1ccn(C(F)F)c(=O)c1)NCCCCCCNC(=O)c1ccc(-c2c3nc(c(-c4c(F)c(F)c(F)c(F)c4F)c4ccc([nH]4)c(-c4c(F)c(F)c(F)c(F)c4F)c4nc(c(-c5c(F)c(F)c(F)c(F)c5F)c5ccc2[nH]5)C=C4)C=C3)cc1
REMARK SMILES IDX 17 1 16 4 15 7 14 10 1 11 2 12 3 14 4 17 5 18 13 19 6 20
REMARK SMILES IDX 11 22 7 24 12 26 8 27 9 28 10 29 18 31 19 34 20 37 21 40
REMARK SMILES IDX 22 41 23 43 24 44 25 45 86 46 26 47 85 49 27 51 28 54 29 55
REMARK SMILES IDX 79 56 30 57 84 58 78 59 80 60 31 61 83 62 77 64 76 66 32 68
REMARK SMILES IDX 64 71 44 72 63 73 45 74 48 75 62 76 81 77 46 78 47 80 61 82
REMARK SMILES IDX 82 83 49 86 33 88 34 89 42 90 35 91 36 92 40 93 43 94 37 95
REMARK SMILES IDX 38 96 41 97 39 98 65 99 66 100 74 101 67 102 68 103 72 104
REMARK SMILES IDX 75 105 69 106 70 107 73 108 71 109 50 110 51 111 59 112
REMARK SMILES IDX 52 113 53 114 57 115 60 116 54 117 55 118 58 119 56 120
REMARK H PARENT 17 2 17 3 16 5 16 6 15 8 15 9 14 13 3 15 3 16 5 21 13 23 6 25
REMARK H PARENT 8 30 18 32 18 33 19 35 19 36 20 38 20 39 21 42 25 48 86 50
REMARK H PARENT 26 52 85 53 84 63 78 65 80 67 83 69 77 70 45 79 48 81 81 84
REMARK H PARENT 46 85 82 87
REMARK Flexibility Score: inf
ROOT
ATOM      1  C   UNL A   1      36.250  21.804  25.000  1.00  0.00    -0.052 C 
ATOM      2  H   UNL A   1      35.367  21.558  24.449  1.00  0.00     0.027 H 
ATOM      3  H   UNL A   1      36.258  21.425  26.000  1.00  0.00     0.027 H 
ENDROOT
BRANCH   1   4
ATOM      4  C   UNL A   1      36.315  23.331  25.130  1.00  0.00    -0.036 C 
ATOM      5  H   UNL A   1      36.546  23.568  26.147  1.00  0.00     0.028 H 
ATOM      6  H   UNL A   1      37.062  23.661  24.438  1.00  0.00     0.028 H 
BRANCH   4   7
ATOM      7  C   UNL A   1      35.030  24.064  24.752  1.00  0.00     0.017 C 
ATOM      8  H   UNL A   1      34.667  24.593  25.609  1.00  0.00     0.049 H 
ATOM      9  H   UNL A   1      35.254  24.738  23.952  1.00  0.00     0.049 H 
BRANCH   7  10
ATOM     10  N   UNL A   1      34.005  23.148  24.298  1.00  0.00    -0.356 N 
ATOM     11  O   UNL A   1      32.680  23.307  26.168  1.00  0.00    -0.275 OA
ATOM     12  C   UNL A   1      32.895  22.842  25.053  1.00  0.00     0.224 C 
ATOM     13  H   UNL A   1      34.106  22.727  23.413  1.00  0.00     0.163 HD
BRANCH  12  14
ATOM     14  C   UNL A   1      31.929  21.881  24.367  1.00  0.00     0.052 C 
ATOM     15  H   UNL A   1      31.761  22.240  23.372  1.00  0.00     0.042 H 
ATOM     16  H   UNL A   1      31.051  21.866  24.979  1.00  0.00     0.042 H 
BRANCH  14  17
ATOM     17  C   UNL A   1      32.384  20.443  24.270  1.00  0.00    -0.032 A 
ATOM     18  C   UNL A   1      33.067  19.779  25.365  1.00  0.00    -0.042 A 
ATOM     19  C   UNL A   1      32.164  19.749  23.138  1.00  0.00     0.007 A 
ATOM     20  C   UNL A   1      33.449  18.501  25.255  1.00  0.00     0.013 A 
ATOM     21  H   UNL A   1      33.258  20.297  26.238  1.00  0.00     0.064 H 
ATOM     22  C   UNL A   1      32.606  18.335  22.989  1.00  0.00     0.255 A 
ATOM     23  H   UNL A   1      31.675  20.210  22.354  1.00  0.00     0.068 H 
ATOM     24  N   UNL A   1      33.225  17.782  24.097  1.00  0.00    -0.258 N 
ATOM     25  H   UNL A   1      33.922  18.044  26.050  1.00  0.00     0.082 H 
ATOM     26  O   UNL A   1      32.396  17.765  21.923  1.00  0.00    -0.269 OA
BRANCH  24  27
ATOM     27  C   UNL A   1      33.693  16.425  23.975  1.00  0.00     0.321 C 
ATOM     28  F   UNL A   1      34.917  16.274  24.536  1.00  0.00    -0.185 F 
ATOM     29  F   UNL A   1      32.842  15.565  24.584  1.00  0.00    -0.185 F 
ATOM     30  H   UNL A   1      33.748  16.210  22.929  1.00  0.00     0.131 H 
ENDBRANCH  24  27
ENDBRANCH  14  17
ENDBRANCH  12  14
ENDBRANCH   7  10
ENDBRANCH   4   7
ENDBRANCH   1   4
BRANCH   1  31
ATOM     31  C   UNL A   1      37.442  21.148  24.296  1.00  0.00    -0.052 C 
ATOM     32  H   UNL A   1      38.202  21.891  24.172  1.00  0.00     0.027 H 
ATOM     33  H   UNL A   1      37.063  20.764  23.372  1.00  0.00     0.027 H 
BRANCH  31  34
ATOM     34  C   UNL A   1      38.061  19.957  25.026  1.00  0.00    -0.036 C 
ATOM     35  H   UNL A   1      38.392  19.254  24.290  1.00  0.00     0.028 H 
ATOM     36  H   UNL A   1      37.297  19.574  25.670  1.00  0.00     0.028 H 
BRANCH  34  37
ATOM     37  C   UNL A   1      39.245  20.291  25.927  1.00  0.00     0.018 C 
ATOM     38  H   UNL A   1      38.880  20.461  26.918  1.00  0.00     0.049 H 
ATOM     39  H   UNL A   1      39.720  21.158  25.518  1.00  0.00     0.049 H 
BRANCH  37  40
ATOM     40  N   UNL A   1      40.245  19.234  25.978  1.00  0.00    -0.352 N 
ATOM     41  C   UNL A   1      41.608  19.335  26.129  1.00  0.00     0.251 C 
ATOM     42  H   UNL A   1      39.896  18.319  25.892  1.00  0.00     0.163 HD
ATOM     43  O   UNL A   1      42.317  18.338  26.032  1.00  0.00    -0.269 OA
BRANCH  41  44
ATOM     44  C   UNL A   1      42.228  20.659  26.366  1.00  0.00     0.039 A 
ATOM     45  C   UNL A   1      42.381  21.155  27.663  1.00  0.00    -0.049 A 
ATOM     46  C   UNL A   1      42.641  21.424  25.271  1.00  0.00    -0.049 A 
ATOM     47  C   UNL A   1      42.782  22.473  27.852  1.00  0.00    -0.053 A 
ATOM     48  H   UNL A   1      42.198  20.547  28.475  1.00  0.00     0.063 H 
ATOM     49  C   UNL A   1      43.127  22.720  25.471  1.00  0.00    -0.053 A 
ATOM     50  H   UNL A   1      42.588  21.032  24.317  1.00  0.00     0.063 H 
ATOM     51  C   UNL A   1      43.152  23.274  26.759  1.00  0.00    -0.014 A 
ATOM     52  H   UNL A   1      42.806  22.866  28.806  1.00  0.00     0.063 H 
ATOM     53  H   UNL A   1      43.467  23.271  24.667  1.00  0.00     0.063 H 
BRANCH  51  54
ATOM     54  C   UNL A   1      43.561  24.684  26.998  1.00  0.00     0.031 A 
ATOM     55  C   UNL A   1      42.601  25.675  27.599  1.00  0.00     0.074 A 
ATOM     56  C   UNL A   1      44.829  25.051  26.735  1.00  0.00     0.049 A 
ATOM     57  N   UNL A   1      42.809  26.925  27.934  1.00  0.00    -0.248 NA
ATOM     58  C   UNL A   1      41.230  25.209  27.858  1.00  0.00    -0.034 C 
ATOM     59  C   UNL A   1      45.851  24.179  26.154  1.00  0.00    -0.036 A 
ATOM     60  N   UNL A   1      45.486  26.237  26.950  1.00  0.00    -0.354 N 
ATOM     61  C   UNL A   1      41.600  27.394  28.428  1.00  0.00     0.074 A 
ATOM     62  C   UNL A   1      40.650  26.309  28.321  1.00  0.00    -0.034 C 
ATOM     63  H   UNL A   1      40.825  24.271  27.716  1.00  0.00     0.065 H 
ATOM     64  C   UNL A   1      47.020  24.836  26.120  1.00  0.00    -0.036 A 
ATOM     65  H   UNL A   1      45.698  23.213  25.825  1.00  0.00     0.065 H 
ATOM     66  C   UNL A   1      46.818  26.192  26.620  1.00  0.00     0.049 A 
ATOM     67  H   UNL A   1      45.045  27.040  27.307  1.00  0.00     0.167 HD
ATOM     68  C   UNL A   1      41.313  28.615  28.940  1.00  0.00     0.037 A 
ATOM     69  H   UNL A   1      39.651  26.380  28.572  1.00  0.00     0.065 H 
ATOM     70  H   UNL A   1      47.918  24.445  25.792  1.00  0.00     0.065 H 
ATOM     71  C   UNL A   1      47.774  27.137  26.706  1.00  0.00     0.037 A 
ATOM     72  C   UNL A   1      42.264  29.688  29.069  1.00  0.00     0.049 A 
ATOM     73  C   UNL A   1      47.418  28.494  27.243  1.00  0.00     0.074 A 
ATOM     74  C   UNL A   1      42.071  30.952  29.599  1.00  0.00    -0.036 A 
ATOM     75  N   UNL A   1      43.589  29.623  28.664  1.00  0.00    -0.354 N 
ATOM     76  N   UNL A   1      46.274  28.917  27.722  1.00  0.00    -0.248 NA
ATOM     77  C   UNL A   1      48.482  29.507  27.243  1.00  0.00    -0.034 C 
ATOM     78  C   UNL A   1      43.266  31.665  29.478  1.00  0.00    -0.036 A 
ATOM     79  H   UNL A   1      41.195  31.306  30.014  1.00  0.00     0.065 H 
ATOM     80  C   UNL A   1      44.219  30.832  28.913  1.00  0.00     0.049 A 
ATOM     81  H   UNL A   1      44.019  28.835  28.259  1.00  0.00     0.167 HD
ATOM     82  C   UNL A   1      46.482  30.239  28.089  1.00  0.00     0.074 A 
ATOM     83  C   UNL A   1      47.867  30.544  27.796  1.00  0.00    -0.034 C 
ATOM     84  H   UNL A   1      49.454  29.432  26.902  1.00  0.00     0.065 H 
ATOM     85  H   UNL A   1      43.415  32.647  29.761  1.00  0.00     0.065 H 
ATOM     86  C   UNL A   1      45.598  31.121  28.618  1.00  0.00     0.037 A 
ATOM     87  H   UNL A   1      48.318  31.451  27.993  1.00  0.00     0.065 H 
BRANCH  68  88
ATOM     88  C   UNL A   1      39.908  28.869  29.405  1.00  0.00     0.064 A 
ATOM     89  C   UNL A   1      38.923  29.353  28.532  1.00  0.00     0.173 A 
ATOM     90  C   UNL A   1      39.524  28.552  30.717  1.00  0.00     0.173 A 
ATOM     91  F   UNL A   1      39.241  29.680  27.270  1.00  0.00    -0.203 F 
ATOM     92  C   UNL A   1      37.609  29.524  28.959  1.00  0.00     0.198 A 
ATOM     93  C   UNL A   1      38.202  28.701  31.133  1.00  0.00     0.198 A 
ATOM     94  F   UNL A   1      40.425  28.078  31.590  1.00  0.00    -0.203 F 
ATOM     95  F   UNL A   1      36.691  30.018  28.115  1.00  0.00    -0.200 F 
ATOM     96  C   UNL A   1      37.248  29.190  30.256  1.00  0.00     0.200 A 
ATOM     97  F   UNL A   1      37.853  28.364  32.382  1.00  0.00    -0.200 F 
ATOM     98  F   UNL A   1      35.979  29.341  30.659  1.00  0.00    -0.200 F 
ENDBRANCH  68  88
BRANCH  71  99
ATOM     99  C   UNL A   1      49.160  26.814  26.287  1.00  0.00     0.064 A 
ATOM    100  C   UNL A   1      50.077  26.272  27.197  1.00  0.00     0.173 A 
ATOM    101  C   UNL A   1      49.584  26.997  24.962  1.00  0.00     0.173 A 
ATOM    102  F   UNL A   1      49.723  26.097  28.479  1.00  0.00    -0.203 F 
ATOM    103  C   UNL A   1      51.367  25.927  26.799  1.00  0.00     0.198 A 
ATOM    104  C   UNL A   1      50.864  26.627  24.559  1.00  0.00     0.198 A 
ATOM    105  F   UNL A   1      48.741  27.509  24.053  1.00  0.00    -0.203 F 
ATOM    106  F   UNL A   1      52.233  25.434  27.694  1.00  0.00    -0.200 F 
ATOM    107  C   UNL A   1      51.756  26.095  25.478  1.00  0.00     0.200 A 
ATOM    108  F   UNL A   1      51.230  26.775  23.278  1.00  0.00    -0.200 F 
ATOM    109  F   UNL A   1      52.990  25.746  25.091  1.00  0.00    -0.200 F 
ENDBRANCH  71  99
BRANCH  86 110
ATOM    110  C   UNL A   1      46.097  32.500  28.927  1.00  0.00     0.064 A 
ATOM    111  C   UNL A   1      45.970  33.546  28.002  1.00  0.00     0.173 A 
ATOM    112  C   UNL A   1      46.636  32.796  30.188  1.00  0.00     0.173 A 
ATOM    113  F   UNL A   1      45.472  33.309  26.779  1.00  0.00    -0.203 F 
ATOM    114  C   UNL A   1      46.371  34.839  28.326  1.00  0.00     0.198 A 
ATOM    115  C   UNL A   1      47.014  34.095  30.517  1.00  0.00     0.198 A 
ATOM    116  F   UNL A   1      46.773  31.831  31.108  1.00  0.00    -0.203 F 
ATOM    117  F   UNL A   1      46.265  35.819  27.417  1.00  0.00    -0.200 F 
ATOM    118  C   UNL A   1      46.884  35.114  29.585  1.00  0.00     0.200 A 
ATOM    119  F   UNL A   1      47.497  34.362  31.738  1.00  0.00    -0.200 F 
ATOM    120  F   UNL A   1      47.254  36.363  29.900  1.00  0.00    -0.200 F 
ENDBRANCH  86 110
ENDBRANCH  51  54
ENDBRANCH  41  44
ENDBRANCH  37  40
ENDBRANCH  34  37
ENDBRANCH  31  34
ENDBRANCH   1  31
TORSDOF 15
ENDMDL
MODEL 8
REMARK VINA RESULT:     -11.1      1.789      2.792
REMARK SMILES O=C(Cc1ccn(C(F)F)c(=O)c1)NCCCCCCNC(=O)c1ccc(-c2c3nc(c(-c4c(F)c(F)c(F)c(F)c4F)c4ccc([nH]4)c(-c4c(F)c(F)c(F)c(F)c4F)c4nc(c(-c5c(F)c(F)c(F)c(F)c5F)c5ccc2[nH]5)C=C4)C=C3)cc1
REMARK SMILES IDX 17 1 16 4 15 7 14 10 1 11 2 12 3 14 4 17 5 18 13 19 6 20
REMARK SMILES IDX 11 22 7 24 12 26 8 27 9 28 10 29 18 31 19 34 20 37 21 40
REMARK SMILES IDX 22 41 23 43 24 44 25 45 86 46 26 47 85 49 27 51 28 54 29 55
REMARK SMILES IDX 79 56 30 57 84 58 78 59 80 60 31 61 83 62 77 64 76 66 32 68
REMARK SMILES IDX 64 71 44 72 63 73 45 74 48 75 62 76 81 77 46 78 47 80 61 82
REMARK SMILES IDX 82 83 49 86 33 88 34 89 42 90 35 91 36 92 40 93 43 94 37 95
REMARK SMILES IDX 38 96 41 97 39 98 65 99 66 100 74 101 67 102 68 103 72 104
REMARK SMILES IDX 75 105 69 106 70 107 73 108 71 109 50 110 51 111 59 112
REMARK SMILES IDX 52 113 53 114 57 115 60 116 54 117 55 118 58 119 56 120
REMARK H PARENT 17 2 17 3 16 5 16 6 15 8 15 9 14 13 3 15 3 16 5 21 13 23 6 25
REMARK H PARENT 8 30 18 32 18 33 19 35 19 36 20 38 20 39 21 42 25 48 86 50
REMARK H PARENT 26 52 85 53 84 63 78 65 80 67 83 69 77 70 45 79 48 81 81 84
REMARK H PARENT 46 85 82 87
REMARK Flexibility Score: inf
ROOT
ATOM      1  C   UNL A   1      31.162  26.243  26.443  1.00  0.00    -0.052 C 
ATOM      2  H   UNL A   1      30.341  26.242  27.128  1.00  0.00     0.027 H 
ATOM      3  H   UNL A   1      30.876  26.375  25.420  1.00  0.00     0.027 H 
ENDROOT
BRANCH   1   4
ATOM      4  C   UNL A   1      31.838  24.867  26.514  1.00  0.00    -0.036 C 
ATOM      5  H   UNL A   1      32.526  24.877  27.333  1.00  0.00     0.028 H 
ATOM      6  H   UNL A   1      31.050  24.152  26.632  1.00  0.00     0.028 H 
BRANCH   4   7
ATOM      7  C   UNL A   1      32.602  24.459  25.257  1.00  0.00     0.017 C 
ATOM      8  H   UNL A   1      33.649  24.611  25.423  1.00  0.00     0.049 H 
ATOM      9  H   UNL A   1      32.390  23.430  25.057  1.00  0.00     0.049 H 
BRANCH   7  10
ATOM     10  N   UNL A   1      32.193  25.237  24.106  1.00  0.00    -0.356 N 
ATOM     11  O   UNL A   1      34.033  26.612  24.064  1.00  0.00    -0.275 OA
ATOM     12  C   UNL A   1      32.955  26.263  23.594  1.00  0.00     0.224 C 
ATOM     13  H   UNL A   1      31.335  25.023  23.672  1.00  0.00     0.163 HD
BRANCH  12  14
ATOM     14  C   UNL A   1      32.349  26.923  22.360  1.00  0.00     0.052 C 
ATOM     15  H   UNL A   1      32.221  26.167  21.613  1.00  0.00     0.042 H 
ATOM     16  H   UNL A   1      33.032  27.699  22.081  1.00  0.00     0.042 H 
BRANCH  14  17
ATOM     17  C   UNL A   1      31.015  27.605  22.562  1.00  0.00    -0.032 A 
ATOM     18  C   UNL A   1      29.941  26.981  23.312  1.00  0.00    -0.042 A 
ATOM     19  C   UNL A   1      30.802  28.823  22.030  1.00  0.00     0.007 A 
ATOM     20  C   UNL A   1      28.773  27.614  23.484  1.00  0.00     0.013 A 
ATOM     21  H   UNL A   1      30.078  26.041  23.717  1.00  0.00     0.064 H 
ATOM     22  C   UNL A   1      29.501  29.529  22.190  1.00  0.00     0.255 A 
ATOM     23  H   UNL A   1      31.561  29.279  21.499  1.00  0.00     0.068 H 
ATOM     24  N   UNL A   1      28.548  28.864  22.942  1.00  0.00    -0.258 N 
ATOM     25  H   UNL A   1      28.026  27.157  24.031  1.00  0.00     0.082 H 
ATOM     26  O   UNL A   1      29.362  30.627  21.661  1.00  0.00    -0.269 OA
BRANCH  24  27
ATOM     27  C   UNL A   1      27.267  29.506  23.091  1.00  0.00     0.321 C 
ATOM     28  F   UNL A   1      26.289  28.602  23.344  1.00  0.00    -0.185 F 
ATOM     29  F   UNL A   1      27.289  30.399  24.109  1.00  0.00    -0.185 F 
ATOM     30  H   UNL A   1      27.063  30.005  22.167  1.00  0.00     0.131 H 
ENDBRANCH  24  27
ENDBRANCH  14  17
ENDBRANCH  12  14
ENDBRANCH   7  10
ENDBRANCH   4   7
ENDBRANCH   1   4
BRANCH   1  31
ATOM     31  C   UNL A   1      32.057  27.439  26.783  1.00  0.00    -0.052 C 
ATOM     32  H   UNL A   1      33.060  27.192  26.502  1.00  0.00     0.027 H 
ATOM     33  H   UNL A   1      31.935  27.609  27.832  1.00  0.00     0.027 H 
BRANCH  31  34
ATOM     34  C   UNL A   1      31.685  28.753  26.097  1.00  0.00    -0.036 C 
ATOM     35  H   UNL A   1      30.934  29.234  26.689  1.00  0.00     0.028 H 
ATOM     36  H   UNL A   1      31.353  28.491  25.114  1.00  0.00     0.028 H 
BRANCH  34  37
ATOM     37  C   UNL A   1      32.836  29.735  25.906  1.00  0.00     0.018 C 
ATOM     38  H   UNL A   1      33.077  29.777  24.864  1.00  0.00     0.049 H 
ATOM     39  H   UNL A   1      33.657  29.379  26.493  1.00  0.00     0.049 H 
BRANCH  37  40
ATOM     40  N   UNL A   1      32.527  31.080  26.364  1.00  0.00    -0.352 N 
ATOM     41  C   UNL A   1      33.224  31.883  27.237  1.00  0.00     0.251 C 
ATOM     42  H   UNL A   1      31.702  31.472  25.998  1.00  0.00     0.163 HD
ATOM     43  O   UNL A   1      32.752  32.955  27.604  1.00  0.00    -0.269 OA
BRANCH  41  44
ATOM     44  C   UNL A   1      34.531  31.433  27.768  1.00  0.00     0.039 A 
ATOM     45  C   UNL A   1      34.741  30.098  28.118  1.00  0.00    -0.049 A 
ATOM     46  C   UNL A   1      35.554  32.371  27.942  1.00  0.00    -0.049 A 
ATOM     47  C   UNL A   1      35.901  29.737  28.794  1.00  0.00    -0.053 A 
ATOM     48  H   UNL A   1      34.038  29.382  27.874  1.00  0.00     0.063 H 
ATOM     49  C   UNL A   1      36.756  31.986  28.545  1.00  0.00    -0.053 A 
ATOM     50  H   UNL A   1      35.423  33.345  27.625  1.00  0.00     0.063 H 
ATOM     51  C   UNL A   1      36.919  30.677  29.023  1.00  0.00    -0.014 A 
ATOM     52  H   UNL A   1      36.014  28.769  29.132  1.00  0.00     0.063 H 
ATOM     53  H   UNL A   1      37.525  32.667  28.639  1.00  0.00     0.063 H 
BRANCH  51  54
ATOM     54  C   UNL A   1      38.139  30.260  29.764  1.00  0.00     0.031 A 
ATOM     55  C   UNL A   1      38.372  30.706  31.182  1.00  0.00     0.074 A 
ATOM     56  C   UNL A   1      39.006  29.415  29.174  1.00  0.00     0.049 A 
ATOM     57  N   UNL A   1      39.347  30.386  31.997  1.00  0.00    -0.248 NA
ATOM     58  C   UNL A   1      37.389  31.632  31.763  1.00  0.00    -0.034 C 
ATOM     59  C   UNL A   1      38.885  28.910  27.805  1.00  0.00    -0.036 A 
ATOM     60  N   UNL A   1      40.137  28.804  29.656  1.00  0.00    -0.354 N 
ATOM     61  C   UNL A   1      39.102  31.077  33.176  1.00  0.00     0.074 A 
ATOM     62  C   UNL A   1      37.905  31.861  32.964  1.00  0.00    -0.034 C 
ATOM     63  H   UNL A   1      36.523  32.007  31.347  1.00  0.00     0.065 H 
ATOM     64  C   UNL A   1      39.861  28.019  27.579  1.00  0.00    -0.036 A 
ATOM     65  H   UNL A   1      38.164  29.195  27.123  1.00  0.00     0.065 H 
ATOM     66  C   UNL A   1      40.710  27.932  28.763  1.00  0.00     0.049 A 
ATOM     67  H   UNL A   1      40.500  28.974  30.554  1.00  0.00     0.167 HD
ATOM     68  C   UNL A   1      39.802  31.046  34.335  1.00  0.00     0.037 A 
ATOM     69  H   UNL A   1      37.505  32.514  33.657  1.00  0.00     0.065 H 
ATOM     70  H   UNL A   1      39.991  27.481  26.707  1.00  0.00     0.065 H 
ATOM     71  C   UNL A   1      41.801  27.151  28.880  1.00  0.00     0.037 A 
ATOM     72  C   UNL A   1      40.980  30.247  34.553  1.00  0.00     0.049 A 
ATOM     73  C   UNL A   1      42.579  27.165  30.164  1.00  0.00     0.074 A 
ATOM     74  C   UNL A   1      41.742  30.132  35.703  1.00  0.00    -0.036 A 
ATOM     75  N   UNL A   1      41.565  29.425  33.602  1.00  0.00    -0.354 N 
ATOM     76  N   UNL A   1      42.326  27.811  31.276  1.00  0.00    -0.248 NA
ATOM     77  C   UNL A   1      43.802  26.350  30.208  1.00  0.00    -0.034 C 
ATOM     78  C   UNL A   1      42.812  29.273  35.436  1.00  0.00    -0.036 A 
ATOM     79  H   UNL A   1      41.552  30.599  36.604  1.00  0.00     0.065 H 
ATOM     80  C   UNL A   1      42.692  28.817  34.133  1.00  0.00     0.049 A 
ATOM     81  H   UNL A   1      41.231  29.294  32.685  1.00  0.00     0.167 HD
ATOM     82  C   UNL A   1      43.347  27.474  32.153  1.00  0.00     0.074 A 
ATOM     83  C   UNL A   1      44.215  26.551  31.452  1.00  0.00    -0.034 C 
ATOM     84  H   UNL A   1      44.227  25.773  29.465  1.00  0.00     0.065 H 
ATOM     85  H   UNL A   1      43.564  29.021  36.097  1.00  0.00     0.065 H 
ATOM     86  C   UNL A   1      43.546  27.899  33.424  1.00  0.00     0.037 A 
ATOM     87  H   UNL A   1      45.048  26.106  31.867  1.00  0.00     0.065 H 
BRANCH  68  88
ATOM     88  C   UNL A   1      39.321  31.903  35.469  1.00  0.00     0.064 A 
ATOM     89  C   UNL A   1      38.448  31.402  36.447  1.00  0.00     0.173 A 
ATOM     90  C   UNL A   1      39.798  33.213  35.625  1.00  0.00     0.173 A 
ATOM     91  F   UNL A   1      37.955  30.159  36.339  1.00  0.00    -0.203 F 
ATOM     92  C   UNL A   1      38.058  32.188  37.528  1.00  0.00     0.198 A 
ATOM     93  C   UNL A   1      39.425  33.987  36.722  1.00  0.00     0.198 A 
ATOM     94  F   UNL A   1      40.641  33.737  34.723  1.00  0.00    -0.203 F 
ATOM     95  F   UNL A   1      37.198  31.699  38.434  1.00  0.00    -0.200 F 
ATOM     96  C   UNL A   1      38.554  33.476  37.670  1.00  0.00     0.200 A 
ATOM     97  F   UNL A   1      39.916  35.226  36.863  1.00  0.00    -0.200 F 
ATOM     98  F   UNL A   1      38.189  34.223  38.721  1.00  0.00    -0.200 F 
ENDBRANCH  68  88
BRANCH  71  99
ATOM     99  C   UNL A   1      42.199  26.279  27.747  1.00  0.00     0.064 A 
ATOM    100  C   UNL A   1      43.180  26.689  26.836  1.00  0.00     0.173 A 
ATOM    101  C   UNL A   1      41.640  25.003  27.577  1.00  0.00     0.173 A 
ATOM    102  F   UNL A   1      43.729  27.908  26.947  1.00  0.00    -0.203 F 
ATOM    103  C   UNL A   1      43.587  25.856  25.795  1.00  0.00     0.198 A 
ATOM    104  C   UNL A   1      42.067  24.161  26.554  1.00  0.00     0.198 A 
ATOM    105  F   UNL A   1      40.699  24.564  28.427  1.00  0.00    -0.203 F 
ATOM    106  F   UNL A   1      44.511  26.282  24.923  1.00  0.00    -0.200 F 
ATOM    107  C   UNL A   1      43.039  24.589  25.661  1.00  0.00     0.200 A 
ATOM    108  F   UNL A   1      41.546  22.932  26.438  1.00  0.00    -0.200 F 
ATOM    109  F   UNL A   1      43.444  23.783  24.672  1.00  0.00    -0.200 F 
ENDBRANCH  71  99
BRANCH  86 110
ATOM    110  C   UNL A   1      44.743  27.366  34.153  1.00  0.00     0.064 A 
ATOM    111  C   UNL A   1      44.656  26.222  34.959  1.00  0.00     0.173 A 
ATOM    112  C   UNL A   1      46.003  27.958  33.981  1.00  0.00     0.173 A 
ATOM    113  F   UNL A   1      43.471  25.629  35.164  1.00  0.00    -0.203 F 
ATOM    114  C   UNL A   1      45.788  25.695  35.574  1.00  0.00     0.198 A 
ATOM    115  C   UNL A   1      47.136  27.414  34.578  1.00  0.00     0.198 A 
ATOM    116  F   UNL A   1      46.138  29.051  33.215  1.00  0.00    -0.203 F 
ATOM    117  F   UNL A   1      45.679  24.616  36.362  1.00  0.00    -0.200 F 
ATOM    118  C   UNL A   1      47.028  26.285  35.376  1.00  0.00     0.200 A 
ATOM    119  F   UNL A   1      48.336  27.978  34.375  1.00  0.00    -0.200 F 
ATOM    120  F   UNL A   1      48.118  25.765  35.956  1.00  0.00    -0.200 F 
ENDBRANCH  86 110
ENDBRANCH  51  54
ENDBRANCH  41  44
ENDBRANCH  37  40
ENDBRANCH  34  37
ENDBRANCH  31  34
ENDBRANCH   1  31
TORSDOF 15
ENDMDL
MODEL 9
REMARK VINA RESULT:     -11.1      6.004     11.756
REMARK SMILES O=C(Cc1ccn(C(F)F)c(=O)c1)NCCCCCCNC(=O)c1ccc(-c2c3nc(c(-c4c(F)c(F)c(F)c(F)c4F)c4ccc([nH]4)c(-c4c(F)c(F)c(F)c(F)c4F)c4nc(c(-c5c(F)c(F)c(F)c(F)c5F)c5ccc2[nH]5)C=C4)C=C3)cc1
REMARK SMILES IDX 17 1 16 4 15 7 14 10 1 11 2 12 3 14 4 17 5 18 13 19 6 20
REMARK SMILES IDX 11 22 7 24 12 26 8 27 9 28 10 29 18 31 19 34 20 37 21 40
REMARK SMILES IDX 22 41 23 43 24 44 25 45 86 46 26 47 85 49 27 51 28 54 29 55
REMARK SMILES IDX 79 56 30 57 84 58 78 59 80 60 31 61 83 62 77 64 76 66 32 68
REMARK SMILES IDX 64 71 44 72 63 73 45 74 48 75 62 76 81 77 46 78 47 80 61 82
REMARK SMILES IDX 82 83 49 86 33 88 34 89 42 90 35 91 36 92 40 93 43 94 37 95
REMARK SMILES IDX 38 96 41 97 39 98 65 99 66 100 74 101 67 102 68 103 72 104
REMARK SMILES IDX 75 105 69 106 70 107 73 108 71 109 50 110 51 111 59 112
REMARK SMILES IDX 52 113 53 114 57 115 60 116 54 117 55 118 58 119 56 120
REMARK H PARENT 17 2 17 3 16 5 16 6 15 8 15 9 14 13 3 15 3 16 5 21 13 23 6 25
REMARK H PARENT 8 30 18 32 18 33 19 35 19 36 20 38 20 39 21 42 25 48 86 50
REMARK H PARENT 26 52 85 53 84 63 78 65 80 67 83 69 77 70 45 79 48 81 81 84
REMARK H PARENT 46 85 82 87
REMARK Flexibility Score: inf
ROOT
ATOM      1  C   UNL A   1      42.240  19.302  25.817  1.00  0.00    -0.052 C 
ATOM      2  H   UNL A   1      41.439  18.739  25.387  1.00  0.00     0.027 H 
ATOM      3  H   UNL A   1      42.312  20.305  25.451  1.00  0.00     0.027 H 
ENDROOT
BRANCH   1   4
ATOM      4  C   UNL A   1      43.558  18.619  25.430  1.00  0.00    -0.036 C 
ATOM      5  H   UNL A   1      43.971  18.171  26.309  1.00  0.00     0.028 H 
ATOM      6  H   UNL A   1      43.315  17.908  24.667  1.00  0.00     0.028 H 
BRANCH   4   7
ATOM      7  C   UNL A   1      44.611  19.546  24.829  1.00  0.00     0.017 C 
ATOM      8  H   UNL A   1      45.549  19.031  24.795  1.00  0.00     0.049 H 
ATOM      9  H   UNL A   1      44.290  19.824  23.847  1.00  0.00     0.049 H 
BRANCH   7  10
ATOM     10  N   UNL A   1      44.770  20.754  25.611  1.00  0.00    -0.356 N 
ATOM     11  O   UNL A   1      44.174  22.216  23.941  1.00  0.00    -0.275 OA
ATOM     12  C   UNL A   1      44.532  22.009  25.097  1.00  0.00     0.224 C 
ATOM     13  H   UNL A   1      45.060  20.675  26.549  1.00  0.00     0.163 HD
BRANCH  12  14
ATOM     14  C   UNL A   1      44.729  23.136  26.106  1.00  0.00     0.052 C 
ATOM     15  H   UNL A   1      45.326  22.755  26.909  1.00  0.00     0.042 H 
ATOM     16  H   UNL A   1      43.745  23.438  26.399  1.00  0.00     0.042 H 
BRANCH  14  17
ATOM     17  C   UNL A   1      45.400  24.385  25.581  1.00  0.00    -0.032 A 
ATOM     18  C   UNL A   1      46.779  24.382  25.127  1.00  0.00    -0.042 A 
ATOM     19  C   UNL A   1      44.713  25.541  25.535  1.00  0.00     0.007 A 
ATOM     20  C   UNL A   1      47.344  25.501  24.657  1.00  0.00     0.013 A 
ATOM     21  H   UNL A   1      47.329  23.508  25.167  1.00  0.00     0.064 H 
ATOM     22  C   UNL A   1      45.335  26.800  25.040  1.00  0.00     0.255 A 
ATOM     23  H   UNL A   1      43.731  25.554  25.850  1.00  0.00     0.068 H 
ATOM     24  N   UNL A   1      46.644  26.691  24.606  1.00  0.00    -0.258 N 
ATOM     25  H   UNL A   1      48.322  25.474  24.328  1.00  0.00     0.082 H 
ATOM     26  O   UNL A   1      44.662  27.826  25.044  1.00  0.00    -0.269 OA
BRANCH  24  27
ATOM     27  C   UNL A   1      47.286  27.897  24.149  1.00  0.00     0.321 C 
ATOM     28  F   UNL A   1      48.621  27.721  24.003  1.00  0.00    -0.185 F 
ATOM     29  F   UNL A   1      46.780  28.290  22.955  1.00  0.00    -0.185 F 
ATOM     30  H   UNL A   1      47.101  28.645  24.891  1.00  0.00     0.131 H 
ENDBRANCH  24  27
ENDBRANCH  14  17
ENDBRANCH  12  14
ENDBRANCH   7  10
ENDBRANCH   4   7
ENDBRANCH   1   4
BRANCH   1  31
ATOM     31  C   UNL A   1      41.975  19.425  27.321  1.00  0.00    -0.052 C 
ATOM     32  H   UNL A   1      42.889  19.214  27.836  1.00  0.00     0.027 H 
ATOM     33  H   UNL A   1      41.190  18.732  27.539  1.00  0.00     0.027 H 
BRANCH  31  34
ATOM     34  C   UNL A   1      41.474  20.790  27.790  1.00  0.00    -0.036 C 
ATOM     35  H   UNL A   1      42.187  21.184  28.483  1.00  0.00     0.028 H 
ATOM     36  H   UNL A   1      40.508  20.620  28.220  1.00  0.00     0.028 H 
BRANCH  34  37
ATOM     37  C   UNL A   1      41.268  21.821  26.685  1.00  0.00     0.018 C 
ATOM     38  H   UNL A   1      41.978  21.631  25.907  1.00  0.00     0.049 H 
ATOM     39  H   UNL A   1      41.403  22.787  27.125  1.00  0.00     0.049 H 
BRANCH  37  40
ATOM     40  N   UNL A   1      39.931  21.790  26.111  1.00  0.00    -0.352 N 
ATOM     41  C   UNL A   1      38.961  22.765  26.116  1.00  0.00     0.251 C 
ATOM     42  H   UNL A   1      39.687  20.954  25.655  1.00  0.00     0.163 HD
ATOM     43  O   UNL A   1      37.838  22.523  25.681  1.00  0.00    -0.269 OA
BRANCH  41  44
ATOM     44  C   UNL A   1      39.258  24.099  26.686  1.00  0.00     0.039 A 
ATOM     45  C   UNL A   1      39.903  25.076  25.925  1.00  0.00    -0.049 A 
ATOM     46  C   UNL A   1      38.905  24.366  28.013  1.00  0.00    -0.049 A 
ATOM     47  C   UNL A   1      40.345  26.244  26.536  1.00  0.00    -0.053 A 
ATOM     48  H   UNL A   1      40.049  24.931  24.914  1.00  0.00     0.063 H 
ATOM     49  C   UNL A   1      39.276  25.579  28.601  1.00  0.00    -0.053 A 
ATOM     50  H   UNL A   1      38.373  23.668  28.557  1.00  0.00     0.063 H 
ATOM     51  C   UNL A   1      40.045  26.507  27.882  1.00  0.00    -0.014 A 
ATOM     52  H   UNL A   1      40.901  26.923  25.994  1.00  0.00     0.063 H 
ATOM     53  H   UNL A   1      38.984  25.792  29.568  1.00  0.00     0.063 H 
BRANCH  51  54
ATOM     54  C   UNL A   1      40.548  27.759  28.508  1.00  0.00     0.031 A 
ATOM     55  C   UNL A   1      42.022  27.986  28.703  1.00  0.00     0.074 A 
ATOM     56  C   UNL A   1      39.670  28.725  28.835  1.00  0.00     0.049 A 
ATOM     57  N   UNL A   1      42.639  29.043  29.172  1.00  0.00    -0.248 NA
ATOM     58  C   UNL A   1      42.926  26.887  28.329  1.00  0.00    -0.034 C 
ATOM     59  C   UNL A   1      38.217  28.623  28.689  1.00  0.00    -0.036 A 
ATOM     60  N   UNL A   1      39.867  29.993  29.323  1.00  0.00    -0.354 N 
ATOM     61  C   UNL A   1      43.992  28.734  29.159  1.00  0.00     0.074 A 
ATOM     62  C   UNL A   1      44.111  27.379  28.668  1.00  0.00    -0.034 C 
ATOM     63  H   UNL A   1      42.698  25.972  27.910  1.00  0.00     0.065 H 
ATOM     64  C   UNL A   1      37.660  29.798  29.016  1.00  0.00    -0.036 A 
ATOM     65  H   UNL A   1      37.704  27.782  28.382  1.00  0.00     0.065 H 
ATOM     66  C   UNL A   1      38.707  30.717  29.451  1.00  0.00     0.049 A 
ATOM     67  H   UNL A   1      40.754  30.348  29.558  1.00  0.00     0.167 HD
ATOM     68  C   UNL A   1      45.041  29.516  29.509  1.00  0.00     0.037 A 
ATOM     69  H   UNL A   1      45.001  26.861  28.593  1.00  0.00     0.065 H 
ATOM     70  H   UNL A   1      36.652  30.017  28.969  1.00  0.00     0.065 H 
ATOM     71  C   UNL A   1      38.505  31.979  29.873  1.00  0.00     0.037 A 
ATOM     72  C   UNL A   1      44.924  30.873  29.975  1.00  0.00     0.049 A 
ATOM     73  C   UNL A   1      39.684  32.811  30.290  1.00  0.00     0.074 A 
ATOM     74  C   UNL A   1      45.934  31.753  30.330  1.00  0.00    -0.036 A 
ATOM     75  N   UNL A   1      43.726  31.549  30.150  1.00  0.00    -0.354 N 
ATOM     76  N   UNL A   1      40.959  32.510  30.258  1.00  0.00    -0.248 NA
ATOM     77  C   UNL A   1      39.396  34.154  30.814  1.00  0.00    -0.034 C 
ATOM     78  C   UNL A   1      45.345  32.945  30.758  1.00  0.00    -0.036 A 
ATOM     79  H   UNL A   1      46.947  31.560  30.284  1.00  0.00     0.065 H 
ATOM     80  C   UNL A   1      43.970  32.827  30.629  1.00  0.00     0.049 A 
ATOM     81  H   UNL A   1      42.834  31.177  29.964  1.00  0.00     0.167 HD
ATOM     82  C   UNL A   1      41.626  33.626  30.744  1.00  0.00     0.074 A 
ATOM     83  C   UNL A   1      40.616  34.619  31.047  1.00  0.00    -0.034 C 
ATOM     84  H   UNL A   1      38.484  34.615  30.961  1.00  0.00     0.065 H 
ATOM     85  H   UNL A   1      45.849  33.774  31.111  1.00  0.00     0.065 H 
ATOM     86  C   UNL A   1      42.956  33.805  30.925  1.00  0.00     0.037 A 
ATOM     87  H   UNL A   1      40.820  35.567  31.400  1.00  0.00     0.065 H 
BRANCH  68  88
ATOM     88  C   UNL A   1      46.419  28.930  29.406  1.00  0.00     0.064 A 
ATOM     89  C   UNL A   1      47.031  28.300  30.500  1.00  0.00     0.173 A 
ATOM     90  C   UNL A   1      47.103  28.929  28.181  1.00  0.00     0.173 A 
ATOM     91  F   UNL A   1      46.424  28.282  31.696  1.00  0.00    -0.203 F 
ATOM     92  C   UNL A   1      48.284  27.705  30.374  1.00  0.00     0.198 A 
ATOM     93  C   UNL A   1      48.344  28.310  28.053  1.00  0.00     0.198 A 
ATOM     94  F   UNL A   1      46.558  29.510  27.102  1.00  0.00    -0.203 F 
ATOM     95  F   UNL A   1      48.864  27.136  31.441  1.00  0.00    -0.200 F 
ATOM     96  C   UNL A   1      48.935  27.702  29.149  1.00  0.00     0.200 A 
ATOM     97  F   UNL A   1      48.965  28.297  26.865  1.00  0.00    -0.200 F 
ATOM     98  F   UNL A   1      50.133  27.114  29.028  1.00  0.00    -0.200 F 
ENDBRANCH  68  88
BRANCH  71  99
ATOM     99  C   UNL A   1      37.127  32.529  29.899  1.00  0.00     0.064 A 
ATOM    100  C   UNL A   1      36.311  32.368  31.027  1.00  0.00     0.173 A 
ATOM    101  C   UNL A   1      36.612  33.260  28.819  1.00  0.00     0.173 A 
ATOM    102  F   UNL A   1      36.753  31.659  32.077  1.00  0.00    -0.203 F 
ATOM    103  C   UNL A   1      35.032  32.918  31.073  1.00  0.00     0.198 A 
ATOM    104  C   UNL A   1      35.344  33.833  28.877  1.00  0.00     0.198 A 
ATOM    105  F   UNL A   1      37.357  33.445  27.719  1.00  0.00    -0.203 F 
ATOM    106  F   UNL A   1      34.263  32.730  32.154  1.00  0.00    -0.200 F 
ATOM    107  C   UNL A   1      34.553  33.659  30.002  1.00  0.00     0.200 A 
ATOM    108  F   UNL A   1      34.893  34.561  27.846  1.00  0.00    -0.200 F 
ATOM    109  F   UNL A   1      33.330  34.203  30.055  1.00  0.00    -0.200 F 
ENDBRANCH  71  99
BRANCH  86 110
ATOM    110  C   UNL A   1      43.409  35.127  31.469  1.00  0.00     0.064 A 
ATOM    111  C   UNL A   1      43.723  36.197  30.618  1.00  0.00     0.173 A 
ATOM    112  C   UNL A   1      43.456  35.350  32.853  1.00  0.00     0.173 A 
ATOM    113  F   UNL A   1      43.705  36.028  29.287  1.00  0.00    -0.203 F 
ATOM    114  C   UNL A   1      44.073  37.440  31.134  1.00  0.00     0.198 A 
ATOM    115  C   UNL A   1      43.784  36.601  33.366  1.00  0.00     0.198 A 
ATOM    116  F   UNL A   1      43.159  34.359  33.707  1.00  0.00    -0.203 F 
ATOM    117  F   UNL A   1      44.395  38.443  30.304  1.00  0.00    -0.200 F 
ATOM    118  C   UNL A   1      44.094  37.645  32.507  1.00  0.00     0.200 A 
ATOM    119  F   UNL A   1      43.791  36.800  34.691  1.00  0.00    -0.200 F 
ATOM    120  F   UNL A   1      44.416  38.848  33.001  1.00  0.00    -0.200 F 
ENDBRANCH  86 110
ENDBRANCH  51  54
ENDBRANCH  41  44
ENDBRANCH  37  40
ENDBRANCH  34  37
ENDBRANCH  31  34
ENDBRANCH   1  31
TORSDOF 15
ENDMDL
MODEL 10
REMARK VINA RESULT:     -11.1      2.593      3.367
REMARK SMILES O=C(Cc1ccn(C(F)F)c(=O)c1)NCCCCCCNC(=O)c1ccc(-c2c3nc(c(-c4c(F)c(F)c(F)c(F)c4F)c4ccc([nH]4)c(-c4c(F)c(F)c(F)c(F)c4F)c4nc(c(-c5c(F)c(F)c(F)c(F)c5F)c5ccc2[nH]5)C=C4)C=C3)cc1
REMARK SMILES IDX 17 1 16 4 15 7 14 10 1 11 2 12 3 14 4 17 5 18 13 19 6 20
REMARK SMILES IDX 11 22 7 24 12 26 8 27 9 28 10 29 18 31 19 34 20 37 21 40
REMARK SMILES IDX 22 41 23 43 24 44 25 45 86 46 26 47 85 49 27 51 28 54 29 55
REMARK SMILES IDX 79 56 30 57 84 58 78 59 80 60 31 61 83 62 77 64 76 66 32 68
REMARK SMILES IDX 64 71 44 72 63 73 45 74 48 75 62 76 81 77 46 78 47 80 61 82
REMARK SMILES IDX 82 83 49 86 33 88 34 89 42 90 35 91 36 92 40 93 43 94 37 95
REMARK SMILES IDX 38 96 41 97 39 98 65 99 66 100 74 101 67 102 68 103 72 104
REMARK SMILES IDX 75 105 69 106 70 107 73 108 71 109 50 110 51 111 59 112
REMARK SMILES IDX 52 113 53 114 57 115 60 116 54 117 55 118 58 119 56 120
REMARK H PARENT 17 2 17 3 16 5 16 6 15 8 15 9 14 13 3 15 3 16 5 21 13 23 6 25
REMARK H PARENT 8 30 18 32 18 33 19 35 19 36 20 38 20 39 21 42 25 48 86 50
REMARK H PARENT 26 52 85 53 84 63 78 65 80 67 83 69 77 70 45 79 48 81 81 84
REMARK H PARENT 46 85 82 87
REMARK Flexibility Score: inf
ROOT
ATOM      1  C   UNL A   1      34.705  32.043  29.089  1.00  0.00    -0.052 C 
ATOM      2  H   UNL A   1      35.252  31.570  29.878  1.00  0.00     0.027 H 
ATOM      3  H   UNL A   1      33.657  31.829  29.097  1.00  0.00     0.027 H 
ENDROOT
BRANCH   1   4
ATOM      4  C   UNL A   1      35.234  31.494  27.756  1.00  0.00    -0.036 C 
ATOM      5  H   UNL A   1      34.514  31.715  26.997  1.00  0.00     0.028 H 
ATOM      6  H   UNL A   1      36.181  31.966  27.592  1.00  0.00     0.028 H 
BRANCH   4   7
ATOM      7  C   UNL A   1      35.498  29.991  27.739  1.00  0.00     0.017 C 
ATOM      8  H   UNL A   1      35.944  29.728  26.802  1.00  0.00     0.049 H 
ATOM      9  H   UNL A   1      36.150  29.757  28.554  1.00  0.00     0.049 H 
BRANCH   7  10
ATOM     10  N   UNL A   1      34.277  29.231  27.906  1.00  0.00    -0.356 N 
ATOM     11  O   UNL A   1      33.442  29.631  25.803  1.00  0.00    -0.275 OA
ATOM     12  C   UNL A   1      33.335  29.109  26.908  1.00  0.00     0.224 C 
ATOM     13  H   UNL A   1      34.113  28.783  28.768  1.00  0.00     0.163 HD
BRANCH  12  14
ATOM     14  C   UNL A   1      32.144  28.236  27.289  1.00  0.00     0.052 C 
ATOM     15  H   UNL A   1      31.262  28.839  27.227  1.00  0.00     0.042 H 
ATOM     16  H   UNL A   1      32.355  27.873  28.274  1.00  0.00     0.042 H 
BRANCH  14  17
ATOM     17  C   UNL A   1      31.926  27.006  26.438  1.00  0.00    -0.032 A 
ATOM     18  C   UNL A   1      30.620  26.661  25.909  1.00  0.00    -0.042 A 
ATOM     19  C   UNL A   1      32.964  26.194  26.162  1.00  0.00     0.007 A 
ATOM     20  C   UNL A   1      30.458  25.570  25.149  1.00  0.00     0.013 A 
ATOM     21  H   UNL A   1      29.807  27.262  26.120  1.00  0.00     0.064 H 
ATOM     22  C   UNL A   1      32.797  24.963  25.341  1.00  0.00     0.255 A 
ATOM     23  H   UNL A   1      33.899  26.432  26.529  1.00  0.00     0.068 H 
ATOM     24  N   UNL A   1      31.519  24.734  24.861  1.00  0.00    -0.258 N 
ATOM     25  H   UNL A   1      29.523  25.350  24.773  1.00  0.00     0.082 H 
ATOM     26  O   UNL A   1      33.777  24.253  25.144  1.00  0.00    -0.269 OA
BRANCH  24  27
ATOM     27  C   UNL A   1      31.316  23.535  24.088  1.00  0.00     0.321 C 
ATOM     28  F   UNL A   1      31.145  22.455  24.888  1.00  0.00    -0.185 F 
ATOM     29  F   UNL A   1      30.222  23.650  23.297  1.00  0.00    -0.185 F 
ATOM     30  H   UNL A   1      32.192  23.402  23.488  1.00  0.00     0.131 H 
ENDBRANCH  24  27
ENDBRANCH  14  17
ENDBRANCH  12  14
ENDBRANCH   7  10
ENDBRANCH   4   7
ENDBRANCH   1   4
BRANCH   1  31
ATOM     31  C   UNL A   1      34.824  33.558  29.275  1.00  0.00    -0.052 C 
ATOM     32  H   UNL A   1      35.590  33.913  28.618  1.00  0.00     0.027 H 
ATOM     33  H   UNL A   1      35.043  33.711  30.311  1.00  0.00     0.027 H 
BRANCH  31  34
ATOM     34  C   UNL A   1      33.552  34.356  28.991  1.00  0.00    -0.036 C 
ATOM     35  H   UNL A   1      32.720  33.795  29.361  1.00  0.00     0.028 H 
ATOM     36  H   UNL A   1      33.528  34.508  27.932  1.00  0.00     0.028 H 
BRANCH  34  37
ATOM     37  C   UNL A   1      33.502  35.745  29.619  1.00  0.00     0.018 C 
ATOM     38  H   UNL A   1      33.263  36.454  28.853  1.00  0.00     0.049 H 
ATOM     39  H   UNL A   1      34.462  35.931  30.053  1.00  0.00     0.049 H 
BRANCH  37  40
ATOM     40  N   UNL A   1      32.516  35.860  30.682  1.00  0.00    -0.352 N 
ATOM     41  C   UNL A   1      32.593  35.434  31.988  1.00  0.00     0.251 C 
ATOM     42  H   UNL A   1      31.676  36.307  30.432  1.00  0.00     0.163 HD
ATOM     43  O   UNL A   1      31.612  35.511  32.723  1.00  0.00    -0.269 OA
BRANCH  41  44
ATOM     44  C   UNL A   1      33.850  34.840  32.497  1.00  0.00     0.039 A 
ATOM     45  C   UNL A   1      35.035  35.578  32.513  1.00  0.00    -0.049 A 
ATOM     46  C   UNL A   1      33.845  33.515  32.945  1.00  0.00    -0.049 A 
ATOM     47  C   UNL A   1      36.237  34.943  32.809  1.00  0.00    -0.053 A 
ATOM     48  H   UNL A   1      35.019  36.589  32.306  1.00  0.00     0.063 H 
ATOM     49  C   UNL A   1      35.043  32.904  33.326  1.00  0.00    -0.053 A 
ATOM     50  H   UNL A   1      32.957  32.990  32.994  1.00  0.00     0.063 H 
ATOM     51  C   UNL A   1      36.257  33.598  33.212  1.00  0.00    -0.014 A 
ATOM     52  H   UNL A   1      37.122  35.467  32.731  1.00  0.00     0.063 H 
ATOM     53  H   UNL A   1      35.035  31.940  33.692  1.00  0.00     0.063 H 
BRANCH  51  54
ATOM     54  C   UNL A   1      37.562  32.948  33.505  1.00  0.00     0.031 A 
ATOM     55  C   UNL A   1      38.276  33.200  34.805  1.00  0.00     0.074 A 
ATOM     56  C   UNL A   1      38.068  32.069  32.619  1.00  0.00     0.049 A 
ATOM     57  N   UNL A   1      39.388  32.668  35.251  1.00  0.00    -0.248 NA
ATOM     58  C   UNL A   1      37.671  34.175  35.724  1.00  0.00    -0.034 C 
ATOM     59  C   UNL A   1      37.465  31.739  31.327  1.00  0.00    -0.036 A 
ATOM     60  N   UNL A   1      39.181  31.267  32.682  1.00  0.00    -0.354 N 
ATOM     61  C   UNL A   1      39.619  33.250  36.491  1.00  0.00     0.074 A 
ATOM     62  C   UNL A   1      38.552  34.201  36.716  1.00  0.00    -0.034 C 
ATOM     63  H   UNL A   1      36.790  34.702  35.625  1.00  0.00     0.065 H 
ATOM     64  C   UNL A   1      38.176  30.760  30.749  1.00  0.00    -0.036 A 
ATOM     65  H   UNL A   1      36.627  32.188  30.925  1.00  0.00     0.065 H 
ATOM     66  C   UNL A   1      39.316  30.434  31.599  1.00  0.00     0.049 A 
ATOM     67  H   UNL A   1      39.818  31.289  33.431  1.00  0.00     0.167 HD
ATOM     68  C   UNL A   1      40.621  33.001  37.368  1.00  0.00     0.037 A 
ATOM     69  H   UNL A   1      38.486  34.819  37.540  1.00  0.00     0.065 H 
ATOM     70  H   UNL A   1      37.953  30.310  29.847  1.00  0.00     0.065 H 
ATOM     71  C   UNL A   1      40.255  29.510  31.318  1.00  0.00     0.037 A 
ATOM     72  C   UNL A   1      41.669  32.037  37.154  1.00  0.00     0.049 A 
ATOM     73  C   UNL A   1      41.374  29.281  32.292  1.00  0.00     0.074 A 
ATOM     74  C   UNL A   1      42.713  31.698  37.997  1.00  0.00    -0.036 A 
ATOM     75  N   UNL A   1      41.806  31.257  36.015  1.00  0.00    -0.354 N 
ATOM     76  N   UNL A   1      41.570  29.827  33.467  1.00  0.00    -0.248 NA
ATOM     77  C   UNL A   1      42.410  28.315  31.897  1.00  0.00    -0.034 C 
ATOM     78  C   UNL A   1      43.504  30.744  37.353  1.00  0.00    -0.036 A 
ATOM     79  H   UNL A   1      42.877  32.083  38.941  1.00  0.00     0.065 H 
ATOM     80  C   UNL A   1      42.929  30.454  36.126  1.00  0.00     0.049 A 
ATOM     81  H   UNL A   1      41.196  31.273  35.242  1.00  0.00     0.167 HD
ATOM     82  C   UNL A   1      42.741  29.266  33.957  1.00  0.00     0.074 A 
ATOM     83  C   UNL A   1      43.203  28.322  32.960  1.00  0.00    -0.034 C 
ATOM     84  H   UNL A   1      42.497  27.774  31.023  1.00  0.00     0.065 H 
ATOM     85  H   UNL A   1      44.370  30.325  37.727  1.00  0.00     0.065 H 
ATOM     86  C   UNL A   1      43.377  29.518  35.127  1.00  0.00     0.037 A 
ATOM     87  H   UNL A   1      44.042  27.730  33.064  1.00  0.00     0.065 H 
BRANCH  68  88
ATOM     88  C   UNL A   1      40.642  33.781  38.650  1.00  0.00     0.064 A 
ATOM     89  C   UNL A   1      41.433  34.930  38.796  1.00  0.00     0.173 A 
ATOM     90  C   UNL A   1      39.803  33.423  39.716  1.00  0.00     0.173 A 
ATOM     91  F   UNL A   1      42.260  35.310  37.810  1.00  0.00    -0.203 F 
ATOM     92  C   UNL A   1      41.396  35.681  39.968  1.00  0.00     0.198 A 
ATOM     93  C   UNL A   1      39.750  34.191  40.877  1.00  0.00     0.198 A 
ATOM     94  F   UNL A   1      39.020  32.338  39.625  1.00  0.00    -0.203 F 
ATOM     95  F   UNL A   1      42.185  36.758  40.097  1.00  0.00    -0.200 F 
ATOM     96  C   UNL A   1      40.548  35.317  41.003  1.00  0.00     0.200 A 
ATOM     97  F   UNL A   1      38.920  33.844  41.870  1.00  0.00    -0.200 F 
ATOM     98  F   UNL A   1      40.503  36.050  42.123  1.00  0.00    -0.200 F 
ENDBRANCH  68  88
BRANCH  71  99
ATOM     99  C   UNL A   1      40.153  28.724  30.063  1.00  0.00     0.064 A 
ATOM    100  C   UNL A   1      40.737  29.188  28.877  1.00  0.00     0.173 A 
ATOM    101  C   UNL A   1      39.509  27.478  30.032  1.00  0.00     0.173 A 
ATOM    102  F   UNL A   1      41.347  30.382  28.853  1.00  0.00    -0.203 F 
ATOM    103  C   UNL A   1      40.681  28.434  27.706  1.00  0.00     0.198 A 
ATOM    104  C   UNL A   1      39.477  26.714  28.869  1.00  0.00     0.198 A 
ATOM    105  F   UNL A   1      38.938  26.991  31.143  1.00  0.00    -0.203 F 
ATOM    106  F   UNL A   1      41.226  28.910  26.579  1.00  0.00    -0.200 F 
ATOM    107  C   UNL A   1      40.060  27.194  27.705  1.00  0.00     0.200 A 
ATOM    108  F   UNL A   1      38.891  25.509  28.877  1.00  0.00    -0.200 F 
ATOM    109  F   UNL A   1      40.022  26.462  26.584  1.00  0.00    -0.200 F 
ENDBRANCH  71  99
BRANCH  86 110
ATOM    110  C   UNL A   1      44.638  28.757  35.408  1.00  0.00     0.064 A 
ATOM    111  C   UNL A   1      44.610  27.506  36.040  1.00  0.00     0.173 A 
ATOM    112  C   UNL A   1      45.877  29.248  34.972  1.00  0.00     0.173 A 
ATOM    113  F   UNL A   1      43.450  27.001  36.486  1.00  0.00    -0.203 F 
ATOM    114  C   UNL A   1      45.779  26.777  36.233  1.00  0.00     0.198 A 
ATOM    115  C   UNL A   1      47.042  28.505  35.144  1.00  0.00     0.198 A 
ATOM    116  F   UNL A   1      45.955  30.438  34.357  1.00  0.00    -0.203 F 
ATOM    117  F   UNL A   1      45.733  25.595  36.863  1.00  0.00    -0.200 F 
ATOM    118  C   UNL A   1      46.992  27.272  35.776  1.00  0.00     0.200 A 
ATOM    119  F   UNL A   1      48.211  28.980  34.691  1.00  0.00    -0.200 F 
ATOM    120  F   UNL A   1      48.114  26.560  35.948  1.00  0.00    -0.200 F 
ENDBRANCH  86 110
ENDBRANCH  51  54
ENDBRANCH  41  44
ENDBRANCH  37  40
ENDBRANCH  34  37
ENDBRANCH  31  34
ENDBRANCH   1  31
TORSDOF 15
ENDMDL
