MODEL 1
REMARK VINA RESULT:     -11.2      0.000      0.000
REMARK SMILES CCSc1cccc(-c2ccc([C@@H](C)C(=O)NCCCCCCNC(=O)c3ccc(-c4c5nc(c(-c6c(F)c(F)c(F)c(F)c6F)c6ccc([nH]6)c(-c6c(F)c(F)c(F)c(F)c6F)c6nc(c(-c7c(F)c(F)c(F)c(F)c7F)c7ccc4[nH]7)C=C6)C=C5)cc3)cc2)c1
REMARK SMILES IDX 19 1 18 4 17 7 15 8 16 9 13 11 12 13 9 14 10 15 91 16 11 17
REMARK SMILES IDX 90 19 8 23 4 24 5 25 92 26 6 27 7 30 3 33 2 34 1 37 14 41
REMARK SMILES IDX 20 45 21 48 22 51 23 54 24 57 25 58 26 60 27 61 28 62 89 63
REMARK SMILES IDX 29 64 88 66 30 68 31 71 32 72 82 73 33 74 87 75 81 76 83 77
REMARK SMILES IDX 34 78 86 79 80 81 79 83 35 85 67 88 47 89 66 90 48 91 51 92
REMARK SMILES IDX 65 93 84 94 49 95 50 97 64 99 85 100 52 103 36 105 37 106
REMARK SMILES IDX 45 107 38 108 39 109 43 110 46 111 40 112 41 113 44 114
REMARK SMILES IDX 42 115 68 116 69 117 77 118 70 119 71 120 75 121 78 122
REMARK SMILES IDX 72 123 73 124 76 125 74 126 53 127 54 128 62 129 55 130
REMARK SMILES IDX 56 131 60 132 63 133 57 134 58 135 61 136 59 137
REMARK H PARENT 19 2 19 3 18 5 18 6 17 10 13 12 10 18 91 20 11 21 90 22 5 28
REMARK H PARENT 92 29 6 31 7 32 2 35 2 36 1 38 1 39 1 40 14 42 14 43 14 44
REMARK H PARENT 20 46 20 47 21 49 21 50 22 52 22 53 23 55 23 56 24 59 28 65
REMARK H PARENT 89 67 29 69 88 70 87 80 81 82 83 84 86 86 80 87 48 96 51 98
REMARK H PARENT 84 101 49 102 85 104
REMARK Flexibility Score: inf
ROOT
ATOM      1  C   UNL A   1      33.770  27.014  25.174  1.00  0.00    -0.036 C 
ATOM      2  H   UNL A   1      34.311  27.696  25.796  1.00  0.00     0.028 H 
ATOM      3  H   UNL A   1      34.156  26.973  24.177  1.00  0.00     0.028 H 
ENDROOT
BRANCH   1   4
ATOM      4  C   UNL A   1      32.324  27.501  25.071  1.00  0.00     0.017 C 
ATOM      5  H   UNL A   1      31.695  26.839  25.628  1.00  0.00     0.049 H 
ATOM      6  H   UNL A   1      32.279  28.496  25.464  1.00  0.00     0.049 H 
BRANCH   4   7
ATOM      7  N   UNL A   1      31.866  27.540  23.699  1.00  0.00    -0.356 N 
ATOM      8  C   UNL A   1      31.003  26.741  23.014  1.00  0.00     0.227 C 
ATOM      9  O   UNL A   1      30.880  26.975  21.806  1.00  0.00    -0.274 OA
ATOM     10  H   UNL A   1      32.247  28.275  23.166  1.00  0.00     0.163 HD
BRANCH   8  11
ATOM     11  C   UNL A   1      30.190  25.612  23.662  1.00  0.00     0.060 C 
ATOM     12  H   UNL A   1      29.447  25.338  22.942  1.00  0.00     0.045 H 
BRANCH  11  13
ATOM     13  C   UNL A   1      30.976  24.323  23.847  1.00  0.00    -0.036 A 
ATOM     14  C   UNL A   1      32.595  21.978  24.145  1.00  0.00    -0.018 A 
ATOM     15  C   UNL A   1      31.751  22.430  25.171  1.00  0.00    -0.054 A 
ATOM     16  C   UNL A   1      32.583  22.716  22.951  1.00  0.00    -0.054 A 
ATOM     17  C   UNL A   1      30.935  23.559  25.016  1.00  0.00    -0.058 A 
ATOM     18  H   UNL A   1      31.730  21.916  26.066  1.00  0.00     0.063 H 
ATOM     19  C   UNL A   1      31.808  23.876  22.811  1.00  0.00    -0.058 A 
ATOM     20  H   UNL A   1      33.159  22.398  22.157  1.00  0.00     0.063 H 
ATOM     21  H   UNL A   1      30.294  23.830  25.777  1.00  0.00     0.063 H 
ATOM     22  H   UNL A   1      31.849  24.410  21.929  1.00  0.00     0.063 H 
BRANCH  14  23
ATOM     23  C   UNL A   1      33.460  20.784  24.323  1.00  0.00    -0.017 A 
ATOM     24  C   UNL A   1      33.830  18.365  24.119  1.00  0.00     0.008 A 
ATOM     25  C   UNL A   1      35.116  18.507  24.637  1.00  0.00    -0.049 A 
ATOM     26  C   UNL A   1      33.016  19.496  23.964  1.00  0.00    -0.041 A 
ATOM     27  C   UNL A   1      35.583  19.767  24.997  1.00  0.00    -0.061 A 
ATOM     28  H   UNL A   1      35.722  17.679  24.751  1.00  0.00     0.063 H 
ATOM     29  H   UNL A   1      32.067  19.382  23.576  1.00  0.00     0.064 H 
ATOM     30  C   UNL A   1      34.760  20.888  24.850  1.00  0.00    -0.054 A 
ATOM     31  H   UNL A   1      36.537  19.875  25.375  1.00  0.00     0.062 H 
ATOM     32  H   UNL A   1      35.115  21.814  25.133  1.00  0.00     0.063 H 
BRANCH  24  33
ATOM     33  S   UNL A   1      33.179  16.755  23.710  1.00  0.00    -0.126 SA
BRANCH  33  34
ATOM     34  C   UNL A   1      33.569  15.844  25.241  1.00  0.00    -0.005 C 
ATOM     35  H   UNL A   1      34.329  15.120  25.029  1.00  0.00     0.038 H 
ATOM     36  H   UNL A   1      33.905  16.549  25.972  1.00  0.00     0.038 H 
BRANCH  34  37
ATOM     37  C   UNL A   1      32.349  15.130  25.796  1.00  0.00    -0.056 C 
ATOM     38  H   UNL A   1      31.492  15.761  25.698  1.00  0.00     0.024 H 
ATOM     39  H   UNL A   1      32.508  14.903  26.830  1.00  0.00     0.024 H 
ATOM     40  H   UNL A   1      32.190  14.223  25.252  1.00  0.00     0.024 H 
ENDBRANCH  34  37
ENDBRANCH  33  34
ENDBRANCH  24  33
ENDBRANCH  14  23
ENDBRANCH  11  13
BRANCH  11  41
ATOM     41  C   UNL A   1      29.341  26.059  24.853  1.00  0.00    -0.049 C 
ATOM     42  H   UNL A   1      29.224  25.243  25.535  1.00  0.00     0.024 H 
ATOM     43  H   UNL A   1      28.378  26.375  24.507  1.00  0.00     0.024 H 
ATOM     44  H   UNL A   1      29.826  26.873  25.351  1.00  0.00     0.024 H 
ENDBRANCH  11  41
ENDBRANCH   8  11
ENDBRANCH   4   7
ENDBRANCH   1   4
BRANCH   1  45
ATOM     45  C   UNL A   1      33.912  25.607  25.764  1.00  0.00    -0.052 C 
ATOM     46  H   UNL A   1      32.936  25.173  25.825  1.00  0.00     0.027 H 
ATOM     47  H   UNL A   1      34.385  25.731  26.716  1.00  0.00     0.027 H 
BRANCH  45  48
ATOM     48  C   UNL A   1      34.808  24.650  24.967  1.00  0.00    -0.052 C 
ATOM     49  H   UNL A   1      35.197  25.187  24.127  1.00  0.00     0.027 H 
ATOM     50  H   UNL A   1      34.186  23.821  24.700  1.00  0.00     0.027 H 
BRANCH  48  51
ATOM     51  C   UNL A   1      35.992  24.055  25.736  1.00  0.00    -0.036 C 
ATOM     52  H   UNL A   1      35.659  23.163  26.222  1.00  0.00     0.028 H 
ATOM     53  H   UNL A   1      36.317  24.814  26.418  1.00  0.00     0.028 H 
BRANCH  51  54
ATOM     54  C   UNL A   1      37.205  23.704  24.878  1.00  0.00     0.018 C 
ATOM     55  H   UNL A   1      37.792  24.586  24.732  1.00  0.00     0.049 H 
ATOM     56  H   UNL A   1      36.849  23.317  23.945  1.00  0.00     0.049 H 
BRANCH  54  57
ATOM     57  N   UNL A   1      38.036  22.686  25.500  1.00  0.00    -0.352 N 
ATOM     58  C   UNL A   1      39.143  22.819  26.301  1.00  0.00     0.251 C 
ATOM     59  H   UNL A   1      37.763  21.757  25.318  1.00  0.00     0.163 HD
ATOM     60  O   UNL A   1      39.840  21.841  26.552  1.00  0.00    -0.269 OA
BRANCH  58  61
ATOM     61  C   UNL A   1      39.509  24.139  26.858  1.00  0.00     0.039 A 
ATOM     62  C   UNL A   1      39.123  24.448  28.166  1.00  0.00    -0.049 A 
ATOM     63  C   UNL A   1      40.188  25.086  26.087  1.00  0.00    -0.049 A 
ATOM     64  C   UNL A   1      39.465  25.684  28.719  1.00  0.00    -0.053 A 
ATOM     65  H   UNL A   1      38.585  23.764  28.723  1.00  0.00     0.063 H 
ATOM     66  C   UNL A   1      40.583  26.294  26.658  1.00  0.00    -0.053 A 
ATOM     67  H   UNL A   1      40.397  24.890  25.096  1.00  0.00     0.063 H 
ATOM     68  C   UNL A   1      40.223  26.607  27.978  1.00  0.00    -0.014 A 
ATOM     69  H   UNL A   1      39.160  25.922  29.675  1.00  0.00     0.063 H 
ATOM     70  H   UNL A   1      41.143  26.963  26.107  1.00  0.00     0.063 H 
BRANCH  68  71
ATOM     71  C   UNL A   1      40.652  27.897  28.572  1.00  0.00     0.031 A 
ATOM     72  C   UNL A   1      42.077  28.098  29.005  1.00  0.00     0.074 A 
ATOM     73  C   UNL A   1      39.741  28.866  28.782  1.00  0.00     0.049 A 
ATOM     74  N   UNL A   1      42.624  29.126  29.604  1.00  0.00    -0.248 NA
ATOM     75  C   UNL A   1      43.007  26.984  28.757  1.00  0.00    -0.034 C 
ATOM     76  C   UNL A   1      38.318  28.772  28.452  1.00  0.00    -0.036 A 
ATOM     77  N   UNL A   1      39.871  30.115  29.337  1.00  0.00    -0.354 N 
ATOM     78  C   UNL A   1      43.951  28.778  29.817  1.00  0.00     0.074 A 
ATOM     79  C   UNL A   1      44.119  27.428  29.326  1.00  0.00    -0.034 C 
ATOM     80  H   UNL A   1      42.836  26.091  28.269  1.00  0.00     0.065 H 
ATOM     81  C   UNL A   1      37.710  29.918  28.797  1.00  0.00    -0.036 A 
ATOM     82  H   UNL A   1      37.855  27.955  28.023  1.00  0.00     0.065 H 
ATOM     83  C   UNL A   1      38.691  30.815  29.401  1.00  0.00     0.049 A 
ATOM     84  H   UNL A   1      40.729  30.475  29.658  1.00  0.00     0.167 HD
ATOM     85  C   UNL A   1      44.943  29.526  30.357  1.00  0.00     0.037 A 
ATOM     86  H   UNL A   1      44.990  26.882  29.407  1.00  0.00     0.065 H 
ATOM     87  H   UNL A   1      36.710  30.131  28.657  1.00  0.00     0.065 H 
ATOM     88  C   UNL A   1      38.429  32.039  29.897  1.00  0.00     0.037 A 
ATOM     89  C   UNL A   1      44.781  30.881  30.815  1.00  0.00     0.049 A 
ATOM     90  C   UNL A   1      39.553  32.853  30.477  1.00  0.00     0.074 A 
ATOM     91  C   UNL A   1      45.742  31.747  31.309  1.00  0.00    -0.036 A 
ATOM     92  N   UNL A   1      43.577  31.568  30.836  1.00  0.00    -0.354 N 
ATOM     93  N   UNL A   1      40.819  32.541  30.607  1.00  0.00    -0.248 NA
ATOM     94  C   UNL A   1      39.211  34.194  30.973  1.00  0.00    -0.034 C 
ATOM     95  C   UNL A   1      45.112  32.942  31.669  1.00  0.00    -0.036 A 
ATOM     96  H   UNL A   1      46.750  31.544  31.397  1.00  0.00     0.065 H 
ATOM     97  C   UNL A   1      43.766  32.839  31.355  1.00  0.00     0.049 A 
ATOM     98  H   UNL A   1      42.714  31.207  30.529  1.00  0.00     0.167 HD
ATOM     99  C   UNL A   1      41.430  33.651  31.173  1.00  0.00     0.074 A 
ATOM    100  C   UNL A   1      40.398  34.652  31.349  1.00  0.00    -0.034 C 
ATOM    101  H   UNL A   1      38.291  34.658  31.016  1.00  0.00     0.065 H 
ATOM    102  H   UNL A   1      45.571  33.763  32.094  1.00  0.00     0.065 H 
ATOM    103  C   UNL A   1      42.729  33.825  31.518  1.00  0.00     0.037 A 
ATOM    104  H   UNL A   1      40.564  35.600  31.720  1.00  0.00     0.065 H 
BRANCH  85 105
ATOM    105  C   UNL A   1      46.302  28.898  30.480  1.00  0.00     0.064 A 
ATOM    106  C   UNL A   1      47.248  28.986  29.447  1.00  0.00     0.173 A 
ATOM    107  C   UNL A   1      46.677  28.241  31.661  1.00  0.00     0.173 A 
ATOM    108  F   UNL A   1      46.934  29.594  28.294  1.00  0.00    -0.203 F 
ATOM    109  C   UNL A   1      48.512  28.418  29.584  1.00  0.00     0.198 A 
ATOM    110  C   UNL A   1      47.952  27.699  31.804  1.00  0.00     0.198 A 
ATOM    111  F   UNL A   1      45.813  28.134  32.681  1.00  0.00    -0.203 F 
ATOM    112  F   UNL A   1      49.384  28.476  28.569  1.00  0.00    -0.200 F 
ATOM    113  C   UNL A   1      48.866  27.782  30.765  1.00  0.00     0.200 A 
ATOM    114  F   UNL A   1      48.297  27.095  32.951  1.00  0.00    -0.200 F 
ATOM    115  F   UNL A   1      50.086  27.244  30.898  1.00  0.00    -0.200 F 
ENDBRANCH  85 105
BRANCH  88 116
ATOM    116  C   UNL A   1      37.045  32.577  29.846  1.00  0.00     0.064 A 
ATOM    117  C   UNL A   1      36.590  33.286  28.725  1.00  0.00     0.173 A 
ATOM    118  C   UNL A   1      36.152  32.396  30.912  1.00  0.00     0.173 A 
ATOM    119  F   UNL A   1      37.415  33.501  27.690  1.00  0.00    -0.203 F 
ATOM    120  C   UNL A   1      35.300  33.810  28.681  1.00  0.00     0.198 A 
ATOM    121  C   UNL A   1      34.854  32.898  30.856  1.00  0.00     0.198 A 
ATOM    122  F   UNL A   1      36.538  31.721  32.005  1.00  0.00    -0.203 F 
ATOM    123  F   UNL A   1      34.905  34.521  27.616  1.00  0.00    -0.200 F 
ATOM    124  C   UNL A   1      34.431  33.611  29.743  1.00  0.00     0.200 A 
ATOM    125  F   UNL A   1      34.013  32.692  31.878  1.00  0.00    -0.200 F 
ATOM    126  F   UNL A   1      33.190  34.112  29.699  1.00  0.00    -0.200 F 
ENDBRANCH  88 116
BRANCH 103 127
ATOM    127  C   UNL A   1      43.112  35.156  32.095  1.00  0.00     0.064 A 
ATOM    128  C   UNL A   1      43.628  36.183  31.292  1.00  0.00     0.173 A 
ATOM    129  C   UNL A   1      42.925  35.418  33.461  1.00  0.00     0.173 A 
ATOM    130  F   UNL A   1      43.839  35.976  29.983  1.00  0.00    -0.203 F 
ATOM    131  C   UNL A   1      43.965  37.418  31.840  1.00  0.00     0.198 A 
ATOM    132  C   UNL A   1      43.239  36.662  34.000  1.00  0.00     0.198 A 
ATOM    133  F   UNL A   1      42.430  34.470  34.269  1.00  0.00    -0.203 F 
ATOM    134  F   UNL A   1      44.499  38.371  31.063  1.00  0.00    -0.200 F 
ATOM    135  C   UNL A   1      43.764  37.658  33.192  1.00  0.00     0.200 A 
ATOM    136  F   UNL A   1      43.031  36.897  35.303  1.00  0.00    -0.200 F 
ATOM    137  F   UNL A   1      44.084  38.850  33.717  1.00  0.00    -0.200 F 
ENDBRANCH 103 127
ENDBRANCH  68  71
ENDBRANCH  58  61
ENDBRANCH  54  57
ENDBRANCH  51  54
ENDBRANCH  48  51
ENDBRANCH  45  48
ENDBRANCH   1  45
TORSDOF 19
ENDMDL
MODEL 2
REMARK VINA RESULT:     -11.1      0.961      2.374
REMARK SMILES CCSc1cccc(-c2ccc([C@@H](C)C(=O)NCCCCCCNC(=O)c3ccc(-c4c5nc(c(-c6c(F)c(F)c(F)c(F)c6F)c6ccc([nH]6)c(-c6c(F)c(F)c(F)c(F)c6F)c6nc(c(-c7c(F)c(F)c(F)c(F)c7F)c7ccc4[nH]7)C=C6)C=C5)cc3)cc2)c1
REMARK SMILES IDX 19 1 18 4 17 7 15 8 16 9 13 11 12 13 9 14 10 15 91 16 11 17
REMARK SMILES IDX 90 19 8 23 4 24 5 25 92 26 6 27 7 30 3 33 2 34 1 37 14 41
REMARK SMILES IDX 20 45 21 48 22 51 23 54 24 57 25 58 26 60 27 61 28 62 89 63
REMARK SMILES IDX 29 64 88 66 30 68 31 71 32 72 82 73 33 74 87 75 81 76 83 77
REMARK SMILES IDX 34 78 86 79 80 81 79 83 35 85 67 88 47 89 66 90 48 91 51 92
REMARK SMILES IDX 65 93 84 94 49 95 50 97 64 99 85 100 52 103 36 105 37 106
REMARK SMILES IDX 45 107 38 108 39 109 43 110 46 111 40 112 41 113 44 114
REMARK SMILES IDX 42 115 68 116 69 117 77 118 70 119 71 120 75 121 78 122
REMARK SMILES IDX 72 123 73 124 76 125 74 126 53 127 54 128 62 129 55 130
REMARK SMILES IDX 56 131 60 132 63 133 57 134 58 135 61 136 59 137
REMARK H PARENT 19 2 19 3 18 5 18 6 17 10 13 12 10 18 91 20 11 21 90 22 5 28
REMARK H PARENT 92 29 6 31 7 32 2 35 2 36 1 38 1 39 1 40 14 42 14 43 14 44
REMARK H PARENT 20 46 20 47 21 49 21 50 22 52 22 53 23 55 23 56 24 59 28 65
REMARK H PARENT 89 67 29 69 88 70 87 80 81 82 83 84 86 86 80 87 48 96 51 98
REMARK H PARENT 84 101 49 102 85 104
REMARK Flexibility Score: inf
ROOT
ATOM      1  C   UNL A   1      34.028  26.176  25.734  1.00  0.00    -0.036 C 
ATOM      2  H   UNL A   1      34.499  26.508  26.635  1.00  0.00     0.028 H 
ATOM      3  H   UNL A   1      34.733  25.921  24.971  1.00  0.00     0.028 H 
ENDROOT
BRANCH   1   4
ATOM      4  C   UNL A   1      33.177  27.324  25.186  1.00  0.00     0.017 C 
ATOM      5  H   UNL A   1      32.170  26.984  25.070  1.00  0.00     0.049 H 
ATOM      6  H   UNL A   1      33.231  28.138  25.879  1.00  0.00     0.049 H 
BRANCH   4   7
ATOM      7  N   UNL A   1      33.665  27.792  23.907  1.00  0.00    -0.356 N 
ATOM      8  C   UNL A   1      33.231  27.560  22.637  1.00  0.00     0.227 C 
ATOM      9  O   UNL A   1      33.921  28.033  21.726  1.00  0.00    -0.274 OA
ATOM     10  H   UNL A   1      34.450  28.382  23.964  1.00  0.00     0.163 HD
BRANCH   8  11
ATOM     11  C   UNL A   1      31.953  26.778  22.303  1.00  0.00     0.060 C 
ATOM     12  H   UNL A   1      31.816  26.883  21.247  1.00  0.00     0.045 H 
BRANCH  11  13
ATOM     13  C   UNL A   1      32.095  25.274  22.480  1.00  0.00    -0.036 A 
ATOM     14  C   UNL A   1      32.208  22.423  22.747  1.00  0.00    -0.018 A 
ATOM     15  C   UNL A   1      33.233  23.150  22.123  1.00  0.00    -0.054 A 
ATOM     16  C   UNL A   1      31.136  23.168  23.265  1.00  0.00    -0.054 A 
ATOM     17  C   UNL A   1      33.194  24.546  22.018  1.00  0.00    -0.058 A 
ATOM     18  H   UNL A   1      34.040  22.640  21.728  1.00  0.00     0.063 H 
ATOM     19  C   UNL A   1      31.069  24.561  23.115  1.00  0.00    -0.058 A 
ATOM     20  H   UNL A   1      30.379  22.680  23.766  1.00  0.00     0.063 H 
ATOM     21  H   UNL A   1      33.991  25.045  21.593  1.00  0.00     0.063 H 
ATOM     22  H   UNL A   1      30.250  25.072  23.481  1.00  0.00     0.063 H 
BRANCH  14  23
ATOM     23  C   UNL A   1      32.256  20.943  22.847  1.00  0.00    -0.017 A 
ATOM     24  C   UNL A   1      32.521  18.899  24.182  1.00  0.00     0.008 A 
ATOM     25  C   UNL A   1      32.324  18.117  23.046  1.00  0.00    -0.049 A 
ATOM     26  C   UNL A   1      32.484  20.297  24.078  1.00  0.00    -0.041 A 
ATOM     27  C   UNL A   1      32.094  18.727  21.817  1.00  0.00    -0.061 A 
ATOM     28  H   UNL A   1      32.348  17.088  23.116  1.00  0.00     0.063 H 
ATOM     29  H   UNL A   1      32.627  20.867  24.926  1.00  0.00     0.064 H 
ATOM     30  C   UNL A   1      32.070  20.122  21.720  1.00  0.00    -0.054 A 
ATOM     31  H   UNL A   1      31.941  18.150  20.975  1.00  0.00     0.062 H 
ATOM     32  H   UNL A   1      31.910  20.560  20.800  1.00  0.00     0.063 H 
BRANCH  24  33
ATOM     33  S   UNL A   1      32.885  18.148  25.759  1.00  0.00    -0.126 SA
BRANCH  33  34
ATOM     34  C   UNL A   1      33.192  16.427  25.241  1.00  0.00    -0.005 C 
ATOM     35  H   UNL A   1      32.742  15.766  25.952  1.00  0.00     0.038 H 
ATOM     36  H   UNL A   1      32.767  16.291  24.269  1.00  0.00     0.038 H 
BRANCH  34  37
ATOM     37  C   UNL A   1      34.677  16.122  25.157  1.00  0.00    -0.056 C 
ATOM     38  H   UNL A   1      34.816  15.083  24.942  1.00  0.00     0.024 H 
ATOM     39  H   UNL A   1      35.144  16.358  26.091  1.00  0.00     0.024 H 
ATOM     40  H   UNL A   1      35.118  16.709  24.379  1.00  0.00     0.024 H 
ENDBRANCH  34  37
ENDBRANCH  33  34
ENDBRANCH  24  33
ENDBRANCH  14  23
ENDBRANCH  11  13
BRANCH  11  41
ATOM     41  C   UNL A   1      30.674  27.403  22.862  1.00  0.00    -0.049 C 
ATOM     42  H   UNL A   1      30.574  28.402  22.493  1.00  0.00     0.024 H 
ATOM     43  H   UNL A   1      30.724  27.422  23.931  1.00  0.00     0.024 H 
ATOM     44  H   UNL A   1      29.829  26.823  22.555  1.00  0.00     0.024 H 
ENDBRANCH  11  41
ENDBRANCH   8  11
ENDBRANCH   4   7
ENDBRANCH   1   4
BRANCH   1  45
ATOM     45  C   UNL A   1      33.230  24.906  26.045  1.00  0.00    -0.052 C 
ATOM     46  H   UNL A   1      32.311  24.949  25.499  1.00  0.00     0.027 H 
ATOM     47  H   UNL A   1      33.096  24.892  27.107  1.00  0.00     0.027 H 
BRANCH  45  48
ATOM     48  C   UNL A   1      33.932  23.588  25.689  1.00  0.00    -0.052 C 
ATOM     49  H   UNL A   1      34.206  23.631  24.656  1.00  0.00     0.027 H 
ATOM     50  H   UNL A   1      33.233  22.812  25.920  1.00  0.00     0.027 H 
BRANCH  48  51
ATOM     51  C   UNL A   1      35.194  23.270  26.498  1.00  0.00    -0.036 C 
ATOM     52  H   UNL A   1      35.240  22.210  26.639  1.00  0.00     0.028 H 
ATOM     53  H   UNL A   1      35.107  23.816  27.415  1.00  0.00     0.028 H 
BRANCH  51  54
ATOM     54  C   UNL A   1      36.502  23.721  25.854  1.00  0.00     0.018 C 
ATOM     55  H   UNL A   1      36.831  24.620  26.332  1.00  0.00     0.049 H 
ATOM     56  H   UNL A   1      36.319  23.882  24.812  1.00  0.00     0.049 H 
BRANCH  54  57
ATOM     57  N   UNL A   1      37.545  22.716  25.978  1.00  0.00    -0.352 N 
ATOM     58  C   UNL A   1      38.864  22.852  26.334  1.00  0.00     0.251 C 
ATOM     59  H   UNL A   1      37.263  21.795  25.774  1.00  0.00     0.163 HD
ATOM     60  O   UNL A   1      39.643  21.919  26.171  1.00  0.00    -0.269 OA
BRANCH  58  61
ATOM     61  C   UNL A   1      39.357  24.123  26.907  1.00  0.00     0.039 A 
ATOM     62  C   UNL A   1      40.026  25.023  26.072  1.00  0.00    -0.049 A 
ATOM     63  C   UNL A   1      39.205  24.411  28.266  1.00  0.00    -0.049 A 
ATOM     64  C   UNL A   1      40.494  26.234  26.586  1.00  0.00    -0.053 A 
ATOM     65  H   UNL A   1      40.176  24.792  25.076  1.00  0.00     0.063 H 
ATOM     66  C   UNL A   1      39.616  25.645  28.766  1.00  0.00    -0.053 A 
ATOM     67  H   UNL A   1      38.788  23.710  28.898  1.00  0.00     0.063 H 
ATOM     68  C   UNL A   1      40.267  26.567  27.932  1.00  0.00    -0.014 A 
ATOM     69  H   UNL A   1      41.008  26.888  25.976  1.00  0.00     0.063 H 
ATOM     70  H   UNL A   1      39.441  25.881  29.755  1.00  0.00     0.063 H 
BRANCH  68  71
ATOM     71  C   UNL A   1      40.697  27.878  28.480  1.00  0.00     0.031 A 
ATOM     72  C   UNL A   1      42.132  28.106  28.865  1.00  0.00     0.074 A 
ATOM     73  C   UNL A   1      39.781  28.842  28.692  1.00  0.00     0.049 A 
ATOM     74  N   UNL A   1      42.683  29.157  29.420  1.00  0.00    -0.248 NA
ATOM     75  C   UNL A   1      43.067  26.997  28.619  1.00  0.00    -0.034 C 
ATOM     76  C   UNL A   1      38.350  28.722  28.406  1.00  0.00    -0.036 A 
ATOM     77  N   UNL A   1      39.912  30.106  29.209  1.00  0.00    -0.354 N 
ATOM     78  C   UNL A   1      44.021  28.830  29.603  1.00  0.00     0.074 A 
ATOM     79  C   UNL A   1      44.191  27.468  29.142  1.00  0.00    -0.034 C 
ATOM     80  H   UNL A   1      42.894  26.090  28.159  1.00  0.00     0.065 H 
ATOM     81  C   UNL A   1      37.739  29.871  28.739  1.00  0.00    -0.036 A 
ATOM     82  H   UNL A   1      37.885  27.890  28.012  1.00  0.00     0.065 H 
ATOM     83  C   UNL A   1      38.726  30.794  29.290  1.00  0.00     0.049 A 
ATOM     84  H   UNL A   1      40.775  30.485  29.495  1.00  0.00     0.167 HD
ATOM     85  C   UNL A   1      45.019  29.603  30.093  1.00  0.00     0.037 A 
ATOM     86  H   UNL A   1      45.070  26.935  29.212  1.00  0.00     0.065 H 
ATOM     87  H   UNL A   1      36.732  30.068  28.623  1.00  0.00     0.065 H 
ATOM     88  C   UNL A   1      38.463  32.028  29.761  1.00  0.00     0.037 A 
ATOM     89  C   UNL A   1      44.853  30.968  30.520  1.00  0.00     0.049 A 
ATOM     90  C   UNL A   1      39.594  32.870  30.286  1.00  0.00     0.074 A 
ATOM     91  C   UNL A   1      45.818  31.857  30.962  1.00  0.00    -0.036 A 
ATOM     92  N   UNL A   1      43.642  31.641  30.559  1.00  0.00    -0.354 N 
ATOM     93  N   UNL A   1      40.867  32.576  30.386  1.00  0.00    -0.248 NA
ATOM     94  C   UNL A   1      39.251  34.220  30.756  1.00  0.00    -0.034 C 
ATOM     95  C   UNL A   1      45.184  33.055  31.310  1.00  0.00    -0.036 A 
ATOM     96  H   UNL A   1      46.831  31.669  31.026  1.00  0.00     0.065 H 
ATOM     97  C   UNL A   1      43.831  32.928  31.039  1.00  0.00     0.049 A 
ATOM     98  H   UNL A   1      42.775  31.262  30.287  1.00  0.00     0.167 HD
ATOM     99  C   UNL A   1      41.481  33.707  30.905  1.00  0.00     0.074 A 
ATOM    100  C   UNL A   1      40.442  34.701  31.084  1.00  0.00    -0.034 C 
ATOM    101  H   UNL A   1      38.327  34.674  30.814  1.00  0.00     0.065 H 
ATOM    102  H   UNL A   1      45.645  33.891  31.699  1.00  0.00     0.065 H 
ATOM    103  C   UNL A   1      42.787  33.906  31.206  1.00  0.00     0.037 A 
ATOM    104  H   UNL A   1      40.607  35.660  31.425  1.00  0.00     0.065 H 
BRANCH  85 105
ATOM    105  C   UNL A   1      46.388  28.994  30.192  1.00  0.00     0.064 A 
ATOM    106  C   UNL A   1      46.819  28.341  31.356  1.00  0.00     0.173 A 
ATOM    107  C   UNL A   1      47.260  29.024  29.093  1.00  0.00     0.173 A 
ATOM    108  F   UNL A   1      46.027  28.295  32.437  1.00  0.00    -0.203 F 
ATOM    109  C   UNL A   1      48.084  27.762  31.425  1.00  0.00     0.198 A 
ATOM    110  C   UNL A   1      48.513  28.418  29.157  1.00  0.00     0.198 A 
ATOM    111  F   UNL A   1      46.895  29.630  27.954  1.00  0.00    -0.203 F 
ATOM    112  F   UNL A   1      48.492  27.182  32.562  1.00  0.00    -0.200 F 
ATOM    113  C   UNL A   1      48.926  27.793  30.324  1.00  0.00     0.200 A 
ATOM    114  F   UNL A   1      49.322  28.440  28.087  1.00  0.00    -0.200 F 
ATOM    115  F   UNL A   1      50.139  27.228  30.390  1.00  0.00    -0.200 F 
ENDBRANCH  85 105
BRANCH  88 116
ATOM    116  C   UNL A   1      37.072  32.549  29.737  1.00  0.00     0.064 A 
ATOM    117  C   UNL A   1      36.208  32.338  30.820  1.00  0.00     0.173 A 
ATOM    118  C   UNL A   1      36.580  33.265  28.637  1.00  0.00     0.173 A 
ATOM    119  F   UNL A   1      36.628  31.641  31.886  1.00  0.00    -0.203 F 
ATOM    120  C   UNL A   1      34.896  32.807  30.794  1.00  0.00     0.198 A 
ATOM    121  C   UNL A   1      35.277  33.757  28.624  1.00  0.00     0.198 A 
ATOM    122  F   UNL A   1      37.370  33.498  27.578  1.00  0.00    -0.203 F 
ATOM    123  F   UNL A   1      34.077  32.554  31.824  1.00  0.00    -0.200 F 
ATOM    124  C   UNL A   1      34.433  33.520  29.699  1.00  0.00     0.200 A 
ATOM    125  F   UNL A   1      34.837  34.457  27.569  1.00  0.00    -0.200 F 
ATOM    126  F   UNL A   1      33.173  33.974  29.677  1.00  0.00    -0.200 F 
ENDBRANCH  88 116
BRANCH 103 127
ATOM    127  C   UNL A   1      43.171  35.256  31.736  1.00  0.00     0.064 A 
ATOM    128  C   UNL A   1      43.082  35.562  33.101  1.00  0.00     0.173 A 
ATOM    129  C   UNL A   1      43.671  36.242  30.871  1.00  0.00     0.173 A 
ATOM    130  F   UNL A   1      42.596  34.658  33.966  1.00  0.00    -0.203 F 
ATOM    131  C   UNL A   1      43.456  36.815  33.579  1.00  0.00     0.198 A 
ATOM    132  C   UNL A   1      44.069  37.484  31.356  1.00  0.00     0.198 A 
ATOM    133  F   UNL A   1      43.781  35.995  29.557  1.00  0.00    -0.203 F 
ATOM    134  F   UNL A   1      43.320  37.102  34.881  1.00  0.00    -0.200 F 
ATOM    135  C   UNL A   1      43.956  37.772  32.707  1.00  0.00     0.200 A 
ATOM    136  F   UNL A   1      44.564  38.402  30.514  1.00  0.00    -0.200 F 
ATOM    137  F   UNL A   1      44.322  38.976  33.169  1.00  0.00    -0.200 F 
ENDBRANCH 103 127
ENDBRANCH  68  71
ENDBRANCH  58  61
ENDBRANCH  54  57
ENDBRANCH  51  54
ENDBRANCH  48  51
ENDBRANCH  45  48
ENDBRANCH   1  45
TORSDOF 19
ENDMDL
MODEL 3
REMARK VINA RESULT:     -10.9      2.486      7.506
REMARK SMILES CCSc1cccc(-c2ccc([C@@H](C)C(=O)NCCCCCCNC(=O)c3ccc(-c4c5nc(c(-c6c(F)c(F)c(F)c(F)c6F)c6ccc([nH]6)c(-c6c(F)c(F)c(F)c(F)c6F)c6nc(c(-c7c(F)c(F)c(F)c(F)c7F)c7ccc4[nH]7)C=C6)C=C5)cc3)cc2)c1
REMARK SMILES IDX 19 1 18 4 17 7 15 8 16 9 13 11 12 13 9 14 10 15 91 16 11 17
REMARK SMILES IDX 90 19 8 23 4 24 5 25 92 26 6 27 7 30 3 33 2 34 1 37 14 41
REMARK SMILES IDX 20 45 21 48 22 51 23 54 24 57 25 58 26 60 27 61 28 62 89 63
REMARK SMILES IDX 29 64 88 66 30 68 31 71 32 72 82 73 33 74 87 75 81 76 83 77
REMARK SMILES IDX 34 78 86 79 80 81 79 83 35 85 67 88 47 89 66 90 48 91 51 92
REMARK SMILES IDX 65 93 84 94 49 95 50 97 64 99 85 100 52 103 36 105 37 106
REMARK SMILES IDX 45 107 38 108 39 109 43 110 46 111 40 112 41 113 44 114
REMARK SMILES IDX 42 115 68 116 69 117 77 118 70 119 71 120 75 121 78 122
REMARK SMILES IDX 72 123 73 124 76 125 74 126 53 127 54 128 62 129 55 130
REMARK SMILES IDX 56 131 60 132 63 133 57 134 58 135 61 136 59 137
REMARK H PARENT 19 2 19 3 18 5 18 6 17 10 13 12 10 18 91 20 11 21 90 22 5 28
REMARK H PARENT 92 29 6 31 7 32 2 35 2 36 1 38 1 39 1 40 14 42 14 43 14 44
REMARK H PARENT 20 46 20 47 21 49 21 50 22 52 22 53 23 55 23 56 24 59 28 65
REMARK H PARENT 89 67 29 69 88 70 87 80 81 82 83 84 86 86 80 87 48 96 51 98
REMARK H PARENT 84 101 49 102 85 104
REMARK Flexibility Score: inf
ROOT
ATOM      1  C   UNL A   1      34.158  25.655  25.522  1.00  0.00    -0.036 C 
ATOM      2  H   UNL A   1      34.960  25.854  26.202  1.00  0.00     0.028 H 
ATOM      3  H   UNL A   1      34.501  25.268  24.585  1.00  0.00     0.028 H 
ENDROOT
BRANCH   1   4
ATOM      4  C   UNL A   1      33.442  26.973  25.223  1.00  0.00     0.017 C 
ATOM      5  H   UNL A   1      32.386  26.803  25.231  1.00  0.00     0.049 H 
ATOM      6  H   UNL A   1      33.723  27.682  25.974  1.00  0.00     0.049 H 
BRANCH   4   7
ATOM      7  N   UNL A   1      33.821  27.511  23.935  1.00  0.00    -0.356 N 
ATOM      8  C   UNL A   1      33.284  27.344  22.695  1.00  0.00     0.227 C 
ATOM      9  O   UNL A   1      33.896  27.869  21.756  1.00  0.00    -0.274 OA
ATOM     10  H   UNL A   1      34.608  28.103  23.958  1.00  0.00     0.163 HD
BRANCH   8  11
ATOM     11  C   UNL A   1      31.986  26.571  22.426  1.00  0.00     0.060 C 
ATOM     12  H   UNL A   1      31.799  26.674  21.377  1.00  0.00     0.045 H 
BRANCH  11  13
ATOM     13  C   UNL A   1      32.123  25.066  22.601  1.00  0.00    -0.036 A 
ATOM     14  C   UNL A   1      32.232  22.215  22.858  1.00  0.00    -0.018 A 
ATOM     15  C   UNL A   1      33.290  22.949  22.301  1.00  0.00    -0.054 A 
ATOM     16  C   UNL A   1      31.128  22.952  23.314  1.00  0.00    -0.054 A 
ATOM     17  C   UNL A   1      33.251  24.346  22.202  1.00  0.00    -0.058 A 
ATOM     18  H   UNL A   1      34.122  22.445  21.952  1.00  0.00     0.063 H 
ATOM     19  C   UNL A   1      31.064  24.345  23.169  1.00  0.00    -0.058 A 
ATOM     20  H   UNL A   1      30.344  22.457  23.766  1.00  0.00     0.063 H 
ATOM     21  H   UNL A   1      34.070  24.851  21.829  1.00  0.00     0.063 H 
ATOM     22  H   UNL A   1      30.222  24.850  23.488  1.00  0.00     0.063 H 
BRANCH  14  23
ATOM     23  C   UNL A   1      32.281  20.734  22.951  1.00  0.00    -0.017 A 
ATOM     24  C   UNL A   1      32.524  18.684  24.281  1.00  0.00     0.008 A 
ATOM     25  C   UNL A   1      32.350  17.907  23.137  1.00  0.00    -0.049 A 
ATOM     26  C   UNL A   1      32.486  20.082  24.183  1.00  0.00    -0.041 A 
ATOM     27  C   UNL A   1      32.143  18.523  21.907  1.00  0.00    -0.061 A 
ATOM     28  H   UNL A   1      32.374  16.877  23.202  1.00  0.00     0.063 H 
ATOM     29  H   UNL A   1      32.612  20.648  25.036  1.00  0.00     0.064 H 
ATOM     30  C   UNL A   1      32.119  19.918  21.817  1.00  0.00    -0.054 A 
ATOM     31  H   UNL A   1      32.008  17.950  21.059  1.00  0.00     0.062 H 
ATOM     32  H   UNL A   1      31.977  20.361  20.895  1.00  0.00     0.063 H 
BRANCH  24  33
ATOM     33  S   UNL A   1      32.858  17.925  25.861  1.00  0.00    -0.126 SA
BRANCH  33  34
ATOM     34  C   UNL A   1      33.255  16.226  25.333  1.00  0.00    -0.005 C 
ATOM     35  H   UNL A   1      32.872  15.539  26.059  1.00  0.00     0.038 H 
ATOM     36  H   UNL A   1      32.807  16.061  24.376  1.00  0.00     0.038 H 
BRANCH  34  37
ATOM     37  C   UNL A   1      34.753  16.015  25.198  1.00  0.00    -0.056 C 
ATOM     38  H   UNL A   1      35.216  16.930  24.895  1.00  0.00     0.024 H 
ATOM     39  H   UNL A   1      34.942  15.260  24.464  1.00  0.00     0.024 H 
ATOM     40  H   UNL A   1      35.155  15.705  26.140  1.00  0.00     0.024 H 
ENDBRANCH  34  37
ENDBRANCH  33  34
ENDBRANCH  24  33
ENDBRANCH  14  23
ENDBRANCH  11  13
BRANCH  11  41
ATOM     41  C   UNL A   1      30.741  27.209  23.044  1.00  0.00    -0.049 C 
ATOM     42  H   UNL A   1      30.910  28.256  23.186  1.00  0.00     0.024 H 
ATOM     43  H   UNL A   1      30.535  26.749  23.988  1.00  0.00     0.024 H 
ATOM     44  H   UNL A   1      29.906  27.068  22.389  1.00  0.00     0.024 H 
ENDBRANCH  11  41
ENDBRANCH   8  11
ENDBRANCH   4   7
ENDBRANCH   1   4
BRANCH   1  45
ATOM     45  C   UNL A   1      33.255  24.583  26.142  1.00  0.00    -0.052 C 
ATOM     46  H   UNL A   1      32.301  24.634  25.659  1.00  0.00     0.027 H 
ATOM     47  H   UNL A   1      33.215  24.799  27.190  1.00  0.00     0.027 H 
BRANCH  45  48
ATOM     48  C   UNL A   1      33.771  23.143  26.024  1.00  0.00    -0.052 C 
ATOM     49  H   UNL A   1      33.679  22.844  25.000  1.00  0.00     0.027 H 
ATOM     50  H   UNL A   1      33.177  22.563  26.699  1.00  0.00     0.027 H 
BRANCH  48  51
ATOM     51  C   UNL A   1      35.226  22.923  26.450  1.00  0.00    -0.036 C 
ATOM     52  H   UNL A   1      35.260  22.065  27.087  1.00  0.00     0.028 H 
ATOM     53  H   UNL A   1      35.535  23.825  26.937  1.00  0.00     0.028 H 
BRANCH  51  54
ATOM     54  C   UNL A   1      36.207  22.701  25.301  1.00  0.00     0.018 C 
ATOM     55  H   UNL A   1      36.813  23.576  25.190  1.00  0.00     0.049 H 
ATOM     56  H   UNL A   1      35.639  22.509  24.415  1.00  0.00     0.049 H 
BRANCH  54  57
ATOM     57  N   UNL A   1      37.073  21.558  25.537  1.00  0.00    -0.352 N 
ATOM     58  C   UNL A   1      38.397  21.514  25.898  1.00  0.00     0.251 C 
ATOM     59  H   UNL A   1      36.644  20.679  25.421  1.00  0.00     0.163 HD
ATOM     60  O   UNL A   1      39.014  20.455  25.838  1.00  0.00    -0.269 OA
BRANCH  58  61
ATOM     61  C   UNL A   1      39.091  22.738  26.351  1.00  0.00     0.039 A 
ATOM     62  C   UNL A   1      40.089  22.626  27.324  1.00  0.00    -0.049 A 
ATOM     63  C   UNL A   1      38.733  23.996  25.859  1.00  0.00    -0.049 A 
ATOM     64  C   UNL A   1      40.766  23.766  27.761  1.00  0.00    -0.053 A 
ATOM     65  H   UNL A   1      40.326  21.701  27.718  1.00  0.00     0.063 H 
ATOM     66  C   UNL A   1      39.449  25.126  26.249  1.00  0.00    -0.053 A 
ATOM     67  H   UNL A   1      37.939  24.088  25.206  1.00  0.00     0.063 H 
ATOM     68  C   UNL A   1      40.470  25.023  27.207  1.00  0.00    -0.014 A 
ATOM     69  H   UNL A   1      41.487  23.687  28.495  1.00  0.00     0.063 H 
ATOM     70  H   UNL A   1      39.226  26.043  25.833  1.00  0.00     0.063 H 
BRANCH  68  71
ATOM     71  C   UNL A   1      41.224  26.235  27.611  1.00  0.00     0.031 A 
ATOM     72  C   UNL A   1      40.537  27.345  28.356  1.00  0.00     0.074 A 
ATOM     73  C   UNL A   1      42.516  26.364  27.250  1.00  0.00     0.049 A 
ATOM     74  N   UNL A   1      41.010  28.506  28.734  1.00  0.00    -0.248 NA
ATOM     75  C   UNL A   1      39.121  27.135  28.697  1.00  0.00    -0.034 C 
ATOM     76  C   UNL A   1      43.279  25.379  26.482  1.00  0.00    -0.036 A 
ATOM     77  N   UNL A   1      43.409  27.383  27.466  1.00  0.00    -0.354 N 
ATOM     78  C   UNL A   1      39.950  29.168  29.340  1.00  0.00     0.074 A 
ATOM     79  C   UNL A   1      38.797  28.299  29.242  1.00  0.00    -0.034 C 
ATOM     80  H   UNL A   1      38.534  26.299  28.550  1.00  0.00     0.065 H 
ATOM     81  C   UNL A   1      44.530  25.834  26.305  1.00  0.00    -0.036 A 
ATOM     82  H   UNL A   1      42.915  24.478  26.134  1.00  0.00     0.065 H 
ATOM     83  C   UNL A   1      44.647  27.155  26.916  1.00  0.00     0.049 A 
ATOM     84  H   UNL A   1      43.186  28.200  27.968  1.00  0.00     0.167 HD
ATOM     85  C   UNL A   1      39.946  30.381  29.942  1.00  0.00     0.037 A 
ATOM     86  H   UNL A   1      37.848  28.553  29.554  1.00  0.00     0.065 H 
ATOM     87  H   UNL A   1      45.286  25.331  25.815  1.00  0.00     0.065 H 
ATOM     88  C   UNL A   1      45.751  27.927  26.900  1.00  0.00     0.037 A 
ATOM     89  C   UNL A   1      41.103  31.229  30.067  1.00  0.00     0.049 A 
ATOM     90  C   UNL A   1      45.721  29.264  27.589  1.00  0.00     0.074 A 
ATOM     91  C   UNL A   1      41.217  32.443  30.724  1.00  0.00    -0.036 A 
ATOM     92  N   UNL A   1      42.348  30.951  29.524  1.00  0.00    -0.354 N 
ATOM     93  N   UNL A   1      44.733  29.847  28.223  1.00  0.00    -0.248 NA
ATOM     94  C   UNL A   1      46.966  30.047  27.566  1.00  0.00    -0.034 C 
ATOM     95  C   UNL A   1      42.519  32.919  30.540  1.00  0.00    -0.036 A 
ATOM     96  H   UNL A   1      40.470  32.915  31.256  1.00  0.00     0.065 H 
ATOM     97  C   UNL A   1      43.230  31.981  29.810  1.00  0.00     0.049 A 
ATOM     98  H   UNL A   1      42.572  30.142  29.009  1.00  0.00     0.167 HD
ATOM     99  C   UNL A   1      45.240  31.049  28.695  1.00  0.00     0.074 A 
ATOM    100  C   UNL A   1      46.629  31.107  28.289  1.00  0.00    -0.034 C 
ATOM    101  H   UNL A   1      47.864  29.829  27.109  1.00  0.00     0.065 H 
ATOM    102  H   UNL A   1      42.888  33.817  30.891  1.00  0.00     0.065 H 
ATOM    103  C   UNL A   1      44.611  32.020  29.402  1.00  0.00     0.037 A 
ATOM    104  H   UNL A   1      47.274  31.874  28.529  1.00  0.00     0.065 H 
BRANCH  85 105
ATOM    105  C   UNL A   1      38.648  30.869  30.519  1.00  0.00     0.064 A 
ATOM    106  C   UNL A   1      37.655  31.443  29.711  1.00  0.00     0.173 A 
ATOM    107  C   UNL A   1      38.377  30.718  31.887  1.00  0.00     0.173 A 
ATOM    108  F   UNL A   1      37.870  31.619  28.399  1.00  0.00    -0.203 F 
ATOM    109  C   UNL A   1      36.447  31.870  30.257  1.00  0.00     0.198 A 
ATOM    110  C   UNL A   1      37.157  31.121  32.423  1.00  0.00     0.198 A 
ATOM    111  F   UNL A   1      39.290  30.170  32.703  1.00  0.00    -0.203 F 
ATOM    112  F   UNL A   1      35.531  32.456  29.474  1.00  0.00    -0.200 F 
ATOM    113  C   UNL A   1      36.196  31.702  31.610  1.00  0.00     0.200 A 
ATOM    114  F   UNL A   1      36.910  30.947  33.731  1.00  0.00    -0.200 F 
ATOM    115  F   UNL A   1      35.029  32.106  32.132  1.00  0.00    -0.200 F 
ENDBRANCH  85 105
BRANCH  88 116
ATOM    116  C   UNL A   1      46.983  27.444  26.226  1.00  0.00     0.064 A 
ATOM    117  C   UNL A   1      47.977  26.765  26.945  1.00  0.00     0.173 A 
ATOM    118  C   UNL A   1      47.192  27.648  24.855  1.00  0.00     0.173 A 
ATOM    119  F   UNL A   1      47.829  26.564  28.262  1.00  0.00    -0.203 F 
ATOM    120  C   UNL A   1      49.143  26.328  26.321  1.00  0.00     0.198 A 
ATOM    121  C   UNL A   1      48.347  27.187  24.226  1.00  0.00     0.198 A 
ATOM    122  F   UNL A   1      46.269  28.287  24.121  1.00  0.00    -0.203 F 
ATOM    123  F   UNL A   1      50.097  25.721  27.041  1.00  0.00    -0.200 F 
ATOM    124  C   UNL A   1      49.325  26.534  24.962  1.00  0.00     0.200 A 
ATOM    125  F   UNL A   1      48.513  27.376  22.910  1.00  0.00    -0.200 F 
ATOM    126  F   UNL A   1      50.445  26.109  24.362  1.00  0.00    -0.200 F 
ENDBRANCH  88 116
BRANCH 103 127
ATOM    127  C   UNL A   1      45.426  33.213  29.804  1.00  0.00     0.064 A 
ATOM    128  C   UNL A   1      45.484  34.365  29.007  1.00  0.00     0.173 A 
ATOM    129  C   UNL A   1      46.127  33.217  31.020  1.00  0.00     0.173 A 
ATOM    130  F   UNL A   1      44.843  34.405  27.829  1.00  0.00    -0.203 F 
ATOM    131  C   UNL A   1      46.233  35.470  29.402  1.00  0.00     0.198 A 
ATOM    132  C   UNL A   1      46.853  34.334  31.424  1.00  0.00     0.198 A 
ATOM    133  F   UNL A   1      46.098  32.141  31.820  1.00  0.00    -0.203 F 
ATOM    134  F   UNL A   1      46.311  36.544  28.604  1.00  0.00    -0.200 F 
ATOM    135  C   UNL A   1      46.911  35.456  30.613  1.00  0.00     0.200 A 
ATOM    136  F   UNL A   1      47.496  34.323  32.599  1.00  0.00    -0.200 F 
ATOM    137  F   UNL A   1      47.628  36.523  30.994  1.00  0.00    -0.200 F 
ENDBRANCH 103 127
ENDBRANCH  68  71
ENDBRANCH  58  61
ENDBRANCH  54  57
ENDBRANCH  51  54
ENDBRANCH  48  51
ENDBRANCH  45  48
ENDBRANCH   1  45
TORSDOF 19
ENDMDL
MODEL 4
REMARK VINA RESULT:     -10.7      2.056      4.010
REMARK SMILES CCSc1cccc(-c2ccc([C@@H](C)C(=O)NCCCCCCNC(=O)c3ccc(-c4c5nc(c(-c6c(F)c(F)c(F)c(F)c6F)c6ccc([nH]6)c(-c6c(F)c(F)c(F)c(F)c6F)c6nc(c(-c7c(F)c(F)c(F)c(F)c7F)c7ccc4[nH]7)C=C6)C=C5)cc3)cc2)c1
REMARK SMILES IDX 19 1 18 4 17 7 15 8 16 9 13 11 12 13 9 14 10 15 91 16 11 17
REMARK SMILES IDX 90 19 8 23 4 24 5 25 92 26 6 27 7 30 3 33 2 34 1 37 14 41
REMARK SMILES IDX 20 45 21 48 22 51 23 54 24 57 25 58 26 60 27 61 28 62 89 63
REMARK SMILES IDX 29 64 88 66 30 68 31 71 32 72 82 73 33 74 87 75 81 76 83 77
REMARK SMILES IDX 34 78 86 79 80 81 79 83 35 85 67 88 47 89 66 90 48 91 51 92
REMARK SMILES IDX 65 93 84 94 49 95 50 97 64 99 85 100 52 103 36 105 37 106
REMARK SMILES IDX 45 107 38 108 39 109 43 110 46 111 40 112 41 113 44 114
REMARK SMILES IDX 42 115 68 116 69 117 77 118 70 119 71 120 75 121 78 122
REMARK SMILES IDX 72 123 73 124 76 125 74 126 53 127 54 128 62 129 55 130
REMARK SMILES IDX 56 131 60 132 63 133 57 134 58 135 61 136 59 137
REMARK H PARENT 19 2 19 3 18 5 18 6 17 10 13 12 10 18 91 20 11 21 90 22 5 28
REMARK H PARENT 92 29 6 31 7 32 2 35 2 36 1 38 1 39 1 40 14 42 14 43 14 44
REMARK H PARENT 20 46 20 47 21 49 21 50 22 52 22 53 23 55 23 56 24 59 28 65
REMARK H PARENT 89 67 29 69 88 70 87 80 81 82 83 84 86 86 80 87 48 96 51 98
REMARK H PARENT 84 101 49 102 85 104
REMARK Flexibility Score: inf
ROOT
ATOM      1  C   UNL A   1      36.152  19.368  25.002  1.00  0.00    -0.036 C 
ATOM      2  H   UNL A   1      37.126  19.395  24.560  1.00  0.00     0.028 H 
ATOM      3  H   UNL A   1      36.172  19.043  26.021  1.00  0.00     0.028 H 
ENDROOT
BRANCH   1   4
ATOM      4  C   UNL A   1      35.301  18.358  24.230  1.00  0.00     0.017 C 
ATOM      5  H   UNL A   1      34.918  18.829  23.349  1.00  0.00     0.049 H 
ATOM      6  H   UNL A   1      35.922  17.523  23.979  1.00  0.00     0.049 H 
BRANCH   4   7
ATOM      7  N   UNL A   1      34.193  17.872  25.022  1.00  0.00    -0.356 N 
ATOM      8  C   UNL A   1      32.853  18.097  24.932  1.00  0.00     0.227 C 
ATOM      9  O   UNL A   1      32.153  17.606  25.826  1.00  0.00    -0.274 OA
ATOM     10  H   UNL A   1      34.454  17.271  25.757  1.00  0.00     0.163 HD
BRANCH   8  11
ATOM     11  C   UNL A   1      32.198  18.895  23.796  1.00  0.00     0.060 C 
ATOM     12  H   UNL A   1      31.147  18.705  23.877  1.00  0.00     0.045 H 
BRANCH  11  13
ATOM     13  C   UNL A   1      32.286  20.402  23.979  1.00  0.00    -0.036 A 
ATOM     14  C   UNL A   1      32.565  23.215  24.446  1.00  0.00    -0.018 A 
ATOM     15  C   UNL A   1      32.685  22.662  23.162  1.00  0.00    -0.054 A 
ATOM     16  C   UNL A   1      32.269  22.322  25.489  1.00  0.00    -0.054 A 
ATOM     17  C   UNL A   1      32.519  21.291  22.927  1.00  0.00    -0.058 A 
ATOM     18  H   UNL A   1      32.903  23.284  22.367  1.00  0.00     0.063 H 
ATOM     19  C   UNL A   1      32.154  20.943  25.265  1.00  0.00    -0.058 A 
ATOM     20  H   UNL A   1      32.134  22.690  26.443  1.00  0.00     0.063 H 
ATOM     21  H   UNL A   1      32.569  20.932  21.961  1.00  0.00     0.063 H 
ATOM     22  H   UNL A   1      31.967  20.314  26.062  1.00  0.00     0.063 H 
BRANCH  14  23
ATOM     23  C   UNL A   1      32.750  24.668  24.685  1.00  0.00    -0.017 A 
ATOM     24  C   UNL A   1      32.532  27.000  23.944  1.00  0.00     0.008 A 
ATOM     25  C   UNL A   1      33.077  27.445  25.146  1.00  0.00    -0.049 A 
ATOM     26  C   UNL A   1      32.370  25.625  23.722  1.00  0.00    -0.041 A 
ATOM     27  C   UNL A   1      33.458  26.524  26.118  1.00  0.00    -0.061 A 
ATOM     28  H   UNL A   1      33.197  28.456  25.318  1.00  0.00     0.063 H 
ATOM     29  H   UNL A   1      31.963  25.305  22.830  1.00  0.00     0.064 H 
ATOM     30  C   UNL A   1      33.304  25.154  25.883  1.00  0.00    -0.054 A 
ATOM     31  H   UNL A   1      33.856  26.851  27.012  1.00  0.00     0.062 H 
ATOM     32  H   UNL A   1      33.603  24.483  26.607  1.00  0.00     0.063 H 
BRANCH  24  33
ATOM     33  S   UNL A   1      32.096  28.152  22.654  1.00  0.00    -0.126 SA
BRANCH  33  34
ATOM     34  C   UNL A   1      30.583  28.882  23.362  1.00  0.00    -0.005 C 
ATOM     35  H   UNL A   1      30.810  29.276  24.331  1.00  0.00     0.038 H 
ATOM     36  H   UNL A   1      30.246  29.654  22.703  1.00  0.00     0.038 H 
BRANCH  34  37
ATOM     37  C   UNL A   1      29.473  27.855  23.496  1.00  0.00    -0.056 C 
ATOM     38  H   UNL A   1      28.886  27.846  22.602  1.00  0.00     0.024 H 
ATOM     39  H   UNL A   1      28.850  28.109  24.328  1.00  0.00     0.024 H 
ATOM     40  H   UNL A   1      29.900  26.887  23.653  1.00  0.00     0.024 H 
ENDBRANCH  34  37
ENDBRANCH  33  34
ENDBRANCH  24  33
ENDBRANCH  14  23
ENDBRANCH  11  13
BRANCH  11  41
ATOM     41  C   UNL A   1      32.519  18.366  22.397  1.00  0.00    -0.049 C 
ATOM     42  H   UNL A   1      32.680  19.189  21.733  1.00  0.00     0.024 H 
ATOM     43  H   UNL A   1      31.699  17.776  22.042  1.00  0.00     0.024 H 
ATOM     44  H   UNL A   1      33.401  17.761  22.439  1.00  0.00     0.024 H 
ENDBRANCH  11  41
ENDBRANCH   8  11
ENDBRANCH   4   7
ENDBRANCH   1   4
BRANCH   1  45
ATOM     45  C   UNL A   1      35.582  20.791  24.999  1.00  0.00    -0.052 C 
ATOM     46  H   UNL A   1      35.633  21.170  25.999  1.00  0.00     0.027 H 
ATOM     47  H   UNL A   1      34.583  20.710  24.623  1.00  0.00     0.027 H 
BRANCH  45  48
ATOM     48  C   UNL A   1      36.304  21.784  24.078  1.00  0.00    -0.052 C 
ATOM     49  H   UNL A   1      35.911  21.660  23.091  1.00  0.00     0.027 H 
ATOM     50  H   UNL A   1      37.346  21.557  24.162  1.00  0.00     0.027 H 
BRANCH  48  51
ATOM     51  C   UNL A   1      36.165  23.262  24.459  1.00  0.00    -0.036 C 
ATOM     52  H   UNL A   1      35.160  23.428  24.787  1.00  0.00     0.028 H 
ATOM     53  H   UNL A   1      36.423  23.822  23.583  1.00  0.00     0.028 H 
BRANCH  51  54
ATOM     54  C   UNL A   1      37.109  23.733  25.562  1.00  0.00     0.018 C 
ATOM     55  H   UNL A   1      36.561  23.806  26.478  1.00  0.00     0.049 H 
ATOM     56  H   UNL A   1      37.506  24.684  25.273  1.00  0.00     0.049 H 
BRANCH  54  57
ATOM     57  N   UNL A   1      38.223  22.820  25.753  1.00  0.00    -0.352 N 
ATOM     58  C   UNL A   1      39.484  23.056  26.243  1.00  0.00     0.251 C 
ATOM     59  H   UNL A   1      38.047  21.887  25.491  1.00  0.00     0.163 HD
ATOM     60  O   UNL A   1      40.358  22.203  26.125  1.00  0.00    -0.269 OA
BRANCH  58  61
ATOM     61  C   UNL A   1      39.802  24.340  26.905  1.00  0.00     0.039 A 
ATOM     62  C   UNL A   1      39.389  24.536  28.226  1.00  0.00    -0.049 A 
ATOM     63  C   UNL A   1      40.460  25.363  26.218  1.00  0.00    -0.049 A 
ATOM     64  C   UNL A   1      39.685  25.735  28.877  1.00  0.00    -0.053 A 
ATOM     65  H   UNL A   1      38.866  23.795  28.721  1.00  0.00     0.063 H 
ATOM     66  C   UNL A   1      40.809  26.535  26.885  1.00  0.00    -0.053 A 
ATOM     67  H   UNL A   1      40.687  25.251  25.218  1.00  0.00     0.063 H 
ATOM     68  C   UNL A   1      40.423  26.735  28.220  1.00  0.00    -0.014 A 
ATOM     69  H   UNL A   1      39.361  25.890  29.844  1.00  0.00     0.063 H 
ATOM     70  H   UNL A   1      41.355  27.262  26.395  1.00  0.00     0.063 H 
BRANCH  68  71
ATOM     71  C   UNL A   1      40.804  27.988  28.917  1.00  0.00     0.031 A 
ATOM     72  C   UNL A   1      42.191  28.159  29.471  1.00  0.00     0.074 A 
ATOM     73  C   UNL A   1      39.878  28.948  29.109  1.00  0.00     0.049 A 
ATOM     74  N   UNL A   1      42.688  29.150  30.168  1.00  0.00    -0.248 NA
ATOM     75  C   UNL A   1      43.137  27.057  29.235  1.00  0.00    -0.034 C 
ATOM     76  C   UNL A   1      38.486  28.878  28.664  1.00  0.00    -0.036 A 
ATOM     77  N   UNL A   1      39.965  30.163  29.742  1.00  0.00    -0.354 N 
ATOM     78  C   UNL A   1      43.995  28.785  30.465  1.00  0.00     0.074 A 
ATOM     79  C   UNL A   1      44.201  27.463  29.913  1.00  0.00    -0.034 C 
ATOM     80  H   UNL A   1      43.006  26.193  28.686  1.00  0.00     0.065 H 
ATOM     81  C   UNL A   1      37.853  30.006  29.023  1.00  0.00    -0.036 A 
ATOM     82  H   UNL A   1      38.059  28.089  28.154  1.00  0.00     0.065 H 
ATOM     83  C   UNL A   1      38.783  30.863  29.752  1.00  0.00     0.049 A 
ATOM     84  H   UNL A   1      40.795  30.501  30.149  1.00  0.00     0.167 HD
ATOM     85  C   UNL A   1      44.941  29.497  31.122  1.00  0.00     0.037 A 
ATOM     86  H   UNL A   1      45.063  26.910  30.032  1.00  0.00     0.065 H 
ATOM     87  H   UNL A   1      36.866  30.231  28.818  1.00  0.00     0.065 H 
ATOM     88  C   UNL A   1      38.482  32.059  30.293  1.00  0.00     0.037 A 
ATOM     89  C   UNL A   1      44.743  30.825  31.641  1.00  0.00     0.049 A 
ATOM     90  C   UNL A   1      39.557  32.834  31.005  1.00  0.00     0.074 A 
ATOM     91  C   UNL A   1      45.662  31.658  32.257  1.00  0.00    -0.036 A 
ATOM     92  N   UNL A   1      43.541  31.515  31.606  1.00  0.00    -0.354 N 
ATOM     93  N   UNL A   1      40.809  32.510  31.216  1.00  0.00    -0.248 NA
ATOM     94  C   UNL A   1      39.177  34.147  31.547  1.00  0.00    -0.034 C 
ATOM     95  C   UNL A   1      45.005  32.834  32.633  1.00  0.00    -0.036 A 
ATOM     96  H   UNL A   1      46.660  31.447  32.412  1.00  0.00     0.065 H 
ATOM     97  C   UNL A   1      43.688  32.754  32.209  1.00  0.00     0.049 A 
ATOM     98  H   UNL A   1      42.705  31.175  31.212  1.00  0.00     0.167 HD
ATOM     99  C   UNL A   1      41.373  33.584  31.890  1.00  0.00     0.074 A 
ATOM    100  C   UNL A   1      40.331  34.578  32.039  1.00  0.00    -0.034 C 
ATOM    101  H   UNL A   1      38.257  34.611  31.543  1.00  0.00     0.065 H 
ATOM    102  H   UNL A   1      45.429  33.627  33.137  1.00  0.00     0.065 H 
ATOM    103  C   UNL A   1      42.641  33.734  32.345  1.00  0.00     0.037 A 
ATOM    104  H   UNL A   1      40.466  35.503  32.475  1.00  0.00     0.065 H 
BRANCH  85 105
ATOM    105  C   UNL A   1      46.286  28.858  31.315  1.00  0.00     0.064 A 
ATOM    106  C   UNL A   1      47.300  28.974  30.353  1.00  0.00     0.173 A 
ATOM    107  C   UNL A   1      46.578  28.161  32.497  1.00  0.00     0.173 A 
ATOM    108  F   UNL A   1      47.067  29.621  29.201  1.00  0.00    -0.203 F 
ATOM    109  C   UNL A   1      48.550  28.394  30.556  1.00  0.00     0.198 A 
ATOM    110  C   UNL A   1      47.839  27.607  32.708  1.00  0.00     0.198 A 
ATOM    111  F   UNL A   1      45.646  28.025  33.452  1.00  0.00    -0.203 F 
ATOM    112  F   UNL A   1      49.489  28.480  29.605  1.00  0.00    -0.200 F 
ATOM    113  C   UNL A   1      48.821  27.718  31.737  1.00  0.00     0.200 A 
ATOM    114  F   UNL A   1      48.103  26.963  33.856  1.00  0.00    -0.200 F 
ATOM    115  F   UNL A   1      50.027  27.169  31.934  1.00  0.00    -0.200 F 
ENDBRANCH  85 105
BRANCH  88 116
ATOM    116  C   UNL A   1      37.107  32.605  30.165  1.00  0.00     0.064 A 
ATOM    117  C   UNL A   1      36.717  33.307  29.016  1.00  0.00     0.173 A 
ATOM    118  C   UNL A   1      36.157  32.437  31.182  1.00  0.00     0.173 A 
ATOM    119  F   UNL A   1      37.598  33.510  28.025  1.00  0.00    -0.203 F 
ATOM    120  C   UNL A   1      35.434  33.839  28.899  1.00  0.00     0.198 A 
ATOM    121  C   UNL A   1      34.866  32.945  31.052  1.00  0.00     0.198 A 
ATOM    122  F   UNL A   1      36.479  31.767  32.298  1.00  0.00    -0.203 F 
ATOM    123  F   UNL A   1      35.102  34.544  27.809  1.00  0.00    -0.200 F 
ATOM    124  C   UNL A   1      34.509  33.653  29.914  1.00  0.00     0.200 A 
ATOM    125  F   UNL A   1      33.970  32.752  32.030  1.00  0.00    -0.200 F 
ATOM    126  F   UNL A   1      33.275  34.161  29.799  1.00  0.00    -0.200 F 
ENDBRANCH  88 116
BRANCH 103 127
ATOM    127  C   UNL A   1      42.978  35.029  33.023  1.00  0.00     0.064 A 
ATOM    128  C   UNL A   1      43.434  36.140  32.300  1.00  0.00     0.173 A 
ATOM    129  C   UNL A   1      42.804  35.170  34.409  1.00  0.00     0.173 A 
ATOM    130  F   UNL A   1      43.631  36.050  30.976  1.00  0.00    -0.203 F 
ATOM    131  C   UNL A   1      43.729  37.339  32.943  1.00  0.00     0.198 A 
ATOM    132  C   UNL A   1      43.074  36.379  35.044  1.00  0.00     0.198 A 
ATOM    133  F   UNL A   1      42.364  34.138  35.143  1.00  0.00    -0.203 F 
ATOM    134  F   UNL A   1      44.207  38.375  32.240  1.00  0.00    -0.200 F 
ATOM    135  C   UNL A   1      43.541  37.459  34.313  1.00  0.00     0.200 A 
ATOM    136  F   UNL A   1      42.880  36.497  36.365  1.00  0.00    -0.200 F 
ATOM    137  F   UNL A   1      43.820  38.617  34.929  1.00  0.00    -0.200 F 
ENDBRANCH 103 127
ENDBRANCH  68  71
ENDBRANCH  58  61
ENDBRANCH  54  57
ENDBRANCH  51  54
ENDBRANCH  48  51
ENDBRANCH  45  48
ENDBRANCH   1  45
TORSDOF 19
ENDMDL
MODEL 5
REMARK VINA RESULT:     -10.7      5.331     11.005
REMARK SMILES CCSc1cccc(-c2ccc([C@@H](C)C(=O)NCCCCCCNC(=O)c3ccc(-c4c5nc(c(-c6c(F)c(F)c(F)c(F)c6F)c6ccc([nH]6)c(-c6c(F)c(F)c(F)c(F)c6F)c6nc(c(-c7c(F)c(F)c(F)c(F)c7F)c7ccc4[nH]7)C=C6)C=C5)cc3)cc2)c1
REMARK SMILES IDX 19 1 18 4 17 7 15 8 16 9 13 11 12 13 9 14 10 15 91 16 11 17
REMARK SMILES IDX 90 19 8 23 4 24 5 25 92 26 6 27 7 30 3 33 2 34 1 37 14 41
REMARK SMILES IDX 20 45 21 48 22 51 23 54 24 57 25 58 26 60 27 61 28 62 89 63
REMARK SMILES IDX 29 64 88 66 30 68 31 71 32 72 82 73 33 74 87 75 81 76 83 77
REMARK SMILES IDX 34 78 86 79 80 81 79 83 35 85 67 88 47 89 66 90 48 91 51 92
REMARK SMILES IDX 65 93 84 94 49 95 50 97 64 99 85 100 52 103 36 105 37 106
REMARK SMILES IDX 45 107 38 108 39 109 43 110 46 111 40 112 41 113 44 114
REMARK SMILES IDX 42 115 68 116 69 117 77 118 70 119 71 120 75 121 78 122
REMARK SMILES IDX 72 123 73 124 76 125 74 126 53 127 54 128 62 129 55 130
REMARK SMILES IDX 56 131 60 132 63 133 57 134 58 135 61 136 59 137
REMARK H PARENT 19 2 19 3 18 5 18 6 17 10 13 12 10 18 91 20 11 21 90 22 5 28
REMARK H PARENT 92 29 6 31 7 32 2 35 2 36 1 38 1 39 1 40 14 42 14 43 14 44
REMARK H PARENT 20 46 20 47 21 49 21 50 22 52 22 53 23 55 23 56 24 59 28 65
REMARK H PARENT 89 67 29 69 88 70 87 80 81 82 83 84 86 86 80 87 48 96 51 98
REMARK H PARENT 84 101 49 102 85 104
REMARK Flexibility Score: inf
ROOT
ATOM      1  C   UNL A   1      37.511  33.106  30.865  1.00  0.00    -0.036 C 
ATOM      2  H   UNL A   1      36.867  32.263  30.728  1.00  0.00     0.028 H 
ATOM      3  H   UNL A   1      38.496  32.826  31.172  1.00  0.00     0.028 H 
ENDROOT
BRANCH   1   4
ATOM      4  C   UNL A   1      36.930  33.978  31.979  1.00  0.00     0.017 C 
ATOM      5  H   UNL A   1      36.367  34.774  31.539  1.00  0.00     0.049 H 
ATOM      6  H   UNL A   1      36.306  33.361  32.593  1.00  0.00     0.049 H 
BRANCH   4   7
ATOM      7  N   UNL A   1      37.966  34.543  32.816  1.00  0.00    -0.356 N 
ATOM      8  C   UNL A   1      38.464  34.153  34.022  1.00  0.00     0.227 C 
ATOM      9  O   UNL A   1      39.298  34.905  34.540  1.00  0.00    -0.274 OA
ATOM     10  H   UNL A   1      38.386  35.354  32.448  1.00  0.00     0.163 HD
BRANCH   8  11
ATOM     11  C   UNL A   1      38.057  32.854  34.731  1.00  0.00     0.060 C 
ATOM     12  H   UNL A   1      37.180  32.509  34.224  1.00  0.00     0.045 H 
BRANCH  11  13
ATOM     13  C   UNL A   1      39.042  31.713  34.526  1.00  0.00    -0.036 A 
ATOM     14  C   UNL A   1      40.884  29.530  34.304  1.00  0.00    -0.018 A 
ATOM     15  C   UNL A   1      39.774  29.651  33.455  1.00  0.00    -0.054 A 
ATOM     16  C   UNL A   1      41.066  30.552  35.250  1.00  0.00    -0.054 A 
ATOM     17  C   UNL A   1      38.889  30.734  33.542  1.00  0.00    -0.058 A 
ATOM     18  H   UNL A   1      39.603  28.921  32.745  1.00  0.00     0.063 H 
ATOM     19  C   UNL A   1      40.153  31.609  35.374  1.00  0.00    -0.058 A 
ATOM     20  H   UNL A   1      41.890  30.524  35.869  1.00  0.00     0.063 H 
ATOM     21  H   UNL A   1      38.112  30.809  32.867  1.00  0.00     0.063 H 
ATOM     22  H   UNL A   1      40.303  32.325  36.102  1.00  0.00     0.063 H 
BRANCH  14  23
ATOM     23  C   UNL A   1      41.811  28.375  34.207  1.00  0.00    -0.017 A 
ATOM     24  C   UNL A   1      42.376  26.039  34.715  1.00  0.00     0.008 A 
ATOM     25  C   UNL A   1      43.567  26.160  34.003  1.00  0.00    -0.049 A 
ATOM     26  C   UNL A   1      41.510  27.138  34.810  1.00  0.00    -0.041 A 
ATOM     27  C   UNL A   1      43.891  27.369  33.394  1.00  0.00    -0.061 A 
ATOM     28  H   UNL A   1      44.209  25.355  33.926  1.00  0.00     0.063 H 
ATOM     29  H   UNL A   1      40.628  27.038  35.336  1.00  0.00     0.064 H 
ATOM     30  C   UNL A   1      43.027  28.463  33.504  1.00  0.00    -0.054 A 
ATOM     31  H   UNL A   1      44.770  27.459  32.861  1.00  0.00     0.062 H 
ATOM     32  H   UNL A   1      43.286  29.356  33.058  1.00  0.00     0.063 H 
BRANCH  24  33
ATOM     33  S   UNL A   1      41.965  24.524  35.562  1.00  0.00    -0.126 SA
BRANCH  33  34
ATOM     34  C   UNL A   1      43.027  23.346  34.663  1.00  0.00    -0.005 C 
ATOM     35  H   UNL A   1      42.457  22.469  34.436  1.00  0.00     0.038 H 
ATOM     36  H   UNL A   1      43.371  23.822  33.770  1.00  0.00     0.038 H 
BRANCH  34  37
ATOM     37  C   UNL A   1      44.241  22.945  35.484  1.00  0.00    -0.056 C 
ATOM     38  H   UNL A   1      45.051  22.705  34.828  1.00  0.00     0.024 H 
ATOM     39  H   UNL A   1      44.001  22.090  36.081  1.00  0.00     0.024 H 
ATOM     40  H   UNL A   1      44.525  23.756  36.120  1.00  0.00     0.024 H 
ENDBRANCH  34  37
ENDBRANCH  33  34
ENDBRANCH  24  33
ENDBRANCH  14  23
ENDBRANCH  11  13
BRANCH  11  41
ATOM     41  C   UNL A   1      37.550  33.057  36.160  1.00  0.00    -0.049 C 
ATOM     42  H   UNL A   1      37.284  32.111  36.582  1.00  0.00     0.024 H 
ATOM     43  H   UNL A   1      36.692  33.696  36.147  1.00  0.00     0.024 H 
ATOM     44  H   UNL A   1      38.321  33.507  36.751  1.00  0.00     0.024 H 
ENDBRANCH  11  41
ENDBRANCH   8  11
ENDBRANCH   4   7
ENDBRANCH   1   4
BRANCH   1  45
ATOM     45  C   UNL A   1      37.653  33.828  29.521  1.00  0.00    -0.052 C 
ATOM     46  H   UNL A   1      38.686  33.816  29.245  1.00  0.00     0.027 H 
ATOM     47  H   UNL A   1      37.262  34.814  29.671  1.00  0.00     0.027 H 
BRANCH  45  48
ATOM     48  C   UNL A   1      36.845  33.224  28.364  1.00  0.00    -0.052 C 
ATOM     49  H   UNL A   1      37.082  32.182  28.307  1.00  0.00     0.027 H 
ATOM     50  H   UNL A   1      37.122  33.779  27.492  1.00  0.00     0.027 H 
BRANCH  48  51
ATOM     51  C   UNL A   1      35.323  33.355  28.479  1.00  0.00    -0.036 C 
ATOM     52  H   UNL A   1      34.907  33.267  27.497  1.00  0.00     0.028 H 
ATOM     53  H   UNL A   1      35.138  34.307  28.933  1.00  0.00     0.028 H 
BRANCH  51  54
ATOM     54  C   UNL A   1      34.653  32.316  29.375  1.00  0.00     0.018 C 
ATOM     55  H   UNL A   1      33.871  32.791  29.930  1.00  0.00     0.049 H 
ATOM     56  H   UNL A   1      35.400  31.912  30.026  1.00  0.00     0.049 H 
BRANCH  54  57
ATOM     57  N   UNL A   1      34.085  31.221  28.607  1.00  0.00    -0.352 N 
ATOM     58  C   UNL A   1      34.702  30.154  28.001  1.00  0.00     0.251 C 
ATOM     59  H   UNL A   1      33.106  31.247  28.505  1.00  0.00     0.163 HD
ATOM     60  O   UNL A   1      34.078  29.451  27.213  1.00  0.00    -0.269 OA
BRANCH  58  61
ATOM     61  C   UNL A   1      36.121  29.852  28.283  1.00  0.00     0.039 A 
ATOM     62  C   UNL A   1      36.472  29.391  29.556  1.00  0.00    -0.049 A 
ATOM     63  C   UNL A   1      37.111  30.062  27.320  1.00  0.00    -0.049 A 
ATOM     64  C   UNL A   1      37.804  29.089  29.845  1.00  0.00    -0.053 A 
ATOM     65  H   UNL A   1      35.746  29.275  30.282  1.00  0.00     0.063 H 
ATOM     66  C   UNL A   1      38.430  29.703  27.587  1.00  0.00    -0.053 A 
ATOM     67  H   UNL A   1      36.864  30.483  26.410  1.00  0.00     0.063 H 
ATOM     68  C   UNL A   1      38.791  29.216  28.853  1.00  0.00    -0.014 A 
ATOM     69  H   UNL A   1      38.066  28.771  30.791  1.00  0.00     0.063 H 
ATOM     70  H   UNL A   1      39.147  29.796  26.850  1.00  0.00     0.063 H 
BRANCH  68  71
ATOM     71  C   UNL A   1      40.200  28.837  29.122  1.00  0.00     0.031 A 
ATOM     72  C   UNL A   1      41.125  29.795  29.818  1.00  0.00     0.074 A 
ATOM     73  C   UNL A   1      40.664  27.652  28.679  1.00  0.00     0.049 A 
ATOM     74  N   UNL A   1      42.403  29.670  30.080  1.00  0.00    -0.248 NA
ATOM     75  C   UNL A   1      40.546  31.075  30.254  1.00  0.00    -0.034 C 
ATOM     76  C   UNL A   1      39.878  26.659  27.946  1.00  0.00    -0.036 A 
ATOM     77  N   UNL A   1      41.913  27.089  28.767  1.00  0.00    -0.354 N 
ATOM     78  C   UNL A   1      42.780  30.857  30.694  1.00  0.00     0.074 A 
ATOM     79  C   UNL A   1      41.610  31.708  30.727  1.00  0.00    -0.034 C 
ATOM     80  H   UNL A   1      39.566  31.396  30.204  1.00  0.00     0.065 H 
ATOM     81  C   UNL A   1      40.657  25.603  27.664  1.00  0.00    -0.036 A 
ATOM     82  H   UNL A   1      38.883  26.754  27.688  1.00  0.00     0.065 H 
ATOM     83  C   UNL A   1      42.005  25.858  28.166  1.00  0.00     0.049 A 
ATOM     84  H   UNL A   1      42.671  27.526  29.218  1.00  0.00     0.167 HD
ATOM     85  C   UNL A   1      43.989  31.197  31.203  1.00  0.00     0.037 A 
ATOM     86  H   UNL A   1      41.606  32.680  31.072  1.00  0.00     0.065 H 
ATOM     87  H   UNL A   1      40.353  24.748  27.171  1.00  0.00     0.065 H 
ATOM     88  C   UNL A   1      43.058  25.029  28.030  1.00  0.00     0.037 A 
ATOM     89  C   UNL A   1      45.143  30.335  31.198  1.00  0.00     0.049 A 
ATOM     90  C   UNL A   1      44.385  25.426  28.617  1.00  0.00     0.074 A 
ATOM     91  C   UNL A   1      46.391  30.560  31.753  1.00  0.00    -0.036 A 
ATOM     92  N   UNL A   1      45.189  29.082  30.607  1.00  0.00    -0.354 N 
ATOM     93  N   UNL A   1      44.711  26.521  29.260  1.00  0.00    -0.248 NA
ATOM     94  C   UNL A   1      45.489  24.467  28.465  1.00  0.00    -0.034 C 
ATOM     95  C   UNL A   1      47.205  29.461  31.461  1.00  0.00    -0.036 A 
ATOM     96  H   UNL A   1      46.672  31.396  32.290  1.00  0.00     0.065 H 
ATOM     97  C   UNL A   1      46.451  28.531  30.765  1.00  0.00     0.049 A 
ATOM     98  H   UNL A   1      44.437  28.647  30.143  1.00  0.00     0.167 HD
ATOM     99  C   UNL A   1      46.045  26.373  29.611  1.00  0.00     0.074 A 
ATOM    100  C   UNL A   1      46.466  25.076  29.124  1.00  0.00    -0.034 C 
ATOM    101  H   UNL A   1      45.500  23.560  27.976  1.00  0.00     0.065 H 
ATOM    102  H   UNL A   1      48.198  29.360  31.722  1.00  0.00     0.065 H 
ATOM    103  C   UNL A   1      46.851  27.235  30.277  1.00  0.00     0.037 A 
ATOM    104  H   UNL A   1      47.405  24.676  29.269  1.00  0.00     0.065 H 
BRANCH  85 105
ATOM    105  C   UNL A   1      44.130  32.561  31.814  1.00  0.00     0.064 A 
ATOM    106  C   UNL A   1      44.381  33.696  31.027  1.00  0.00     0.173 A 
ATOM    107  C   UNL A   1      43.966  32.742  33.195  1.00  0.00     0.173 A 
ATOM    108  F   UNL A   1      44.557  33.574  29.703  1.00  0.00    -0.203 F 
ATOM    109  C   UNL A   1      44.488  34.958  31.606  1.00  0.00     0.198 A 
ATOM    110  C   UNL A   1      44.045  34.010  33.765  1.00  0.00     0.198 A 
ATOM    111  F   UNL A   1      43.718  31.691  33.991  1.00  0.00    -0.203 F 
ATOM    112  F   UNL A   1      44.772  36.021  30.841  1.00  0.00    -0.200 F 
ATOM    113  C   UNL A   1      44.311  35.116  32.972  1.00  0.00     0.200 A 
ATOM    114  F   UNL A   1      43.863  34.162  35.086  1.00  0.00    -0.200 F 
ATOM    115  F   UNL A   1      44.405  36.332  33.526  1.00  0.00    -0.200 F 
ENDBRANCH  85 105
BRANCH  88 116
ATOM    116  C   UNL A   1      42.893  23.732  27.325  1.00  0.00     0.064 A 
ATOM    117  C   UNL A   1      42.355  22.619  27.985  1.00  0.00     0.173 A 
ATOM    118  C   UNL A   1      43.268  23.578  25.983  1.00  0.00     0.173 A 
ATOM    119  F   UNL A   1      42.001  22.713  29.275  1.00  0.00    -0.203 F 
ATOM    120  C   UNL A   1      42.218  21.394  27.335  1.00  0.00     0.198 A 
ATOM    121  C   UNL A   1      43.105  22.361  25.325  1.00  0.00     0.198 A 
ATOM    122  F   UNL A   1      43.783  24.615  25.306  1.00  0.00    -0.203 F 
ATOM    123  F   UNL A   1      41.742  20.334  28.002  1.00  0.00    -0.200 F 
ATOM    124  C   UNL A   1      42.588  21.268  26.004  1.00  0.00     0.200 A 
ATOM    125  F   UNL A   1      43.451  22.246  24.036  1.00  0.00    -0.200 F 
ATOM    126  F   UNL A   1      42.451  20.091  25.379  1.00  0.00    -0.200 F 
ENDBRANCH  88 116
BRANCH 103 127
ATOM    127  C   UNL A   1      48.260  26.793  30.542  1.00  0.00     0.064 A 
ATOM    128  C   UNL A   1      48.583  25.989  31.644  1.00  0.00     0.173 A 
ATOM    129  C   UNL A   1      49.292  27.147  29.658  1.00  0.00     0.173 A 
ATOM    130  F   UNL A   1      47.634  25.637  32.524  1.00  0.00    -0.203 F 
ATOM    131  C   UNL A   1      49.893  25.574  31.866  1.00  0.00     0.198 A 
ATOM    132  C   UNL A   1      50.596  26.708  29.870  1.00  0.00     0.198 A 
ATOM    133  F   UNL A   1      49.033  27.909  28.586  1.00  0.00    -0.203 F 
ATOM    134  F   UNL A   1      50.188  24.844  32.951  1.00  0.00    -0.200 F 
ATOM    135  C   UNL A   1      50.897  25.928  30.976  1.00  0.00     0.200 A 
ATOM    136  F   UNL A   1      51.561  27.040  29.002  1.00  0.00    -0.200 F 
ATOM    137  F   UNL A   1      52.157  25.524  31.189  1.00  0.00    -0.200 F 
ENDBRANCH 103 127
ENDBRANCH  68  71
ENDBRANCH  58  61
ENDBRANCH  54  57
ENDBRANCH  51  54
ENDBRANCH  48  51
ENDBRANCH  45  48
ENDBRANCH   1  45
TORSDOF 19
ENDMDL
MODEL 6
REMARK VINA RESULT:     -10.6      2.217      4.545
REMARK SMILES CCSc1cccc(-c2ccc([C@@H](C)C(=O)NCCCCCCNC(=O)c3ccc(-c4c5nc(c(-c6c(F)c(F)c(F)c(F)c6F)c6ccc([nH]6)c(-c6c(F)c(F)c(F)c(F)c6F)c6nc(c(-c7c(F)c(F)c(F)c(F)c7F)c7ccc4[nH]7)C=C6)C=C5)cc3)cc2)c1
REMARK SMILES IDX 19 1 18 4 17 7 15 8 16 9 13 11 12 13 9 14 10 15 91 16 11 17
REMARK SMILES IDX 90 19 8 23 4 24 5 25 92 26 6 27 7 30 3 33 2 34 1 37 14 41
REMARK SMILES IDX 20 45 21 48 22 51 23 54 24 57 25 58 26 60 27 61 28 62 89 63
REMARK SMILES IDX 29 64 88 66 30 68 31 71 32 72 82 73 33 74 87 75 81 76 83 77
REMARK SMILES IDX 34 78 86 79 80 81 79 83 35 85 67 88 47 89 66 90 48 91 51 92
REMARK SMILES IDX 65 93 84 94 49 95 50 97 64 99 85 100 52 103 36 105 37 106
REMARK SMILES IDX 45 107 38 108 39 109 43 110 46 111 40 112 41 113 44 114
REMARK SMILES IDX 42 115 68 116 69 117 77 118 70 119 71 120 75 121 78 122
REMARK SMILES IDX 72 123 73 124 76 125 74 126 53 127 54 128 62 129 55 130
REMARK SMILES IDX 56 131 60 132 63 133 57 134 58 135 61 136 59 137
REMARK H PARENT 19 2 19 3 18 5 18 6 17 10 13 12 10 18 91 20 11 21 90 22 5 28
REMARK H PARENT 92 29 6 31 7 32 2 35 2 36 1 38 1 39 1 40 14 42 14 43 14 44
REMARK H PARENT 20 46 20 47 21 49 21 50 22 52 22 53 23 55 23 56 24 59 28 65
REMARK H PARENT 89 67 29 69 88 70 87 80 81 82 83 84 86 86 80 87 48 96 51 98
REMARK H PARENT 84 101 49 102 85 104
REMARK Flexibility Score: inf
ROOT
ATOM      1  C   UNL A   1      36.107  19.582  25.005  1.00  0.00    -0.036 C 
ATOM      2  H   UNL A   1      37.046  19.667  24.498  1.00  0.00     0.028 H 
ATOM      3  H   UNL A   1      36.218  19.293  26.029  1.00  0.00     0.028 H 
ENDROOT
BRANCH   1   4
ATOM      4  C   UNL A   1      35.290  18.485  24.320  1.00  0.00     0.017 C 
ATOM      5  H   UNL A   1      34.897  18.869  23.401  1.00  0.00     0.049 H 
ATOM      6  H   UNL A   1      35.936  17.650  24.143  1.00  0.00     0.049 H 
BRANCH   4   7
ATOM      7  N   UNL A   1      34.192  18.037  25.148  1.00  0.00    -0.356 N 
ATOM      8  C   UNL A   1      32.845  18.192  25.022  1.00  0.00     0.227 C 
ATOM      9  O   UNL A   1      32.154  17.767  25.955  1.00  0.00    -0.274 OA
ATOM     10  H   UNL A   1      34.467  17.528  25.945  1.00  0.00     0.163 HD
BRANCH   8  11
ATOM     11  C   UNL A   1      32.172  18.837  23.802  1.00  0.00     0.060 C 
ATOM     12  H   UNL A   1      31.126  18.641  23.911  1.00  0.00     0.045 H 
BRANCH  11  13
ATOM     13  C   UNL A   1      32.237  20.357  23.802  1.00  0.00    -0.036 A 
ATOM     14  C   UNL A   1      32.462  23.210  23.934  1.00  0.00    -0.018 A 
ATOM     15  C   UNL A   1      32.668  22.505  22.738  1.00  0.00    -0.054 A 
ATOM     16  C   UNL A   1      32.108  22.448  25.059  1.00  0.00    -0.054 A 
ATOM     17  C   UNL A   1      32.528  21.113  22.665  1.00  0.00    -0.058 A 
ATOM     18  H   UNL A   1      32.930  23.028  21.887  1.00  0.00     0.063 H 
ATOM     19  C   UNL A   1      32.019  21.049  25.001  1.00  0.00    -0.058 A 
ATOM     20  H   UNL A   1      31.910  22.927  25.950  1.00  0.00     0.063 H 
ATOM     21  H   UNL A   1      32.642  20.639  21.755  1.00  0.00     0.063 H 
ATOM     22  H   UNL A   1      31.787  20.520  25.856  1.00  0.00     0.063 H 
BRANCH  14  23
ATOM     23  C   UNL A   1      32.619  24.684  24.002  1.00  0.00    -0.017 A 
ATOM     24  C   UNL A   1      32.444  26.797  25.241  1.00  0.00     0.008 A 
ATOM     25  C   UNL A   1      32.941  27.496  24.144  1.00  0.00    -0.049 A 
ATOM     26  C   UNL A   1      32.289  25.406  25.166  1.00  0.00    -0.041 A 
ATOM     27  C   UNL A   1      33.279  26.810  22.981  1.00  0.00    -0.061 A 
ATOM     28  H   UNL A   1      33.061  28.520  24.193  1.00  0.00     0.063 H 
ATOM     29  H   UNL A   1      31.923  24.897  25.985  1.00  0.00     0.064 H 
ATOM     30  C   UNL A   1      33.111  25.424  22.911  1.00  0.00    -0.054 A 
ATOM     31  H   UNL A   1      33.654  27.325  22.169  1.00  0.00     0.062 H 
ATOM     32  H   UNL A   1      33.354  24.931  22.038  1.00  0.00     0.063 H 
BRANCH  24  33
ATOM     33  S   UNL A   1      31.939  27.656  26.722  1.00  0.00    -0.126 SA
BRANCH  33  34
ATOM     34  C   UNL A   1      32.997  29.137  26.620  1.00  0.00    -0.005 C 
ATOM     35  H   UNL A   1      33.043  29.460  25.600  1.00  0.00     0.038 H 
ATOM     36  H   UNL A   1      32.570  29.895  27.243  1.00  0.00     0.038 H 
BRANCH  34  37
ATOM     37  C   UNL A   1      34.406  28.857  27.112  1.00  0.00    -0.056 C 
ATOM     38  H   UNL A   1      34.950  29.776  27.174  1.00  0.00     0.024 H 
ATOM     39  H   UNL A   1      34.898  28.197  26.428  1.00  0.00     0.024 H 
ATOM     40  H   UNL A   1      34.362  28.402  28.078  1.00  0.00     0.024 H 
ENDBRANCH  34  37
ENDBRANCH  33  34
ENDBRANCH  24  33
ENDBRANCH  14  23
ENDBRANCH  11  13
BRANCH  11  41
ATOM     41  C   UNL A   1      32.497  18.149  22.475  1.00  0.00    -0.049 C 
ATOM     42  H   UNL A   1      33.150  18.772  21.901  1.00  0.00     0.024 H 
ATOM     43  H   UNL A   1      31.592  17.982  21.929  1.00  0.00     0.024 H 
ATOM     44  H   UNL A   1      32.976  17.212  22.667  1.00  0.00     0.024 H 
ENDBRANCH  11  41
ENDBRANCH   8  11
ENDBRANCH   4   7
ENDBRANCH   1   4
BRANCH   1  45
ATOM     45  C   UNL A   1      35.430  20.957  25.001  1.00  0.00    -0.052 C 
ATOM     46  H   UNL A   1      35.448  21.338  26.001  1.00  0.00     0.027 H 
ATOM     47  H   UNL A   1      34.442  20.799  24.620  1.00  0.00     0.027 H 
BRANCH  45  48
ATOM     48  C   UNL A   1      36.077  22.003  24.083  1.00  0.00    -0.052 C 
ATOM     49  H   UNL A   1      35.552  21.992  23.151  1.00  0.00     0.027 H 
ATOM     50  H   UNL A   1      37.107  21.725  24.003  1.00  0.00     0.027 H 
BRANCH  48  51
ATOM     51  C   UNL A   1      36.071  23.441  24.611  1.00  0.00    -0.036 C 
ATOM     52  H   UNL A   1      35.053  23.759  24.699  1.00  0.00     0.028 H 
ATOM     53  H   UNL A   1      36.636  24.020  23.910  1.00  0.00     0.028 H 
BRANCH  51  54
ATOM     54  C   UNL A   1      36.747  23.633  25.966  1.00  0.00     0.018 C 
ATOM     55  H   UNL A   1      36.020  23.487  26.738  1.00  0.00     0.049 H 
ATOM     56  H   UNL A   1      37.151  24.623  25.997  1.00  0.00     0.049 H 
BRANCH  54  57
ATOM     57  N   UNL A   1      37.839  22.695  26.168  1.00  0.00    -0.352 N 
ATOM     58  C   UNL A   1      39.151  22.926  26.500  1.00  0.00     0.251 C 
ATOM     59  H   UNL A   1      37.602  21.747  26.047  1.00  0.00     0.163 HD
ATOM     60  O   UNL A   1      39.975  22.022  26.411  1.00  0.00    -0.269 OA
BRANCH  58  61
ATOM     61  C   UNL A   1      39.583  24.265  26.956  1.00  0.00     0.039 A 
ATOM     62  C   UNL A   1      39.381  24.618  28.294  1.00  0.00    -0.049 A 
ATOM     63  C   UNL A   1      40.140  25.186  26.066  1.00  0.00    -0.049 A 
ATOM     64  C   UNL A   1      39.789  25.873  28.751  1.00  0.00    -0.053 A 
ATOM     65  H   UNL A   1      38.932  23.952  28.942  1.00  0.00     0.063 H 
ATOM     66  C   UNL A   1      40.603  26.414  26.535  1.00  0.00    -0.053 A 
ATOM     67  H   UNL A   1      40.210  24.958  25.062  1.00  0.00     0.063 H 
ATOM     68  C   UNL A   1      40.429  26.771  27.881  1.00  0.00    -0.014 A 
ATOM     69  H   UNL A   1      39.620  26.142  29.732  1.00  0.00     0.063 H 
ATOM     70  H   UNL A   1      41.075  27.065  25.888  1.00  0.00     0.063 H 
BRANCH  68  71
ATOM     71  C   UNL A   1      40.929  28.082  28.365  1.00  0.00     0.031 A 
ATOM     72  C   UNL A   1      42.405  28.353  28.439  1.00  0.00     0.074 A 
ATOM     73  C   UNL A   1      40.051  29.006  28.802  1.00  0.00     0.049 A 
ATOM     74  N   UNL A   1      43.032  29.408  28.897  1.00  0.00    -0.248 NA
ATOM     75  C   UNL A   1      43.298  27.285  27.960  1.00  0.00    -0.034 C 
ATOM     76  C   UNL A   1      38.597  28.841  28.829  1.00  0.00    -0.036 A 
ATOM     77  N   UNL A   1      40.253  30.260  29.321  1.00  0.00    -0.354 N 
ATOM     78  C   UNL A   1      44.386  29.125  28.776  1.00  0.00     0.074 A 
ATOM     79  C   UNL A   1      44.493  27.784  28.244  1.00  0.00    -0.034 C 
ATOM     80  H   UNL A   1      43.056  26.384  27.519  1.00  0.00     0.065 H 
ATOM     81  C   UNL A   1      38.038  29.957  29.323  1.00  0.00    -0.036 A 
ATOM     82  H   UNL A   1      38.083  28.002  28.517  1.00  0.00     0.065 H 
ATOM     83  C   UNL A   1      39.093  30.901  29.679  1.00  0.00     0.049 A 
ATOM     84  H   UNL A   1      41.146  30.662  29.427  1.00  0.00     0.167 HD
ATOM     85  C   UNL A   1      45.443  29.921  29.064  1.00  0.00     0.037 A 
ATOM     86  H   UNL A   1      45.383  27.281  28.105  1.00  0.00     0.065 H 
ATOM     87  H   UNL A   1      37.025  30.121  29.434  1.00  0.00     0.065 H 
ATOM     88  C   UNL A   1      38.902  32.112  30.236  1.00  0.00     0.037 A 
ATOM     89  C   UNL A   1      45.333  31.268  29.562  1.00  0.00     0.049 A 
ATOM     90  C   UNL A   1      40.093  32.981  30.533  1.00  0.00     0.074 A 
ATOM     91  C   UNL A   1      46.343  32.180  29.815  1.00  0.00    -0.036 A 
ATOM     92  N   UNL A   1      44.139  31.895  29.884  1.00  0.00    -0.354 N 
ATOM     93  N   UNL A   1      41.366  32.731  30.346  1.00  0.00    -0.248 NA
ATOM     94  C   UNL A   1      39.819  34.305  31.111  1.00  0.00    -0.034 C 
ATOM     95  C   UNL A   1      45.764  33.344  30.331  1.00  0.00    -0.036 A 
ATOM     96  H   UNL A   1      47.351  32.027  29.652  1.00  0.00     0.065 H 
ATOM     97  C   UNL A   1      44.389  33.175  30.355  1.00  0.00     0.049 A 
ATOM     98  H   UNL A   1      43.246  31.491  29.793  1.00  0.00     0.167 HD
ATOM     99  C   UNL A   1      42.043  33.871  30.757  1.00  0.00     0.074 A 
ATOM    100  C   UNL A   1      41.039  34.820  31.190  1.00  0.00    -0.034 C 
ATOM    101  H   UNL A   1      38.917  34.723  31.382  1.00  0.00     0.065 H 
ATOM    102  H   UNL A   1      46.273  34.187  30.639  1.00  0.00     0.065 H 
ATOM    103  C   UNL A   1      43.377  34.109  30.776  1.00  0.00     0.037 A 
ATOM    104  H   UNL A   1      41.245  35.776  31.519  1.00  0.00     0.065 H 
BRANCH  85 105
ATOM    105  C   UNL A   1      46.819  29.361  28.845  1.00  0.00     0.064 A 
ATOM    106  C   UNL A   1      47.514  28.699  29.868  1.00  0.00     0.173 A 
ATOM    107  C   UNL A   1      47.428  29.445  27.584  1.00  0.00     0.173 A 
ATOM    108  F   UNL A   1      46.980  28.602  31.094  1.00  0.00    -0.203 F 
ATOM    109  C   UNL A   1      48.781  28.165  29.643  1.00  0.00     0.198 A 
ATOM    110  C   UNL A   1      48.683  28.885  27.356  1.00  0.00     0.198 A 
ATOM    111  F   UNL A   1      46.804  30.062  26.569  1.00  0.00    -0.203 F 
ATOM    112  F   UNL A   1      49.445  27.576  30.647  1.00  0.00    -0.200 F 
ATOM    113  C   UNL A   1      49.360  28.251  28.386  1.00  0.00     0.200 A 
ATOM    114  F   UNL A   1      49.237  28.958  26.136  1.00  0.00    -0.200 F 
ATOM    115  F   UNL A   1      50.575  27.728  28.169  1.00  0.00    -0.200 F 
ENDBRANCH  85 105
BRANCH  88 116
ATOM    116  C   UNL A   1      37.523  32.582  30.531  1.00  0.00     0.064 A 
ATOM    117  C   UNL A   1      36.940  32.356  31.785  1.00  0.00     0.173 A 
ATOM    118  C   UNL A   1      36.764  33.264  29.570  1.00  0.00     0.173 A 
ATOM    119  F   UNL A   1      37.621  31.690  32.729  1.00  0.00    -0.203 F 
ATOM    120  C   UNL A   1      35.640  32.777  32.060  1.00  0.00     0.198 A 
ATOM    121  C   UNL A   1      35.475  33.709  29.855  1.00  0.00     0.198 A 
ATOM    122  F   UNL A   1      37.279  33.510  28.356  1.00  0.00    -0.203 F 
ATOM    123  F   UNL A   1      35.091  32.509  33.252  1.00  0.00    -0.200 F 
ATOM    124  C   UNL A   1      34.911  33.457  31.097  1.00  0.00     0.200 A 
ATOM    125  F   UNL A   1      34.778  34.378  28.926  1.00  0.00    -0.200 F 
ATOM    126  F   UNL A   1      33.663  33.865  31.363  1.00  0.00    -0.200 F 
ENDBRANCH  88 116
BRANCH 103 127
ATOM    127  C   UNL A   1      43.826  35.458  31.255  1.00  0.00     0.064 A 
ATOM    128  C   UNL A   1      44.229  35.670  32.581  1.00  0.00     0.173 A 
ATOM    129  C   UNL A   1      43.890  36.542  30.365  1.00  0.00     0.173 A 
ATOM    130  F   UNL A   1      44.172  34.669  33.473  1.00  0.00    -0.203 F 
ATOM    131  C   UNL A   1      44.657  36.925  33.006  1.00  0.00     0.198 A 
ATOM    132  C   UNL A   1      44.344  37.788  30.787  1.00  0.00     0.198 A 
ATOM    133  F   UNL A   1      43.520  36.388  29.085  1.00  0.00    -0.203 F 
ATOM    134  F   UNL A   1      44.995  37.117  34.289  1.00  0.00    -0.200 F 
ATOM    135  C   UNL A   1      44.721  37.980  32.107  1.00  0.00     0.200 A 
ATOM    136  F   UNL A   1      44.417  38.803  29.915  1.00  0.00    -0.200 F 
ATOM    137  F   UNL A   1      45.139  39.187  32.517  1.00  0.00    -0.200 F 
ENDBRANCH 103 127
ENDBRANCH  68  71
ENDBRANCH  58  61
ENDBRANCH  54  57
ENDBRANCH  51  54
ENDBRANCH  48  51
ENDBRANCH  45  48
ENDBRANCH   1  45
TORSDOF 19
ENDMDL
MODEL 7
REMARK VINA RESULT:     -10.6      5.533     11.103
REMARK SMILES CCSc1cccc(-c2ccc([C@@H](C)C(=O)NCCCCCCNC(=O)c3ccc(-c4c5nc(c(-c6c(F)c(F)c(F)c(F)c6F)c6ccc([nH]6)c(-c6c(F)c(F)c(F)c(F)c6F)c6nc(c(-c7c(F)c(F)c(F)c(F)c7F)c7ccc4[nH]7)C=C6)C=C5)cc3)cc2)c1
REMARK SMILES IDX 19 1 18 4 17 7 15 8 16 9 13 11 12 13 9 14 10 15 91 16 11 17
REMARK SMILES IDX 90 19 8 23 4 24 5 25 92 26 6 27 7 30 3 33 2 34 1 37 14 41
REMARK SMILES IDX 20 45 21 48 22 51 23 54 24 57 25 58 26 60 27 61 28 62 89 63
REMARK SMILES IDX 29 64 88 66 30 68 31 71 32 72 82 73 33 74 87 75 81 76 83 77
REMARK SMILES IDX 34 78 86 79 80 81 79 83 35 85 67 88 47 89 66 90 48 91 51 92
REMARK SMILES IDX 65 93 84 94 49 95 50 97 64 99 85 100 52 103 36 105 37 106
REMARK SMILES IDX 45 107 38 108 39 109 43 110 46 111 40 112 41 113 44 114
REMARK SMILES IDX 42 115 68 116 69 117 77 118 70 119 71 120 75 121 78 122
REMARK SMILES IDX 72 123 73 124 76 125 74 126 53 127 54 128 62 129 55 130
REMARK SMILES IDX 56 131 60 132 63 133 57 134 58 135 61 136 59 137
REMARK H PARENT 19 2 19 3 18 5 18 6 17 10 13 12 10 18 91 20 11 21 90 22 5 28
REMARK H PARENT 92 29 6 31 7 32 2 35 2 36 1 38 1 39 1 40 14 42 14 43 14 44
REMARK H PARENT 20 46 20 47 21 49 21 50 22 52 22 53 23 55 23 56 24 59 28 65
REMARK H PARENT 89 67 29 69 88 70 87 80 81 82 83 84 86 86 80 87 48 96 51 98
REMARK H PARENT 84 101 49 102 85 104
REMARK Flexibility Score: inf
ROOT
ATOM      1  C   UNL A   1      37.147  32.063  32.330  1.00  0.00    -0.036 C 
ATOM      2  H   UNL A   1      37.511  32.330  31.360  1.00  0.00     0.028 H 
ATOM      3  H   UNL A   1      37.309  32.832  33.056  1.00  0.00     0.028 H 
ENDROOT
BRANCH   1   4
ATOM      4  C   UNL A   1      37.918  30.831  32.810  1.00  0.00     0.017 C 
ATOM      5  H   UNL A   1      37.553  29.970  32.290  1.00  0.00     0.049 H 
ATOM      6  H   UNL A   1      38.957  30.990  32.608  1.00  0.00     0.049 H 
BRANCH   4   7
ATOM      7  N   UNL A   1      37.764  30.620  34.232  1.00  0.00    -0.356 N 
ATOM      8  C   UNL A   1      38.671  30.625  35.248  1.00  0.00     0.227 C 
ATOM      9  O   UNL A   1      38.244  30.315  36.366  1.00  0.00    -0.274 OA
ATOM     10  H   UNL A   1      36.839  30.442  34.518  1.00  0.00     0.163 HD
BRANCH   8  11
ATOM     11  C   UNL A   1      40.149  31.002  35.069  1.00  0.00     0.060 C 
ATOM     12  H   UNL A   1      40.492  31.296  36.039  1.00  0.00     0.045 H 
BRANCH  11  13
ATOM     13  C   UNL A   1      41.044  29.818  34.734  1.00  0.00    -0.036 A 
ATOM     14  C   UNL A   1      42.669  27.511  34.240  1.00  0.00    -0.018 A 
ATOM     15  C   UNL A   1      41.862  28.077  33.240  1.00  0.00    -0.054 A 
ATOM     16  C   UNL A   1      42.665  28.154  35.488  1.00  0.00    -0.054 A 
ATOM     17  C   UNL A   1      41.090  29.223  33.472  1.00  0.00    -0.058 A 
ATOM     18  H   UNL A   1      41.836  27.635  32.307  1.00  0.00     0.063 H 
ATOM     19  C   UNL A   1      41.853  29.269  35.738  1.00  0.00    -0.058 A 
ATOM     20  H   UNL A   1      43.272  27.795  36.240  1.00  0.00     0.063 H 
ATOM     21  H   UNL A   1      40.547  29.634  32.696  1.00  0.00     0.063 H 
ATOM     22  H   UNL A   1      41.853  29.696  36.678  1.00  0.00     0.063 H 
BRANCH  14  23
ATOM     23  C   UNL A   1      43.478  26.293  33.985  1.00  0.00    -0.017 A 
ATOM     24  C   UNL A   1      44.578  24.251  34.793  1.00  0.00     0.008 A 
ATOM     25  C   UNL A   1      45.000  23.953  33.500  1.00  0.00    -0.049 A 
ATOM     26  C   UNL A   1      43.823  25.409  35.027  1.00  0.00    -0.041 A 
ATOM     27  C   UNL A   1      44.673  24.805  32.450  1.00  0.00    -0.061 A 
ATOM     28  H   UNL A   1      45.554  23.101  33.320  1.00  0.00     0.063 H 
ATOM     29  H   UNL A   1      43.511  25.620  35.988  1.00  0.00     0.064 H 
ATOM     30  C   UNL A   1      43.929  25.964  32.694  1.00  0.00    -0.054 A 
ATOM     31  H   UNL A   1      44.979  24.583  31.489  1.00  0.00     0.062 H 
ATOM     32  H   UNL A   1      43.704  26.593  31.908  1.00  0.00     0.063 H 
BRANCH  24  33
ATOM     33  S   UNL A   1      45.039  23.214  36.170  1.00  0.00    -0.126 SA
BRANCH  33  34
ATOM     34  C   UNL A   1      46.124  22.014  35.329  1.00  0.00    -0.005 C 
ATOM     35  H   UNL A   1      46.434  22.426  34.391  1.00  0.00     0.038 H 
ATOM     36  H   UNL A   1      46.965  21.825  35.962  1.00  0.00     0.038 H 
BRANCH  34  37
ATOM     37  C   UNL A   1      45.415  20.695  35.076  1.00  0.00    -0.056 C 
ATOM     38  H   UNL A   1      46.058  19.886  35.352  1.00  0.00     0.024 H 
ATOM     39  H   UNL A   1      45.168  20.615  34.038  1.00  0.00     0.024 H 
ATOM     40  H   UNL A   1      44.520  20.655  35.660  1.00  0.00     0.024 H 
ENDBRANCH  34  37
ENDBRANCH  33  34
ENDBRANCH  24  33
ENDBRANCH  14  23
ENDBRANCH  11  13
BRANCH  11  41
ATOM     41  C   UNL A   1      40.373  32.270  34.244  1.00  0.00    -0.049 C 
ATOM     42  H   UNL A   1      39.461  32.826  34.190  1.00  0.00     0.024 H 
ATOM     43  H   UNL A   1      40.687  32.002  33.256  1.00  0.00     0.024 H 
ATOM     44  H   UNL A   1      41.129  32.868  34.709  1.00  0.00     0.024 H 
ENDBRANCH  11  41
ENDBRANCH   8  11
ENDBRANCH   4   7
ENDBRANCH   1   4
BRANCH   1  45
ATOM     45  C   UNL A   1      35.633  31.851  32.238  1.00  0.00    -0.052 C 
ATOM     46  H   UNL A   1      35.180  32.317  33.088  1.00  0.00     0.027 H 
ATOM     47  H   UNL A   1      35.483  30.792  32.200  1.00  0.00     0.027 H 
BRANCH  45  48
ATOM     48  C   UNL A   1      34.968  32.419  30.976  1.00  0.00    -0.052 C 
ATOM     49  H   UNL A   1      34.314  33.210  31.278  1.00  0.00     0.027 H 
ATOM     50  H   UNL A   1      34.466  31.595  30.514  1.00  0.00     0.027 H 
BRANCH  48  51
ATOM     51  C   UNL A   1      35.925  32.976  29.917  1.00  0.00    -0.036 C 
ATOM     52  H   UNL A   1      36.833  32.413  29.960  1.00  0.00     0.028 H 
ATOM     53  H   UNL A   1      36.058  34.013  30.149  1.00  0.00     0.028 H 
BRANCH  51  54
ATOM     54  C   UNL A   1      35.399  32.922  28.484  1.00  0.00     0.018 C 
ATOM     55  H   UNL A   1      36.232  32.891  27.812  1.00  0.00     0.049 H 
ATOM     56  H   UNL A   1      34.801  33.794  28.319  1.00  0.00     0.049 H 
BRANCH  54  57
ATOM     57  N   UNL A   1      34.566  31.754  28.253  1.00  0.00    -0.352 N 
ATOM     58  C   UNL A   1      34.921  30.440  28.069  1.00  0.00     0.251 C 
ATOM     59  H   UNL A   1      33.598  31.931  28.223  1.00  0.00     0.163 HD
ATOM     60  O   UNL A   1      34.090  29.630  27.670  1.00  0.00    -0.269 OA
BRANCH  58  61
ATOM     61  C   UNL A   1      36.304  29.993  28.339  1.00  0.00     0.039 A 
ATOM     62  C   UNL A   1      37.266  30.133  27.334  1.00  0.00    -0.049 A 
ATOM     63  C   UNL A   1      36.647  29.397  29.556  1.00  0.00    -0.049 A 
ATOM     64  C   UNL A   1      38.581  29.727  27.567  1.00  0.00    -0.053 A 
ATOM     65  H   UNL A   1      37.004  30.535  26.419  1.00  0.00     0.063 H 
ATOM     66  C   UNL A   1      37.971  29.049  29.811  1.00  0.00    -0.053 A 
ATOM     67  H   UNL A   1      35.919  29.215  30.265  1.00  0.00     0.063 H 
ATOM     68  C   UNL A   1      38.951  29.207  28.819  1.00  0.00    -0.014 A 
ATOM     69  H   UNL A   1      39.286  29.809  26.818  1.00  0.00     0.063 H 
ATOM     70  H   UNL A   1      38.233  28.671  30.735  1.00  0.00     0.063 H 
BRANCH  68  71
ATOM     71  C   UNL A   1      40.358  28.832  29.107  1.00  0.00     0.031 A 
ATOM     72  C   UNL A   1      41.268  29.789  29.825  1.00  0.00     0.074 A 
ATOM     73  C   UNL A   1      40.835  27.654  28.662  1.00  0.00     0.049 A 
ATOM     74  N   UNL A   1      42.541  29.668  30.106  1.00  0.00    -0.248 NA
ATOM     75  C   UNL A   1      40.675  31.063  30.262  1.00  0.00    -0.034 C 
ATOM     76  C   UNL A   1      40.065  26.663  27.908  1.00  0.00    -0.036 A 
ATOM     77  N   UNL A   1      42.085  27.096  28.764  1.00  0.00    -0.354 N 
ATOM     78  C   UNL A   1      42.903  30.852  30.736  1.00  0.00     0.074 A 
ATOM     79  C   UNL A   1      41.729  31.697  30.757  1.00  0.00    -0.034 C 
ATOM     80  H   UNL A   1      39.695  31.380  30.200  1.00  0.00     0.065 H 
ATOM     81  C   UNL A   1      40.854  25.613  27.630  1.00  0.00    -0.036 A 
ATOM     82  H   UNL A   1      39.074  26.755  27.636  1.00  0.00     0.065 H 
ATOM     83  C   UNL A   1      42.192  25.870  28.155  1.00  0.00     0.049 A 
ATOM     84  H   UNL A   1      42.834  27.533  29.231  1.00  0.00     0.167 HD
ATOM     85  C   UNL A   1      44.102  31.194  31.265  1.00  0.00     0.037 A 
ATOM     86  H   UNL A   1      41.714  32.666  31.110  1.00  0.00     0.065 H 
ATOM     87  H   UNL A   1      40.562  24.761  27.126  1.00  0.00     0.065 H 
ATOM     88  C   UNL A   1      43.251  25.048  28.029  1.00  0.00     0.037 A 
ATOM     89  C   UNL A   1      45.260  30.338  31.272  1.00  0.00     0.049 A 
ATOM     90  C   UNL A   1      44.567  25.447  28.639  1.00  0.00     0.074 A 
ATOM     91  C   UNL A   1      46.498  30.565  31.848  1.00  0.00    -0.036 A 
ATOM     92  N   UNL A   1      45.322  29.090  30.671  1.00  0.00    -0.354 N 
ATOM     93  N   UNL A   1      44.878  26.538  29.296  1.00  0.00    -0.248 NA
ATOM     94  C   UNL A   1      45.678  24.495  28.496  1.00  0.00    -0.034 C 
ATOM     95  C   UNL A   1      47.323  29.472  31.560  1.00  0.00    -0.036 A 
ATOM     96  H   UNL A   1      46.767  31.397  32.396  1.00  0.00     0.065 H 
ATOM     97  C   UNL A   1      46.585  28.544  30.844  1.00  0.00     0.049 A 
ATOM     98  H   UNL A   1      44.580  28.655  30.192  1.00  0.00     0.167 HD
ATOM     99  C   UNL A   1      46.208  26.394  29.667  1.00  0.00     0.074 A 
ATOM    100  C   UNL A   1      46.642  25.103  29.175  1.00  0.00    -0.034 C 
ATOM    101  H   UNL A   1      45.702  23.591  28.000  1.00  0.00     0.065 H 
ATOM    102  H   UNL A   1      48.312  29.373  31.835  1.00  0.00     0.065 H 
ATOM    103  C   UNL A   1      46.998  27.255  30.353  1.00  0.00     0.037 A 
ATOM    104  H   UNL A   1      47.581  24.706  29.332  1.00  0.00     0.065 H 
BRANCH  85 105
ATOM    105  C   UNL A   1      44.227  32.554  31.890  1.00  0.00     0.064 A 
ATOM    106  C   UNL A   1      44.009  32.755  33.261  1.00  0.00     0.173 A 
ATOM    107  C   UNL A   1      44.614  33.658  31.116  1.00  0.00     0.173 A 
ATOM    108  F   UNL A   1      43.627  31.734  34.041  1.00  0.00    -0.203 F 
ATOM    109  C   UNL A   1      44.150  34.019  33.830  1.00  0.00     0.198 A 
ATOM    110  C   UNL A   1      44.781  34.914  31.695  1.00  0.00     0.198 A 
ATOM    111  F   UNL A   1      44.840  33.519  29.801  1.00  0.00    -0.203 F 
ATOM    112  F   UNL A   1      43.894  34.197  35.133  1.00  0.00    -0.200 F 
ATOM    113  C   UNL A   1      44.544  35.095  33.048  1.00  0.00     0.200 A 
ATOM    114  F   UNL A   1      45.173  35.951  30.940  1.00  0.00    -0.200 F 
ATOM    115  F   UNL A   1      44.688  36.308  33.600  1.00  0.00    -0.200 F 
ENDBRANCH  85 105
BRANCH  88 116
ATOM    116  C   UNL A   1      43.105  23.756  27.311  1.00  0.00     0.064 A 
ATOM    117  C   UNL A   1      43.466  23.638  25.961  1.00  0.00     0.173 A 
ATOM    118  C   UNL A   1      42.602  22.616  27.954  1.00  0.00     0.173 A 
ATOM    119  F   UNL A   1      43.933  24.707  25.299  1.00  0.00    -0.203 F 
ATOM    120  C   UNL A   1      43.311  22.434  25.278  1.00  0.00     0.198 A 
ATOM    121  C   UNL A   1      42.473  21.406  27.278  1.00  0.00     0.198 A 
ATOM    122  F   UNL A   1      42.247  22.676  29.247  1.00  0.00    -0.203 F 
ATOM    123  F   UNL A   1      43.624  22.361  23.977  1.00  0.00    -0.200 F 
ATOM    124  C   UNL A   1      42.821  21.318  25.938  1.00  0.00     0.200 A 
ATOM    125  F   UNL A   1      42.011  20.325  27.922  1.00  0.00    -0.200 F 
ATOM    126  F   UNL A   1      42.676  20.159  25.281  1.00  0.00    -0.200 F 
ENDBRANCH  88 116
BRANCH 103 127
ATOM    127  C   UNL A   1      48.405  26.817  30.635  1.00  0.00     0.064 A 
ATOM    128  C   UNL A   1      48.728  26.075  31.780  1.00  0.00     0.173 A 
ATOM    129  C   UNL A   1      49.435  27.111  29.728  1.00  0.00     0.173 A 
ATOM    130  F   UNL A   1      47.781  25.782  32.684  1.00  0.00    -0.203 F 
ATOM    131  C   UNL A   1      50.036  25.664  32.020  1.00  0.00     0.198 A 
ATOM    132  C   UNL A   1      50.737  26.675  29.958  1.00  0.00     0.198 A 
ATOM    133  F   UNL A   1      49.176  27.813  28.615  1.00  0.00    -0.203 F 
ATOM    134  F   UNL A   1      50.331  24.995  33.143  1.00  0.00    -0.200 F 
ATOM    135  C   UNL A   1      51.038  25.958  31.105  1.00  0.00     0.200 A 
ATOM    136  F   UNL A   1      51.700  26.949  29.067  1.00  0.00    -0.200 F 
ATOM    137  F   UNL A   1      52.296  25.556  31.335  1.00  0.00    -0.200 F 
ENDBRANCH 103 127
ENDBRANCH  68  71
ENDBRANCH  58  61
ENDBRANCH  54  57
ENDBRANCH  51  54
ENDBRANCH  48  51
ENDBRANCH  45  48
ENDBRANCH   1  45
TORSDOF 19
ENDMDL
MODEL 8
REMARK VINA RESULT:     -10.5      2.406      3.555
REMARK SMILES CCSc1cccc(-c2ccc([C@@H](C)C(=O)NCCCCCCNC(=O)c3ccc(-c4c5nc(c(-c6c(F)c(F)c(F)c(F)c6F)c6ccc([nH]6)c(-c6c(F)c(F)c(F)c(F)c6F)c6nc(c(-c7c(F)c(F)c(F)c(F)c7F)c7ccc4[nH]7)C=C6)C=C5)cc3)cc2)c1
REMARK SMILES IDX 19 1 18 4 17 7 15 8 16 9 13 11 12 13 9 14 10 15 91 16 11 17
REMARK SMILES IDX 90 19 8 23 4 24 5 25 92 26 6 27 7 30 3 33 2 34 1 37 14 41
REMARK SMILES IDX 20 45 21 48 22 51 23 54 24 57 25 58 26 60 27 61 28 62 89 63
REMARK SMILES IDX 29 64 88 66 30 68 31 71 32 72 82 73 33 74 87 75 81 76 83 77
REMARK SMILES IDX 34 78 86 79 80 81 79 83 35 85 67 88 47 89 66 90 48 91 51 92
REMARK SMILES IDX 65 93 84 94 49 95 50 97 64 99 85 100 52 103 36 105 37 106
REMARK SMILES IDX 45 107 38 108 39 109 43 110 46 111 40 112 41 113 44 114
REMARK SMILES IDX 42 115 68 116 69 117 77 118 70 119 71 120 75 121 78 122
REMARK SMILES IDX 72 123 73 124 76 125 74 126 53 127 54 128 62 129 55 130
REMARK SMILES IDX 56 131 60 132 63 133 57 134 58 135 61 136 59 137
REMARK H PARENT 19 2 19 3 18 5 18 6 17 10 13 12 10 18 91 20 11 21 90 22 5 28
REMARK H PARENT 92 29 6 31 7 32 2 35 2 36 1 38 1 39 1 40 14 42 14 43 14 44
REMARK H PARENT 20 46 20 47 21 49 21 50 22 52 22 53 23 55 23 56 24 59 28 65
REMARK H PARENT 89 67 29 69 88 70 87 80 81 82 83 84 86 86 80 87 48 96 51 98
REMARK H PARENT 84 101 49 102 85 104
REMARK Flexibility Score: inf
ROOT
ATOM      1  C   UNL A   1      34.162  25.358  25.545  1.00  0.00    -0.036 C 
ATOM      2  H   UNL A   1      35.054  25.544  26.107  1.00  0.00     0.028 H 
ATOM      3  H   UNL A   1      34.361  25.161  24.512  1.00  0.00     0.028 H 
ENDROOT
BRANCH   1   4
ATOM      4  C   UNL A   1      33.290  26.613  25.597  1.00  0.00     0.017 C 
ATOM      5  H   UNL A   1      32.262  26.319  25.625  1.00  0.00     0.049 H 
ATOM      6  H   UNL A   1      33.556  27.166  26.475  1.00  0.00     0.049 H 
BRANCH   4   7
ATOM      7  N   UNL A   1      33.504  27.465  24.448  1.00  0.00    -0.356 N 
ATOM      8  C   UNL A   1      32.863  27.541  23.250  1.00  0.00     0.227 C 
ATOM      9  O   UNL A   1      33.342  28.321  22.418  1.00  0.00    -0.274 OA
ATOM     10  H   UNL A   1      34.246  28.105  24.550  1.00  0.00     0.163 HD
BRANCH   8  11
ATOM     11  C   UNL A   1      31.601  26.737  22.907  1.00  0.00     0.060 C 
ATOM     12  H   UNL A   1      31.387  26.955  21.881  1.00  0.00     0.045 H 
BRANCH  11  13
ATOM     13  C   UNL A   1      31.820  25.231  22.896  1.00  0.00    -0.036 A 
ATOM     14  C   UNL A   1      32.074  22.379  22.824  1.00  0.00    -0.018 A 
ATOM     15  C   UNL A   1      32.998  23.220  22.187  1.00  0.00    -0.054 A 
ATOM     16  C   UNL A   1      31.034  23.007  23.528  1.00  0.00    -0.054 A 
ATOM     17  C   UNL A   1      32.893  24.616  22.246  1.00  0.00    -0.058 A 
ATOM     18  H   UNL A   1      33.778  22.799  21.658  1.00  0.00     0.063 H 
ATOM     19  C   UNL A   1      30.896  24.402  23.545  1.00  0.00    -0.058 A 
ATOM     20  H   UNL A   1      30.353  22.428  24.044  1.00  0.00     0.063 H 
ATOM     21  H   UNL A   1      33.620  25.199  21.803  1.00  0.00     0.063 H 
ATOM     22  H   UNL A   1      30.100  24.827  24.047  1.00  0.00     0.063 H 
BRANCH  14  23
ATOM     23  C   UNL A   1      32.191  20.901  22.750  1.00  0.00    -0.017 A 
ATOM     24  C   UNL A   1      32.532  18.726  23.839  1.00  0.00     0.008 A 
ATOM     25  C   UNL A   1      32.391  18.077  22.615  1.00  0.00    -0.049 A 
ATOM     26  C   UNL A   1      32.429  20.123  23.900  1.00  0.00    -0.041 A 
ATOM     27  C   UNL A   1      32.153  18.819  21.461  1.00  0.00    -0.061 A 
ATOM     28  H   UNL A   1      32.463  17.049  22.562  1.00  0.00     0.063 H 
ATOM     29  H   UNL A   1      32.530  20.595  24.812  1.00  0.00     0.064 H 
ATOM     30  C   UNL A   1      32.064  20.212  21.529  1.00  0.00    -0.054 A 
ATOM     31  H   UNL A   1      32.043  18.340  20.553  1.00  0.00     0.062 H 
ATOM     32  H   UNL A   1      31.899  20.749  20.664  1.00  0.00     0.063 H 
BRANCH  24  33
ATOM     33  S   UNL A   1      32.904  17.810  25.324  1.00  0.00    -0.126 SA
BRANCH  33  34
ATOM     34  C   UNL A   1      32.897  16.108  24.671  1.00  0.00    -0.005 C 
ATOM     35  H   UNL A   1      31.921  15.887  24.290  1.00  0.00     0.038 H 
ATOM     36  H   UNL A   1      33.634  16.045  23.898  1.00  0.00     0.038 H 
BRANCH  34  37
ATOM     37  C   UNL A   1      33.247  15.092  25.744  1.00  0.00    -0.056 C 
ATOM     38  H   UNL A   1      32.802  14.150  25.502  1.00  0.00     0.024 H 
ATOM     39  H   UNL A   1      32.875  15.429  26.689  1.00  0.00     0.024 H 
ATOM     40  H   UNL A   1      34.310  14.983  25.798  1.00  0.00     0.024 H 
ENDBRANCH  34  37
ENDBRANCH  33  34
ENDBRANCH  24  33
ENDBRANCH  14  23
ENDBRANCH  11  13
BRANCH  11  41
ATOM     41  C   UNL A   1      30.337  27.227  23.615  1.00  0.00    -0.049 C 
ATOM     42  H   UNL A   1      30.049  26.519  24.363  1.00  0.00     0.024 H 
ATOM     43  H   UNL A   1      29.547  27.335  22.902  1.00  0.00     0.024 H 
ATOM     44  H   UNL A   1      30.532  28.173  24.077  1.00  0.00     0.024 H 
ENDBRANCH  11  41
ENDBRANCH   8  11
ENDBRANCH   4   7
ENDBRANCH   1   4
BRANCH   1  45
ATOM     45  C   UNL A   1      33.485  24.106  26.113  1.00  0.00    -0.052 C 
ATOM     46  H   UNL A   1      32.543  23.986  25.621  1.00  0.00     0.027 H 
ATOM     47  H   UNL A   1      33.400  24.269  27.168  1.00  0.00     0.027 H 
BRANCH  45  48
ATOM     48  C   UNL A   1      34.276  22.801  25.948  1.00  0.00    -0.052 C 
ATOM     49  H   UNL A   1      34.231  22.519  24.917  1.00  0.00     0.027 H 
ATOM     50  H   UNL A   1      33.819  22.096  26.610  1.00  0.00     0.027 H 
BRANCH  48  51
ATOM     51  C   UNL A   1      35.752  22.865  26.356  1.00  0.00    -0.036 C 
ATOM     52  H   UNL A   1      35.900  22.190  27.173  1.00  0.00     0.028 H 
ATOM     53  H   UNL A   1      35.949  23.886  26.608  1.00  0.00     0.028 H 
BRANCH  51  54
ATOM     54  C   UNL A   1      36.740  22.498  25.251  1.00  0.00     0.018 C 
ATOM     55  H   UNL A   1      37.314  23.366  25.000  1.00  0.00     0.049 H 
ATOM     56  H   UNL A   1      36.180  22.147  24.410  1.00  0.00     0.049 H 
BRANCH  54  57
ATOM     57  N   UNL A   1      37.647  21.439  25.662  1.00  0.00    -0.352 N 
ATOM     58  C   UNL A   1      38.938  21.513  26.125  1.00  0.00     0.251 C 
ATOM     59  H   UNL A   1      37.281  20.528  25.597  1.00  0.00     0.163 HD
ATOM     60  O   UNL A   1      39.617  20.495  26.214  1.00  0.00    -0.269 OA
BRANCH  58  61
ATOM     61  C   UNL A   1      39.521  22.816  26.511  1.00  0.00     0.039 A 
ATOM     62  C   UNL A   1      40.406  22.864  27.593  1.00  0.00    -0.049 A 
ATOM     63  C   UNL A   1      39.168  23.992  25.844  1.00  0.00    -0.049 A 
ATOM     64  C   UNL A   1      40.978  24.080  27.971  1.00  0.00    -0.053 A 
ATOM     65  H   UNL A   1      40.635  22.001  28.112  1.00  0.00     0.063 H 
ATOM     66  C   UNL A   1      39.785  25.195  26.181  1.00  0.00    -0.053 A 
ATOM     67  H   UNL A   1      38.451  23.969  25.103  1.00  0.00     0.063 H 
ATOM     68  C   UNL A   1      40.693  25.252  27.250  1.00  0.00    -0.014 A 
ATOM     69  H   UNL A   1      41.612  24.119  28.784  1.00  0.00     0.063 H 
ATOM     70  H   UNL A   1      39.573  26.049  25.643  1.00  0.00     0.063 H 
BRANCH  68  71
ATOM     71  C   UNL A   1      41.343  26.540  27.596  1.00  0.00     0.031 A 
ATOM     72  C   UNL A   1      42.777  26.793  27.223  1.00  0.00     0.074 A 
ATOM     73  C   UNL A   1      40.660  27.459  28.306  1.00  0.00     0.049 A 
ATOM     74  N   UNL A   1      43.535  27.825  27.497  1.00  0.00    -0.248 NA
ATOM     75  C   UNL A   1      43.459  25.732  26.464  1.00  0.00    -0.034 C 
ATOM     76  C   UNL A   1      39.280  27.309  28.770  1.00  0.00    -0.036 A 
ATOM     77  N   UNL A   1      41.036  28.693  28.773  1.00  0.00    -0.354 N 
ATOM     78  C   UNL A   1      44.782  27.532  26.960  1.00  0.00     0.074 A 
ATOM     79  C   UNL A   1      44.694  26.208  26.384  1.00  0.00    -0.034 C 
ATOM     80  H   UNL A   1      43.076  24.849  26.093  1.00  0.00     0.065 H 
ATOM     81  C   UNL A   1      38.921  28.414  29.443  1.00  0.00    -0.036 A 
ATOM     82  H   UNL A   1      38.678  26.487  28.606  1.00  0.00     0.065 H 
ATOM     83  C   UNL A   1      40.053  29.334  29.486  1.00  0.00     0.049 A 
ATOM     84  H   UNL A   1      41.926  29.082  28.613  1.00  0.00     0.167 HD
ATOM     85  C   UNL A   1      45.893  28.307  26.935  1.00  0.00     0.037 A 
ATOM     86  H   UNL A   1      45.489  25.701  25.965  1.00  0.00     0.065 H 
ATOM     87  H   UNL A   1      37.993  28.585  29.863  1.00  0.00     0.065 H 
ATOM     88  C   UNL A   1      40.065  30.528  30.109  1.00  0.00     0.037 A 
ATOM     89  C   UNL A   1      45.967  29.637  27.481  1.00  0.00     0.049 A 
ATOM     90  C   UNL A   1      41.308  31.374  30.052  1.00  0.00     0.074 A 
ATOM     91  C   UNL A   1      47.025  30.530  27.439  1.00  0.00    -0.036 A 
ATOM     92  N   UNL A   1      44.941  30.266  28.169  1.00  0.00    -0.354 N 
ATOM     93  N   UNL A   1      42.459  31.117  29.479  1.00  0.00    -0.248 NA
ATOM     94  C   UNL A   1      41.251  32.680  30.724  1.00  0.00    -0.034 C 
ATOM     95  C   UNL A   1      46.654  31.682  28.140  1.00  0.00    -0.036 A 
ATOM     96  H   UNL A   1      47.931  30.372  26.972  1.00  0.00     0.065 H 
ATOM     97  C   UNL A   1      45.348  31.527  28.577  1.00  0.00     0.049 A 
ATOM     98  H   UNL A   1      44.055  29.875  28.344  1.00  0.00     0.167 HD
ATOM     99  C   UNL A   1      43.252  32.234  29.696  1.00  0.00     0.074 A 
ATOM    100  C   UNL A   1      42.447  33.180  30.441  1.00  0.00    -0.034 C 
ATOM    101  H   UNL A   1      40.483  33.099  31.269  1.00  0.00     0.065 H 
ATOM    102  H   UNL A   1      47.250  32.508  28.301  1.00  0.00     0.065 H 
ATOM    103  C   UNL A   1      44.532  32.458  29.314  1.00  0.00     0.037 A 
ATOM    104  H   UNL A   1      42.762  34.122  30.719  1.00  0.00     0.065 H 
BRANCH  85 105
ATOM    105  C   UNL A   1      47.124  27.739  26.290  1.00  0.00     0.064 A 
ATOM    106  C   UNL A   1      48.099  27.061  27.038  1.00  0.00     0.173 A 
ATOM    107  C   UNL A   1      47.308  27.834  24.902  1.00  0.00     0.173 A 
ATOM    108  F   UNL A   1      47.974  26.953  28.369  1.00  0.00    -0.203 F 
ATOM    109  C   UNL A   1      49.225  26.521  26.422  1.00  0.00     0.198 A 
ATOM    110  C   UNL A   1      48.422  27.267  24.288  1.00  0.00     0.198 A 
ATOM    111  F   UNL A   1      46.404  28.466  24.140  1.00  0.00    -0.203 F 
ATOM    112  F   UNL A   1      50.164  25.915  27.162  1.00  0.00    -0.200 F 
ATOM    113  C   UNL A   1      49.382  26.616  25.048  1.00  0.00     0.200 A 
ATOM    114  F   UNL A   1      48.566  27.350  22.957  1.00  0.00    -0.200 F 
ATOM    115  F   UNL A   1      50.462  26.088  24.457  1.00  0.00    -0.200 F 
ENDBRANCH  85 105
BRANCH  88 116
ATOM    116  C   UNL A   1      38.853  31.003  30.824  1.00  0.00     0.064 A 
ATOM    117  C   UNL A   1      37.828  31.668  30.136  1.00  0.00     0.173 A 
ATOM    118  C   UNL A   1      38.692  30.803  32.202  1.00  0.00     0.173 A 
ATOM    119  F   UNL A   1      37.946  31.900  28.821  1.00  0.00    -0.203 F 
ATOM    120  C   UNL A   1      36.698  32.134  30.806  1.00  0.00     0.198 A 
ATOM    121  C   UNL A   1      37.550  31.244  32.865  1.00  0.00     0.198 A 
ATOM    122  F   UNL A   1      39.642  30.167  32.904  1.00  0.00    -0.203 F 
ATOM    123  F   UNL A   1      35.754  32.805  30.132  1.00  0.00    -0.200 F 
ATOM    124  C   UNL A   1      36.557  31.917  32.168  1.00  0.00     0.200 A 
ATOM    125  F   UNL A   1      37.411  31.021  34.179  1.00  0.00    -0.200 F 
ATOM    126  F   UNL A   1      35.468  32.360  32.809  1.00  0.00    -0.200 F 
ENDBRANCH  88 116
BRANCH 103 127
ATOM    127  C   UNL A   1      45.133  33.785  29.671  1.00  0.00     0.064 A 
ATOM    128  C   UNL A   1      45.836  33.975  30.869  1.00  0.00     0.173 A 
ATOM    129  C   UNL A   1      45.037  34.869  28.784  1.00  0.00     0.173 A 
ATOM    130  F   UNL A   1      45.942  32.973  31.756  1.00  0.00    -0.203 F 
ATOM    131  C   UNL A   1      46.400  35.209  31.178  1.00  0.00     0.198 A 
ATOM    132  C   UNL A   1      45.626  36.093  29.085  1.00  0.00     0.198 A 
ATOM    133  F   UNL A   1      44.381  34.735  27.622  1.00  0.00    -0.203 F 
ATOM    134  F   UNL A   1      47.029  35.382  32.350  1.00  0.00    -0.200 F 
ATOM    135  C   UNL A   1      46.301  36.265  30.283  1.00  0.00     0.200 A 
ATOM    136  F   UNL A   1      45.540  37.108  28.214  1.00  0.00    -0.200 F 
ATOM    137  F   UNL A   1      46.850  37.451  30.581  1.00  0.00    -0.200 F 
ENDBRANCH 103 127
ENDBRANCH  68  71
ENDBRANCH  58  61
ENDBRANCH  54  57
ENDBRANCH  51  54
ENDBRANCH  48  51
ENDBRANCH  45  48
ENDBRANCH   1  45
TORSDOF 19
ENDMDL
MODEL 9
REMARK VINA RESULT:     -10.3      5.476     11.280
REMARK SMILES CCSc1cccc(-c2ccc([C@@H](C)C(=O)NCCCCCCNC(=O)c3ccc(-c4c5nc(c(-c6c(F)c(F)c(F)c(F)c6F)c6ccc([nH]6)c(-c6c(F)c(F)c(F)c(F)c6F)c6nc(c(-c7c(F)c(F)c(F)c(F)c7F)c7ccc4[nH]7)C=C6)C=C5)cc3)cc2)c1
REMARK SMILES IDX 19 1 18 4 17 7 15 8 16 9 13 11 12 13 9 14 10 15 91 16 11 17
REMARK SMILES IDX 90 19 8 23 4 24 5 25 92 26 6 27 7 30 3 33 2 34 1 37 14 41
REMARK SMILES IDX 20 45 21 48 22 51 23 54 24 57 25 58 26 60 27 61 28 62 89 63
REMARK SMILES IDX 29 64 88 66 30 68 31 71 32 72 82 73 33 74 87 75 81 76 83 77
REMARK SMILES IDX 34 78 86 79 80 81 79 83 35 85 67 88 47 89 66 90 48 91 51 92
REMARK SMILES IDX 65 93 84 94 49 95 50 97 64 99 85 100 52 103 36 105 37 106
REMARK SMILES IDX 45 107 38 108 39 109 43 110 46 111 40 112 41 113 44 114
REMARK SMILES IDX 42 115 68 116 69 117 77 118 70 119 71 120 75 121 78 122
REMARK SMILES IDX 72 123 73 124 76 125 74 126 53 127 54 128 62 129 55 130
REMARK SMILES IDX 56 131 60 132 63 133 57 134 58 135 61 136 59 137
REMARK H PARENT 19 2 19 3 18 5 18 6 17 10 13 12 10 18 91 20 11 21 90 22 5 28
REMARK H PARENT 92 29 6 31 7 32 2 35 2 36 1 38 1 39 1 40 14 42 14 43 14 44
REMARK H PARENT 20 46 20 47 21 49 21 50 22 52 22 53 23 55 23 56 24 59 28 65
REMARK H PARENT 89 67 29 69 88 70 87 80 81 82 83 84 86 86 80 87 48 96 51 98
REMARK H PARENT 84 101 49 102 85 104
REMARK Flexibility Score: inf
ROOT
ATOM      1  C   UNL A   1      37.611  31.498  33.531  1.00  0.00    -0.036 C 
ATOM      2  H   UNL A   1      37.085  32.211  34.132  1.00  0.00     0.028 H 
ATOM      3  H   UNL A   1      37.418  30.488  33.827  1.00  0.00     0.028 H 
ENDROOT
BRANCH   1   4
ATOM      4  C   UNL A   1      39.112  31.734  33.712  1.00  0.00     0.017 C 
ATOM      5  H   UNL A   1      39.622  31.405  32.831  1.00  0.00     0.049 H 
ATOM      6  H   UNL A   1      39.267  32.780  33.877  1.00  0.00     0.049 H 
BRANCH   4   7
ATOM      7  N   UNL A   1      39.636  31.017  34.853  1.00  0.00    -0.356 N 
ATOM      8  C   UNL A   1      40.277  29.819  34.949  1.00  0.00     0.227 C 
ATOM      9  O   UNL A   1      40.525  29.420  36.092  1.00  0.00    -0.274 OA
ATOM     10  H   UNL A   1      39.506  31.476  35.714  1.00  0.00     0.163 HD
BRANCH   8  11
ATOM     11  C   UNL A   1      40.704  28.982  33.735  1.00  0.00     0.060 C 
ATOM     12  H   UNL A   1      41.179  29.666  33.063  1.00  0.00     0.045 H 
BRANCH  11  13
ATOM     13  C   UNL A   1      41.808  27.982  34.042  1.00  0.00    -0.036 A 
ATOM     14  C   UNL A   1      43.978  26.225  34.687  1.00  0.00    -0.018 A 
ATOM     15  C   UNL A   1      42.655  25.933  35.051  1.00  0.00    -0.054 A 
ATOM     16  C   UNL A   1      44.182  27.410  33.960  1.00  0.00    -0.054 A 
ATOM     17  C   UNL A   1      41.589  26.775  34.710  1.00  0.00    -0.058 A 
ATOM     18  H   UNL A   1      42.461  25.071  35.587  1.00  0.00     0.063 H 
ATOM     19  C   UNL A   1      43.124  28.281  33.663  1.00  0.00    -0.058 A 
ATOM     20  H   UNL A   1      45.133  27.645  33.639  1.00  0.00     0.063 H 
ATOM     21  H   UNL A   1      40.625  26.500  34.956  1.00  0.00     0.063 H 
ATOM     22  H   UNL A   1      43.318  29.158  33.155  1.00  0.00     0.063 H 
BRANCH  14  23
ATOM     23  C   UNL A   1      45.101  25.329  35.059  1.00  0.00    -0.017 A 
ATOM     24  C   UNL A   1      46.181  23.124  35.010  1.00  0.00     0.008 A 
ATOM     25  C   UNL A   1      47.254  23.620  35.746  1.00  0.00    -0.049 A 
ATOM     26  C   UNL A   1      45.120  23.974  34.670  1.00  0.00    -0.041 A 
ATOM     27  C   UNL A   1      47.265  24.954  36.142  1.00  0.00    -0.061 A 
ATOM     28  H   UNL A   1      48.041  23.000  35.997  1.00  0.00     0.063 H 
ATOM     29  H   UNL A   1      44.331  23.599  34.121  1.00  0.00     0.064 H 
ATOM     30  C   UNL A   1      46.197  25.793  35.809  1.00  0.00    -0.054 A 
ATOM     31  H   UNL A   1      48.062  25.326  36.682  1.00  0.00     0.062 H 
ATOM     32  H   UNL A   1      46.213  26.776  36.120  1.00  0.00     0.063 H 
BRANCH  24  33
ATOM     33  S   UNL A   1      46.106  21.403  34.545  1.00  0.00    -0.126 SA
BRANCH  33  34
ATOM     34  C   UNL A   1      47.086  20.656  35.890  1.00  0.00    -0.005 C 
ATOM     35  H   UNL A   1      47.706  19.886  35.480  1.00  0.00     0.038 H 
ATOM     36  H   UNL A   1      47.677  21.427  36.338  1.00  0.00     0.038 H 
BRANCH  34  37
ATOM     37  C   UNL A   1      46.198  20.054  36.964  1.00  0.00    -0.056 C 
ATOM     38  H   UNL A   1      45.849  19.096  36.642  1.00  0.00     0.024 H 
ATOM     39  H   UNL A   1      45.362  20.698  37.139  1.00  0.00     0.024 H 
ATOM     40  H   UNL A   1      46.759  19.943  37.869  1.00  0.00     0.024 H 
ENDBRANCH  34  37
ENDBRANCH  33  34
ENDBRANCH  24  33
ENDBRANCH  14  23
ENDBRANCH  11  13
BRANCH  11  41
ATOM     41  C   UNL A   1      39.536  28.459  32.897  1.00  0.00    -0.049 C 
ATOM     42  H   UNL A   1      39.654  28.778  31.883  1.00  0.00     0.024 H 
ATOM     43  H   UNL A   1      38.616  28.843  33.287  1.00  0.00     0.024 H 
ATOM     44  H   UNL A   1      39.521  27.389  32.935  1.00  0.00     0.024 H 
ENDBRANCH  11  41
ENDBRANCH   8  11
ENDBRANCH   4   7
ENDBRANCH   1   4
BRANCH   1  45
ATOM     45  C   UNL A   1      37.130  31.637  32.083  1.00  0.00    -0.052 C 
ATOM     46  H   UNL A   1      36.665  30.716  31.798  1.00  0.00     0.027 H 
ATOM     47  H   UNL A   1      37.998  31.876  31.504  1.00  0.00     0.027 H 
BRANCH  45  48
ATOM     48  C   UNL A   1      36.127  32.771  31.833  1.00  0.00    -0.052 C 
ATOM     49  H   UNL A   1      36.636  33.548  31.302  1.00  0.00     0.027 H 
ATOM     50  H   UNL A   1      35.771  33.066  32.797  1.00  0.00     0.027 H 
BRANCH  48  51
ATOM     51  C   UNL A   1      34.881  32.388  31.026  1.00  0.00    -0.036 C 
ATOM     52  H   UNL A   1      34.056  32.960  31.397  1.00  0.00     0.028 H 
ATOM     53  H   UNL A   1      34.755  31.332  31.153  1.00  0.00     0.028 H 
BRANCH  51  54
ATOM     54  C   UNL A   1      34.989  32.629  29.523  1.00  0.00     0.018 C 
ATOM     55  H   UNL A   1      36.023  32.630  29.246  1.00  0.00     0.049 H 
ATOM     56  H   UNL A   1      34.530  33.570  29.305  1.00  0.00     0.049 H 
BRANCH  54  57
ATOM     57  N   UNL A   1      34.300  31.604  28.756  1.00  0.00    -0.352 N 
ATOM     58  C   UNL A   1      34.794  30.477  28.146  1.00  0.00     0.251 C 
ATOM     59  H   UNL A   1      33.330  31.738  28.658  1.00  0.00     0.163 HD
ATOM     60  O   UNL A   1      34.093  29.847  27.360  1.00  0.00    -0.269 OA
BRANCH  58  61
ATOM     61  C   UNL A   1      36.173  30.019  28.423  1.00  0.00     0.039 A 
ATOM     62  C   UNL A   1      37.167  30.262  27.470  1.00  0.00    -0.049 A 
ATOM     63  C   UNL A   1      36.480  29.314  29.589  1.00  0.00    -0.049 A 
ATOM     64  C   UNL A   1      38.478  29.848  27.711  1.00  0.00    -0.053 A 
ATOM     65  H   UNL A   1      36.932  30.747  26.589  1.00  0.00     0.063 H 
ATOM     66  C   UNL A   1      37.799  28.955  29.858  1.00  0.00    -0.053 A 
ATOM     67  H   UNL A   1      35.731  29.059  30.251  1.00  0.00     0.063 H 
ATOM     68  C   UNL A   1      38.811  29.216  28.921  1.00  0.00    -0.014 A 
ATOM     69  H   UNL A   1      39.207  30.007  26.998  1.00  0.00     0.063 H 
ATOM     70  H   UNL A   1      38.034  28.495  30.751  1.00  0.00     0.063 H 
BRANCH  68  71
ATOM     71  C   UNL A   1      40.211  28.829  29.222  1.00  0.00     0.031 A 
ATOM     72  C   UNL A   1      41.115  29.767  29.973  1.00  0.00     0.074 A 
ATOM     73  C   UNL A   1      40.690  27.657  28.761  1.00  0.00     0.049 A 
ATOM     74  N   UNL A   1      42.383  29.635  30.270  1.00  0.00    -0.248 NA
ATOM     75  C   UNL A   1      40.521  31.035  30.426  1.00  0.00    -0.034 C 
ATOM     76  C   UNL A   1      39.927  26.684  27.977  1.00  0.00    -0.036 A 
ATOM     77  N   UNL A   1      41.935  27.091  28.872  1.00  0.00    -0.354 N 
ATOM     78  C   UNL A   1      42.741  30.804  30.929  1.00  0.00     0.074 A 
ATOM     79  C   UNL A   1      41.570  31.654  30.949  1.00  0.00    -0.034 C 
ATOM     80  H   UNL A   1      39.543  31.357  30.355  1.00  0.00     0.065 H 
ATOM     81  C   UNL A   1      40.715  25.636  27.691  1.00  0.00    -0.036 A 
ATOM     82  H   UNL A   1      38.941  26.787  27.692  1.00  0.00     0.065 H 
ATOM     83  C   UNL A   1      42.046  25.877  28.240  1.00  0.00     0.049 A 
ATOM     84  H   UNL A   1      42.679  27.515  29.358  1.00  0.00     0.167 HD
ATOM     85  C   UNL A   1      43.934  31.129  31.483  1.00  0.00     0.037 A 
ATOM     86  H   UNL A   1      41.555  32.616  31.321  1.00  0.00     0.065 H 
ATOM     87  H   UNL A   1      40.427  24.796  27.165  1.00  0.00     0.065 H 
ATOM     88  C   UNL A   1      43.103  25.052  28.114  1.00  0.00     0.037 A 
ATOM     89  C   UNL A   1      45.087  30.268  31.489  1.00  0.00     0.049 A 
ATOM     90  C   UNL A   1      44.412  25.433  28.751  1.00  0.00     0.074 A 
ATOM     91  C   UNL A   1      46.318  30.477  32.089  1.00  0.00    -0.036 A 
ATOM     92  N   UNL A   1      45.153  29.032  30.866  1.00  0.00    -0.354 N 
ATOM     93  N   UNL A   1      44.718  26.509  29.434  1.00  0.00    -0.248 NA
ATOM     94  C   UNL A   1      45.520  24.478  28.607  1.00  0.00    -0.034 C 
ATOM     95  C   UNL A   1      47.141  29.387  31.791  1.00  0.00    -0.036 A 
ATOM     96  H   UNL A   1      46.582  31.297  32.657  1.00  0.00     0.065 H 
ATOM     97  C   UNL A   1      46.410  28.476  31.047  1.00  0.00     0.049 A 
ATOM     98  H   UNL A   1      44.416  28.610  30.367  1.00  0.00     0.167 HD
ATOM     99  C   UNL A   1      46.041  26.351  29.822  1.00  0.00     0.074 A 
ATOM    100  C   UNL A   1      46.476  25.068  29.312  1.00  0.00    -0.034 C 
ATOM    101  H   UNL A   1      45.547  23.584  28.093  1.00  0.00     0.065 H 
ATOM    102  H   UNL A   1      48.126  29.278  32.079  1.00  0.00     0.065 H 
ATOM    103  C   UNL A   1      46.825  27.194  30.536  1.00  0.00     0.037 A 
ATOM    104  H   UNL A   1      47.411  24.664  29.475  1.00  0.00     0.065 H 
BRANCH  85 105
ATOM    105  C   UNL A   1      44.055  32.476  32.135  1.00  0.00     0.064 A 
ATOM    106  C   UNL A   1      44.516  33.596  31.427  1.00  0.00     0.173 A 
ATOM    107  C   UNL A   1      43.662  32.658  33.469  1.00  0.00     0.173 A 
ATOM    108  F   UNL A   1      44.915  33.473  30.153  1.00  0.00    -0.203 F 
ATOM    109  C   UNL A   1      44.603  34.844  32.040  1.00  0.00     0.198 A 
ATOM    110  C   UNL A   1      43.723  33.913  34.069  1.00  0.00     0.198 A 
ATOM    111  F   UNL A   1      43.208  31.621  34.189  1.00  0.00    -0.203 F 
ATOM    112  F   UNL A   1      45.087  35.891  31.358  1.00  0.00    -0.200 F 
ATOM    113  C   UNL A   1      44.199  35.004  33.357  1.00  0.00     0.200 A 
ATOM    114  F   UNL A   1      43.321  34.068  35.340  1.00  0.00    -0.200 F 
ATOM    115  F   UNL A   1      44.274  36.207  33.941  1.00  0.00    -0.200 F 
ENDBRANCH  85 105
BRANCH  88 116
ATOM    116  C   UNL A   1      42.962  23.775  27.369  1.00  0.00     0.064 A 
ATOM    117  C   UNL A   1      42.485  22.621  28.006  1.00  0.00     0.173 A 
ATOM    118  C   UNL A   1      43.297  23.681  26.011  1.00  0.00     0.173 A 
ATOM    119  F   UNL A   1      42.171  22.657  29.309  1.00  0.00    -0.203 F 
ATOM    120  C   UNL A   1      42.370  21.415  27.316  1.00  0.00     0.198 A 
ATOM    121  C   UNL A   1      43.155  22.482  25.315  1.00  0.00     0.198 A 
ATOM    122  F   UNL A   1      43.752  24.759  25.354  1.00  0.00    -0.203 F 
ATOM    123  F   UNL A   1      41.954  20.316  27.960  1.00  0.00    -0.200 F 
ATOM    124  C   UNL A   1      42.699  21.348  25.971  1.00  0.00     0.200 A 
ATOM    125  F   UNL A   1      43.462  22.425  24.012  1.00  0.00    -0.200 F 
ATOM    126  F   UNL A   1      42.584  20.190  25.308  1.00  0.00    -0.200 F 
ENDBRANCH  88 116
BRANCH 103 127
ATOM    127  C   UNL A   1      48.225  26.744  30.831  1.00  0.00     0.064 A 
ATOM    128  C   UNL A   1      49.302  27.106  30.009  1.00  0.00     0.173 A 
ATOM    129  C   UNL A   1      48.498  25.973  31.972  1.00  0.00     0.173 A 
ATOM    130  F   UNL A   1      49.090  27.830  28.899  1.00  0.00    -0.203 F 
ATOM    131  C   UNL A   1      50.598  26.693  30.305  1.00  0.00     0.198 A 
ATOM    132  C   UNL A   1      49.798  25.584  32.279  1.00  0.00     0.198 A 
ATOM    133  F   UNL A   1      47.503  25.607  32.793  1.00  0.00    -0.203 F 
ATOM    134  F   UNL A   1      51.606  27.012  29.481  1.00  0.00    -0.200 F 
ATOM    135  C   UNL A   1      50.846  25.938  31.443  1.00  0.00     0.200 A 
ATOM    136  F   UNL A   1      50.038  24.867  33.385  1.00  0.00    -0.200 F 
ATOM    137  F   UNL A   1      52.095  25.546  31.729  1.00  0.00    -0.200 F 
ENDBRANCH 103 127
ENDBRANCH  68  71
ENDBRANCH  58  61
ENDBRANCH  54  57
ENDBRANCH  51  54
ENDBRANCH  48  51
ENDBRANCH  45  48
ENDBRANCH   1  45
TORSDOF 19
ENDMDL
MODEL 10
REMARK VINA RESULT:     -10.3      7.335     12.036
REMARK SMILES CCSc1cccc(-c2ccc([C@@H](C)C(=O)NCCCCCCNC(=O)c3ccc(-c4c5nc(c(-c6c(F)c(F)c(F)c(F)c6F)c6ccc([nH]6)c(-c6c(F)c(F)c(F)c(F)c6F)c6nc(c(-c7c(F)c(F)c(F)c(F)c7F)c7ccc4[nH]7)C=C6)C=C5)cc3)cc2)c1
REMARK SMILES IDX 19 1 18 4 17 7 15 8 16 9 13 11 12 13 9 14 10 15 91 16 11 17
REMARK SMILES IDX 90 19 8 23 4 24 5 25 92 26 6 27 7 30 3 33 2 34 1 37 14 41
REMARK SMILES IDX 20 45 21 48 22 51 23 54 24 57 25 58 26 60 27 61 28 62 89 63
REMARK SMILES IDX 29 64 88 66 30 68 31 71 32 72 82 73 33 74 87 75 81 76 83 77
REMARK SMILES IDX 34 78 86 79 80 81 79 83 35 85 67 88 47 89 66 90 48 91 51 92
REMARK SMILES IDX 65 93 84 94 49 95 50 97 64 99 85 100 52 103 36 105 37 106
REMARK SMILES IDX 45 107 38 108 39 109 43 110 46 111 40 112 41 113 44 114
REMARK SMILES IDX 42 115 68 116 69 117 77 118 70 119 71 120 75 121 78 122
REMARK SMILES IDX 72 123 73 124 76 125 74 126 53 127 54 128 62 129 55 130
REMARK SMILES IDX 56 131 60 132 63 133 57 134 58 135 61 136 59 137
REMARK H PARENT 19 2 19 3 18 5 18 6 17 10 13 12 10 18 91 20 11 21 90 22 5 28
REMARK H PARENT 92 29 6 31 7 32 2 35 2 36 1 38 1 39 1 40 14 42 14 43 14 44
REMARK H PARENT 20 46 20 47 21 49 21 50 22 52 22 53 23 55 23 56 24 59 28 65
REMARK H PARENT 89 67 29 69 88 70 87 80 81 82 83 84 86 86 80 87 48 96 51 98
REMARK H PARENT 84 101 49 102 85 104
REMARK Flexibility Score: inf
ROOT
ATOM      1  C   UNL A   1      45.229  29.265  27.371  1.00  0.00    -0.036 C 
ATOM      2  H   UNL A   1      44.946  30.276  27.578  1.00  0.00     0.028 H 
ATOM      3  H   UNL A   1      45.422  28.701  28.260  1.00  0.00     0.028 H 
ENDROOT
BRANCH   1   4
ATOM      4  C   UNL A   1      46.530  29.285  26.566  1.00  0.00     0.017 C 
ATOM      5  H   UNL A   1      47.001  30.237  26.693  1.00  0.00     0.049 H 
ATOM      6  H   UNL A   1      47.157  28.495  26.928  1.00  0.00     0.049 H 
BRANCH   4   7
ATOM      7  N   UNL A   1      46.294  29.061  25.157  1.00  0.00    -0.356 N 
ATOM      8  C   UNL A   1      46.704  28.068  24.321  1.00  0.00     0.227 C 
ATOM      9  O   UNL A   1      46.414  28.201  23.126  1.00  0.00    -0.274 OA
ATOM     10  H   UNL A   1      45.738  29.749  24.725  1.00  0.00     0.163 HD
BRANCH   8  11
ATOM     11  C   UNL A   1      47.471  26.823  24.788  1.00  0.00     0.060 C 
ATOM     12  H   UNL A   1      47.753  27.019  25.802  1.00  0.00     0.045 H 
BRANCH  11  13
ATOM     13  C   UNL A   1      46.601  25.581  24.911  1.00  0.00    -0.036 A 
ATOM     14  C   UNL A   1      45.087  23.170  25.233  1.00  0.00    -0.018 A 
ATOM     15  C   UNL A   1      44.544  24.431  25.525  1.00  0.00    -0.054 A 
ATOM     16  C   UNL A   1      46.403  23.151  24.743  1.00  0.00    -0.054 A 
ATOM     17  C   UNL A   1      45.273  25.613  25.339  1.00  0.00    -0.058 A 
ATOM     18  H   UNL A   1      43.578  24.489  25.888  1.00  0.00     0.063 H 
ATOM     19  C   UNL A   1      47.153  24.328  24.606  1.00  0.00    -0.058 A 
ATOM     20  H   UNL A   1      46.829  22.251  24.479  1.00  0.00     0.063 H 
ATOM     21  H   UNL A   1      44.820  26.522  25.522  1.00  0.00     0.063 H 
ATOM     22  H   UNL A   1      48.128  24.272  24.272  1.00  0.00     0.063 H 
BRANCH  14  23
ATOM     23  C   UNL A   1      44.308  21.924  25.439  1.00  0.00    -0.017 A 
ATOM     24  C   UNL A   1      42.332  20.760  26.320  1.00  0.00     0.008 A 
ATOM     25  C   UNL A   1      42.805  19.551  25.814  1.00  0.00    -0.049 A 
ATOM     26  C   UNL A   1      43.079  21.931  26.129  1.00  0.00    -0.041 A 
ATOM     27  C   UNL A   1      44.014  19.513  25.126  1.00  0.00    -0.061 A 
ATOM     28  H   UNL A   1      42.259  18.685  25.948  1.00  0.00     0.063 H 
ATOM     29  H   UNL A   1      42.719  22.822  26.504  1.00  0.00     0.064 H 
ATOM     30  C   UNL A   1      44.758  20.684  24.950  1.00  0.00    -0.054 A 
ATOM     31  H   UNL A   1      44.363  18.619  24.745  1.00  0.00     0.062 H 
ATOM     32  H   UNL A   1      45.658  20.638  24.449  1.00  0.00     0.063 H 
BRANCH  24  33
ATOM     33  S   UNL A   1      40.820  20.829  27.263  1.00  0.00    -0.126 SA
BRANCH  33  34
ATOM     34  C   UNL A   1      39.996  22.244  26.461  1.00  0.00    -0.005 C 
ATOM     35  H   UNL A   1      39.769  22.980  27.204  1.00  0.00     0.038 H 
ATOM     36  H   UNL A   1      40.659  22.639  25.720  1.00  0.00     0.038 H 
BRANCH  34  37
ATOM     37  C   UNL A   1      38.709  21.828  25.771  1.00  0.00    -0.056 C 
ATOM     38  H   UNL A   1      38.310  20.961  26.255  1.00  0.00     0.024 H 
ATOM     39  H   UNL A   1      38.910  21.602  24.745  1.00  0.00     0.024 H 
ATOM     40  H   UNL A   1      38.000  22.626  25.828  1.00  0.00     0.024 H 
ENDBRANCH  34  37
ENDBRANCH  33  34
ENDBRANCH  24  33
ENDBRANCH  14  23
ENDBRANCH  11  13
BRANCH  11  41
ATOM     41  C   UNL A   1      48.825  26.631  24.103  1.00  0.00    -0.049 C 
ATOM     42  H   UNL A   1      48.693  26.072  23.201  1.00  0.00     0.024 H 
ATOM     43  H   UNL A   1      49.484  26.099  24.758  1.00  0.00     0.024 H 
ATOM     44  H   UNL A   1      49.247  27.587  23.873  1.00  0.00     0.024 H 
ENDBRANCH  11  41
ENDBRANCH   8  11
ENDBRANCH   4   7
ENDBRANCH   1   4
BRANCH   1  45
ATOM     45  C   UNL A   1      44.064  28.575  26.652  1.00  0.00    -0.052 C 
ATOM     46  H   UNL A   1      43.819  27.686  27.196  1.00  0.00     0.027 H 
ATOM     47  H   UNL A   1      44.402  28.387  25.654  1.00  0.00     0.027 H 
BRANCH  45  48
ATOM     48  C   UNL A   1      42.788  29.416  26.517  1.00  0.00    -0.052 C 
ATOM     49  H   UNL A   1      42.994  30.219  25.841  1.00  0.00     0.027 H 
ATOM     50  H   UNL A   1      42.543  29.737  27.508  1.00  0.00     0.027 H 
BRANCH  48  51
ATOM     51  C   UNL A   1      41.554  28.670  26.001  1.00  0.00    -0.036 C 
ATOM     52  H   UNL A   1      41.385  28.968  24.988  1.00  0.00     0.028 H 
ATOM     53  H   UNL A   1      40.750  28.929  26.659  1.00  0.00     0.028 H 
BRANCH  51  54
ATOM     54  C   UNL A   1      41.662  27.147  26.036  1.00  0.00     0.018 C 
ATOM     55  H   UNL A   1      42.615  26.878  26.440  1.00  0.00     0.049 H 
ATOM     56  H   UNL A   1      41.549  26.785  25.035  1.00  0.00     0.049 H 
BRANCH  54  57
ATOM     57  N   UNL A   1      40.620  26.546  26.852  1.00  0.00    -0.352 N 
ATOM     58  C   UNL A   1      40.717  25.815  28.010  1.00  0.00     0.251 C 
ATOM     59  H   UNL A   1      39.702  26.684  26.524  1.00  0.00     0.163 HD
ATOM     60  O   UNL A   1      39.741  25.206  28.436  1.00  0.00    -0.269 OA
BRANCH  58  61
ATOM     61  C   UNL A   1      41.998  25.748  28.747  1.00  0.00     0.039 A 
ATOM     62  C   UNL A   1      42.728  24.556  28.720  1.00  0.00    -0.049 A 
ATOM     63  C   UNL A   1      42.457  26.832  29.499  1.00  0.00    -0.049 A 
ATOM     64  C   UNL A   1      43.945  24.470  29.400  1.00  0.00    -0.053 A 
ATOM     65  H   UNL A   1      42.369  23.740  28.199  1.00  0.00     0.063 H 
ATOM     66  C   UNL A   1      43.699  26.768  30.127  1.00  0.00    -0.053 A 
ATOM     67  H   UNL A   1      41.877  27.681  29.589  1.00  0.00     0.063 H 
ATOM     68  C   UNL A   1      44.454  25.585  30.086  1.00  0.00    -0.014 A 
ATOM     69  H   UNL A   1      44.473  23.583  29.399  1.00  0.00     0.063 H 
ATOM     70  H   UNL A   1      44.066  27.594  30.624  1.00  0.00     0.063 H 
BRANCH  68  71
ATOM     71  C   UNL A   1      45.776  25.532  30.759  1.00  0.00     0.031 A 
ATOM     72  C   UNL A   1      47.029  25.872  30.000  1.00  0.00     0.074 A 
ATOM     73  C   UNL A   1      45.854  25.113  32.036  1.00  0.00     0.049 A 
ATOM     74  N   UNL A   1      48.276  25.819  30.396  1.00  0.00    -0.248 NA
ATOM     75  C   UNL A   1      46.860  26.303  28.604  1.00  0.00    -0.034 C 
ATOM     76  C   UNL A   1      44.716  24.706  32.862  1.00  0.00    -0.036 A 
ATOM     77  N   UNL A   1      46.939  24.944  32.860  1.00  0.00    -0.354 N 
ATOM     78  C   UNL A   1      49.038  26.193  29.296  1.00  0.00     0.074 A 
ATOM     79  C   UNL A   1      48.117  26.428  28.204  1.00  0.00    -0.034 C 
ATOM     80  H   UNL A   1      45.989  26.466  28.074  1.00  0.00     0.065 H 
ATOM     81  C   UNL A   1      45.160  24.350  34.077  1.00  0.00    -0.036 A 
ATOM     82  H   UNL A   1      43.730  24.696  32.558  1.00  0.00     0.065 H 
ATOM     83  C   UNL A   1      46.615  24.471  34.108  1.00  0.00     0.049 A 
ATOM     84  H   UNL A   1      47.862  25.145  32.583  1.00  0.00     0.167 HD
ATOM     85  C   UNL A   1      50.381  26.346  29.212  1.00  0.00     0.037 A 
ATOM     86  H   UNL A   1      48.403  26.661  27.241  1.00  0.00     0.065 H 
ATOM     87  H   UNL A   1      44.568  24.041  34.864  1.00  0.00     0.065 H 
ATOM     88  C   UNL A   1      47.402  24.164  35.156  1.00  0.00     0.037 A 
ATOM     89  C   UNL A   1      51.291  26.143  30.309  1.00  0.00     0.049 A 
ATOM     90  C   UNL A   1      48.889  24.356  35.039  1.00  0.00     0.074 A 
ATOM     91  C   UNL A   1      52.660  26.343  30.343  1.00  0.00    -0.036 A 
ATOM     92  N   UNL A   1      50.922  25.692  31.567  1.00  0.00    -0.354 N 
ATOM     93  N   UNL A   1      49.591  24.781  34.017  1.00  0.00    -0.248 NA
ATOM     94  C   UNL A   1      49.693  24.034  36.227  1.00  0.00    -0.034 C 
ATOM     95  C   UNL A   1      53.126  25.973  31.609  1.00  0.00    -0.036 A 
ATOM     96  H   UNL A   1      53.238  26.703  29.568  1.00  0.00     0.065 H 
ATOM     97  C   UNL A   1      52.041  25.587  32.379  1.00  0.00     0.049 A 
ATOM     98  H   UNL A   1      50.001  25.478  31.844  1.00  0.00     0.167 HD
ATOM     99  C   UNL A   1      50.911  24.801  34.443  1.00  0.00     0.074 A 
ATOM    100  C   UNL A   1      50.913  24.362  35.823  1.00  0.00    -0.034 C 
ATOM    101  H   UNL A   1      49.389  23.655  37.136  1.00  0.00     0.065 H 
ATOM    102  H   UNL A   1      54.110  25.986  31.918  1.00  0.00     0.065 H 
ATOM    103  C   UNL A   1      52.023  25.152  33.753  1.00  0.00     0.037 A 
ATOM    104  H   UNL A   1      51.755  24.309  36.416  1.00  0.00     0.065 H 
BRANCH  85 105
ATOM    105  C   UNL A   1      50.954  26.757  27.887  1.00  0.00     0.064 A 
ATOM    106  C   UNL A   1      51.193  28.104  27.576  1.00  0.00     0.173 A 
ATOM    107  C   UNL A   1      51.313  25.790  26.936  1.00  0.00     0.173 A 
ATOM    108  F   UNL A   1      50.858  29.068  28.447  1.00  0.00    -0.203 F 
ATOM    109  C   UNL A   1      51.746  28.469  26.351  1.00  0.00     0.198 A 
ATOM    110  C   UNL A   1      51.892  26.157  25.724  1.00  0.00     0.198 A 
ATOM    111  F   UNL A   1      51.111  24.487  27.185  1.00  0.00    -0.203 F 
ATOM    112  F   UNL A   1      51.925  29.764  26.058  1.00  0.00    -0.200 F 
ATOM    113  C   UNL A   1      52.103  27.496  25.430  1.00  0.00     0.200 A 
ATOM    114  F   UNL A   1      52.246  25.214  24.839  1.00  0.00    -0.200 F 
ATOM    115  F   UNL A   1      52.643  27.848  24.255  1.00  0.00    -0.200 F 
ENDBRANCH  85 105
BRANCH  88 116
ATOM    116  C   UNL A   1      46.795  23.661  36.415  1.00  0.00     0.064 A 
ATOM    117  C   UNL A   1      46.297  24.550  37.378  1.00  0.00     0.173 A 
ATOM    118  C   UNL A   1      46.700  22.288  36.682  1.00  0.00     0.173 A 
ATOM    119  F   UNL A   1      46.384  25.872  37.176  1.00  0.00    -0.203 F 
ATOM    120  C   UNL A   1      45.745  24.083  38.570  1.00  0.00     0.198 A 
ATOM    121  C   UNL A   1      46.123  21.822  37.862  1.00  0.00     0.198 A 
ATOM    122  F   UNL A   1      47.157  21.396  35.790  1.00  0.00    -0.203 F 
ATOM    123  F   UNL A   1      45.317  24.956  39.492  1.00  0.00    -0.200 F 
ATOM    124  C   UNL A   1      45.654  22.721  38.808  1.00  0.00     0.200 A 
ATOM    125  F   UNL A   1      46.024  20.504  38.083  1.00  0.00    -0.200 F 
ATOM    126  F   UNL A   1      45.120  22.273  39.952  1.00  0.00    -0.200 F 
ENDBRANCH  88 116
BRANCH 103 127
ATOM    127  C   UNL A   1      53.331  25.101  34.486  1.00  0.00     0.064 A 
ATOM    128  C   UNL A   1      54.141  23.957  34.466  1.00  0.00     0.173 A 
ATOM    129  C   UNL A   1      53.796  26.226  35.187  1.00  0.00     0.173 A 
ATOM    130  F   UNL A   1      53.733  22.852  33.823  1.00  0.00    -0.203 F 
ATOM    131  C   UNL A   1      55.358  23.931  35.140  1.00  0.00     0.198 A 
ATOM    132  C   UNL A   1      55.026  26.204  35.837  1.00  0.00     0.198 A 
ATOM    133  F   UNL A   1      53.060  27.346  35.231  1.00  0.00    -0.203 F 
ATOM    134  F   UNL A   1      56.096  22.812  35.145  1.00  0.00    -0.200 F 
ATOM    135  C   UNL A   1      55.803  25.057  35.819  1.00  0.00     0.200 A 
ATOM    136  F   UNL A   1      55.460  27.296  36.481  1.00  0.00    -0.200 F 
ATOM    137  F   UNL A   1      56.979  25.031  36.463  1.00  0.00    -0.200 F 
ENDBRANCH 103 127
ENDBRANCH  68  71
ENDBRANCH  58  61
ENDBRANCH  54  57
ENDBRANCH  51  54
ENDBRANCH  48  51
ENDBRANCH  45  48
ENDBRANCH   1  45
TORSDOF 19
ENDMDL
