MODEL 1
REMARK VINA RESULT:     -13.7      0.000      0.000
REMARK SMILES O=C(NCCCCCCNC(=O)c1ccccc1Nc1cccc(S(F)(F)(F)(F)F)c1)c1ccc(-c2c3nc(c(-c4c(F)c(F)c(F)c(F)c4F)c4ccc([nH]4)c(-c4c(F)c(F)c(F)c(F)c4F)c4nc(c(-c5c(F)c(F)c(F)c(F)c5F)c5ccc2[nH]5)C=C4)C=C3)cc1
REMARK SMILES IDX 7 1 6 4 5 7 4 10 3 13 1 14 2 15 32 17 33 18 94 19 34 20
REMARK SMILES IDX 93 22 35 24 36 27 37 28 87 29 38 30 92 31 86 32 88 33 39 34
REMARK SMILES IDX 91 35 85 37 84 39 40 41 72 44 52 45 71 46 53 47 56 48 70 49
REMARK SMILES IDX 89 50 54 51 55 53 69 55 90 56 57 59 41 61 42 62 50 63 43 64
REMARK SMILES IDX 44 65 48 66 51 67 45 68 46 69 49 70 47 71 73 72 74 73 82 74
REMARK SMILES IDX 75 75 76 76 80 77 83 78 77 79 78 80 81 81 79 82 58 83 59 84
REMARK SMILES IDX 67 85 60 86 61 87 65 88 68 89 62 90 63 91 66 92 64 93 8 94
REMARK SMILES IDX 9 97 10 100 11 101 12 103 13 104 14 105 18 106 15 107 17 109
REMARK SMILES IDX 16 110 19 114 20 116 21 117 31 118 22 119 24 121 23 123
REMARK SMILES IDX 25 126 26 127 27 128 28 129 29 130 30 131
REMARK H PARENT 7 2 7 3 6 5 6 6 5 8 5 9 4 11 4 12 3 16 33 21 94 23 34 25 93 26
REMARK H PARENT 92 36 86 38 88 40 91 42 85 43 53 52 56 54 89 57 54 58 90 60
REMARK H PARENT 8 95 8 96 9 98 9 99 10 102 14 108 15 111 17 112 16 113 19 115
REMARK H PARENT 21 120 31 122 22 124 23 125
REMARK Flexibility Score: inf
ROOT
ATOM      1  C   UNL A   1      32.794  30.320  27.010  1.00  0.00    -0.052 C 
ATOM      2  H   UNL A   1      32.572  29.752  27.889  1.00  0.00     0.027 H 
ATOM      3  H   UNL A   1      33.412  31.153  27.271  1.00  0.00     0.027 H 
ENDROOT
BRANCH   1   4
ATOM      4  C   UNL A   1      31.498  30.824  26.394  1.00  0.00    -0.052 C 
ATOM      5  H   UNL A   1      31.515  30.652  25.338  1.00  0.00     0.027 H 
ATOM      6  H   UNL A   1      30.670  30.302  26.828  1.00  0.00     0.027 H 
BRANCH   4   7
ATOM      7  C   UNL A   1      31.355  32.313  26.662  1.00  0.00    -0.036 C 
ATOM      8  H   UNL A   1      31.105  32.817  25.752  1.00  0.00     0.028 H 
ATOM      9  H   UNL A   1      30.580  32.473  27.383  1.00  0.00     0.028 H 
BRANCH   7  10
ATOM     10  C   UNL A   1      32.668  32.860  27.199  1.00  0.00     0.018 C 
ATOM     11  H   UNL A   1      33.034  32.215  27.971  1.00  0.00     0.049 H 
ATOM     12  H   UNL A   1      33.385  32.907  26.406  1.00  0.00     0.049 H 
BRANCH  10  13
ATOM     13  N   UNL A   1      32.451  34.206  27.746  1.00  0.00    -0.352 N 
ATOM     14  O   UNL A   1      33.164  35.896  29.257  1.00  0.00    -0.269 OA
ATOM     15  C   UNL A   1      33.351  34.732  28.783  1.00  0.00     0.251 C 
ATOM     16  H   UNL A   1      31.703  34.757  27.418  1.00  0.00     0.163 HD
BRANCH  15  17
ATOM     17  C   UNL A   1      34.505  33.883  29.289  1.00  0.00     0.039 A 
ATOM     18  C   UNL A   1      35.761  34.287  28.863  1.00  0.00    -0.049 A 
ATOM     19  C   UNL A   1      34.359  32.880  30.148  1.00  0.00    -0.049 A 
ATOM     20  C   UNL A   1      36.795  33.376  29.183  1.00  0.00    -0.053 A 
ATOM     21  H   UNL A   1      35.926  35.172  28.360  1.00  0.00     0.063 H 
ATOM     22  C   UNL A   1      35.438  32.116  30.521  1.00  0.00    -0.053 A 
ATOM     23  H   UNL A   1      33.427  32.675  30.539  1.00  0.00     0.063 H 
ATOM     24  C   UNL A   1      36.700  32.423  30.092  1.00  0.00    -0.014 A 
ATOM     25  H   UNL A   1      37.687  33.463  28.670  1.00  0.00     0.063 H 
ATOM     26  H   UNL A   1      35.295  31.300  31.135  1.00  0.00     0.063 H 
BRANCH  24  27
ATOM     27  C   UNL A   1      37.926  31.705  30.631  1.00  0.00     0.031 A 
ATOM     28  C   UNL A   1      38.602  30.745  29.876  1.00  0.00     0.074 A 
ATOM     29  C   UNL A   1      38.235  32.015  31.944  1.00  0.00     0.049 A 
ATOM     30  N   UNL A   1      39.648  30.006  30.248  1.00  0.00    -0.248 NA
ATOM     31  C   UNL A   1      38.254  30.389  28.493  1.00  0.00    -0.034 C 
ATOM     32  C   UNL A   1      37.564  32.987  32.710  1.00  0.00    -0.036 A 
ATOM     33  N   UNL A   1      39.219  31.462  32.734  1.00  0.00    -0.354 N 
ATOM     34  C   UNL A   1      40.033  29.212  29.246  1.00  0.00     0.074 A 
ATOM     35  C   UNL A   1      39.137  29.444  28.104  1.00  0.00    -0.034 C 
ATOM     36  H   UNL A   1      37.485  30.784  27.929  1.00  0.00     0.065 H 
ATOM     37  C   UNL A   1      38.125  33.011  33.948  1.00  0.00    -0.036 A 
ATOM     38  H   UNL A   1      36.781  33.579  32.388  1.00  0.00     0.065 H 
ATOM     39  C   UNL A   1      39.158  32.056  33.975  1.00  0.00     0.049 A 
ATOM     40  H   UNL A   1      39.854  30.762  32.460  1.00  0.00     0.167 HD
ATOM     41  C   UNL A   1      41.095  28.308  29.238  1.00  0.00     0.037 A 
ATOM     42  H   UNL A   1      39.175  28.975  27.186  1.00  0.00     0.065 H 
ATOM     43  H   UNL A   1      37.843  33.624  34.729  1.00  0.00     0.065 H 
ATOM     44  C   UNL A   1      39.949  31.791  35.082  1.00  0.00     0.037 A 
ATOM     45  C   UNL A   1      41.914  28.075  30.332  1.00  0.00     0.049 A 
ATOM     46  C   UNL A   1      40.975  30.844  35.094  1.00  0.00     0.074 A 
ATOM     47  C   UNL A   1      42.993  27.172  30.338  1.00  0.00    -0.036 A 
ATOM     48  N   UNL A   1      41.837  28.651  31.580  1.00  0.00    -0.354 N 
ATOM     49  N   UNL A   1      41.384  30.080  34.079  1.00  0.00    -0.248 NA
ATOM     50  C   UNL A   1      41.798  30.532  36.270  1.00  0.00    -0.034 C 
ATOM     51  C   UNL A   1      43.556  27.196  31.577  1.00  0.00    -0.036 A 
ATOM     52  H   UNL A   1      43.304  26.592  29.543  1.00  0.00     0.065 H 
ATOM     53  C   UNL A   1      42.835  28.114  32.364  1.00  0.00     0.049 A 
ATOM     54  H   UNL A   1      41.183  29.330  31.864  1.00  0.00     0.167 HD
ATOM     55  C   UNL A   1      42.404  29.310  34.465  1.00  0.00     0.074 A 
ATOM     56  C   UNL A   1      42.680  29.585  35.882  1.00  0.00    -0.034 C 
ATOM     57  H   UNL A   1      41.718  30.954  37.208  1.00  0.00     0.065 H 
ATOM     58  H   UNL A   1      44.368  26.639  31.885  1.00  0.00     0.065 H 
ATOM     59  C   UNL A   1      43.117  28.393  33.692  1.00  0.00     0.037 A 
ATOM     60  H   UNL A   1      43.406  29.142  36.467  1.00  0.00     0.065 H 
BRANCH  41  61
ATOM     61  C   UNL A   1      41.370  27.535  27.958  1.00  0.00     0.064 A 
ATOM     62  C   UNL A   1      42.238  27.987  26.979  1.00  0.00     0.173 A 
ATOM     63  C   UNL A   1      40.838  26.319  27.900  1.00  0.00     0.173 A 
ATOM     64  F   UNL A   1      42.985  29.078  27.119  1.00  0.00    -0.203 F 
ATOM     65  C   UNL A   1      42.259  27.182  25.815  1.00  0.00     0.198 A 
ATOM     66  C   UNL A   1      41.012  25.532  26.787  1.00  0.00     0.198 A 
ATOM     67  F   UNL A   1      40.130  25.861  28.927  1.00  0.00    -0.203 F 
ATOM     68  F   UNL A   1      42.767  27.711  24.706  1.00  0.00    -0.200 F 
ATOM     69  C   UNL A   1      41.809  25.942  25.755  1.00  0.00     0.200 A 
ATOM     70  F   UNL A   1      40.395  24.357  26.713  1.00  0.00    -0.200 F 
ATOM     71  F   UNL A   1      42.116  25.134  24.743  1.00  0.00    -0.200 F 
ENDBRANCH  41  61
BRANCH  44  72
ATOM     72  C   UNL A   1      39.684  32.576  36.357  1.00  0.00     0.064 A 
ATOM     73  C   UNL A   1      38.615  32.256  37.178  1.00  0.00     0.173 A 
ATOM     74  C   UNL A   1      40.409  33.670  36.564  1.00  0.00     0.173 A 
ATOM     75  F   UNL A   1      38.028  31.064  37.170  1.00  0.00    -0.203 F 
ATOM     76  C   UNL A   1      38.207  33.313  38.026  1.00  0.00     0.198 A 
ATOM     77  C   UNL A   1      40.024  34.596  37.504  1.00  0.00     0.198 A 
ATOM     78  F   UNL A   1      41.515  33.871  35.855  1.00  0.00    -0.203 F 
ATOM     79  F   UNL A   1      36.997  33.234  38.573  1.00  0.00    -0.200 F 
ATOM     80  C   UNL A   1      38.942  34.372  38.310  1.00  0.00     0.200 A 
ATOM     81  F   UNL A   1      40.714  35.726  37.631  1.00  0.00    -0.200 F 
ATOM     82  F   UNL A   1      38.648  35.178  39.327  1.00  0.00    -0.200 F 
ENDBRANCH  44  72
BRANCH  59  83
ATOM     83  C   UNL A   1      44.275  27.656  34.346  1.00  0.00     0.064 A 
ATOM     84  C   UNL A   1      45.494  28.311  34.276  1.00  0.00     0.173 A 
ATOM     85  C   UNL A   1      44.144  26.513  35.007  1.00  0.00     0.173 A 
ATOM     86  F   UNL A   1      45.622  29.564  33.851  1.00  0.00    -0.203 F 
ATOM     87  C   UNL A   1      46.592  27.524  34.699  1.00  0.00     0.198 A 
ATOM     88  C   UNL A   1      45.246  25.866  35.512  1.00  0.00     0.198 A 
ATOM     89  F   UNL A   1      42.934  25.989  35.183  1.00  0.00    -0.203 F 
ATOM     90  F   UNL A   1      47.809  27.917  34.338  1.00  0.00    -0.200 F 
ATOM     91  C   UNL A   1      46.491  26.427  35.426  1.00  0.00     0.200 A 
ATOM     92  F   UNL A   1      45.101  24.678  36.092  1.00  0.00    -0.200 F 
ATOM     93  F   UNL A   1      47.542  25.895  36.043  1.00  0.00    -0.200 F 
ENDBRANCH  59  83
ENDBRANCH  24  27
ENDBRANCH  15  17
ENDBRANCH  10  13
ENDBRANCH   7  10
ENDBRANCH   4   7
ENDBRANCH   1   4
BRANCH   1  94
ATOM     94  C   UNL A   1      33.524  29.441  26.008  1.00  0.00    -0.036 C 
ATOM     95  H   UNL A   1      33.729  28.488  26.451  1.00  0.00     0.028 H 
ATOM     96  H   UNL A   1      34.444  29.909  25.726  1.00  0.00     0.028 H 
BRANCH  94  97
ATOM     97  C   UNL A   1      32.654  29.247  24.776  1.00  0.00     0.018 C 
ATOM     98  H   UNL A   1      31.897  30.003  24.750  1.00  0.00     0.049 H 
ATOM     99  H   UNL A   1      32.194  28.282  24.812  1.00  0.00     0.049 H 
BRANCH  97 100
ATOM    100  N   UNL A   1      33.488  29.348  23.568  1.00  0.00    -0.352 N 
ATOM    101  C   UNL A   1      33.710  28.163  22.728  1.00  0.00     0.253 C 
ATOM    102  H   UNL A   1      33.896  30.209  23.323  1.00  0.00     0.163 HD
ATOM    103  O   UNL A   1      34.430  28.250  21.684  1.00  0.00    -0.269 OA
BRANCH 101 104
ATOM    104  C   UNL A   1      33.079  26.833  23.107  1.00  0.00     0.063 A 
ATOM    105  C   UNL A   1      33.751  25.984  23.970  1.00  0.00    -0.047 A 
ATOM    106  C   UNL A   1      31.893  26.508  22.605  1.00  0.00     0.051 A 
ATOM    107  C   UNL A   1      33.216  24.674  24.018  1.00  0.00    -0.061 A 
ATOM    108  H   UNL A   1      34.568  26.279  24.528  1.00  0.00     0.063 H 
ATOM    109  C   UNL A   1      31.368  25.253  22.805  1.00  0.00    -0.038 A 
ATOM    110  C   UNL A   1      32.008  24.342  23.599  1.00  0.00    -0.060 A 
ATOM    111  H   UNL A   1      33.812  23.926  24.407  1.00  0.00     0.062 H 
ATOM    112  H   UNL A   1      30.480  24.996  22.350  1.00  0.00     0.064 H 
ATOM    113  H   UNL A   1      31.571  23.444  23.856  1.00  0.00     0.062 H 
BRANCH 106 114
ATOM    114  N   UNL A   1      31.135  27.499  21.829  1.00  0.00    -0.355 N 
ATOM    115  H   UNL A   1      31.398  27.706  20.903  1.00  0.00     0.167 HD
BRANCH 114 116
ATOM    116  C   UNL A   1      29.981  28.181  22.434  1.00  0.00     0.040 A 
ATOM    117  C   UNL A   1      29.030  27.427  23.100  1.00  0.00    -0.039 A 
ATOM    118  C   UNL A   1      29.888  29.504  22.367  1.00  0.00    -0.016 A 
ATOM    119  C   UNL A   1      27.852  28.142  23.421  1.00  0.00    -0.059 A 
ATOM    120  H   UNL A   1      29.167  26.432  23.340  1.00  0.00     0.064 H 
ATOM    121  C   UNL A   1      28.764  30.150  22.825  1.00  0.00     0.109 A 
ATOM    122  H   UNL A   1      30.666  30.052  21.968  1.00  0.00     0.066 H 
ATOM    123  C   UNL A   1      27.758  29.460  23.440  1.00  0.00    -0.039 A 
ATOM    124  H   UNL A   1      27.008  27.597  23.657  1.00  0.00     0.062 H 
ATOM    125  H   UNL A   1      26.967  29.941  23.896  1.00  0.00     0.064 H 
BRANCH 121 126
ATOM    126  S   UNL A   1      28.615  31.941  22.609  1.00  0.00     0.310 S 
ATOM    127  F   UNL A   1      27.238  31.994  23.394  1.00  0.00    -0.094 F 
ATOM    128  F   UNL A   1      27.778  31.711  21.295  1.00  0.00    -0.094 F 
ATOM    129  F   UNL A   1      28.509  33.483  22.441  1.00  0.00    -0.094 F 
ATOM    130  F   UNL A   1      29.332  32.150  24.001  1.00  0.00    -0.094 F 
ATOM    131  F   UNL A   1      28.634  30.379  22.852  1.00  0.00    -0.094 F 
ENDBRANCH 121 126
ENDBRANCH 114 116
ENDBRANCH 106 114
ENDBRANCH 101 104
ENDBRANCH  97 100
ENDBRANCH  94  97
ENDBRANCH   1  94
TORSDOF 16
ENDMDL
MODEL 2
REMARK VINA RESULT:     -13.3      1.352      1.646
REMARK SMILES O=C(NCCCCCCNC(=O)c1ccccc1Nc1cccc(S(F)(F)(F)(F)F)c1)c1ccc(-c2c3nc(c(-c4c(F)c(F)c(F)c(F)c4F)c4ccc([nH]4)c(-c4c(F)c(F)c(F)c(F)c4F)c4nc(c(-c5c(F)c(F)c(F)c(F)c5F)c5ccc2[nH]5)C=C4)C=C3)cc1
REMARK SMILES IDX 7 1 6 4 5 7 4 10 3 13 1 14 2 15 32 17 33 18 94 19 34 20
REMARK SMILES IDX 93 22 35 24 36 27 37 28 87 29 38 30 92 31 86 32 88 33 39 34
REMARK SMILES IDX 91 35 85 37 84 39 40 41 72 44 52 45 71 46 53 47 56 48 70 49
REMARK SMILES IDX 89 50 54 51 55 53 69 55 90 56 57 59 41 61 42 62 50 63 43 64
REMARK SMILES IDX 44 65 48 66 51 67 45 68 46 69 49 70 47 71 73 72 74 73 82 74
REMARK SMILES IDX 75 75 76 76 80 77 83 78 77 79 78 80 81 81 79 82 58 83 59 84
REMARK SMILES IDX 67 85 60 86 61 87 65 88 68 89 62 90 63 91 66 92 64 93 8 94
REMARK SMILES IDX 9 97 10 100 11 101 12 103 13 104 14 105 18 106 15 107 17 109
REMARK SMILES IDX 16 110 19 114 20 116 21 117 31 118 22 119 24 121 23 123
REMARK SMILES IDX 25 126 26 127 27 128 28 129 29 130 30 131
REMARK H PARENT 7 2 7 3 6 5 6 6 5 8 5 9 4 11 4 12 3 16 33 21 94 23 34 25 93 26
REMARK H PARENT 92 36 86 38 88 40 91 42 85 43 53 52 56 54 89 57 54 58 90 60
REMARK H PARENT 8 95 8 96 9 98 9 99 10 102 14 108 15 111 17 112 16 113 19 115
REMARK H PARENT 21 120 31 122 22 124 23 125
REMARK Flexibility Score: inf
ROOT
ATOM      1  C   UNL A   1      31.706  29.088  26.683  1.00  0.00    -0.052 C 
ATOM      2  H   UNL A   1      30.831  28.482  26.567  1.00  0.00     0.027 H 
ATOM      3  H   UNL A   1      31.745  29.470  27.681  1.00  0.00     0.027 H 
ENDROOT
BRANCH   1   4
ATOM      4  C   UNL A   1      31.653  30.246  25.699  1.00  0.00    -0.052 C 
ATOM      5  H   UNL A   1      32.591  30.326  25.191  1.00  0.00     0.027 H 
ATOM      6  H   UNL A   1      30.875  30.073  24.986  1.00  0.00     0.027 H 
BRANCH   4   7
ATOM      7  C   UNL A   1      31.372  31.537  26.451  1.00  0.00    -0.036 C 
ATOM      8  H   UNL A   1      31.043  32.287  25.762  1.00  0.00     0.028 H 
ATOM      9  H   UNL A   1      30.610  31.365  27.182  1.00  0.00     0.028 H 
BRANCH   7  10
ATOM     10  C   UNL A   1      32.642  32.007  27.142  1.00  0.00     0.018 C 
ATOM     11  H   UNL A   1      32.759  31.482  28.067  1.00  0.00     0.049 H 
ATOM     12  H   UNL A   1      33.484  31.811  26.512  1.00  0.00     0.049 H 
BRANCH  10  13
ATOM     13  N   UNL A   1      32.551  33.450  27.405  1.00  0.00    -0.352 N 
ATOM     14  O   UNL A   1      33.494  35.361  28.457  1.00  0.00    -0.269 OA
ATOM     15  C   UNL A   1      33.572  34.112  28.230  1.00  0.00     0.251 C 
ATOM     16  H   UNL A   1      31.807  33.973  27.029  1.00  0.00     0.163 HD
BRANCH  15  17
ATOM     17  C   UNL A   1      34.722  33.305  28.810  1.00  0.00     0.039 A 
ATOM     18  C   UNL A   1      35.976  33.641  28.327  1.00  0.00    -0.049 A 
ATOM     19  C   UNL A   1      34.573  32.403  29.774  1.00  0.00    -0.049 A 
ATOM     20  C   UNL A   1      37.002  32.754  28.731  1.00  0.00    -0.053 A 
ATOM     21  H   UNL A   1      36.147  34.465  27.729  1.00  0.00     0.063 H 
ATOM     22  C   UNL A   1      35.647  31.667  30.214  1.00  0.00    -0.053 A 
ATOM     23  H   UNL A   1      33.644  32.256  30.196  1.00  0.00     0.063 H 
ATOM     24  C   UNL A   1      36.906  31.906  29.738  1.00  0.00    -0.014 A 
ATOM     25  H   UNL A   1      37.888  32.771  28.200  1.00  0.00     0.063 H 
ATOM     26  H   UNL A   1      35.501  30.924  30.914  1.00  0.00     0.063 H 
BRANCH  24  27
ATOM     27  C   UNL A   1      38.130  31.232  30.336  1.00  0.00     0.031 A 
ATOM     28  C   UNL A   1      38.856  30.273  29.627  1.00  0.00     0.074 A 
ATOM     29  C   UNL A   1      38.384  31.578  31.652  1.00  0.00     0.049 A 
ATOM     30  N   UNL A   1      39.906  29.569  30.053  1.00  0.00    -0.248 NA
ATOM     31  C   UNL A   1      38.566  29.879  28.241  1.00  0.00    -0.034 C 
ATOM     32  C   UNL A   1      37.662  32.549  32.372  1.00  0.00    -0.036 A 
ATOM     33  N   UNL A   1      39.352  31.067  32.489  1.00  0.00    -0.354 N 
ATOM     34  C   UNL A   1      40.346  28.764  29.083  1.00  0.00     0.074 A 
ATOM     35  C   UNL A   1      39.486  28.947  27.906  1.00  0.00    -0.034 C 
ATOM     36  H   UNL A   1      37.808  30.241  27.642  1.00  0.00     0.065 H 
ATOM     37  C   UNL A   1      38.177  32.614  33.628  1.00  0.00    -0.036 A 
ATOM     38  H   UNL A   1      36.877  33.113  32.010  1.00  0.00     0.065 H 
ATOM     39  C   UNL A   1      39.232  31.686  33.713  1.00  0.00     0.049 A 
ATOM     40  H   UNL A   1      40.014  30.378  32.253  1.00  0.00     0.167 HD
ATOM     41  C   UNL A   1      41.430  27.887  29.133  1.00  0.00     0.037 A 
ATOM     42  H   UNL A   1      39.568  28.460  27.000  1.00  0.00     0.065 H 
ATOM     43  H   UNL A   1      37.853  33.236  34.385  1.00  0.00     0.065 H 
ATOM     44  C   UNL A   1      39.989  31.466  34.853  1.00  0.00     0.037 A 
ATOM     45  C   UNL A   1      42.214  27.698  30.261  1.00  0.00     0.049 A 
ATOM     46  C   UNL A   1      41.038  30.545  34.922  1.00  0.00     0.074 A 
ATOM     47  C   UNL A   1      43.315  26.823  30.325  1.00  0.00    -0.036 A 
ATOM     48  N   UNL A   1      42.078  28.300  31.492  1.00  0.00    -0.354 N 
ATOM     49  N   UNL A   1      41.501  29.771  33.940  1.00  0.00    -0.248 NA
ATOM     50  C   UNL A   1      41.825  30.280  36.133  1.00  0.00    -0.034 C 
ATOM     51  C   UNL A   1      43.832  26.889  31.582  1.00  0.00    -0.036 A 
ATOM     52  H   UNL A   1      43.668  26.235  29.555  1.00  0.00     0.065 H 
ATOM     53  C   UNL A   1      43.060  27.806  32.322  1.00  0.00     0.049 A 
ATOM     54  H   UNL A   1      41.398  28.967  31.737  1.00  0.00     0.167 HD
ATOM     55  C   UNL A   1      42.525  29.035  34.379  1.00  0.00     0.074 A 
ATOM     56  C   UNL A   1      42.743  29.348  35.798  1.00  0.00    -0.034 C 
ATOM     57  H   UNL A   1      41.701  30.721  37.059  1.00  0.00     0.065 H 
ATOM     58  H   UNL A   1      44.646  26.359  31.931  1.00  0.00     0.065 H 
ATOM     59  C   UNL A   1      43.288  28.120  33.652  1.00  0.00     0.037 A 
ATOM     60  H   UNL A   1      43.458  28.936  36.418  1.00  0.00     0.065 H 
BRANCH  41  61
ATOM     61  C   UNL A   1      41.769  27.094  27.882  1.00  0.00     0.064 A 
ATOM     62  C   UNL A   1      42.691  27.527  26.944  1.00  0.00     0.173 A 
ATOM     63  C   UNL A   1      41.235  25.879  27.813  1.00  0.00     0.173 A 
ATOM     64  F   UNL A   1      43.434  28.618  27.107  1.00  0.00    -0.203 F 
ATOM     65  C   UNL A   1      42.770  26.705  25.795  1.00  0.00     0.198 A 
ATOM     66  C   UNL A   1      41.465  25.075  26.723  1.00  0.00     0.198 A 
ATOM     67  F   UNL A   1      40.471  25.439  28.808  1.00  0.00    -0.203 F 
ATOM     68  F   UNL A   1      43.339  27.215  24.707  1.00  0.00    -0.200 F 
ATOM     69  C   UNL A   1      42.318  25.465  25.729  1.00  0.00     0.200 A 
ATOM     70  F   UNL A   1      40.848  23.900  26.634  1.00  0.00    -0.200 F 
ATOM     71  F   UNL A   1      42.675  24.642  24.748  1.00  0.00    -0.200 F 
ENDBRANCH  41  61
BRANCH  44  72
ATOM     72  C   UNL A   1      39.660  32.271  36.099  1.00  0.00     0.064 A 
ATOM     73  C   UNL A   1      38.560  31.953  36.880  1.00  0.00     0.173 A 
ATOM     74  C   UNL A   1      40.361  33.378  36.316  1.00  0.00     0.173 A 
ATOM     75  F   UNL A   1      37.987  30.753  36.870  1.00  0.00    -0.203 F 
ATOM     76  C   UNL A   1      38.103  33.020  37.688  1.00  0.00     0.198 A 
ATOM     77  C   UNL A   1      39.924  34.317  37.221  1.00  0.00     0.198 A 
ATOM     78  F   UNL A   1      41.495  33.580  35.652  1.00  0.00    -0.203 F 
ATOM     79  F   UNL A   1      36.871  32.937  38.184  1.00  0.00    -0.200 F 
ATOM     80  C   UNL A   1      38.812  34.095  37.983  1.00  0.00     0.200 A 
ATOM     81  F   UNL A   1      40.595  35.457  37.355  1.00  0.00    -0.200 F 
ATOM     82  F   UNL A   1      38.463  34.915  38.970  1.00  0.00    -0.200 F 
ENDBRANCH  44  72
BRANCH  59  83
ATOM     83  C   UNL A   1      44.439  27.428  34.363  1.00  0.00     0.064 A 
ATOM     84  C   UNL A   1      45.644  28.110  34.321  1.00  0.00     0.173 A 
ATOM     85  C   UNL A   1      44.313  26.296  35.046  1.00  0.00     0.173 A 
ATOM     86  F   UNL A   1      45.756  29.356  33.871  1.00  0.00    -0.203 F 
ATOM     87  C   UNL A   1      46.745  27.361  34.799  1.00  0.00     0.198 A 
ATOM     88  C   UNL A   1      45.412  25.688  35.604  1.00  0.00     0.198 A 
ATOM     89  F   UNL A   1      43.111  25.746  35.192  1.00  0.00    -0.203 F 
ATOM     90  F   UNL A   1      47.965  27.776  34.473  1.00  0.00    -0.200 F 
ATOM     91  C   UNL A   1      46.644  26.278  35.549  1.00  0.00     0.200 A 
ATOM     92  F   UNL A   1      45.275  24.510  36.206  1.00  0.00    -0.200 F 
ATOM     93  F   UNL A   1      47.686  25.787  36.214  1.00  0.00    -0.200 F 
ENDBRANCH  59  83
ENDBRANCH  24  27
ENDBRANCH  15  17
ENDBRANCH  10  13
ENDBRANCH   7  10
ENDBRANCH   4   7
ENDBRANCH   1   4
BRANCH   1  94
ATOM     94  C   UNL A   1      32.944  28.248  26.412  1.00  0.00    -0.036 C 
ATOM     95  H   UNL A   1      33.601  28.298  27.256  1.00  0.00     0.028 H 
ATOM     96  H   UNL A   1      33.447  28.624  25.546  1.00  0.00     0.028 H 
BRANCH  94  97
ATOM     97  C   UNL A   1      32.534  26.804  26.174  1.00  0.00     0.018 C 
ATOM     98  H   UNL A   1      33.260  26.150  26.611  1.00  0.00     0.049 H 
ATOM     99  H   UNL A   1      32.475  26.618  25.122  1.00  0.00     0.049 H 
BRANCH  97 100
ATOM    100  N   UNL A   1      31.221  26.560  26.789  1.00  0.00    -0.352 N 
ATOM    101  C   UNL A   1      30.396  25.431  26.337  1.00  0.00     0.253 C 
ATOM    102  H   UNL A   1      30.896  27.153  27.505  1.00  0.00     0.163 HD
ATOM    103  O   UNL A   1      29.261  25.220  26.870  1.00  0.00    -0.269 OA
BRANCH 101 104
ATOM    104  C   UNL A   1      30.899  24.516  25.234  1.00  0.00     0.063 A 
ATOM    105  C   UNL A   1      31.716  23.445  25.559  1.00  0.00    -0.047 A 
ATOM    106  C   UNL A   1      30.548  24.757  23.976  1.00  0.00     0.051 A 
ATOM    107  C   UNL A   1      32.352  22.849  24.443  1.00  0.00    -0.061 A 
ATOM    108  H   UNL A   1      31.849  23.112  26.526  1.00  0.00     0.063 H 
ATOM    109  C   UNL A   1      31.109  24.044  22.943  1.00  0.00    -0.038 A 
ATOM    110  C   UNL A   1      31.970  23.011  23.189  1.00  0.00    -0.060 A 
ATOM    111  H   UNL A   1      33.171  22.248  24.622  1.00  0.00     0.062 H 
ATOM    112  H   UNL A   1      30.877  24.292  21.969  1.00  0.00     0.064 H 
ATOM    113  H   UNL A   1      32.304  22.391  22.435  1.00  0.00     0.062 H 
BRANCH 106 114
ATOM    114  N   UNL A   1      29.551  25.797  23.685  1.00  0.00    -0.355 N 
ATOM    115  H   UNL A   1      28.596  25.621  23.845  1.00  0.00     0.167 HD
BRANCH 114 116
ATOM    116  C   UNL A   1      29.979  27.100  23.157  1.00  0.00     0.040 A 
ATOM    117  C   UNL A   1      31.279  27.246  22.703  1.00  0.00    -0.039 A 
ATOM    118  C   UNL A   1      29.110  28.101  23.088  1.00  0.00    -0.016 A 
ATOM    119  C   UNL A   1      31.654  28.588  22.454  1.00  0.00    -0.059 A 
ATOM    120  H   UNL A   1      31.918  26.448  22.559  1.00  0.00     0.064 H 
ATOM    121  C   UNL A   1      29.517  29.358  22.706  1.00  0.00     0.109 A 
ATOM    122  H   UNL A   1      28.119  27.936  23.324  1.00  0.00     0.066 H 
ATOM    123  C   UNL A   1      30.803  29.586  22.301  1.00  0.00    -0.039 A 
ATOM    124  H   UNL A   1      32.661  28.801  22.388  1.00  0.00     0.062 H 
ATOM    125  H   UNL A   1      31.093  30.490  21.897  1.00  0.00     0.064 H 
BRANCH 121 126
ATOM    126  S   UNL A   1      28.335  30.728  22.739  1.00  0.00     0.310 S 
ATOM    127  F   UNL A   1      27.233  29.855  23.474  1.00  0.00    -0.094 F 
ATOM    128  F   UNL A   1      27.722  30.229  21.376  1.00  0.00    -0.094 F 
ATOM    129  F   UNL A   1      27.336  31.918  22.785  1.00  0.00    -0.094 F 
ATOM    130  F   UNL A   1      28.867  31.130  24.170  1.00  0.00    -0.094 F 
ATOM    131  F   UNL A   1      29.279  29.460  22.761  1.00  0.00    -0.094 F 
ENDBRANCH 121 126
ENDBRANCH 114 116
ENDBRANCH 106 114
ENDBRANCH 101 104
ENDBRANCH  97 100
ENDBRANCH  94  97
ENDBRANCH   1  94
TORSDOF 16
ENDMDL
MODEL 3
REMARK VINA RESULT:     -13.3      6.035     11.079
REMARK SMILES O=C(NCCCCCCNC(=O)c1ccccc1Nc1cccc(S(F)(F)(F)(F)F)c1)c1ccc(-c2c3nc(c(-c4c(F)c(F)c(F)c(F)c4F)c4ccc([nH]4)c(-c4c(F)c(F)c(F)c(F)c4F)c4nc(c(-c5c(F)c(F)c(F)c(F)c5F)c5ccc2[nH]5)C=C4)C=C3)cc1
REMARK SMILES IDX 7 1 6 4 5 7 4 10 3 13 1 14 2 15 32 17 33 18 94 19 34 20
REMARK SMILES IDX 93 22 35 24 36 27 37 28 87 29 38 30 92 31 86 32 88 33 39 34
REMARK SMILES IDX 91 35 85 37 84 39 40 41 72 44 52 45 71 46 53 47 56 48 70 49
REMARK SMILES IDX 89 50 54 51 55 53 69 55 90 56 57 59 41 61 42 62 50 63 43 64
REMARK SMILES IDX 44 65 48 66 51 67 45 68 46 69 49 70 47 71 73 72 74 73 82 74
REMARK SMILES IDX 75 75 76 76 80 77 83 78 77 79 78 80 81 81 79 82 58 83 59 84
REMARK SMILES IDX 67 85 60 86 61 87 65 88 68 89 62 90 63 91 66 92 64 93 8 94
REMARK SMILES IDX 9 97 10 100 11 101 12 103 13 104 14 105 18 106 15 107 17 109
REMARK SMILES IDX 16 110 19 114 20 116 21 117 31 118 22 119 24 121 23 123
REMARK SMILES IDX 25 126 26 127 27 128 28 129 29 130 30 131
REMARK H PARENT 7 2 7 3 6 5 6 6 5 8 5 9 4 11 4 12 3 16 33 21 94 23 34 25 93 26
REMARK H PARENT 92 36 86 38 88 40 91 42 85 43 53 52 56 54 89 57 54 58 90 60
REMARK H PARENT 8 95 8 96 9 98 9 99 10 102 14 108 15 111 17 112 16 113 19 115
REMARK H PARENT 21 120 31 122 22 124 23 125
REMARK Flexibility Score: inf
ROOT
ATOM      1  C   UNL A   1      38.137  22.217  25.460  1.00  0.00    -0.052 C 
ATOM      2  H   UNL A   1      38.850  22.743  24.861  1.00  0.00     0.027 H 
ATOM      3  H   UNL A   1      38.640  21.734  26.271  1.00  0.00     0.027 H 
ENDROOT
BRANCH   1   4
ATOM      4  C   UNL A   1      37.432  21.173  24.608  1.00  0.00    -0.052 C 
ATOM      5  H   UNL A   1      36.380  21.204  24.803  1.00  0.00     0.027 H 
ATOM      6  H   UNL A   1      37.609  21.379  23.573  1.00  0.00     0.027 H 
BRANCH   4   7
ATOM      7  C   UNL A   1      37.970  19.793  24.949  1.00  0.00    -0.036 C 
ATOM      8  H   UNL A   1      37.184  19.196  25.362  1.00  0.00     0.028 H 
ATOM      9  H   UNL A   1      38.344  19.327  24.061  1.00  0.00     0.028 H 
BRANCH   7  10
ATOM     10  C   UNL A   1      39.093  19.925  25.964  1.00  0.00     0.018 C 
ATOM     11  H   UNL A   1      39.559  20.883  25.859  1.00  0.00     0.049 H 
ATOM     12  H   UNL A   1      38.694  19.829  26.952  1.00  0.00     0.049 H 
BRANCH  10  13
ATOM     13  N   UNL A   1      40.089  18.868  25.733  1.00  0.00    -0.352 N 
ATOM     14  O   UNL A   1      42.370  18.207  25.820  1.00  0.00    -0.269 OA
ATOM     15  C   UNL A   1      41.509  19.120  26.020  1.00  0.00     0.251 C 
ATOM     16  H   UNL A   1      39.805  17.991  25.386  1.00  0.00     0.163 HD
BRANCH  15  17
ATOM     17  C   UNL A   1      41.947  20.473  26.556  1.00  0.00     0.039 A 
ATOM     18  C   UNL A   1      42.245  21.419  25.588  1.00  0.00    -0.049 A 
ATOM     19  C   UNL A   1      41.962  20.782  27.848  1.00  0.00    -0.049 A 
ATOM     20  C   UNL A   1      42.833  22.599  26.102  1.00  0.00    -0.053 A 
ATOM     21  H   UNL A   1      42.056  21.275  24.584  1.00  0.00     0.063 H 
ATOM     22  C   UNL A   1      42.423  22.005  28.269  1.00  0.00    -0.053 A 
ATOM     23  H   UNL A   1      41.623  20.096  28.541  1.00  0.00     0.063 H 
ATOM     24  C   UNL A   1      42.790  22.967  27.369  1.00  0.00    -0.014 A 
ATOM     25  H   UNL A   1      43.330  23.215  25.439  1.00  0.00     0.063 H 
ATOM     26  H   UNL A   1      42.492  22.202  29.280  1.00  0.00     0.063 H 
BRANCH  24  27
ATOM     27  C   UNL A   1      43.132  24.382  27.804  1.00  0.00     0.031 A 
ATOM     28  C   UNL A   1      42.138  25.328  28.063  1.00  0.00     0.074 A 
ATOM     29  C   UNL A   1      44.488  24.662  27.818  1.00  0.00     0.049 A 
ATOM     30  N   UNL A   1      42.301  26.610  28.393  1.00  0.00    -0.248 NA
ATOM     31  C   UNL A   1      40.697  25.042  28.015  1.00  0.00    -0.034 C 
ATOM     32  C   UNL A   1      45.497  23.712  27.566  1.00  0.00    -0.036 A 
ATOM     33  N   UNL A   1      45.099  25.870  28.070  1.00  0.00    -0.354 N 
ATOM     34  C   UNL A   1      41.114  27.192  28.583  1.00  0.00     0.074 A 
ATOM     35  C   UNL A   1      40.066  26.193  28.336  1.00  0.00    -0.034 C 
ATOM     36  H   UNL A   1      40.254  24.140  27.781  1.00  0.00     0.065 H 
ATOM     37  C   UNL A   1      46.699  24.341  27.652  1.00  0.00    -0.036 A 
ATOM     38  H   UNL A   1      45.350  22.713  27.352  1.00  0.00     0.065 H 
ATOM     39  C   UNL A   1      46.461  25.693  27.962  1.00  0.00     0.049 A 
ATOM     40  H   UNL A   1      44.643  26.714  28.290  1.00  0.00     0.167 HD
ATOM     41  C   UNL A   1      40.866  28.514  28.953  1.00  0.00     0.037 A 
ATOM     42  H   UNL A   1      39.046  26.341  28.396  1.00  0.00     0.065 H 
ATOM     43  H   UNL A   1      47.623  23.902  27.515  1.00  0.00     0.065 H 
ATOM     44  C   UNL A   1      47.455  26.646  28.117  1.00  0.00     0.037 A 
ATOM     45  C   UNL A   1      41.864  29.456  29.151  1.00  0.00     0.049 A 
ATOM     46  C   UNL A   1      47.205  27.984  28.431  1.00  0.00     0.074 A 
ATOM     47  C   UNL A   1      41.631  30.791  29.532  1.00  0.00    -0.036 A 
ATOM     48  N   UNL A   1      43.224  29.285  29.019  1.00  0.00    -0.354 N 
ATOM     49  N   UNL A   1      46.022  28.555  28.659  1.00  0.00    -0.248 NA
ATOM     50  C   UNL A   1      48.248  29.009  28.567  1.00  0.00    -0.034 C 
ATOM     51  C   UNL A   1      42.833  31.421  29.620  1.00  0.00    -0.036 A 
ATOM     52  H   UNL A   1      40.709  31.218  29.714  1.00  0.00     0.065 H 
ATOM     53  C   UNL A   1      43.837  30.488  29.293  1.00  0.00     0.049 A 
ATOM     54  H   UNL A   1      43.679  28.449  28.770  1.00  0.00     0.167 HD
ATOM     55  C   UNL A   1      46.183  29.848  28.948  1.00  0.00     0.074 A 
ATOM     56  C   UNL A   1      47.617  30.160  28.886  1.00  0.00    -0.034 C 
ATOM     57  H   UNL A   1      49.265  28.876  28.443  1.00  0.00     0.065 H 
ATOM     58  H   UNL A   1      42.984  32.408  29.879  1.00  0.00     0.065 H 
ATOM     59  C   UNL A   1      45.192  30.778  29.265  1.00  0.00     0.037 A 
ATOM     60  H   UNL A   1      48.057  31.079  29.053  1.00  0.00     0.065 H 
BRANCH  41  61
ATOM     61  C   UNL A   1      39.422  28.945  29.149  1.00  0.00     0.064 A 
ATOM     62  C   UNL A   1      38.826  29.029  30.396  1.00  0.00     0.173 A 
ATOM     63  C   UNL A   1      38.804  29.384  28.059  1.00  0.00     0.173 A 
ATOM     64  F   UNL A   1      39.491  28.843  31.533  1.00  0.00    -0.203 F 
ATOM     65  C   UNL A   1      37.443  29.330  30.352  1.00  0.00     0.198 A 
ATOM     66  C   UNL A   1      37.492  29.791  28.114  1.00  0.00     0.198 A 
ATOM     67  F   UNL A   1      39.459  29.428  26.903  1.00  0.00    -0.203 F 
ATOM     68  F   UNL A   1      36.720  29.079  31.439  1.00  0.00    -0.200 F 
ATOM     69  C   UNL A   1      36.822  29.841  29.305  1.00  0.00     0.200 A 
ATOM     70  F   UNL A   1      36.867  30.140  26.994  1.00  0.00    -0.200 F 
ATOM     71  F   UNL A   1      35.609  30.378  29.404  1.00  0.00    -0.200 F 
ENDBRANCH  41  61
BRANCH  44  72
ATOM     72  C   UNL A   1      48.901  26.211  27.937  1.00  0.00     0.064 A 
ATOM     73  C   UNL A   1      49.661  25.807  29.023  1.00  0.00     0.173 A 
ATOM     74  C   UNL A   1      49.449  26.387  26.740  1.00  0.00     0.173 A 
ATOM     75  F   UNL A   1      49.125  25.377  30.162  1.00  0.00    -0.203 F 
ATOM     76  C   UNL A   1      51.056  25.895  28.810  1.00  0.00     0.198 A 
ATOM     77  C   UNL A   1      50.813  26.324  26.580  1.00  0.00     0.198 A 
ATOM     78  F   UNL A   1      48.672  26.627  25.689  1.00  0.00    -0.203 F 
ATOM     79  F   UNL A   1      51.847  25.881  29.880  1.00  0.00    -0.200 F 
ATOM     80  C   UNL A   1      51.629  25.991  27.624  1.00  0.00     0.200 A 
ATOM     81  F   UNL A   1      51.345  26.594  25.392  1.00  0.00    -0.200 F 
ATOM     82  F   UNL A   1      52.930  25.772  27.455  1.00  0.00    -0.200 F 
ENDBRANCH  44  72
BRANCH  59  83
ATOM     83  C   UNL A   1      45.625  32.196  29.600  1.00  0.00     0.064 A 
ATOM     84  C   UNL A   1      45.893  32.420  30.941  1.00  0.00     0.173 A 
ATOM     85  C   UNL A   1      45.817  33.145  28.691  1.00  0.00     0.173 A 
ATOM     86  F   UNL A   1      45.960  31.444  31.841  1.00  0.00    -0.203 F 
ATOM     87  C   UNL A   1      46.089  33.784  31.266  1.00  0.00     0.198 A 
ATOM     88  C   UNL A   1      46.140  34.425  29.073  1.00  0.00     0.198 A 
ATOM     89  F   UNL A   1      45.695  32.853  27.400  1.00  0.00    -0.203 F 
ATOM     90  F   UNL A   1      45.992  34.135  32.544  1.00  0.00    -0.200 F 
ATOM     91  C   UNL A   1      46.362  34.731  30.388  1.00  0.00     0.200 A 
ATOM     92  F   UNL A   1      46.239  35.379  28.152  1.00  0.00    -0.200 F 
ATOM     93  F   UNL A   1      46.826  35.921  30.760  1.00  0.00    -0.200 F 
ENDBRANCH  59  83
ENDBRANCH  24  27
ENDBRANCH  15  17
ENDBRANCH  10  13
ENDBRANCH   7  10
ENDBRANCH   4   7
ENDBRANCH   1   4
BRANCH   1  94
ATOM     94  C   UNL A   1      37.114  23.197  26.010  1.00  0.00    -0.036 C 
ATOM     95  H   UNL A   1      37.227  24.143  25.521  1.00  0.00     0.028 H 
ATOM     96  H   UNL A   1      37.266  23.320  27.062  1.00  0.00     0.028 H 
BRANCH  94  97
ATOM     97  C   UNL A   1      35.713  22.663  25.758  1.00  0.00     0.018 C 
ATOM     98  H   UNL A   1      35.770  21.782  25.154  1.00  0.00     0.049 H 
ATOM     99  H   UNL A   1      35.133  23.406  25.252  1.00  0.00     0.049 H 
BRANCH  97 100
ATOM    100  N   UNL A   1      35.076  22.336  27.042  1.00  0.00    -0.352 N 
ATOM    101  C   UNL A   1      33.660  22.659  27.264  1.00  0.00     0.253 C 
ATOM    102  H   UNL A   1      35.599  21.899  27.753  1.00  0.00     0.163 HD
ATOM    103  O   UNL A   1      33.109  22.375  28.374  1.00  0.00    -0.269 OA
BRANCH 101 104
ATOM    104  C   UNL A   1      32.853  23.331  26.166  1.00  0.00     0.063 A 
ATOM    105  C   UNL A   1      33.108  24.656  25.849  1.00  0.00    -0.047 A 
ATOM    106  C   UNL A   1      31.917  22.639  25.527  1.00  0.00     0.051 A 
ATOM    107  C   UNL A   1      32.117  25.251  25.033  1.00  0.00    -0.061 A 
ATOM    108  H   UNL A   1      33.945  25.161  26.179  1.00  0.00     0.063 H 
ATOM    109  C   UNL A   1      31.069  23.259  24.640  1.00  0.00    -0.038 A 
ATOM    110  C   UNL A   1      31.227  24.580  24.325  1.00  0.00    -0.060 A 
ATOM    111  H   UNL A   1      32.088  26.282  24.989  1.00  0.00     0.062 H 
ATOM    112  H   UNL A   1      30.304  22.720  24.207  1.00  0.00     0.064 H 
ATOM    113  H   UNL A   1      30.679  25.028  23.575  1.00  0.00     0.062 H 
BRANCH 106 114
ATOM    114  N   UNL A   1      31.786  21.195  25.771  1.00  0.00    -0.355 N 
ATOM    115  H   UNL A   1      31.370  20.872  26.602  1.00  0.00     0.167 HD
BRANCH 114 116
ATOM    116  C   UNL A   1      32.274  20.234  24.772  1.00  0.00     0.040 A 
ATOM    117  C   UNL A   1      32.053  20.490  23.430  1.00  0.00    -0.039 A 
ATOM    118  C   UNL A   1      32.950  19.160  25.166  1.00  0.00    -0.016 A 
ATOM    119  C   UNL A   1      32.338  19.393  22.581  1.00  0.00    -0.059 A 
ATOM    120  H   UNL A   1      31.710  21.398  23.079  1.00  0.00     0.064 H 
ATOM    121  C   UNL A   1      33.315  18.192  24.261  1.00  0.00     0.109 A 
ATOM    122  H   UNL A   1      33.202  19.051  26.161  1.00  0.00     0.066 H 
ATOM    123  C   UNL A   1      33.074  18.352  22.926  1.00  0.00    -0.039 A 
ATOM    124  H   UNL A   1      31.942  19.407  21.629  1.00  0.00     0.062 H 
ATOM    125  H   UNL A   1      33.449  17.696  22.222  1.00  0.00     0.064 H 
BRANCH 121 126
ATOM    126  S   UNL A   1      34.127  16.684  24.847  1.00  0.00     0.310 S 
ATOM    127  F   UNL A   1      34.318  16.128  23.374  1.00  0.00    -0.094 F 
ATOM    128  F   UNL A   1      32.736  15.947  24.872  1.00  0.00    -0.094 F 
ATOM    129  F   UNL A   1      34.847  15.404  25.358  1.00  0.00    -0.094 F 
ATOM    130  F   UNL A   1      35.528  17.395  24.681  1.00  0.00    -0.094 F 
ATOM    131  F   UNL A   1      33.426  17.955  24.221  1.00  0.00    -0.094 F 
ENDBRANCH 121 126
ENDBRANCH 114 116
ENDBRANCH 106 114
ENDBRANCH 101 104
ENDBRANCH  97 100
ENDBRANCH  94  97
ENDBRANCH   1  94
TORSDOF 16
ENDMDL
MODEL 4
REMARK VINA RESULT:     -13.3      0.642      6.939
REMARK SMILES O=C(NCCCCCCNC(=O)c1ccccc1Nc1cccc(S(F)(F)(F)(F)F)c1)c1ccc(-c2c3nc(c(-c4c(F)c(F)c(F)c(F)c4F)c4ccc([nH]4)c(-c4c(F)c(F)c(F)c(F)c4F)c4nc(c(-c5c(F)c(F)c(F)c(F)c5F)c5ccc2[nH]5)C=C4)C=C3)cc1
REMARK SMILES IDX 7 1 6 4 5 7 4 10 3 13 1 14 2 15 32 17 33 18 94 19 34 20
REMARK SMILES IDX 93 22 35 24 36 27 37 28 87 29 38 30 92 31 86 32 88 33 39 34
REMARK SMILES IDX 91 35 85 37 84 39 40 41 72 44 52 45 71 46 53 47 56 48 70 49
REMARK SMILES IDX 89 50 54 51 55 53 69 55 90 56 57 59 41 61 42 62 50 63 43 64
REMARK SMILES IDX 44 65 48 66 51 67 45 68 46 69 49 70 47 71 73 72 74 73 82 74
REMARK SMILES IDX 75 75 76 76 80 77 83 78 77 79 78 80 81 81 79 82 58 83 59 84
REMARK SMILES IDX 67 85 60 86 61 87 65 88 68 89 62 90 63 91 66 92 64 93 8 94
REMARK SMILES IDX 9 97 10 100 11 101 12 103 13 104 14 105 18 106 15 107 17 109
REMARK SMILES IDX 16 110 19 114 20 116 21 117 31 118 22 119 24 121 23 123
REMARK SMILES IDX 25 126 26 127 27 128 28 129 29 130 30 131
REMARK H PARENT 7 2 7 3 6 5 6 6 5 8 5 9 4 11 4 12 3 16 33 21 94 23 34 25 93 26
REMARK H PARENT 92 36 86 38 88 40 91 42 85 43 53 52 56 54 89 57 54 58 90 60
REMARK H PARENT 8 95 8 96 9 98 9 99 10 102 14 108 15 111 17 112 16 113 19 115
REMARK H PARENT 21 120 31 122 22 124 23 125
REMARK Flexibility Score: inf
ROOT
ATOM      1  C   UNL A   1      32.855  30.453  27.159  1.00  0.00    -0.052 C 
ATOM      2  H   UNL A   1      32.621  29.872  28.026  1.00  0.00     0.027 H 
ATOM      3  H   UNL A   1      33.457  31.290  27.442  1.00  0.00     0.027 H 
ENDROOT
BRANCH   1   4
ATOM      4  C   UNL A   1      31.567  30.948  26.520  1.00  0.00    -0.052 C 
ATOM      5  H   UNL A   1      31.560  30.687  25.482  1.00  0.00     0.027 H 
ATOM      6  H   UNL A   1      30.729  30.495  27.008  1.00  0.00     0.027 H 
BRANCH   4   7
ATOM      7  C   UNL A   1      31.479  32.459  26.663  1.00  0.00    -0.036 C 
ATOM      8  H   UNL A   1      31.369  32.903  25.696  1.00  0.00     0.028 H 
ATOM      9  H   UNL A   1      30.635  32.711  27.271  1.00  0.00     0.028 H 
BRANCH   7  10
ATOM     10  C   UNL A   1      32.748  32.980  27.318  1.00  0.00     0.018 C 
ATOM     11  H   UNL A   1      32.979  32.383  28.175  1.00  0.00     0.049 H 
ATOM     12  H   UNL A   1      33.557  32.927  26.619  1.00  0.00     0.049 H 
BRANCH  10  13
ATOM     13  N   UNL A   1      32.549  34.376  27.731  1.00  0.00    -0.352 N 
ATOM     14  O   UNL A   1      33.235  36.173  29.127  1.00  0.00    -0.269 OA
ATOM     15  C   UNL A   1      33.408  34.965  28.769  1.00  0.00     0.251 C 
ATOM     16  H   UNL A   1      31.841  34.917  27.313  1.00  0.00     0.163 HD
BRANCH  15  17
ATOM     17  C   UNL A   1      34.502  34.130  29.414  1.00  0.00     0.039 A 
ATOM     18  C   UNL A   1      35.787  34.411  28.978  1.00  0.00    -0.049 A 
ATOM     19  C   UNL A   1      34.280  33.256  30.390  1.00  0.00    -0.049 A 
ATOM     20  C   UNL A   1      36.762  33.497  29.443  1.00  0.00    -0.053 A 
ATOM     21  H   UNL A   1      36.012  35.214  28.371  1.00  0.00     0.063 H 
ATOM     22  C   UNL A   1      35.307  32.493  30.890  1.00  0.00    -0.053 A 
ATOM     23  H   UNL A   1      33.329  33.151  30.775  1.00  0.00     0.063 H 
ATOM     24  C   UNL A   1      36.593  32.675  30.463  1.00  0.00    -0.014 A 
ATOM     25  H   UNL A   1      37.669  33.471  28.951  1.00  0.00     0.063 H 
ATOM     26  H   UNL A   1      35.105  31.771  31.599  1.00  0.00     0.063 H 
BRANCH  24  27
ATOM     27  C   UNL A   1      37.765  31.972  31.126  1.00  0.00     0.031 A 
ATOM     28  C   UNL A   1      38.264  32.388  32.362  1.00  0.00     0.074 A 
ATOM     29  C   UNL A   1      38.336  30.971  30.359  1.00  0.00     0.049 A 
ATOM     30  N   UNL A   1      39.315  31.898  33.022  1.00  0.00    -0.248 NA
ATOM     31  C   UNL A   1      37.680  33.473  33.163  1.00  0.00    -0.034 C 
ATOM     32  C   UNL A   1      37.834  30.540  29.116  1.00  0.00    -0.036 A 
ATOM     33  N   UNL A   1      39.460  30.226  30.641  1.00  0.00    -0.354 N 
ATOM     34  C   UNL A   1      39.471  32.540  34.182  1.00  0.00     0.074 A 
ATOM     35  C   UNL A   1      38.426  33.566  34.287  1.00  0.00    -0.034 C 
ATOM     36  H   UNL A   1      36.862  34.051  32.916  1.00  0.00     0.065 H 
ATOM     37  C   UNL A   1      38.650  29.558  28.649  1.00  0.00    -0.036 A 
ATOM     38  H   UNL A   1      36.994  30.905  28.641  1.00  0.00     0.065 H 
ATOM     39  C   UNL A   1      39.675  29.358  29.594  1.00  0.00     0.049 A 
ATOM     40  H   UNL A   1      40.014  30.301  31.451  1.00  0.00     0.167 HD
ATOM     41  C   UNL A   1      40.443  32.308  35.157  1.00  0.00     0.037 A 
ATOM     42  H   UNL A   1      38.288  34.229  35.065  1.00  0.00     0.065 H 
ATOM     43  H   UNL A   1      38.538  29.049  27.758  1.00  0.00     0.065 H 
ATOM     44  C   UNL A   1      40.702  28.439  29.450  1.00  0.00     0.037 A 
ATOM     45  C   UNL A   1      41.444  31.358  35.032  1.00  0.00     0.049 A 
ATOM     46  C   UNL A   1      41.709  28.246  30.399  1.00  0.00     0.074 A 
ATOM     47  C   UNL A   1      42.426  31.107  36.009  1.00  0.00    -0.036 A 
ATOM     48  N   UNL A   1      41.673  30.508  33.974  1.00  0.00    -0.354 N 
ATOM     49  N   UNL A   1      41.841  28.861  31.576  1.00  0.00    -0.248 NA
ATOM     50  C   UNL A   1      42.819  27.298  30.244  1.00  0.00    -0.034 C 
ATOM     51  C   UNL A   1      43.243  30.124  35.543  1.00  0.00    -0.036 A 
ATOM     52  H   UNL A   1      42.512  31.585  36.920  1.00  0.00     0.065 H 
ATOM     53  C   UNL A   1      42.784  29.747  34.266  1.00  0.00     0.049 A 
ATOM     54  H   UNL A   1      41.136  30.452  33.151  1.00  0.00     0.167 HD
ATOM     55  C   UNL A   1      42.917  28.400  32.217  1.00  0.00     0.074 A 
ATOM     56  C   UNL A   1      43.565  27.393  31.366  1.00  0.00    -0.034 C 
ATOM     57  H   UNL A   1      42.995  26.680  29.436  1.00  0.00     0.065 H 
ATOM     58  H   UNL A   1      44.057  29.726  36.037  1.00  0.00     0.065 H 
ATOM     59  C   UNL A   1      43.381  28.775  33.479  1.00  0.00     0.037 A 
ATOM     60  H   UNL A   1      44.424  26.862  31.583  1.00  0.00     0.065 H 
BRANCH  41  61
ATOM     61  C   UNL A   1      40.400  33.145  36.425  1.00  0.00     0.064 A 
ATOM     62  C   UNL A   1      41.081  34.343  36.558  1.00  0.00     0.173 A 
ATOM     63  C   UNL A   1      39.543  32.731  37.353  1.00  0.00     0.173 A 
ATOM     64  F   UNL A   1      41.744  34.916  35.558  1.00  0.00    -0.203 F 
ATOM     65  C   UNL A   1      41.009  34.902  37.857  1.00  0.00     0.198 A 
ATOM     66  C   UNL A   1      39.426  33.405  38.545  1.00  0.00     0.198 A 
ATOM     67  F   UNL A   1      38.795  31.656  37.126  1.00  0.00    -0.203 F 
ATOM     68  F   UNL A   1      41.902  35.832  38.181  1.00  0.00    -0.200 F 
ATOM     69  C   UNL A   1      40.115  34.564  38.769  1.00  0.00     0.200 A 
ATOM     70  F   UNL A   1      38.630  32.922  39.494  1.00  0.00    -0.200 F 
ATOM     71  F   UNL A   1      39.898  35.311  39.847  1.00  0.00    -0.200 F 
ENDBRANCH  41  61
BRANCH  44  72
ATOM     72  C   UNL A   1      40.734  27.591  28.189  1.00  0.00     0.064 A 
ATOM     73  C   UNL A   1      40.269  26.286  28.200  1.00  0.00     0.173 A 
ATOM     74  C   UNL A   1      41.370  28.087  27.134  1.00  0.00     0.173 A 
ATOM     75  F   UNL A   1      39.417  25.828  29.113  1.00  0.00    -0.203 F 
ATOM     76  C   UNL A   1      40.780  25.486  27.151  1.00  0.00     0.198 A 
ATOM     77  C   UNL A   1      41.721  27.272  26.083  1.00  0.00     0.198 A 
ATOM     78  F   UNL A   1      41.672  29.381  27.094  1.00  0.00    -0.203 F 
ATOM     79  F   UNL A   1      40.687  24.165  27.279  1.00  0.00    -0.200 F 
ATOM     80  C   UNL A   1      41.345  25.959  26.055  1.00  0.00     0.200 A 
ATOM     81  F   UNL A   1      42.436  27.772  25.079  1.00  0.00    -0.200 F 
ATOM     82  F   UNL A   1      41.537  25.197  24.981  1.00  0.00    -0.200 F 
ENDBRANCH  44  72
BRANCH  59  83
ATOM     83  C   UNL A   1      44.616  28.075  34.022  1.00  0.00     0.064 A 
ATOM     84  C   UNL A   1      45.817  28.698  33.724  1.00  0.00     0.173 A 
ATOM     85  C   UNL A   1      44.573  26.993  34.791  1.00  0.00     0.173 A 
ATOM     86  F   UNL A   1      45.890  29.908  33.178  1.00  0.00    -0.203 F 
ATOM     87  C   UNL A   1      46.959  27.929  34.051  1.00  0.00     0.198 A 
ATOM     88  C   UNL A   1      45.733  26.371  35.188  1.00  0.00     0.198 A 
ATOM     89  F   UNL A   1      43.398  26.509  35.182  1.00  0.00    -0.203 F 
ATOM     90  F   UNL A   1      48.114  28.267  33.489  1.00  0.00    -0.200 F 
ATOM     91  C   UNL A   1      46.955  26.899  34.878  1.00  0.00     0.200 A 
ATOM     92  F   UNL A   1      45.664  25.239  35.882  1.00  0.00    -0.200 F 
ATOM     93  F   UNL A   1      48.081  26.401  35.382  1.00  0.00    -0.200 F 
ENDBRANCH  59  83
ENDBRANCH  24  27
ENDBRANCH  15  17
ENDBRANCH  10  13
ENDBRANCH   7  10
ENDBRANCH   4   7
ENDBRANCH   1   4
BRANCH   1  94
ATOM     94  C   UNL A   1      33.616  29.593  26.163  1.00  0.00    -0.036 C 
ATOM     95  H   UNL A   1      33.893  28.669  26.627  1.00  0.00     0.028 H 
ATOM     96  H   UNL A   1      34.498  30.110  25.846  1.00  0.00     0.028 H 
BRANCH  94  97
ATOM     97  C   UNL A   1      32.733  29.310  24.958  1.00  0.00     0.018 C 
ATOM     98  H   UNL A   1      31.930  30.016  24.930  1.00  0.00     0.049 H 
ATOM     99  H   UNL A   1      32.335  28.320  25.033  1.00  0.00     0.049 H 
BRANCH  97 100
ATOM    100  N   UNL A   1      33.531  29.425  23.729  1.00  0.00    -0.352 N 
ATOM    101  C   UNL A   1      33.731  28.249  22.869  1.00  0.00     0.253 C 
ATOM    102  H   UNL A   1      33.931  30.289  23.481  1.00  0.00     0.163 HD
ATOM    103  O   UNL A   1      34.420  28.349  21.806  1.00  0.00    -0.269 OA
BRANCH 101 104
ATOM    104  C   UNL A   1      33.112  26.915  23.251  1.00  0.00     0.063 A 
ATOM    105  C   UNL A   1      33.777  26.088  24.142  1.00  0.00    -0.047 A 
ATOM    106  C   UNL A   1      31.945  26.563  22.726  1.00  0.00     0.051 A 
ATOM    107  C   UNL A   1      33.263  24.771  24.195  1.00  0.00    -0.061 A 
ATOM    108  H   UNL A   1      34.575  26.404  24.715  1.00  0.00     0.063 H 
ATOM    109  C   UNL A   1      31.436  25.303  22.930  1.00  0.00    -0.038 A 
ATOM    110  C   UNL A   1      32.071  24.413  23.751  1.00  0.00    -0.060 A 
ATOM    111  H   UNL A   1      33.861  24.038  24.608  1.00  0.00     0.062 H 
ATOM    112  H   UNL A   1      30.562  25.024  22.457  1.00  0.00     0.064 H 
ATOM    113  H   UNL A   1      31.642  23.512  24.010  1.00  0.00     0.062 H 
BRANCH 106 114
ATOM    114  N   UNL A   1      31.189  27.531  21.918  1.00  0.00    -0.355 N 
ATOM    115  H   UNL A   1      31.469  27.728  20.995  1.00  0.00     0.167 HD
BRANCH 114 116
ATOM    116  C   UNL A   1      30.012  28.204  22.487  1.00  0.00     0.040 A 
ATOM    117  C   UNL A   1      29.024  27.439  23.082  1.00  0.00    -0.039 A 
ATOM    118  C   UNL A   1      29.933  29.530  22.457  1.00  0.00    -0.016 A 
ATOM    119  C   UNL A   1      27.837  28.156  23.367  1.00  0.00    -0.059 A 
ATOM    120  H   UNL A   1      29.141  26.437  23.297  1.00  0.00     0.064 H 
ATOM    121  C   UNL A   1      28.793  30.172  22.879  1.00  0.00     0.109 A 
ATOM    122  H   UNL A   1      30.734  30.083  22.114  1.00  0.00     0.066 H 
ATOM    123  C   UNL A   1      27.753  29.472  23.423  1.00  0.00    -0.039 A 
ATOM    124  H   UNL A   1      26.978  27.612  23.544  1.00  0.00     0.062 H 
ATOM    125  H   UNL A   1      26.944  29.947  23.855  1.00  0.00     0.064 H 
BRANCH 121 126
ATOM    126  S   UNL A   1      28.669  31.970  22.713  1.00  0.00     0.310 S 
ATOM    127  F   UNL A   1      27.262  32.014  23.444  1.00  0.00    -0.094 F 
ATOM    128  F   UNL A   1      27.883  31.789  21.360  1.00  0.00    -0.094 F 
ATOM    129  F   UNL A   1      28.583  33.518  22.589  1.00  0.00    -0.094 F 
ATOM    130  F   UNL A   1      29.332  32.130  24.138  1.00  0.00    -0.094 F 
ATOM    131  F   UNL A   1      28.664  30.402  22.909  1.00  0.00    -0.094 F 
ENDBRANCH 121 126
ENDBRANCH 114 116
ENDBRANCH 106 114
ENDBRANCH 101 104
ENDBRANCH  97 100
ENDBRANCH  94  97
ENDBRANCH   1  94
TORSDOF 16
ENDMDL
MODEL 5
REMARK VINA RESULT:     -13.2      4.774      6.358
REMARK SMILES O=C(NCCCCCCNC(=O)c1ccccc1Nc1cccc(S(F)(F)(F)(F)F)c1)c1ccc(-c2c3nc(c(-c4c(F)c(F)c(F)c(F)c4F)c4ccc([nH]4)c(-c4c(F)c(F)c(F)c(F)c4F)c4nc(c(-c5c(F)c(F)c(F)c(F)c5F)c5ccc2[nH]5)C=C4)C=C3)cc1
REMARK SMILES IDX 7 1 6 4 5 7 4 10 3 13 1 14 2 15 32 17 33 18 94 19 34 20
REMARK SMILES IDX 93 22 35 24 36 27 37 28 87 29 38 30 92 31 86 32 88 33 39 34
REMARK SMILES IDX 91 35 85 37 84 39 40 41 72 44 52 45 71 46 53 47 56 48 70 49
REMARK SMILES IDX 89 50 54 51 55 53 69 55 90 56 57 59 41 61 42 62 50 63 43 64
REMARK SMILES IDX 44 65 48 66 51 67 45 68 46 69 49 70 47 71 73 72 74 73 82 74
REMARK SMILES IDX 75 75 76 76 80 77 83 78 77 79 78 80 81 81 79 82 58 83 59 84
REMARK SMILES IDX 67 85 60 86 61 87 65 88 68 89 62 90 63 91 66 92 64 93 8 94
REMARK SMILES IDX 9 97 10 100 11 101 12 103 13 104 14 105 18 106 15 107 17 109
REMARK SMILES IDX 16 110 19 114 20 116 21 117 31 118 22 119 24 121 23 123
REMARK SMILES IDX 25 126 26 127 27 128 28 129 29 130 30 131
REMARK H PARENT 7 2 7 3 6 5 6 6 5 8 5 9 4 11 4 12 3 16 33 21 94 23 34 25 93 26
REMARK H PARENT 92 36 86 38 88 40 91 42 85 43 53 52 56 54 89 57 54 58 90 60
REMARK H PARENT 8 95 8 96 9 98 9 99 10 102 14 108 15 111 17 112 16 113 19 115
REMARK H PARENT 21 120 31 122 22 124 23 125
REMARK Flexibility Score: inf
ROOT
ATOM      1  C   UNL A   1      30.807  27.064  25.660  1.00  0.00    -0.052 C 
ATOM      2  H   UNL A   1      30.108  27.801  25.995  1.00  0.00     0.027 H 
ATOM      3  H   UNL A   1      30.960  26.341  26.434  1.00  0.00     0.027 H 
ENDROOT
BRANCH   1   4
ATOM      4  C   UNL A   1      32.129  27.735  25.325  1.00  0.00    -0.052 C 
ATOM      5  H   UNL A   1      32.703  27.095  24.688  1.00  0.00     0.027 H 
ATOM      6  H   UNL A   1      31.942  28.662  24.823  1.00  0.00     0.027 H 
BRANCH   4   7
ATOM      7  C   UNL A   1      32.902  28.001  26.606  1.00  0.00    -0.036 C 
ATOM      8  H   UNL A   1      32.261  28.478  27.317  1.00  0.00     0.028 H 
ATOM      9  H   UNL A   1      33.254  27.074  27.009  1.00  0.00     0.028 H 
BRANCH   7  10
ATOM     10  C   UNL A   1      34.086  28.905  26.306  1.00  0.00     0.018 C 
ATOM     11  H   UNL A   1      34.944  28.561  26.844  1.00  0.00     0.049 H 
ATOM     12  H   UNL A   1      34.292  28.886  25.256  1.00  0.00     0.049 H 
BRANCH  10  13
ATOM     13  N   UNL A   1      33.769  30.280  26.717  1.00  0.00    -0.352 N 
ATOM     14  O   UNL A   1      34.397  32.191  27.982  1.00  0.00    -0.269 OA
ATOM     15  C   UNL A   1      34.671  31.002  27.626  1.00  0.00     0.251 C 
ATOM     16  H   UNL A   1      32.952  30.718  26.384  1.00  0.00     0.163 HD
BRANCH  15  17
ATOM     17  C   UNL A   1      35.932  30.327  28.139  1.00  0.00     0.039 A 
ATOM     18  C   UNL A   1      37.053  30.494  27.342  1.00  0.00    -0.049 A 
ATOM     19  C   UNL A   1      36.005  29.697  29.306  1.00  0.00    -0.049 A 
ATOM     20  C   UNL A   1      38.158  29.701  27.734  1.00  0.00    -0.053 A 
ATOM     21  H   UNL A   1      37.079  31.138  26.536  1.00  0.00     0.063 H 
ATOM     22  C   UNL A   1      37.161  29.058  29.685  1.00  0.00    -0.053 A 
ATOM     23  H   UNL A   1      35.186  29.687  29.934  1.00  0.00     0.063 H 
ATOM     24  C   UNL A   1      38.290  29.132  28.918  1.00  0.00    -0.014 A 
ATOM     25  H   UNL A   1      38.914  29.559  27.045  1.00  0.00     0.063 H 
ATOM     26  H   UNL A   1      37.178  28.516  30.563  1.00  0.00     0.063 H 
BRANCH  24  27
ATOM     27  C   UNL A   1      39.624  28.587  29.400  1.00  0.00     0.031 A 
ATOM     28  C   UNL A   1      40.188  27.437  28.846  1.00  0.00     0.074 A 
ATOM     29  C   UNL A   1      40.159  29.267  30.480  1.00  0.00     0.049 A 
ATOM     30  N   UNL A   1      41.315  26.825  29.212  1.00  0.00    -0.248 NA
ATOM     31  C   UNL A   1      39.603  26.693  27.720  1.00  0.00    -0.034 C 
ATOM     32  C   UNL A   1      39.601  30.433  31.040  1.00  0.00    -0.036 A 
ATOM     33  N   UNL A   1      41.295  28.958  31.196  1.00  0.00    -0.354 N 
ATOM     34  C   UNL A   1      41.540  25.765  28.433  1.00  0.00     0.074 A 
ATOM     35  C   UNL A   1      40.439  25.662  27.466  1.00  0.00    -0.034 C 
ATOM     36  H   UNL A   1      38.727  26.915  27.222  1.00  0.00     0.065 H 
ATOM     37  C   UNL A   1      40.381  30.814  32.086  1.00  0.00    -0.036 A 
ATOM     38  H   UNL A   1      38.748  30.914  30.714  1.00  0.00     0.065 H 
ATOM     39  C   UNL A   1      41.441  29.894  32.196  1.00  0.00     0.049 A 
ATOM     40  H   UNL A   1      41.897  28.199  31.023  1.00  0.00     0.167 HD
ATOM     41  C   UNL A   1      42.619  24.883  28.489  1.00  0.00     0.037 A 
ATOM     42  H   UNL A   1      40.324  24.942  26.736  1.00  0.00     0.065 H 
ATOM     43  H   UNL A   1      40.224  31.635  32.692  1.00  0.00     0.065 H 
ATOM     44  C   UNL A   1      42.434  29.957  33.160  1.00  0.00     0.037 A 
ATOM     45  C   UNL A   1      43.636  24.972  29.427  1.00  0.00     0.049 A 
ATOM     46  C   UNL A   1      43.484  29.040  33.254  1.00  0.00     0.074 A 
ATOM     47  C   UNL A   1      44.735  24.095  29.492  1.00  0.00    -0.036 A 
ATOM     48  N   UNL A   1      43.769  25.893  30.442  1.00  0.00    -0.354 N 
ATOM     49  N   UNL A   1      43.729  28.005  32.450  1.00  0.00    -0.248 NA
ATOM     50  C   UNL A   1      44.523  29.079  34.290  1.00  0.00    -0.034 C 
ATOM     51  C   UNL A   1      45.517  24.476  30.538  1.00  0.00    -0.036 A 
ATOM     52  H   UNL A   1      44.917  23.302  28.858  1.00  0.00     0.065 H 
ATOM     53  C   UNL A   1      44.917  25.598  31.144  1.00  0.00     0.049 A 
ATOM     54  H   UNL A   1      43.151  26.635  30.633  1.00  0.00     0.167 HD
ATOM     55  C   UNL A   1      44.834  27.368  32.843  1.00  0.00     0.074 A 
ATOM     56  C   UNL A   1      45.357  28.046  34.037  1.00  0.00    -0.034 C 
ATOM     57  H   UNL A   1      44.602  29.761  35.061  1.00  0.00     0.065 H 
ATOM     58  H   UNL A   1      46.395  24.023  30.837  1.00  0.00     0.065 H 
ATOM     59  C   UNL A   1      45.429  26.252  32.252  1.00  0.00     0.037 A 
ATOM     60  H   UNL A   1      46.197  27.785  34.577  1.00  0.00     0.065 H 
BRANCH  41  61
ATOM     61  C   UNL A   1      42.683  23.762  27.464  1.00  0.00     0.064 A 
ATOM     62  C   UNL A   1      43.314  23.898  26.240  1.00  0.00     0.173 A 
ATOM     63  C   UNL A   1      42.224  22.585  27.876  1.00  0.00     0.173 A 
ATOM     64  F   UNL A   1      44.007  24.980  25.896  1.00  0.00    -0.203 F 
ATOM     65  C   UNL A   1      43.155  22.782  25.385  1.00  0.00     0.198 A 
ATOM     66  C   UNL A   1      42.223  21.501  27.032  1.00  0.00     0.198 A 
ATOM     67  F   UNL A   1      41.760  22.457  29.115  1.00  0.00    -0.203 F 
ATOM     68  F   UNL A   1      43.402  22.953  24.090  1.00  0.00    -0.200 F 
ATOM     69  C   UNL A   1      42.777  21.581  25.784  1.00  0.00     0.200 A 
ATOM     70  F   UNL A   1      41.676  20.358  27.435  1.00  0.00    -0.200 F 
ATOM     71  F   UNL A   1      42.927  20.507  25.014  1.00  0.00    -0.200 F 
ENDBRANCH  41  61
BRANCH  44  72
ATOM     72  C   UNL A   1      42.379  31.088  34.174  1.00  0.00     0.064 A 
ATOM     73  C   UNL A   1      41.655  30.953  35.349  1.00  0.00     0.173 A 
ATOM     74  C   UNL A   1      42.906  32.254  33.820  1.00  0.00     0.173 A 
ATOM     75  F   UNL A   1      41.330  29.773  35.867  1.00  0.00    -0.203 F 
ATOM     76  C   UNL A   1      41.296  32.185  35.945  1.00  0.00     0.198 A 
ATOM     77  C   UNL A   1      42.619  33.396  34.531  1.00  0.00     0.198 A 
ATOM     78  F   UNL A   1      43.718  32.319  32.770  1.00  0.00    -0.203 F 
ATOM     79  F   UNL A   1      40.319  32.173  36.848  1.00  0.00    -0.200 F 
ATOM     80  C   UNL A   1      41.861  33.346  35.667  1.00  0.00     0.200 A 
ATOM     81  F   UNL A   1      43.085  34.566  34.105  1.00  0.00    -0.200 F 
ATOM     82  F   UNL A   1      41.703  34.408  36.452  1.00  0.00    -0.200 F 
ENDBRANCH  44  72
BRANCH  59  83
ATOM     83  C   UNL A   1      46.718  25.725  32.861  1.00  0.00     0.064 A 
ATOM     84  C   UNL A   1      47.877  26.273  32.334  1.00  0.00     0.173 A 
ATOM     85  C   UNL A   1      46.761  24.866  33.872  1.00  0.00     0.173 A 
ATOM     86  F   UNL A   1      47.876  27.312  31.505  1.00  0.00    -0.203 F 
ATOM     87  C   UNL A   1      49.061  25.625  32.758  1.00  0.00     0.198 A 
ATOM     88  C   UNL A   1      47.962  24.377  34.325  1.00  0.00     0.198 A 
ATOM     89  F   UNL A   1      45.629  24.476  34.452  1.00  0.00    -0.203 F 
ATOM     90  F   UNL A   1      50.166  25.830  32.049  1.00  0.00    -0.200 F 
ATOM     91  C   UNL A   1      49.145  24.830  33.809  1.00  0.00     0.200 A 
ATOM     92  F   UNL A   1      47.975  23.450  35.279  1.00  0.00    -0.200 F 
ATOM     93  F   UNL A   1      50.316  24.488  34.338  1.00  0.00    -0.200 F 
ENDBRANCH  59  83
ENDBRANCH  24  27
ENDBRANCH  15  17
ENDBRANCH  10  13
ENDBRANCH   7  10
ENDBRANCH   4   7
ENDBRANCH   1   4
BRANCH   1  94
ATOM     94  C   UNL A   1      30.261  26.373  24.421  1.00  0.00    -0.036 C 
ATOM     95  H   UNL A   1      30.648  26.851  23.545  1.00  0.00     0.028 H 
ATOM     96  H   UNL A   1      29.192  26.436  24.419  1.00  0.00     0.028 H 
BRANCH  94  97
ATOM     97  C   UNL A   1      30.682  24.912  24.428  1.00  0.00     0.018 C 
ATOM     98  H   UNL A   1      31.731  24.842  24.228  1.00  0.00     0.049 H 
ATOM     99  H   UNL A   1      30.139  24.380  23.675  1.00  0.00     0.049 H 
BRANCH  97 100
ATOM    100  N   UNL A   1      30.395  24.326  25.746  1.00  0.00    -0.352 N 
ATOM    101  C   UNL A   1      31.454  23.627  26.487  1.00  0.00     0.253 C 
ATOM    102  H   UNL A   1      29.492  24.403  26.132  1.00  0.00     0.163 HD
ATOM    103  O   UNL A   1      31.205  23.121  27.626  1.00  0.00    -0.269 OA
BRANCH 101 104
ATOM    104  C   UNL A   1      32.847  23.509  25.890  1.00  0.00     0.063 A 
ATOM    105  C   UNL A   1      33.750  24.545  26.064  1.00  0.00    -0.047 A 
ATOM    106  C   UNL A   1      33.175  22.415  25.213  1.00  0.00     0.051 A 
ATOM    107  C   UNL A   1      34.892  24.456  25.232  1.00  0.00    -0.061 A 
ATOM    108  H   UNL A   1      33.604  25.312  26.738  1.00  0.00     0.063 H 
ATOM    109  C   UNL A   1      34.368  22.344  24.533  1.00  0.00    -0.038 A 
ATOM    110  C   UNL A   1      35.283  23.357  24.612  1.00  0.00    -0.060 A 
ATOM    111  H   UNL A   1      35.457  25.309  25.099  1.00  0.00     0.062 H 
ATOM    112  H   UNL A   1      34.576  21.515  23.956  1.00  0.00     0.064 H 
ATOM    113  H   UNL A   1      36.228  23.268  24.209  1.00  0.00     0.062 H 
BRANCH 106 114
ATOM    114  N   UNL A   1      32.255  21.269  25.190  1.00  0.00    -0.355 N 
ATOM    115  H   UNL A   1      31.453  21.270  25.760  1.00  0.00     0.167 HD
BRANCH 114 116
ATOM    116  C   UNL A   1      32.531  20.123  24.312  1.00  0.00     0.040 A 
ATOM    117  C   UNL A   1      32.147  20.187  22.983  1.00  0.00    -0.039 A 
ATOM    118  C   UNL A   1      33.174  19.065  24.793  1.00  0.00    -0.016 A 
ATOM    119  C   UNL A   1      32.232  18.950  22.300  1.00  0.00    -0.059 A 
ATOM    120  H   UNL A   1      31.827  21.057  22.531  1.00  0.00     0.064 H 
ATOM    121  C   UNL A   1      33.341  17.938  24.023  1.00  0.00     0.109 A 
ATOM    122  H   UNL A   1      33.552  19.088  25.752  1.00  0.00     0.066 H 
ATOM    123  C   UNL A   1      32.931  17.911  22.719  1.00  0.00    -0.039 A 
ATOM    124  H   UNL A   1      31.712  18.853  21.415  1.00  0.00     0.062 H 
ATOM    125  H   UNL A   1      33.157  17.121  22.094  1.00  0.00     0.064 H 
BRANCH 121 126
ATOM    126  S   UNL A   1      34.113  16.470  24.746  1.00  0.00     0.310 S 
ATOM    127  F   UNL A   1      34.399  15.830  23.324  1.00  0.00    -0.094 F 
ATOM    128  F   UNL A   1      32.723  15.729  24.724  1.00  0.00    -0.094 F 
ATOM    129  F   UNL A   1      34.799  15.224  25.376  1.00  0.00    -0.094 F 
ATOM    130  F   UNL A   1      35.522  17.175  24.630  1.00  0.00    -0.094 F 
ATOM    131  F   UNL A   1      33.454  17.699  24.003  1.00  0.00    -0.094 F 
ENDBRANCH 121 126
ENDBRANCH 114 116
ENDBRANCH 106 114
ENDBRANCH 101 104
ENDBRANCH  97 100
ENDBRANCH  94  97
ENDBRANCH   1  94
TORSDOF 16
ENDMDL
MODEL 6
REMARK VINA RESULT:     -13.1      1.084      2.088
REMARK SMILES O=C(NCCCCCCNC(=O)c1ccccc1Nc1cccc(S(F)(F)(F)(F)F)c1)c1ccc(-c2c3nc(c(-c4c(F)c(F)c(F)c(F)c4F)c4ccc([nH]4)c(-c4c(F)c(F)c(F)c(F)c4F)c4nc(c(-c5c(F)c(F)c(F)c(F)c5F)c5ccc2[nH]5)C=C4)C=C3)cc1
REMARK SMILES IDX 7 1 6 4 5 7 4 10 3 13 1 14 2 15 32 17 33 18 94 19 34 20
REMARK SMILES IDX 93 22 35 24 36 27 37 28 87 29 38 30 92 31 86 32 88 33 39 34
REMARK SMILES IDX 91 35 85 37 84 39 40 41 72 44 52 45 71 46 53 47 56 48 70 49
REMARK SMILES IDX 89 50 54 51 55 53 69 55 90 56 57 59 41 61 42 62 50 63 43 64
REMARK SMILES IDX 44 65 48 66 51 67 45 68 46 69 49 70 47 71 73 72 74 73 82 74
REMARK SMILES IDX 75 75 76 76 80 77 83 78 77 79 78 80 81 81 79 82 58 83 59 84
REMARK SMILES IDX 67 85 60 86 61 87 65 88 68 89 62 90 63 91 66 92 64 93 8 94
REMARK SMILES IDX 9 97 10 100 11 101 12 103 13 104 14 105 18 106 15 107 17 109
REMARK SMILES IDX 16 110 19 114 20 116 21 117 31 118 22 119 24 121 23 123
REMARK SMILES IDX 25 126 26 127 27 128 28 129 29 130 30 131
REMARK H PARENT 7 2 7 3 6 5 6 6 5 8 5 9 4 11 4 12 3 16 33 21 94 23 34 25 93 26
REMARK H PARENT 92 36 86 38 88 40 91 42 85 43 53 52 56 54 89 57 54 58 90 60
REMARK H PARENT 8 95 8 96 9 98 9 99 10 102 14 108 15 111 17 112 16 113 19 115
REMARK H PARENT 21 120 31 122 22 124 23 125
REMARK Flexibility Score: inf
ROOT
ATOM      1  C   UNL A   1      32.630  29.909  26.930  1.00  0.00    -0.052 C 
ATOM      2  H   UNL A   1      32.928  30.614  27.678  1.00  0.00     0.027 H 
ATOM      3  H   UNL A   1      33.466  29.678  26.305  1.00  0.00     0.027 H 
ENDROOT
BRANCH   1   4
ATOM      4  C   UNL A   1      31.516  30.509  26.086  1.00  0.00    -0.052 C 
ATOM      5  H   UNL A   1      31.760  30.408  25.049  1.00  0.00     0.027 H 
ATOM      6  H   UNL A   1      30.599  29.994  26.288  1.00  0.00     0.027 H 
BRANCH   4   7
ATOM      7  C   UNL A   1      31.356  31.981  26.429  1.00  0.00    -0.036 C 
ATOM      8  H   UNL A   1      31.175  32.538  25.534  1.00  0.00     0.028 H 
ATOM      9  H   UNL A   1      30.532  32.104  27.100  1.00  0.00     0.028 H 
BRANCH   7  10
ATOM     10  C   UNL A   1      32.628  32.487  27.091  1.00  0.00     0.018 C 
ATOM     11  H   UNL A   1      32.858  31.874  27.937  1.00  0.00     0.049 H 
ATOM     12  H   UNL A   1      33.436  32.445  26.391  1.00  0.00     0.049 H 
BRANCH  10  13
ATOM     13  N   UNL A   1      32.432  33.876  27.531  1.00  0.00    -0.352 N 
ATOM     14  O   UNL A   1      33.196  35.682  28.872  1.00  0.00    -0.269 OA
ATOM     15  C   UNL A   1      33.365  34.481  28.492  1.00  0.00     0.251 C 
ATOM     16  H   UNL A   1      31.676  34.401  27.180  1.00  0.00     0.163 HD
BRANCH  15  17
ATOM     17  C   UNL A   1      34.532  33.670  29.031  1.00  0.00     0.039 A 
ATOM     18  C   UNL A   1      35.786  34.146  28.683  1.00  0.00    -0.049 A 
ATOM     19  C   UNL A   1      34.391  32.635  29.852  1.00  0.00    -0.049 A 
ATOM     20  C   UNL A   1      36.846  33.274  29.030  1.00  0.00    -0.053 A 
ATOM     21  H   UNL A   1      35.934  35.054  28.216  1.00  0.00     0.063 H 
ATOM     22  C   UNL A   1      35.485  31.910  30.257  1.00  0.00    -0.053 A 
ATOM     23  H   UNL A   1      33.451  32.374  30.187  1.00  0.00     0.063 H 
ATOM     24  C   UNL A   1      36.751  32.289  29.903  1.00  0.00    -0.014 A 
ATOM     25  H   UNL A   1      37.757  33.418  28.566  1.00  0.00     0.063 H 
ATOM     26  H   UNL A   1      35.351  31.069  30.838  1.00  0.00     0.063 H 
BRANCH  24  27
ATOM     27  C   UNL A   1      37.981  31.612  30.483  1.00  0.00     0.031 A 
ATOM     28  C   UNL A   1      38.684  30.638  29.771  1.00  0.00     0.074 A 
ATOM     29  C   UNL A   1      38.267  31.972  31.789  1.00  0.00     0.049 A 
ATOM     30  N   UNL A   1      39.737  29.931  30.183  1.00  0.00    -0.248 NA
ATOM     31  C   UNL A   1      38.361  30.229  28.397  1.00  0.00    -0.034 C 
ATOM     32  C   UNL A   1      37.568  32.958  32.511  1.00  0.00    -0.036 A 
ATOM     33  N   UNL A   1      39.248  31.464  32.611  1.00  0.00    -0.354 N 
ATOM     34  C   UNL A   1      40.150  29.110  29.214  1.00  0.00     0.074 A 
ATOM     35  C   UNL A   1      39.267  29.286  28.054  1.00  0.00    -0.034 C 
ATOM     36  H   UNL A   1      37.594  30.590  27.809  1.00  0.00     0.065 H 
ATOM     37  C   UNL A   1      38.111  33.035  33.755  1.00  0.00    -0.036 A 
ATOM     38  H   UNL A   1      36.780  33.525  32.159  1.00  0.00     0.065 H 
ATOM     39  C   UNL A   1      39.160  32.100  33.830  1.00  0.00     0.049 A 
ATOM     40  H   UNL A   1      39.900  30.767  32.370  1.00  0.00     0.167 HD
ATOM     41  C   UNL A   1      41.228  28.225  29.252  1.00  0.00     0.037 A 
ATOM     42  H   UNL A   1      39.325  28.787  27.152  1.00  0.00     0.065 H 
ATOM     43  H   UNL A   1      37.808  33.670  34.511  1.00  0.00     0.065 H 
ATOM     44  C   UNL A   1      39.939  31.887  34.956  1.00  0.00     0.037 A 
ATOM     45  C   UNL A   1      42.034  28.044  30.365  1.00  0.00     0.049 A 
ATOM     46  C   UNL A   1      40.982  30.959  35.014  1.00  0.00     0.074 A 
ATOM     47  C   UNL A   1      43.129  27.161  30.417  1.00  0.00    -0.036 A 
ATOM     48  N   UNL A   1      41.930  28.662  31.591  1.00  0.00    -0.354 N 
ATOM     49  N   UNL A   1      41.418  30.168  34.032  1.00  0.00    -0.248 NA
ATOM     50  C   UNL A   1      41.793  30.703  36.211  1.00  0.00    -0.034 C 
ATOM     51  C   UNL A   1      43.674  27.238  31.661  1.00  0.00    -0.036 A 
ATOM     52  H   UNL A   1      43.461  26.560  29.647  1.00  0.00     0.065 H 
ATOM     53  C   UNL A   1      42.926  28.170  32.407  1.00  0.00     0.049 A 
ATOM     54  H   UNL A   1      41.261  29.338  31.842  1.00  0.00     0.167 HD
ATOM     55  C   UNL A   1      42.445  29.430  34.459  1.00  0.00     0.074 A 
ATOM     56  C   UNL A   1      42.696  29.759  35.868  1.00  0.00    -0.034 C 
ATOM     57  H   UNL A   1      41.692  31.156  37.133  1.00  0.00     0.065 H 
ATOM     58  H   UNL A   1      44.491  26.706  32.000  1.00  0.00     0.065 H 
ATOM     59  C   UNL A   1      43.185  28.499  33.727  1.00  0.00     0.037 A 
ATOM     60  H   UNL A   1      43.421  29.348  36.478  1.00  0.00     0.065 H 
BRANCH  41  61
ATOM     61  C   UNL A   1      41.533  27.413  28.004  1.00  0.00     0.064 A 
ATOM     62  C   UNL A   1      42.491  27.790  27.079  1.00  0.00     0.173 A 
ATOM     63  C   UNL A   1      40.927  26.233  27.927  1.00  0.00     0.173 A 
ATOM     64  F   UNL A   1      43.298  28.833  27.252  1.00  0.00    -0.203 F 
ATOM     65  C   UNL A   1      42.535  26.965  25.930  1.00  0.00     0.198 A 
ATOM     66  C   UNL A   1      41.121  25.417  26.839  1.00  0.00     0.198 A 
ATOM     67  F   UNL A   1      40.125  25.840  28.912  1.00  0.00    -0.203 F 
ATOM     68  F   UNL A   1      43.147  27.440  24.849  1.00  0.00    -0.200 F 
ATOM     69  C   UNL A   1      42.009  25.756  25.856  1.00  0.00     0.200 A 
ATOM     70  F   UNL A   1      40.435  24.283  26.741  1.00  0.00    -0.200 F 
ATOM     71  F   UNL A   1      42.327  24.912  24.878  1.00  0.00    -0.200 F 
ENDBRANCH  41  61
BRANCH  44  72
ATOM     72  C   UNL A   1      39.644  32.711  36.199  1.00  0.00     0.064 A 
ATOM     73  C   UNL A   1      40.412  33.820  36.513  1.00  0.00     0.173 A 
ATOM     74  C   UNL A   1      38.739  32.237  37.047  1.00  0.00     0.173 A 
ATOM     75  F   UNL A   1      41.138  34.477  35.614  1.00  0.00    -0.203 F 
ATOM     76  C   UNL A   1      40.352  34.190  37.877  1.00  0.00     0.198 A 
ATOM     77  C   UNL A   1      38.646  32.739  38.324  1.00  0.00     0.198 A 
ATOM     78  F   UNL A   1      37.916  31.268  36.659  1.00  0.00    -0.203 F 
ATOM     79  F   UNL A   1      41.308  34.991  38.343  1.00  0.00    -0.200 F 
ATOM     80  C   UNL A   1      39.417  33.795  38.721  1.00  0.00     0.200 A 
ATOM     81  F   UNL A   1      37.794  32.188  39.183  1.00  0.00    -0.200 F 
ATOM     82  F   UNL A   1      39.233  34.395  39.894  1.00  0.00    -0.200 F 
ENDBRANCH  44  72
BRANCH  59  83
ATOM     83  C   UNL A   1      44.346  27.806  34.422  1.00  0.00     0.064 A 
ATOM     84  C   UNL A   1      44.025  26.604  35.031  1.00  0.00     0.173 A 
ATOM     85  C   UNL A   1      45.595  28.254  34.397  1.00  0.00     0.173 A 
ATOM     86  F   UNL A   1      42.854  25.997  34.866  1.00  0.00    -0.203 F 
ATOM     87  C   UNL A   1      45.057  26.081  35.846  1.00  0.00     0.198 A 
ATOM     88  C   UNL A   1      46.582  27.614  35.108  1.00  0.00     0.198 A 
ATOM     89  F   UNL A   1      45.894  29.331  33.677  1.00  0.00    -0.203 F 
ATOM     90  F   UNL A   1      44.730  25.150  36.737  1.00  0.00    -0.200 F 
ATOM     91  C   UNL A   1      46.322  26.453  35.782  1.00  0.00     0.200 A 
ATOM     92  F   UNL A   1      47.807  28.132  35.141  1.00  0.00    -0.200 F 
ATOM     93  F   UNL A   1      47.293  25.738  36.344  1.00  0.00    -0.200 F 
ENDBRANCH  59  83
ENDBRANCH  24  27
ENDBRANCH  15  17
ENDBRANCH  10  13
ENDBRANCH   7  10
ENDBRANCH   4   7
ENDBRANCH   1   4
BRANCH   1  94
ATOM     94  C   UNL A   1      32.131  28.639  27.600  1.00  0.00    -0.036 C 
ATOM     95  H   UNL A   1      31.722  28.879  28.560  1.00  0.00     0.028 H 
ATOM     96  H   UNL A   1      32.945  27.955  27.719  1.00  0.00     0.028 H 
BRANCH  94  97
ATOM     97  C   UNL A   1      31.054  28.001  26.737  1.00  0.00     0.018 C 
ATOM     98  H   UNL A   1      31.088  28.421  25.754  1.00  0.00     0.049 H 
ATOM     99  H   UNL A   1      30.093  28.186  27.171  1.00  0.00     0.049 H 
BRANCH  97 100
ATOM    100  N   UNL A   1      31.286  26.551  26.659  1.00  0.00    -0.352 N 
ATOM    101  C   UNL A   1      32.089  25.993  25.563  1.00  0.00     0.253 C 
ATOM    102  H   UNL A   1      30.903  25.954  27.343  1.00  0.00     0.163 HD
ATOM    103  O   UNL A   1      32.290  24.739  25.496  1.00  0.00    -0.269 OA
BRANCH 101 104
ATOM    104  C   UNL A   1      32.681  26.914  24.509  1.00  0.00     0.063 A 
ATOM    105  C   UNL A   1      33.958  27.420  24.689  1.00  0.00    -0.047 A 
ATOM    106  C   UNL A   1      31.964  27.219  23.434  1.00  0.00     0.051 A 
ATOM    107  C   UNL A   1      34.283  28.480  23.808  1.00  0.00    -0.061 A 
ATOM    108  H   UNL A   1      34.612  27.058  25.400  1.00  0.00     0.063 H 
ATOM    109  C   UNL A   1      32.407  28.167  22.543  1.00  0.00    -0.038 A 
ATOM    110  C   UNL A   1      33.634  28.752  22.691  1.00  0.00    -0.060 A 
ATOM    111  H   UNL A   1      35.083  29.082  24.058  1.00  0.00     0.062 H 
ATOM    112  H   UNL A   1      31.805  28.442  21.751  1.00  0.00     0.064 H 
ATOM    113  H   UNL A   1      34.030  29.373  21.969  1.00  0.00     0.062 H 
BRANCH 106 114
ATOM    114  N   UNL A   1      30.685  26.536  23.194  1.00  0.00    -0.355 N 
ATOM    115  H   UNL A   1      30.674  25.585  22.941  1.00  0.00     0.167 HD
BRANCH 114 116
ATOM    116  C   UNL A   1      29.420  27.273  23.333  1.00  0.00     0.040 A 
ATOM    117  C   UNL A   1      28.331  26.635  23.901  1.00  0.00    -0.039 A 
ATOM    118  C   UNL A   1      29.352  28.543  22.949  1.00  0.00    -0.016 A 
ATOM    119  C   UNL A   1      27.113  27.342  23.759  1.00  0.00    -0.059 A 
ATOM    120  H   UNL A   1      28.400  25.726  24.385  1.00  0.00     0.064 H 
ATOM    121  C   UNL A   1      28.152  29.215  22.964  1.00  0.00     0.109 A 
ATOM    122  H   UNL A   1      30.206  29.029  22.637  1.00  0.00     0.066 H 
ATOM    123  C   UNL A   1      27.023  28.625  23.457  1.00  0.00    -0.039 A 
ATOM    124  H   UNL A   1      26.234  26.819  23.900  1.00  0.00     0.062 H 
ATOM    125  H   UNL A   1      26.146  29.152  23.589  1.00  0.00     0.064 H 
BRANCH 121 126
ATOM    126  S   UNL A   1      28.069  30.904  22.322  1.00  0.00     0.310 S 
ATOM    127  F   UNL A   1      29.606  30.910  21.931  1.00  0.00    -0.094 F 
ATOM    128  F   UNL A   1      28.496  31.460  23.732  1.00  0.00    -0.094 F 
ATOM    129  F   UNL A   1      27.981  32.347  21.748  1.00  0.00    -0.094 F 
ATOM    130  F   UNL A   1      27.780  30.324  20.881  1.00  0.00    -0.094 F 
ATOM    131  F   UNL A   1      28.264  29.431  22.860  1.00  0.00    -0.094 F 
ENDBRANCH 121 126
ENDBRANCH 114 116
ENDBRANCH 106 114
ENDBRANCH 101 104
ENDBRANCH  97 100
ENDBRANCH  94  97
ENDBRANCH   1  94
TORSDOF 16
ENDMDL
MODEL 7
REMARK VINA RESULT:     -13.1      4.151      8.724
REMARK SMILES O=C(NCCCCCCNC(=O)c1ccccc1Nc1cccc(S(F)(F)(F)(F)F)c1)c1ccc(-c2c3nc(c(-c4c(F)c(F)c(F)c(F)c4F)c4ccc([nH]4)c(-c4c(F)c(F)c(F)c(F)c4F)c4nc(c(-c5c(F)c(F)c(F)c(F)c5F)c5ccc2[nH]5)C=C4)C=C3)cc1
REMARK SMILES IDX 7 1 6 4 5 7 4 10 3 13 1 14 2 15 32 17 33 18 94 19 34 20
REMARK SMILES IDX 93 22 35 24 36 27 37 28 87 29 38 30 92 31 86 32 88 33 39 34
REMARK SMILES IDX 91 35 85 37 84 39 40 41 72 44 52 45 71 46 53 47 56 48 70 49
REMARK SMILES IDX 89 50 54 51 55 53 69 55 90 56 57 59 41 61 42 62 50 63 43 64
REMARK SMILES IDX 44 65 48 66 51 67 45 68 46 69 49 70 47 71 73 72 74 73 82 74
REMARK SMILES IDX 75 75 76 76 80 77 83 78 77 79 78 80 81 81 79 82 58 83 59 84
REMARK SMILES IDX 67 85 60 86 61 87 65 88 68 89 62 90 63 91 66 92 64 93 8 94
REMARK SMILES IDX 9 97 10 100 11 101 12 103 13 104 14 105 18 106 15 107 17 109
REMARK SMILES IDX 16 110 19 114 20 116 21 117 31 118 22 119 24 121 23 123
REMARK SMILES IDX 25 126 26 127 27 128 28 129 29 130 30 131
REMARK H PARENT 7 2 7 3 6 5 6 6 5 8 5 9 4 11 4 12 3 16 33 21 94 23 34 25 93 26
REMARK H PARENT 92 36 86 38 88 40 91 42 85 43 53 52 56 54 89 57 54 58 90 60
REMARK H PARENT 8 95 8 96 9 98 9 99 10 102 14 108 15 111 17 112 16 113 19 115
REMARK H PARENT 21 120 31 122 22 124 23 125
REMARK Flexibility Score: inf
ROOT
ATOM      1  C   UNL A   1      34.375  22.927  23.051  1.00  0.00    -0.052 C 
ATOM      2  H   UNL A   1      34.828  22.015  22.721  1.00  0.00     0.027 H 
ATOM      3  H   UNL A   1      34.301  23.607  22.228  1.00  0.00     0.027 H 
ENDROOT
BRANCH   1   4
ATOM      4  C   UNL A   1      35.229  23.547  24.146  1.00  0.00    -0.052 C 
ATOM      5  H   UNL A   1      35.244  24.611  24.027  1.00  0.00     0.027 H 
ATOM      6  H   UNL A   1      34.816  23.301  25.102  1.00  0.00     0.027 H 
BRANCH   4   7
ATOM      7  C   UNL A   1      36.646  23.006  24.051  1.00  0.00    -0.036 C 
ATOM      8  H   UNL A   1      36.616  21.939  23.982  1.00  0.00     0.028 H 
ATOM      9  H   UNL A   1      37.124  23.407  23.182  1.00  0.00     0.028 H 
BRANCH   7  10
ATOM     10  C   UNL A   1      37.426  23.412  25.291  1.00  0.00     0.018 C 
ATOM     11  H   UNL A   1      38.003  24.288  25.079  1.00  0.00     0.049 H 
ATOM     12  H   UNL A   1      36.745  23.619  26.089  1.00  0.00     0.049 H 
BRANCH  10  13
ATOM     13  N   UNL A   1      38.325  22.317  25.684  1.00  0.00    -0.352 N 
ATOM     14  O   UNL A   1      40.286  21.651  26.848  1.00  0.00    -0.269 OA
ATOM     15  C   UNL A   1      39.510  22.598  26.508  1.00  0.00     0.251 C 
ATOM     16  H   UNL A   1      38.132  21.395  25.397  1.00  0.00     0.163 HD
BRANCH  15  17
ATOM     17  C   UNL A   1      39.806  24.021  26.952  1.00  0.00     0.039 A 
ATOM     18  C   UNL A   1      39.586  24.273  28.297  1.00  0.00    -0.049 A 
ATOM     19  C   UNL A   1      40.325  24.947  26.153  1.00  0.00    -0.049 A 
ATOM     20  C   UNL A   1      39.681  25.641  28.646  1.00  0.00    -0.053 A 
ATOM     21  H   UNL A   1      39.374  23.530  28.981  1.00  0.00     0.063 H 
ATOM     22  C   UNL A   1      40.515  26.231  26.603  1.00  0.00    -0.053 A 
ATOM     23  H   UNL A   1      40.587  24.699  25.187  1.00  0.00     0.063 H 
ATOM     24  C   UNL A   1      40.264  26.565  27.905  1.00  0.00    -0.014 A 
ATOM     25  H   UNL A   1      39.265  25.937  29.543  1.00  0.00     0.063 H 
ATOM     26  H   UNL A   1      40.854  26.954  25.950  1.00  0.00     0.063 H 
BRANCH  24  27
ATOM     27  C   UNL A   1      40.634  27.927  28.468  1.00  0.00     0.031 A 
ATOM     28  C   UNL A   1      39.665  28.894  28.740  1.00  0.00     0.074 A 
ATOM     29  C   UNL A   1      41.996  28.142  28.586  1.00  0.00     0.049 A 
ATOM     30  N   UNL A   1      39.858  30.139  29.179  1.00  0.00    -0.248 NA
ATOM     31  C   UNL A   1      38.219  28.679  28.583  1.00  0.00    -0.034 C 
ATOM     32  C   UNL A   1      42.980  27.170  28.322  1.00  0.00    -0.036 A 
ATOM     33  N   UNL A   1      42.639  29.299  28.969  1.00  0.00    -0.354 N 
ATOM     34  C   UNL A   1      38.687  30.758  29.341  1.00  0.00     0.074 A 
ATOM     35  C   UNL A   1      37.616  29.830  28.954  1.00  0.00    -0.034 C 
ATOM     36  H   UNL A   1      37.756  27.818  28.253  1.00  0.00     0.065 H 
ATOM     37  C   UNL A   1      44.199  27.735  28.530  1.00  0.00    -0.036 A 
ATOM     38  H   UNL A   1      42.807  26.197  28.022  1.00  0.00     0.065 H 
ATOM     39  C   UNL A   1      43.997  29.069  28.930  1.00  0.00     0.049 A 
ATOM     40  H   UNL A   1      42.204  30.144  29.226  1.00  0.00     0.167 HD
ATOM     41  C   UNL A   1      38.470  32.059  29.798  1.00  0.00     0.037 A 
ATOM     42  H   UNL A   1      36.602  30.019  28.963  1.00  0.00     0.065 H 
ATOM     43  H   UNL A   1      45.112  27.266  28.416  1.00  0.00     0.065 H 
ATOM     44  C   UNL A   1      45.017  29.961  29.219  1.00  0.00     0.037 A 
ATOM     45  C   UNL A   1      39.490  32.937  30.129  1.00  0.00     0.049 A 
ATOM     46  C   UNL A   1      44.802  31.282  29.621  1.00  0.00     0.074 A 
ATOM     47  C   UNL A   1      39.288  34.249  30.598  1.00  0.00    -0.036 A 
ATOM     48  N   UNL A   1      40.847  32.715  30.066  1.00  0.00    -0.354 N 
ATOM     49  N   UNL A   1      43.631  31.887  29.821  1.00  0.00    -0.248 NA
ATOM     50  C   UNL A   1      45.875  32.245  29.899  1.00  0.00    -0.034 C 
ATOM     51  C   UNL A   1      40.507  34.814  30.807  1.00  0.00    -0.036 A 
ATOM     52  H   UNL A   1      38.374  34.702  30.757  1.00  0.00     0.065 H 
ATOM     53  C   UNL A   1      41.491  33.864  30.470  1.00  0.00     0.049 A 
ATOM     54  H   UNL A   1      41.284  31.880  29.781  1.00  0.00     0.167 HD
ATOM     55  C   UNL A   1      43.826  33.146  30.219  1.00  0.00     0.074 A 
ATOM     56  C   UNL A   1      45.272  33.396  30.268  1.00  0.00    -0.034 C 
ATOM     57  H   UNL A   1      46.891  32.075  29.827  1.00  0.00     0.065 H 
ATOM     58  H   UNL A   1      40.681  35.772  31.151  1.00  0.00     0.065 H 
ATOM     59  C   UNL A   1      42.855  34.094  30.547  1.00  0.00     0.037 A 
ATOM     60  H   UNL A   1      45.738  34.279  30.533  1.00  0.00     0.065 H 
BRANCH  41  61
ATOM     61  C   UNL A   1      37.035  32.539  29.940  1.00  0.00     0.064 A 
ATOM     62  C   UNL A   1      36.336  32.476  31.133  1.00  0.00     0.173 A 
ATOM     63  C   UNL A   1      36.535  33.165  28.880  1.00  0.00     0.173 A 
ATOM     64  F   UNL A   1      36.889  32.090  32.279  1.00  0.00    -0.203 F 
ATOM     65  C   UNL A   1      34.977  32.859  31.023  1.00  0.00     0.198 A 
ATOM     66  C   UNL A   1      35.243  33.634  28.890  1.00  0.00     0.198 A 
ATOM     67  F   UNL A   1      37.291  33.338  27.800  1.00  0.00    -0.203 F 
ATOM     68  F   UNL A   1      34.151  32.496  31.999  1.00  0.00    -0.200 F 
ATOM     69  C   UNL A   1      34.474  33.551  30.017  1.00  0.00     0.200 A 
ATOM     70  F   UNL A   1      34.735  34.176  27.787  1.00  0.00    -0.200 F 
ATOM     71  F   UNL A   1      33.282  34.136  30.097  1.00  0.00    -0.200 F 
ENDBRANCH  41  61
BRANCH  44  72
ATOM     72  C   UNL A   1      46.452  29.476  29.093  1.00  0.00     0.064 A 
ATOM     73  C   UNL A   1      47.120  29.541  27.881  1.00  0.00     0.173 A 
ATOM     74  C   UNL A   1      46.978  28.842  30.135  1.00  0.00     0.173 A 
ATOM     75  F   UNL A   1      46.762  30.365  26.901  1.00  0.00    -0.203 F 
ATOM     76  C   UNL A   1      48.216  28.653  27.781  1.00  0.00     0.198 A 
ATOM     77  C   UNL A   1      48.128  28.102  29.996  1.00  0.00     0.198 A 
ATOM     78  F   UNL A   1      46.386  28.923  31.323  1.00  0.00    -0.203 F 
ATOM     79  F   UNL A   1      48.684  28.383  26.566  1.00  0.00    -0.200 F 
ATOM     80  C   UNL A   1      48.807  28.073  28.810  1.00  0.00     0.200 A 
ATOM     81  F   UNL A   1      48.586  27.403  31.031  1.00  0.00    -0.200 F 
ATOM     82  F   UNL A   1      49.999  27.494  28.699  1.00  0.00    -0.200 F 
ENDBRANCH  44  72
BRANCH  59  83
ATOM     83  C   UNL A   1      43.324  35.461  31.018  1.00  0.00     0.064 A 
ATOM     84  C   UNL A   1      43.500  36.395  30.009  1.00  0.00     0.173 A 
ATOM     85  C   UNL A   1      43.484  35.788  32.295  1.00  0.00     0.173 A 
ATOM     86  F   UNL A   1      43.112  36.190  28.755  1.00  0.00    -0.203 F 
ATOM     87  C   UNL A   1      44.134  37.586  30.435  1.00  0.00     0.198 A 
ATOM     88  C   UNL A   1      43.980  37.021  32.644  1.00  0.00     0.198 A 
ATOM     89  F   UNL A   1      43.162  34.914  33.243  1.00  0.00    -0.203 F 
ATOM     90  F   UNL A   1      44.664  38.372  29.504  1.00  0.00    -0.200 F 
ATOM     91  C   UNL A   1      44.233  37.972  31.695  1.00  0.00     0.200 A 
ATOM     92  F   UNL A   1      44.217  37.293  33.925  1.00  0.00    -0.200 F 
ATOM     93  F   UNL A   1      44.563  39.218  32.022  1.00  0.00    -0.200 F 
ENDBRANCH  59  83
ENDBRANCH  24  27
ENDBRANCH  15  17
ENDBRANCH  10  13
ENDBRANCH   7  10
ENDBRANCH   4   7
ENDBRANCH   1   4
BRANCH   1  94
ATOM     94  C   UNL A   1      32.986  22.635  23.595  1.00  0.00    -0.036 C 
ATOM     95  H   UNL A   1      33.016  22.626  24.665  1.00  0.00     0.028 H 
ATOM     96  H   UNL A   1      32.657  21.681  23.240  1.00  0.00     0.028 H 
BRANCH  94  97
ATOM     97  C   UNL A   1      32.022  23.713  23.126  1.00  0.00     0.018 C 
ATOM     98  H   UNL A   1      31.810  24.381  23.935  1.00  0.00     0.049 H 
ATOM     99  H   UNL A   1      31.113  23.257  22.792  1.00  0.00     0.049 H 
BRANCH  97 100
ATOM    100  N   UNL A   1      32.629  24.464  22.017  1.00  0.00    -0.352 N 
ATOM    101  C   UNL A   1      33.052  25.857  22.217  1.00  0.00     0.253 C 
ATOM    102  H   UNL A   1      32.753  24.032  21.140  1.00  0.00     0.163 HD
ATOM    103  O   UNL A   1      33.577  26.505  21.258  1.00  0.00    -0.269 OA
BRANCH 101 104
ATOM    104  C   UNL A   1      32.861  26.522  23.570  1.00  0.00     0.063 A 
ATOM    105  C   UNL A   1      33.926  26.579  24.455  1.00  0.00    -0.047 A 
ATOM    106  C   UNL A   1      31.678  27.036  23.882  1.00  0.00     0.051 A 
ATOM    107  C   UNL A   1      33.558  26.949  25.770  1.00  0.00    -0.061 A 
ATOM    108  H   UNL A   1      34.898  26.371  24.179  1.00  0.00     0.063 H 
ATOM    109  C   UNL A   1      31.430  27.504  25.151  1.00  0.00    -0.038 A 
ATOM    110  C   UNL A   1      32.420  27.536  26.094  1.00  0.00    -0.060 A 
ATOM    111  H   UNL A   1      34.226  26.745  26.530  1.00  0.00     0.062 H 
ATOM    112  H   UNL A   1      30.485  27.836  25.395  1.00  0.00     0.064 H 
ATOM    113  H   UNL A   1      32.285  27.993  27.008  1.00  0.00     0.062 H 
BRANCH 106 114
ATOM    114  N   UNL A   1      30.622  27.107  22.862  1.00  0.00    -0.355 N 
ATOM    115  H   UNL A   1      30.701  26.579  22.035  1.00  0.00     0.167 HD
BRANCH 114 116
ATOM    116  C   UNL A   1      29.448  27.964  23.076  1.00  0.00     0.040 A 
ATOM    117  C   UNL A   1      28.248  27.379  23.443  1.00  0.00    -0.039 A 
ATOM    118  C   UNL A   1      29.563  29.282  22.955  1.00  0.00    -0.016 A 
ATOM    119  C   UNL A   1      27.138  28.256  23.379  1.00  0.00    -0.059 A 
ATOM    120  H   UNL A   1      28.169  26.393  23.735  1.00  0.00     0.064 H 
ATOM    121  C   UNL A   1      28.455  30.092  23.039  1.00  0.00     0.109 A 
ATOM    122  H   UNL A   1      30.492  29.702  22.796  1.00  0.00     0.066 H 
ATOM    123  C   UNL A   1      27.227  29.573  23.339  1.00  0.00    -0.039 A 
ATOM    124  H   UNL A   1      26.195  27.837  23.362  1.00  0.00     0.062 H 
ATOM    125  H   UNL A   1      26.411  30.177  23.525  1.00  0.00     0.064 H 
BRANCH 121 126
ATOM    126  S   UNL A   1      28.626  31.870  22.748  1.00  0.00     0.310 S 
ATOM    127  F   UNL A   1      27.214  32.185  23.399  1.00  0.00    -0.094 F 
ATOM    128  F   UNL A   1      27.879  31.714  21.370  1.00  0.00    -0.094 F 
ATOM    129  F   UNL A   1      28.793  33.399  22.518  1.00  0.00    -0.094 F 
ATOM    130  F   UNL A   1      29.245  32.029  24.193  1.00  0.00    -0.094 F 
ATOM    131  F   UNL A   1      28.363  30.340  23.046  1.00  0.00    -0.094 F 
ENDBRANCH 121 126
ENDBRANCH 114 116
ENDBRANCH 106 114
ENDBRANCH 101 104
ENDBRANCH  97 100
ENDBRANCH  94  97
ENDBRANCH   1  94
TORSDOF 16
ENDMDL
MODEL 8
REMARK VINA RESULT:     -13.0      3.168      4.174
REMARK SMILES O=C(NCCCCCCNC(=O)c1ccccc1Nc1cccc(S(F)(F)(F)(F)F)c1)c1ccc(-c2c3nc(c(-c4c(F)c(F)c(F)c(F)c4F)c4ccc([nH]4)c(-c4c(F)c(F)c(F)c(F)c4F)c4nc(c(-c5c(F)c(F)c(F)c(F)c5F)c5ccc2[nH]5)C=C4)C=C3)cc1
REMARK SMILES IDX 7 1 6 4 5 7 4 10 3 13 1 14 2 15 32 17 33 18 94 19 34 20
REMARK SMILES IDX 93 22 35 24 36 27 37 28 87 29 38 30 92 31 86 32 88 33 39 34
REMARK SMILES IDX 91 35 85 37 84 39 40 41 72 44 52 45 71 46 53 47 56 48 70 49
REMARK SMILES IDX 89 50 54 51 55 53 69 55 90 56 57 59 41 61 42 62 50 63 43 64
REMARK SMILES IDX 44 65 48 66 51 67 45 68 46 69 49 70 47 71 73 72 74 73 82 74
REMARK SMILES IDX 75 75 76 76 80 77 83 78 77 79 78 80 81 81 79 82 58 83 59 84
REMARK SMILES IDX 67 85 60 86 61 87 65 88 68 89 62 90 63 91 66 92 64 93 8 94
REMARK SMILES IDX 9 97 10 100 11 101 12 103 13 104 14 105 18 106 15 107 17 109
REMARK SMILES IDX 16 110 19 114 20 116 21 117 31 118 22 119 24 121 23 123
REMARK SMILES IDX 25 126 26 127 27 128 28 129 29 130 30 131
REMARK H PARENT 7 2 7 3 6 5 6 6 5 8 5 9 4 11 4 12 3 16 33 21 94 23 34 25 93 26
REMARK H PARENT 92 36 86 38 88 40 91 42 85 43 53 52 56 54 89 57 54 58 90 60
REMARK H PARENT 8 95 8 96 9 98 9 99 10 102 14 108 15 111 17 112 16 113 19 115
REMARK H PARENT 21 120 31 122 22 124 23 125
REMARK Flexibility Score: inf
ROOT
ATOM      1  C   UNL A   1      33.262  30.286  27.042  1.00  0.00    -0.052 C 
ATOM      2  H   UNL A   1      33.411  30.001  28.063  1.00  0.00     0.027 H 
ATOM      3  H   UNL A   1      33.776  31.203  26.850  1.00  0.00     0.027 H 
ENDROOT
BRANCH   1   4
ATOM      4  C   UNL A   1      31.776  30.473  26.781  1.00  0.00    -0.052 C 
ATOM      5  H   UNL A   1      31.537  30.112  25.803  1.00  0.00     0.027 H 
ATOM      6  H   UNL A   1      31.214  29.927  27.510  1.00  0.00     0.027 H 
BRANCH   4   7
ATOM      7  C   UNL A   1      31.427  31.950  26.876  1.00  0.00    -0.036 C 
ATOM      8  H   UNL A   1      30.834  32.231  26.031  1.00  0.00     0.028 H 
ATOM      9  H   UNL A   1      30.876  32.130  27.775  1.00  0.00     0.028 H 
BRANCH   7  10
ATOM     10  C   UNL A   1      32.706  32.772  26.892  1.00  0.00     0.018 C 
ATOM     11  H   UNL A   1      33.451  32.262  27.467  1.00  0.00     0.049 H 
ATOM     12  H   UNL A   1      33.058  32.903  25.890  1.00  0.00     0.049 H 
BRANCH  10  13
ATOM     13  N   UNL A   1      32.436  34.086  27.493  1.00  0.00    -0.352 N 
ATOM     14  O   UNL A   1      33.045  35.713  29.113  1.00  0.00    -0.269 OA
ATOM     15  C   UNL A   1      33.278  34.577  28.594  1.00  0.00     0.251 C 
ATOM     16  H   UNL A   1      31.693  34.637  27.158  1.00  0.00     0.163 HD
BRANCH  15  17
ATOM     17  C   UNL A   1      34.427  33.726  29.110  1.00  0.00     0.039 A 
ATOM     18  C   UNL A   1      35.692  34.202  28.804  1.00  0.00    -0.049 A 
ATOM     19  C   UNL A   1      34.260  32.655  29.877  1.00  0.00    -0.049 A 
ATOM     20  C   UNL A   1      36.735  33.301  29.123  1.00  0.00    -0.053 A 
ATOM     21  H   UNL A   1      35.858  35.129  28.383  1.00  0.00     0.063 H 
ATOM     22  C   UNL A   1      35.340  31.897  30.263  1.00  0.00    -0.053 A 
ATOM     23  H   UNL A   1      33.312  32.390  30.186  1.00  0.00     0.063 H 
ATOM     24  C   UNL A   1      36.615  32.275  29.946  1.00  0.00    -0.014 A 
ATOM     25  H   UNL A   1      37.655  33.455  28.680  1.00  0.00     0.063 H 
ATOM     26  H   UNL A   1      35.186  31.030  30.801  1.00  0.00     0.063 H 
BRANCH  24  27
ATOM     27  C   UNL A   1      37.828  31.555  30.511  1.00  0.00     0.031 A 
ATOM     28  C   UNL A   1      38.538  30.618  29.758  1.00  0.00     0.074 A 
ATOM     29  C   UNL A   1      38.090  31.838  31.840  1.00  0.00     0.049 A 
ATOM     30  N   UNL A   1      39.577  29.879  30.149  1.00  0.00    -0.248 NA
ATOM     31  C   UNL A   1      38.239  30.291  28.356  1.00  0.00    -0.034 C 
ATOM     32  C   UNL A   1      37.384  32.788  32.604  1.00  0.00    -0.036 A 
ATOM     33  N   UNL A   1      39.050  31.275  32.651  1.00  0.00    -0.354 N 
ATOM     34  C   UNL A   1      40.002  29.111  29.143  1.00  0.00     0.074 A 
ATOM     35  C   UNL A   1      39.144  29.361  27.977  1.00  0.00    -0.034 C 
ATOM     36  H   UNL A   1      37.487  30.692  27.775  1.00  0.00     0.065 H 
ATOM     37  C   UNL A   1      37.903  32.788  33.860  1.00  0.00    -0.036 A 
ATOM     38  H   UNL A   1      36.608  33.380  32.269  1.00  0.00     0.065 H 
ATOM     39  C   UNL A   1      38.943  31.840  33.902  1.00  0.00     0.049 A 
ATOM     40  H   UNL A   1      39.701  30.587  32.383  1.00  0.00     0.167 HD
ATOM     41  C   UNL A   1      41.072  28.215  29.152  1.00  0.00     0.037 A 
ATOM     42  H   UNL A   1      39.217  28.914  27.050  1.00  0.00     0.065 H 
ATOM     43  H   UNL A   1      37.589  33.381  34.645  1.00  0.00     0.065 H 
ATOM     44  C   UNL A   1      39.697  31.557  35.029  1.00  0.00     0.037 A 
ATOM     45  C   UNL A   1      41.854  27.964  30.268  1.00  0.00     0.049 A 
ATOM     46  C   UNL A   1      40.731  30.617  35.055  1.00  0.00     0.074 A 
ATOM     47  C   UNL A   1      42.941  27.069  30.291  1.00  0.00    -0.036 A 
ATOM     48  N   UNL A   1      41.730  28.512  31.525  1.00  0.00    -0.354 N 
ATOM     49  N   UNL A   1      41.180  29.880  34.038  1.00  0.00    -0.248 NA
ATOM     50  C   UNL A   1      41.515  30.286  36.251  1.00  0.00    -0.034 C 
ATOM     51  C   UNL A   1      43.461  27.070  31.548  1.00  0.00    -0.036 A 
ATOM     52  H   UNL A   1      43.284  26.511  29.494  1.00  0.00     0.065 H 
ATOM     53  C   UNL A   1      42.705  27.965  32.331  1.00  0.00     0.049 A 
ATOM     54  H   UNL A   1      41.061  29.178  31.802  1.00  0.00     0.167 HD
ATOM     55  C   UNL A   1      42.193  29.110  34.442  1.00  0.00     0.074 A 
ATOM     56  C   UNL A   1      42.418  29.355  35.873  1.00  0.00    -0.034 C 
ATOM     57  H   UNL A   1      41.400  30.687  37.196  1.00  0.00     0.065 H 
ATOM     58  H   UNL A   1      44.267  26.512  31.872  1.00  0.00     0.065 H 
ATOM     59  C   UNL A   1      42.940  28.216  33.673  1.00  0.00     0.037 A 
ATOM     60  H   UNL A   1      43.127  28.904  36.472  1.00  0.00     0.065 H 
BRANCH  41  61
ATOM     61  C   UNL A   1      41.396  27.474  27.865  1.00  0.00     0.064 A 
ATOM     62  C   UNL A   1      42.282  27.962  26.920  1.00  0.00     0.173 A 
ATOM     63  C   UNL A   1      40.890  26.249  27.769  1.00  0.00     0.173 A 
ATOM     64  F   UNL A   1      43.003  29.064  27.101  1.00  0.00    -0.203 F 
ATOM     65  C   UNL A   1      42.351  27.181  25.741  1.00  0.00     0.198 A 
ATOM     66  C   UNL A   1      41.110  25.488  26.646  1.00  0.00     0.198 A 
ATOM     67  F   UNL A   1      40.164  25.757  28.767  1.00  0.00    -0.203 F 
ATOM     68  F   UNL A   1      42.878  27.741  24.657  1.00  0.00    -0.200 F 
ATOM     69  C   UNL A   1      41.927  25.934  25.644  1.00  0.00     0.200 A 
ATOM     70  F   UNL A   1      40.519  24.303  26.532  1.00  0.00    -0.200 F 
ATOM     71  F   UNL A   1      42.277  25.153  24.626  1.00  0.00    -0.200 F 
ENDBRANCH  41  61
BRANCH  44  72
ATOM     72  C   UNL A   1      39.383  32.311  36.311  1.00  0.00     0.064 A 
ATOM     73  C   UNL A   1      38.316  31.935  37.112  1.00  0.00     0.173 A 
ATOM     74  C   UNL A   1      40.059  33.430  36.545  1.00  0.00     0.173 A 
ATOM     75  F   UNL A   1      37.778  30.720  37.078  1.00  0.00    -0.203 F 
ATOM     76  C   UNL A   1      37.853  32.961  37.969  1.00  0.00     0.198 A 
ATOM     77  C   UNL A   1      39.623  34.325  37.493  1.00  0.00     0.198 A 
ATOM     78  F   UNL A   1      41.166  33.688  35.855  1.00  0.00    -0.203 F 
ATOM     79  F   UNL A   1      36.640  32.825  38.497  1.00  0.00    -0.200 F 
ATOM     80  C   UNL A   1      38.540  34.046  38.279  1.00  0.00     0.200 A 
ATOM     81  F   UNL A   1      40.264  35.480  37.646  1.00  0.00    -0.200 F 
ATOM     82  F   UNL A   1      38.198  34.822  39.303  1.00  0.00    -0.200 F 
ENDBRANCH  44  72
BRANCH  59  83
ATOM     83  C   UNL A   1      44.081  27.474  34.350  1.00  0.00     0.064 A 
ATOM     84  C   UNL A   1      43.728  26.263  34.923  1.00  0.00     0.173 A 
ATOM     85  C   UNL A   1      45.342  27.890  34.340  1.00  0.00     0.173 A 
ATOM     86  F   UNL A   1      42.543  25.691  34.738  1.00  0.00    -0.203 F 
ATOM     87  C   UNL A   1      44.744  25.690  35.725  1.00  0.00     0.198 A 
ATOM     88  C   UNL A   1      46.310  27.205  35.034  1.00  0.00     0.198 A 
ATOM     89  F   UNL A   1      45.670  28.980  33.653  1.00  0.00    -0.203 F 
ATOM     90  F   UNL A   1      44.392  24.743  36.587  1.00  0.00    -0.200 F 
ATOM     91  C   UNL A   1      46.019  26.032  35.674  1.00  0.00     0.200 A 
ATOM     92  F   UNL A   1      47.548  27.690  35.085  1.00  0.00    -0.200 F 
ATOM     93  F   UNL A   1      46.970  25.276  36.216  1.00  0.00    -0.200 F 
ENDBRANCH  59  83
ENDBRANCH  24  27
ENDBRANCH  15  17
ENDBRANCH  10  13
ENDBRANCH   7  10
ENDBRANCH   4   7
ENDBRANCH   1   4
BRANCH   1  94
ATOM     94  C   UNL A   1      33.804  29.199  26.128  1.00  0.00    -0.036 C 
ATOM     95  H   UNL A   1      33.700  28.246  26.605  1.00  0.00     0.028 H 
ATOM     96  H   UNL A   1      34.838  29.386  25.926  1.00  0.00     0.028 H 
BRANCH  94  97
ATOM     97  C   UNL A   1      33.023  29.198  24.823  1.00  0.00     0.018 C 
ATOM     98  H   UNL A   1      32.927  30.202  24.464  1.00  0.00     0.049 H 
ATOM     99  H   UNL A   1      32.051  28.783  24.990  1.00  0.00     0.049 H 
BRANCH  97 100
ATOM    100  N   UNL A   1      33.738  28.388  23.826  1.00  0.00    -0.352 N 
ATOM    101  C   UNL A   1      33.286  27.021  23.529  1.00  0.00     0.253 C 
ATOM    102  H   UNL A   1      34.519  28.761  23.357  1.00  0.00     0.163 HD
ATOM    103  O   UNL A   1      33.904  26.321  22.667  1.00  0.00    -0.269 OA
BRANCH 101 104
ATOM    104  C   UNL A   1      32.080  26.446  24.253  1.00  0.00     0.063 A 
ATOM    105  C   UNL A   1      30.812  26.659  23.736  1.00  0.00    -0.047 A 
ATOM    106  C   UNL A   1      32.261  25.748  25.368  1.00  0.00     0.051 A 
ATOM    107  C   UNL A   1      29.766  26.337  24.634  1.00  0.00    -0.061 A 
ATOM    108  H   UNL A   1      30.646  27.021  22.784  1.00  0.00     0.063 H 
ATOM    109  C   UNL A   1      31.186  25.348  26.126  1.00  0.00    -0.038 A 
ATOM    110  C   UNL A   1      29.905  25.578  25.706  1.00  0.00    -0.060 A 
ATOM    111  H   UNL A   1      28.830  26.723  24.437  1.00  0.00     0.062 H 
ATOM    112  H   UNL A   1      31.348  24.868  27.024  1.00  0.00     0.064 H 
ATOM    113  H   UNL A   1      29.092  25.180  26.199  1.00  0.00     0.062 H 
BRANCH 106 114
ATOM    114  N   UNL A   1      33.623  25.400  25.796  1.00  0.00    -0.355 N 
ATOM    115  H   UNL A   1      34.118  25.999  26.400  1.00  0.00     0.167 HD
BRANCH 114 116
ATOM    116  C   UNL A   1      34.247  24.156  25.323  1.00  0.00     0.040 A 
ATOM    117  C   UNL A   1      35.580  24.173  24.948  1.00  0.00    -0.039 A 
ATOM    118  C   UNL A   1      33.540  23.032  25.300  1.00  0.00    -0.016 A 
ATOM    119  C   UNL A   1      36.004  22.999  24.281  1.00  0.00    -0.059 A 
ATOM    120  H   UNL A   1      36.207  24.971  25.136  1.00  0.00     0.064 H 
ATOM    121  C   UNL A   1      34.067  21.884  24.755  1.00  0.00     0.109 A 
ATOM    122  H   UNL A   1      32.586  23.019  25.693  1.00  0.00     0.066 H 
ATOM    123  C   UNL A   1      35.359  21.847  24.310  1.00  0.00    -0.039 A 
ATOM    124  H   UNL A   1      36.878  23.047  23.734  1.00  0.00     0.062 H 
ATOM    125  H   UNL A   1      35.807  20.967  24.012  1.00  0.00     0.064 H 
BRANCH 121 126
ATOM    126  S   UNL A   1      33.037  20.402  24.627  1.00  0.00     0.310 S 
ATOM    127  F   UNL A   1      31.751  21.161  25.164  1.00  0.00    -0.094 F 
ATOM    128  F   UNL A   1      33.367  20.045  26.125  1.00  0.00    -0.094 F 
ATOM    129  F   UNL A   1      32.153  19.130  24.490  1.00  0.00    -0.094 F 
ATOM    130  F   UNL A   1      32.605  20.849  23.175  1.00  0.00    -0.094 F 
ATOM    131  F   UNL A   1      33.839  21.755  24.788  1.00  0.00    -0.094 F 
ENDBRANCH 121 126
ENDBRANCH 114 116
ENDBRANCH 106 114
ENDBRANCH 101 104
ENDBRANCH  97 100
ENDBRANCH  94  97
ENDBRANCH   1  94
TORSDOF 16
ENDMDL
MODEL 9
REMARK VINA RESULT:     -12.9      5.946     11.173
REMARK SMILES O=C(NCCCCCCNC(=O)c1ccccc1Nc1cccc(S(F)(F)(F)(F)F)c1)c1ccc(-c2c3nc(c(-c4c(F)c(F)c(F)c(F)c4F)c4ccc([nH]4)c(-c4c(F)c(F)c(F)c(F)c4F)c4nc(c(-c5c(F)c(F)c(F)c(F)c5F)c5ccc2[nH]5)C=C4)C=C3)cc1
REMARK SMILES IDX 7 1 6 4 5 7 4 10 3 13 1 14 2 15 32 17 33 18 94 19 34 20
REMARK SMILES IDX 93 22 35 24 36 27 37 28 87 29 38 30 92 31 86 32 88 33 39 34
REMARK SMILES IDX 91 35 85 37 84 39 40 41 72 44 52 45 71 46 53 47 56 48 70 49
REMARK SMILES IDX 89 50 54 51 55 53 69 55 90 56 57 59 41 61 42 62 50 63 43 64
REMARK SMILES IDX 44 65 48 66 51 67 45 68 46 69 49 70 47 71 73 72 74 73 82 74
REMARK SMILES IDX 75 75 76 76 80 77 83 78 77 79 78 80 81 81 79 82 58 83 59 84
REMARK SMILES IDX 67 85 60 86 61 87 65 88 68 89 62 90 63 91 66 92 64 93 8 94
REMARK SMILES IDX 9 97 10 100 11 101 12 103 13 104 14 105 18 106 15 107 17 109
REMARK SMILES IDX 16 110 19 114 20 116 21 117 31 118 22 119 24 121 23 123
REMARK SMILES IDX 25 126 26 127 27 128 28 129 29 130 30 131
REMARK H PARENT 7 2 7 3 6 5 6 6 5 8 5 9 4 11 4 12 3 16 33 21 94 23 34 25 93 26
REMARK H PARENT 92 36 86 38 88 40 91 42 85 43 53 52 56 54 89 57 54 58 90 60
REMARK H PARENT 8 95 8 96 9 98 9 99 10 102 14 108 15 111 17 112 16 113 19 115
REMARK H PARENT 21 120 31 122 22 124 23 125
REMARK Flexibility Score: inf
ROOT
ATOM      1  C   UNL A   1      37.474  22.055  25.029  1.00  0.00    -0.052 C 
ATOM      2  H   UNL A   1      38.530  22.113  24.868  1.00  0.00     0.027 H 
ATOM      3  H   UNL A   1      37.261  22.222  26.064  1.00  0.00     0.027 H 
ENDROOT
BRANCH   1   4
ATOM      4  C   UNL A   1      36.975  20.677  24.623  1.00  0.00    -0.052 C 
ATOM      5  H   UNL A   1      36.074  20.453  25.155  1.00  0.00     0.027 H 
ATOM      6  H   UNL A   1      36.782  20.663  23.571  1.00  0.00     0.027 H 
BRANCH   4   7
ATOM      7  C   UNL A   1      38.033  19.638  24.958  1.00  0.00    -0.036 C 
ATOM      8  H   UNL A   1      37.605  18.883  25.584  1.00  0.00     0.028 H 
ATOM      9  H   UNL A   1      38.391  19.190  24.054  1.00  0.00     0.028 H 
BRANCH   7  10
ATOM     10  C   UNL A   1      39.187  20.306  25.686  1.00  0.00     0.018 C 
ATOM     11  H   UNL A   1      39.597  21.080  25.071  1.00  0.00     0.049 H 
ATOM     12  H   UNL A   1      38.833  20.730  26.602  1.00  0.00     0.049 H 
BRANCH  10  13
ATOM     13  N   UNL A   1      40.227  19.308  25.977  1.00  0.00    -0.352 N 
ATOM     14  O   UNL A   1      42.420  18.872  26.780  1.00  0.00    -0.269 OA
ATOM     15  C   UNL A   1      41.521  19.734  26.528  1.00  0.00     0.251 C 
ATOM     16  H   UNL A   1      40.056  18.354  25.802  1.00  0.00     0.163 HD
BRANCH  15  17
ATOM     17  C   UNL A   1      41.784  21.207  26.798  1.00  0.00     0.039 A 
ATOM     18  C   UNL A   1      42.116  21.512  28.109  1.00  0.00    -0.049 A 
ATOM     19  C   UNL A   1      41.793  22.137  25.851  1.00  0.00    -0.049 A 
ATOM     20  C   UNL A   1      42.165  22.900  28.379  1.00  0.00    -0.053 A 
ATOM     21  H   UNL A   1      42.310  20.792  28.823  1.00  0.00     0.063 H 
ATOM     22  C   UNL A   1      41.982  23.460  26.172  1.00  0.00    -0.053 A 
ATOM     23  H   UNL A   1      41.657  21.864  24.865  1.00  0.00     0.063 H 
ATOM     24  C   UNL A   1      42.256  23.841  27.456  1.00  0.00    -0.014 A 
ATOM     25  H   UNL A   1      42.128  23.199  29.366  1.00  0.00     0.063 H 
ATOM     26  H   UNL A   1      41.917  24.177  25.432  1.00  0.00     0.063 H 
BRANCH  24  27
ATOM     27  C   UNL A   1      42.644  25.268  27.803  1.00  0.00     0.031 A 
ATOM     28  C   UNL A   1      41.716  26.171  28.326  1.00  0.00     0.074 A 
ATOM     29  C   UNL A   1      43.943  25.603  27.465  1.00  0.00     0.049 A 
ATOM     30  N   UNL A   1      41.909  27.458  28.618  1.00  0.00    -0.248 NA
ATOM     31  C   UNL A   1      40.326  25.826  28.654  1.00  0.00    -0.034 C 
ATOM     32  C   UNL A   1      44.887  24.696  26.945  1.00  0.00    -0.036 A 
ATOM     33  N   UNL A   1      44.552  26.835  27.563  1.00  0.00    -0.354 N 
ATOM     34  C   UNL A   1      40.793  27.991  29.119  1.00  0.00     0.074 A 
ATOM     35  C   UNL A   1      39.756  26.950  29.144  1.00  0.00    -0.034 C 
ATOM     36  H   UNL A   1      39.872  24.907  28.533  1.00  0.00     0.065 H 
ATOM     37  C   UNL A   1      46.044  25.374  26.720  1.00  0.00    -0.036 A 
ATOM     38  H   UNL A   1      44.729  23.692  26.764  1.00  0.00     0.065 H 
ATOM     39  C   UNL A   1      45.843  26.715  27.098  1.00  0.00     0.049 A 
ATOM     40  H   UNL A   1      44.136  27.659  27.905  1.00  0.00     0.167 HD
ATOM     41  C   UNL A   1      40.599  29.301  29.558  1.00  0.00     0.037 A 
ATOM     42  H   UNL A   1      38.783  27.056  29.471  1.00  0.00     0.065 H 
ATOM     43  H   UNL A   1      46.917  24.974  26.340  1.00  0.00     0.065 H 
ATOM     44  C   UNL A   1      46.805  27.707  27.000  1.00  0.00     0.037 A 
ATOM     45  C   UNL A   1      41.575  30.283  29.500  1.00  0.00     0.049 A 
ATOM     46  C   UNL A   1      46.594  29.034  27.385  1.00  0.00     0.074 A 
ATOM     47  C   UNL A   1      41.398  31.606  29.945  1.00  0.00    -0.036 A 
ATOM     48  N   UNL A   1      42.858  30.168  29.013  1.00  0.00    -0.354 N 
ATOM     49  N   UNL A   1      45.490  29.555  27.923  1.00  0.00    -0.248 NA
ATOM     50  C   UNL A   1      47.595  30.100  27.255  1.00  0.00    -0.034 C 
ATOM     51  C   UNL A   1      42.556  32.285  29.722  1.00  0.00    -0.036 A 
ATOM     52  H   UNL A   1      40.540  31.995  30.367  1.00  0.00     0.065 H 
ATOM     53  C   UNL A   1      43.475  31.395  29.131  1.00  0.00     0.049 A 
ATOM     54  H   UNL A   1      43.265  29.352  28.643  1.00  0.00     0.167 HD
ATOM     55  C   UNL A   1      45.671  30.853  28.175  1.00  0.00     0.074 A 
ATOM     56  C   UNL A   1      47.024  31.224  27.743  1.00  0.00    -0.034 C 
ATOM     57  H   UNL A   1      48.547  30.009  26.868  1.00  0.00     0.065 H 
ATOM     58  H   UNL A   1      42.731  33.277  29.944  1.00  0.00     0.065 H 
ATOM     59  C   UNL A   1      44.762  31.741  28.752  1.00  0.00     0.037 A 
ATOM     60  H   UNL A   1      47.456  32.159  27.800  1.00  0.00     0.065 H 
BRANCH  41  61
ATOM     61  C   UNL A   1      39.241  29.671  30.132  1.00  0.00     0.064 A 
ATOM     62  C   UNL A   1      38.170  30.051  29.342  1.00  0.00     0.173 A 
ATOM     63  C   UNL A   1      39.096  29.464  31.436  1.00  0.00     0.173 A 
ATOM     64  F   UNL A   1      38.202  30.023  28.013  1.00  0.00    -0.203 F 
ATOM     65  C   UNL A   1      37.036  30.472  30.077  1.00  0.00     0.198 A 
ATOM     66  C   UNL A   1      37.914  29.771  32.066  1.00  0.00     0.198 A 
ATOM     67  F   UNL A   1      40.105  28.957  32.138  1.00  0.00    -0.203 F 
ATOM     68  F   UNL A   1      36.112  31.182  29.436  1.00  0.00    -0.200 F 
ATOM     69  C   UNL A   1      36.832  30.209  31.355  1.00  0.00     0.200 A 
ATOM     70  F   UNL A   1      37.823  29.641  33.386  1.00  0.00    -0.200 F 
ATOM     71  F   UNL A   1      35.638  30.361  31.919  1.00  0.00    -0.200 F 
ENDBRANCH  41  61
BRANCH  44  72
ATOM     72  C   UNL A   1      48.168  27.332  26.441  1.00  0.00     0.064 A 
ATOM     73  C   UNL A   1      48.391  27.302  25.074  1.00  0.00     0.173 A 
ATOM     74  C   UNL A   1      49.078  26.881  27.297  1.00  0.00     0.173 A 
ATOM     75  F   UNL A   1      47.636  27.963  24.202  1.00  0.00    -0.203 F 
ATOM     76  C   UNL A   1      49.494  26.504  24.691  1.00  0.00     0.198 A 
ATOM     77  C   UNL A   1      50.201  26.229  26.845  1.00  0.00     0.198 A 
ATOM     78  F   UNL A   1      48.901  27.060  28.602  1.00  0.00    -0.203 F 
ATOM     79  F   UNL A   1      49.570  26.123  23.418  1.00  0.00    -0.200 F 
ATOM     80  C   UNL A   1      50.454  26.109  25.508  1.00  0.00     0.200 A 
ATOM     81  F   UNL A   1      51.052  25.706  27.724  1.00  0.00    -0.200 F 
ATOM     82  F   UNL A   1      51.605  25.623  25.053  1.00  0.00    -0.200 F 
ENDBRANCH  44  72
BRANCH  59  83
ATOM     83  C   UNL A   1      45.212  33.175  28.980  1.00  0.00     0.064 A 
ATOM     84  C   UNL A   1      44.936  34.044  27.937  1.00  0.00     0.173 A 
ATOM     85  C   UNL A   1      45.759  33.607  30.110  1.00  0.00     0.173 A 
ATOM     86  F   UNL A   1      44.170  33.714  26.902  1.00  0.00    -0.203 F 
ATOM     87  C   UNL A   1      45.544  35.314  28.073  1.00  0.00     0.198 A 
ATOM     88  C   UNL A   1      46.208  34.901  30.220  1.00  0.00     0.198 A 
ATOM     89  F   UNL A   1      45.872  32.780  31.145  1.00  0.00    -0.203 F 
ATOM     90  F   UNL A   1      45.641  36.074  26.987  1.00  0.00    -0.200 F 
ATOM     91  C   UNL A   1      46.021  35.798  29.205  1.00  0.00     0.200 A 
ATOM     92  F   UNL A   1      46.833  35.286  31.330  1.00  0.00    -0.200 F 
ATOM     93  F   UNL A   1      46.306  37.089  29.351  1.00  0.00    -0.200 F 
ENDBRANCH  59  83
ENDBRANCH  24  27
ENDBRANCH  15  17
ENDBRANCH  10  13
ENDBRANCH   7  10
ENDBRANCH   4   7
ENDBRANCH   1   4
BRANCH   1  94
ATOM     94  C   UNL A   1      36.775  23.114  24.191  1.00  0.00    -0.036 C 
ATOM     95  H   UNL A   1      36.222  22.640  23.406  1.00  0.00     0.028 H 
ATOM     96  H   UNL A   1      37.504  23.771  23.765  1.00  0.00     0.028 H 
BRANCH  94  97
ATOM     97  C   UNL A   1      35.824  23.910  25.070  1.00  0.00     0.018 C 
ATOM     98  H   UNL A   1      34.864  23.965  24.600  1.00  0.00     0.049 H 
ATOM     99  H   UNL A   1      36.210  24.898  25.209  1.00  0.00     0.049 H 
BRANCH  97 100
ATOM    100  N   UNL A   1      35.693  23.246  26.375  1.00  0.00    -0.352 N 
ATOM    101  C   UNL A   1      34.367  23.083  26.987  1.00  0.00     0.253 C 
ATOM    102  H   UNL A   1      36.494  22.911  26.839  1.00  0.00     0.163 HD
ATOM    103  O   UNL A   1      34.255  22.509  28.116  1.00  0.00    -0.269 OA
BRANCH 101 104
ATOM    104  C   UNL A   1      33.131  23.601  26.271  1.00  0.00     0.063 A 
ATOM    105  C   UNL A   1      33.064  24.937  25.911  1.00  0.00    -0.047 A 
ATOM    106  C   UNL A   1      32.136  22.764  26.002  1.00  0.00     0.051 A 
ATOM    107  C   UNL A   1      31.771  25.362  25.523  1.00  0.00    -0.061 A 
ATOM    108  H   UNL A   1      33.882  25.565  25.925  1.00  0.00     0.063 H 
ATOM    109  C   UNL A   1      30.946  23.231  25.496  1.00  0.00    -0.038 A 
ATOM    110  C   UNL A   1      30.789  24.550  25.173  1.00  0.00    -0.060 A 
ATOM    111  H   UNL A   1      31.582  26.376  25.514  1.00  0.00     0.062 H 
ATOM    112  H   UNL A   1      30.160  22.577  25.358  1.00  0.00     0.064 H 
ATOM    113  H   UNL A   1      29.950  24.893  24.682  1.00  0.00     0.062 H 
BRANCH 106 114
ATOM    114  N   UNL A   1      32.308  21.325  26.246  1.00  0.00    -0.355 N 
ATOM    115  H   UNL A   1      32.242  20.970  27.162  1.00  0.00     0.167 HD
BRANCH 114 116
ATOM    116  C   UNL A   1      32.576  20.415  25.123  1.00  0.00     0.040 A 
ATOM    117  C   UNL A   1      32.156  20.774  23.854  1.00  0.00    -0.039 A 
ATOM    118  C   UNL A   1      33.248  19.289  25.333  1.00  0.00    -0.016 A 
ATOM    119  C   UNL A   1      32.241  19.728  22.904  1.00  0.00    -0.059 A 
ATOM    120  H   UNL A   1      31.811  21.718  23.621  1.00  0.00     0.064 H 
ATOM    121  C   UNL A   1      33.410  18.371  24.322  1.00  0.00     0.109 A 
ATOM    122  H   UNL A   1      33.651  19.100  26.264  1.00  0.00     0.066 H 
ATOM    123  C   UNL A   1      32.966  18.635  23.057  1.00  0.00    -0.039 A 
ATOM    124  H   UNL A   1      31.698  19.826  22.032  1.00  0.00     0.062 H 
ATOM    125  H   UNL A   1      33.186  18.014  22.262  1.00  0.00     0.064 H 
BRANCH 121 126
ATOM    126  S   UNL A   1      34.223  16.793  24.672  1.00  0.00     0.310 S 
ATOM    127  F   UNL A   1      34.424  16.472  23.132  1.00  0.00    -0.094 F 
ATOM    128  F   UNL A   1      32.834  16.057  24.574  1.00  0.00    -0.094 F 
ATOM    129  F   UNL A   1      34.944  15.451  24.983  1.00  0.00    -0.094 F 
ATOM    130  F   UNL A   1      35.623  17.524  24.627  1.00  0.00    -0.094 F 
ATOM    131  F   UNL A   1      33.522  18.144  24.246  1.00  0.00    -0.094 F 
ENDBRANCH 121 126
ENDBRANCH 114 116
ENDBRANCH 106 114
ENDBRANCH 101 104
ENDBRANCH  97 100
ENDBRANCH  94  97
ENDBRANCH   1  94
TORSDOF 16
ENDMDL
MODEL 10
REMARK VINA RESULT:     -12.8      5.944     11.186
REMARK SMILES O=C(NCCCCCCNC(=O)c1ccccc1Nc1cccc(S(F)(F)(F)(F)F)c1)c1ccc(-c2c3nc(c(-c4c(F)c(F)c(F)c(F)c4F)c4ccc([nH]4)c(-c4c(F)c(F)c(F)c(F)c4F)c4nc(c(-c5c(F)c(F)c(F)c(F)c5F)c5ccc2[nH]5)C=C4)C=C3)cc1
REMARK SMILES IDX 7 1 6 4 5 7 4 10 3 13 1 14 2 15 32 17 33 18 94 19 34 20
REMARK SMILES IDX 93 22 35 24 36 27 37 28 87 29 38 30 92 31 86 32 88 33 39 34
REMARK SMILES IDX 91 35 85 37 84 39 40 41 72 44 52 45 71 46 53 47 56 48 70 49
REMARK SMILES IDX 89 50 54 51 55 53 69 55 90 56 57 59 41 61 42 62 50 63 43 64
REMARK SMILES IDX 44 65 48 66 51 67 45 68 46 69 49 70 47 71 73 72 74 73 82 74
REMARK SMILES IDX 75 75 76 76 80 77 83 78 77 79 78 80 81 81 79 82 58 83 59 84
REMARK SMILES IDX 67 85 60 86 61 87 65 88 68 89 62 90 63 91 66 92 64 93 8 94
REMARK SMILES IDX 9 97 10 100 11 101 12 103 13 104 14 105 18 106 15 107 17 109
REMARK SMILES IDX 16 110 19 114 20 116 21 117 31 118 22 119 24 121 23 123
REMARK SMILES IDX 25 126 26 127 27 128 28 129 29 130 30 131
REMARK H PARENT 7 2 7 3 6 5 6 6 5 8 5 9 4 11 4 12 3 16 33 21 94 23 34 25 93 26
REMARK H PARENT 92 36 86 38 88 40 91 42 85 43 53 52 56 54 89 57 54 58 90 60
REMARK H PARENT 8 95 8 96 9 98 9 99 10 102 14 108 15 111 17 112 16 113 19 115
REMARK H PARENT 21 120 31 122 22 124 23 125
REMARK Flexibility Score: inf
ROOT
ATOM      1  C   UNL A   1      36.846  22.207  24.252  1.00  0.00    -0.052 C 
ATOM      2  H   UNL A   1      37.799  22.133  23.771  1.00  0.00     0.027 H 
ATOM      3  H   UNL A   1      36.886  22.965  25.005  1.00  0.00     0.027 H 
ENDROOT
BRANCH   1   4
ATOM      4  C   UNL A   1      36.498  20.873  24.894  1.00  0.00    -0.052 C 
ATOM      5  H   UNL A   1      36.202  21.032  25.909  1.00  0.00     0.027 H 
ATOM      6  H   UNL A   1      35.694  20.417  24.354  1.00  0.00     0.027 H 
BRANCH   4   7
ATOM      7  C   UNL A   1      37.713  19.961  24.857  1.00  0.00    -0.036 C 
ATOM      8  H   UNL A   1      37.445  18.995  25.230  1.00  0.00     0.028 H 
ATOM      9  H   UNL A   1      38.061  19.870  23.849  1.00  0.00     0.028 H 
BRANCH   7  10
ATOM     10  C   UNL A   1      38.815  20.550  25.722  1.00  0.00     0.018 C 
ATOM     11  H   UNL A   1      39.238  21.401  25.232  1.00  0.00     0.049 H 
ATOM     12  H   UNL A   1      38.406  20.849  26.665  1.00  0.00     0.049 H 
BRANCH  10  13
ATOM     13  N   UNL A   1      39.860  19.539  25.940  1.00  0.00    -0.352 N 
ATOM     14  O   UNL A   1      42.090  19.073  26.616  1.00  0.00    -0.269 OA
ATOM     15  C   UNL A   1      41.186  19.947  26.429  1.00  0.00     0.251 C 
ATOM     16  H   UNL A   1      39.673  18.590  25.758  1.00  0.00     0.163 HD
BRANCH  15  17
ATOM     17  C   UNL A   1      41.474  21.412  26.710  1.00  0.00     0.039 A 
ATOM     18  C   UNL A   1      41.627  21.733  28.049  1.00  0.00    -0.049 A 
ATOM     19  C   UNL A   1      41.662  22.320  25.758  1.00  0.00    -0.049 A 
ATOM     20  C   UNL A   1      41.701  23.123  28.300  1.00  0.00    -0.053 A 
ATOM     21  H   UNL A   1      41.684  21.022  28.795  1.00  0.00     0.063 H 
ATOM     22  C   UNL A   1      41.864  23.640  26.081  1.00  0.00    -0.053 A 
ATOM     23  H   UNL A   1      41.657  22.030  24.768  1.00  0.00     0.063 H 
ATOM     24  C   UNL A   1      41.967  24.038  27.386  1.00  0.00    -0.014 A 
ATOM     25  H   UNL A   1      41.535  23.446  29.267  1.00  0.00     0.063 H 
ATOM     26  H   UNL A   1      41.939  24.342  25.329  1.00  0.00     0.063 H 
BRANCH  24  27
ATOM     27  C   UNL A   1      42.366  25.455  27.762  1.00  0.00     0.031 A 
ATOM     28  C   UNL A   1      41.458  26.339  28.347  1.00  0.00     0.074 A 
ATOM     29  C   UNL A   1      43.652  25.803  27.385  1.00  0.00     0.049 A 
ATOM     30  N   UNL A   1      41.660  27.617  28.671  1.00  0.00    -0.248 NA
ATOM     31  C   UNL A   1      40.081  25.981  28.716  1.00  0.00    -0.034 C 
ATOM     32  C   UNL A   1      44.576  24.915  26.802  1.00  0.00    -0.036 A 
ATOM     33  N   UNL A   1      44.262  27.033  27.498  1.00  0.00    -0.354 N 
ATOM     34  C   UNL A   1      40.563  28.131  29.230  1.00  0.00     0.074 A 
ATOM     35  C   UNL A   1      39.529  27.088  29.262  1.00  0.00    -0.034 C 
ATOM     36  H   UNL A   1      39.625  25.065  28.585  1.00  0.00     0.065 H 
ATOM     37  C   UNL A   1      45.723  25.602  26.555  1.00  0.00    -0.036 A 
ATOM     38  H   UNL A   1      44.413  23.917  26.597  1.00  0.00     0.065 H 
ATOM     39  C   UNL A   1      45.535  26.930  26.982  1.00  0.00     0.049 A 
ATOM     40  H   UNL A   1      43.858  27.845  27.881  1.00  0.00     0.167 HD
ATOM     41  C   UNL A   1      40.384  29.426  29.717  1.00  0.00     0.037 A 
ATOM     42  H   UNL A   1      38.569  27.181  29.628  1.00  0.00     0.065 H 
ATOM     43  H   UNL A   1      46.581  25.216  26.131  1.00  0.00     0.065 H 
ATOM     44  C   UNL A   1      46.491  27.927  26.878  1.00  0.00     0.037 A 
ATOM     45  C   UNL A   1      41.357  30.412  29.652  1.00  0.00     0.049 A 
ATOM     46  C   UNL A   1      46.293  29.241  27.311  1.00  0.00     0.074 A 
ATOM     47  C   UNL A   1      41.195  31.721  30.144  1.00  0.00    -0.036 A 
ATOM     48  N   UNL A   1      42.620  30.316  29.113  1.00  0.00    -0.354 N 
ATOM     49  N   UNL A   1      45.210  29.742  27.906  1.00  0.00    -0.248 NA
ATOM     50  C   UNL A   1      47.287  30.313  27.177  1.00  0.00    -0.034 C 
ATOM     51  C   UNL A   1      42.342  32.409  29.898  1.00  0.00    -0.036 A 
ATOM     52  H   UNL A   1      40.353  32.094  30.610  1.00  0.00     0.065 H 
ATOM     53  C   UNL A   1      43.239  31.540  29.247  1.00  0.00     0.049 A 
ATOM     54  H   UNL A   1      43.014  29.512  28.704  1.00  0.00     0.167 HD
ATOM     55  C   UNL A   1      45.398  31.032  28.192  1.00  0.00     0.074 A 
ATOM     56  C   UNL A   1      46.734  31.420  27.721  1.00  0.00    -0.034 C 
ATOM     57  H   UNL A   1      48.224  30.236  26.751  1.00  0.00     0.065 H 
ATOM     58  H   UNL A   1      42.524  33.394  30.145  1.00  0.00     0.065 H 
ATOM     59  C   UNL A   1      44.510  31.900  28.830  1.00  0.00     0.037 A 
ATOM     60  H   UNL A   1      47.167  32.354  27.791  1.00  0.00     0.065 H 
BRANCH  41  61
ATOM     61  C   UNL A   1      39.049  29.776  30.352  1.00  0.00     0.064 A 
ATOM     62  C   UNL A   1      38.819  29.687  31.715  1.00  0.00     0.173 A 
ATOM     63  C   UNL A   1      38.152  30.319  29.536  1.00  0.00     0.173 A 
ATOM     64  F   UNL A   1      39.771  29.391  32.594  1.00  0.00    -0.203 F 
ATOM     65  C   UNL A   1      37.477  29.939  32.087  1.00  0.00     0.198 A 
ATOM     66  C   UNL A   1      36.906  30.667  29.998  1.00  0.00     0.198 A 
ATOM     67  F   UNL A   1      38.464  30.526  28.261  1.00  0.00    -0.203 F 
ATOM     68  F   UNL A   1      37.082  29.532  33.291  1.00  0.00    -0.200 F 
ATOM     69  C   UNL A   1      36.589  30.549  31.323  1.00  0.00     0.200 A 
ATOM     70  F   UNL A   1      35.995  31.124  29.144  1.00  0.00    -0.200 F 
ATOM     71  F   UNL A   1      35.449  31.024  31.816  1.00  0.00    -0.200 F 
ENDBRANCH  41  61
BRANCH  44  72
ATOM     72  C   UNL A   1      47.833  27.573  26.257  1.00  0.00     0.064 A 
ATOM     73  C   UNL A   1      47.976  27.480  24.882  1.00  0.00     0.173 A 
ATOM     74  C   UNL A   1      48.808  27.199  27.078  1.00  0.00     0.173 A 
ATOM     75  F   UNL A   1      47.146  28.068  24.026  1.00  0.00    -0.203 F 
ATOM     76  C   UNL A   1      49.085  26.703  24.472  1.00  0.00     0.198 A 
ATOM     77  C   UNL A   1      49.927  26.565  26.591  1.00  0.00     0.198 A 
ATOM     78  F   UNL A   1      48.701  27.439  28.381  1.00  0.00    -0.203 F 
ATOM     79  F   UNL A   1      49.100  26.261  23.218  1.00  0.00    -0.200 F 
ATOM     80  C   UNL A   1      50.105  26.386  25.248  1.00  0.00     0.200 A 
ATOM     81  F   UNL A   1      50.847  26.118  27.441  1.00  0.00    -0.200 F 
ATOM     82  F   UNL A   1      51.246  25.918  24.749  1.00  0.00    -0.200 F 
ENDBRANCH  44  72
BRANCH  59  83
ATOM     83  C   UNL A   1      44.968  33.327  29.085  1.00  0.00     0.064 A 
ATOM     84  C   UNL A   1      45.635  33.519  30.284  1.00  0.00     0.173 A 
ATOM     85  C   UNL A   1      44.822  34.317  28.212  1.00  0.00     0.173 A 
ATOM     86  F   UNL A   1      46.024  32.517  31.066  1.00  0.00    -0.203 F 
ATOM     87  C   UNL A   1      45.866  34.879  30.601  1.00  0.00     0.198 A 
ATOM     88  C   UNL A   1      45.195  35.599  28.538  1.00  0.00     0.198 A 
ATOM     89  F   UNL A   1      44.312  34.065  27.010  1.00  0.00    -0.203 F 
ATOM     90  F   UNL A   1      46.163  35.179  31.861  1.00  0.00    -0.200 F 
ATOM     91  C   UNL A   1      45.807  35.871  29.731  1.00  0.00     0.200 A 
ATOM     92  F   UNL A   1      44.957  36.589  27.682  1.00  0.00    -0.200 F 
ATOM     93  F   UNL A   1      46.314  37.070  29.999  1.00  0.00    -0.200 F 
ENDBRANCH  59  83
ENDBRANCH  24  27
ENDBRANCH  15  17
ENDBRANCH  10  13
ENDBRANCH   7  10
ENDBRANCH   4   7
ENDBRANCH   1   4
BRANCH   1  94
ATOM     94  C   UNL A   1      35.786  22.568  23.224  1.00  0.00    -0.036 C 
ATOM     95  H   UNL A   1      34.997  21.845  23.257  1.00  0.00     0.028 H 
ATOM     96  H   UNL A   1      36.223  22.573  22.248  1.00  0.00     0.028 H 
BRANCH  94  97
ATOM     97  C   UNL A   1      35.224  23.945  23.537  1.00  0.00     0.018 C 
ATOM     98  H   UNL A   1      35.755  24.684  22.974  1.00  0.00     0.049 H 
ATOM     99  H   UNL A   1      35.333  24.146  24.583  1.00  0.00     0.049 H 
BRANCH  97 100
ATOM    100  N   UNL A   1      33.799  23.985  23.177  1.00  0.00    -0.352 N 
ATOM    101  C   UNL A   1      32.791  23.454  24.105  1.00  0.00     0.253 C 
ATOM    102  H   UNL A   1      33.521  24.368  22.314  1.00  0.00     0.163 HD
ATOM    103  O   UNL A   1      31.559  23.490  23.793  1.00  0.00    -0.269 OA
BRANCH 101 104
ATOM    104  C   UNL A   1      33.221  22.864  25.437  1.00  0.00     0.063 A 
ATOM    105  C   UNL A   1      33.967  23.636  26.313  1.00  0.00    -0.047 A 
ATOM    106  C   UNL A   1      32.875  21.618  25.740  1.00  0.00     0.051 A 
ATOM    107  C   UNL A   1      34.550  22.899  27.372  1.00  0.00    -0.061 A 
ATOM    108  H   UNL A   1      34.086  24.655  26.203  1.00  0.00     0.063 H 
ATOM    109  C   UNL A   1      33.376  21.005  26.864  1.00  0.00    -0.038 A 
ATOM    110  C   UNL A   1      34.168  21.690  27.743  1.00  0.00    -0.060 A 
ATOM    111  H   UNL A   1      35.329  23.337  27.889  1.00  0.00     0.062 H 
ATOM    112  H   UNL A   1      33.152  20.016  27.046  1.00  0.00     0.064 H 
ATOM    113  H   UNL A   1      34.452  21.285  28.648  1.00  0.00     0.062 H 
BRANCH 106 114
ATOM    114  N   UNL A   1      31.947  20.887  24.866  1.00  0.00    -0.355 N 
ATOM    115  H   UNL A   1      30.998  21.145  24.830  1.00  0.00     0.167 HD
BRANCH 114 116
ATOM    116  C   UNL A   1      32.436  19.772  24.043  1.00  0.00     0.040 A 
ATOM    117  C   UNL A   1      32.144  19.758  22.690  1.00  0.00    -0.039 A 
ATOM    118  C   UNL A   1      33.178  18.820  24.597  1.00  0.00    -0.016 A 
ATOM    119  C   UNL A   1      32.443  18.531  22.050  1.00  0.00    -0.059 A 
ATOM    120  H   UNL A   1      31.744  20.568  22.192  1.00  0.00     0.064 H 
ATOM    121  C   UNL A   1      33.549  17.711  23.874  1.00  0.00     0.109 A 
ATOM    122  H   UNL A   1      33.479  18.913  25.580  1.00  0.00     0.066 H 
ATOM    123  C   UNL A   1      33.243  17.604  22.546  1.00  0.00    -0.039 A 
ATOM    124  H   UNL A   1      32.006  18.347  21.134  1.00  0.00     0.062 H 
ATOM    125  H   UNL A   1      33.617  16.840  21.961  1.00  0.00     0.064 H 
BRANCH 121 126
ATOM    126  S   UNL A   1      34.456  16.376  24.691  1.00  0.00     0.310 S 
ATOM    127  F   UNL A   1      33.924  16.793  26.125  1.00  0.00    -0.094 F 
ATOM    128  F   UNL A   1      35.670  17.350  24.933  1.00  0.00    -0.094 F 
ATOM    129  F   UNL A   1      35.219  15.209  25.381  1.00  0.00    -0.094 F 
ATOM    130  F   UNL A   1      33.179  15.455  24.565  1.00  0.00    -0.094 F 
ATOM    131  F   UNL A   1      33.628  17.580  24.090  1.00  0.00    -0.094 F 
ENDBRANCH 121 126
ENDBRANCH 114 116
ENDBRANCH 106 114
ENDBRANCH 101 104
ENDBRANCH  97 100
ENDBRANCH  94  97
ENDBRANCH   1  94
TORSDOF 16
ENDMDL
