MODEL 1
REMARK VINA RESULT:     -12.1      0.000      0.000
REMARK SMILES C[C@H]1[C@H](C)CC[C@@]2(C(=O)NCCCCCCNC(=O)c3ccc(-c4c5nc(c(-c6c(F)c(F)c(F)c(F)c6F)c6ccc([nH]6)c(-c6c(F)c(F)c(F)c(F)c6F)c6nc(c(-c7c(F)c(F)c(F)c(F)c7F)c7ccc4[nH]7)C=C6)C=C5)cc3)CC[C@@]3(C)C(=CC[C@@H]4[C@@]5(C)CC[C@H](O)C(C)(C)[C@@H]5CC[C@]43C)[C@H]12
REMARK SMILES IDX 14 1 13 4 12 7 11 10 10 13 8 14 9 15 7 17 2 18 3 19 105 20
REMARK SMILES IDX 5 22 87 24 6 26 83 29 85 30 88 31 84 34 103 37 89 38 90 42
REMARK SMILES IDX 102 43 91 46 101 48 93 51 100 52 94 55 97 58 95 60 1 64 4 68
REMARK SMILES IDX 86 72 104 76 92 80 98 84 99 88 96 92 15 94 16 97 17 100
REMARK SMILES IDX 18 101 19 103 20 104 21 105 82 106 22 107 81 109 23 111
REMARK SMILES IDX 24 114 25 115 75 116 26 117 80 118 74 119 76 120 27 121
REMARK SMILES IDX 79 122 73 124 72 126 28 128 60 131 40 132 59 133 41 134
REMARK SMILES IDX 44 135 58 136 77 137 42 138 43 140 57 142 78 143 45 146
REMARK SMILES IDX 29 148 30 149 38 150 31 151 32 152 36 153 39 154 33 155
REMARK SMILES IDX 34 156 37 157 35 158 61 159 62 160 70 161 63 162 64 163
REMARK SMILES IDX 68 164 71 165 65 166 66 167 69 168 67 169 46 170 47 171
REMARK SMILES IDX 55 172 48 173 49 174 53 175 56 176 50 177 51 178 54 179
REMARK SMILES IDX 52 180
REMARK H PARENT 14 2 14 3 13 5 13 6 12 8 12 9 11 11 11 12 10 16 2 21 3 23
REMARK H PARENT 105 25 5 27 5 28 6 32 6 33 83 35 83 36 88 39 84 40 84 41 89 44
REMARK H PARENT 89 45 90 47 102 49 102 50 101 53 101 54 93 56 93 57 100 59
REMARK H PARENT 94 61 94 62 95 63 1 65 1 66 1 67 4 69 4 70 4 71 86 73 86 74
REMARK H PARENT 86 75 104 77 104 78 104 79 92 81 92 82 92 83 98 85 98 86 98 87
REMARK H PARENT 99 89 99 90 99 91 96 93 15 95 15 96 16 98 16 99 17 102 21 108
REMARK H PARENT 82 110 22 112 81 113 80 123 74 125 76 127 79 129 73 130 41 139
REMARK H PARENT 44 141 77 144 42 145 78 147
REMARK Flexibility Score: inf
ROOT
ATOM      1  C   UNL A   1      39.336  22.146  26.451  1.00  0.00    -0.052 C 
ATOM      2  H   UNL A   1      38.672  21.889  27.248  1.00  0.00     0.027 H 
ATOM      3  H   UNL A   1      40.312  22.482  26.739  1.00  0.00     0.027 H 
ENDROOT
BRANCH   1   4
ATOM      4  C   UNL A   1      38.726  23.350  25.724  1.00  0.00    -0.052 C 
ATOM      5  H   UNL A   1      39.537  23.994  25.455  1.00  0.00     0.027 H 
ATOM      6  H   UNL A   1      38.171  22.902  24.925  1.00  0.00     0.027 H 
BRANCH   4   7
ATOM      7  C   UNL A   1      37.681  24.222  26.437  1.00  0.00    -0.036 C 
ATOM      8  H   UNL A   1      37.834  24.100  27.490  1.00  0.00     0.028 H 
ATOM      9  H   UNL A   1      37.850  25.202  26.044  1.00  0.00     0.028 H 
BRANCH   7  10
ATOM     10  C   UNL A   1      36.195  23.964  26.166  1.00  0.00     0.017 C 
ATOM     11  H   UNL A   1      35.637  24.781  26.574  1.00  0.00     0.049 H 
ATOM     12  H   UNL A   1      36.097  23.869  25.105  1.00  0.00     0.049 H 
BRANCH  10  13
ATOM     13  N   UNL A   1      35.672  22.734  26.733  1.00  0.00    -0.356 N 
ATOM     14  C   UNL A   1      34.917  21.736  26.169  1.00  0.00     0.226 C 
ATOM     15  O   UNL A   1      34.032  21.295  26.914  1.00  0.00    -0.274 OA
ATOM     16  H   UNL A   1      35.897  22.591  27.681  1.00  0.00     0.163 HD
BRANCH  14  17
ATOM     17  C   UNL A   1      35.157  21.104  24.742  1.00  0.00     0.056 C 
ATOM     18  C   UNL A   1      33.410  19.195  24.666  1.00  0.00    -0.034 C 
ATOM     19  C   UNL A   1      34.567  18.160  24.465  1.00  0.00    -0.041 C 
ATOM     20  C   UNL A   1      33.838  20.581  24.099  1.00  0.00    -0.002 C 
ATOM     21  H   UNL A   1      33.225  19.299  25.715  1.00  0.00     0.031 H 
ATOM     22  C   UNL A   1      35.955  18.626  24.944  1.00  0.00    -0.049 C 
ATOM     23  H   UNL A   1      34.547  18.067  23.399  1.00  0.00     0.030 H 
ATOM     24  C   UNL A   1      32.881  21.796  24.122  1.00  0.00    -0.063 C 
ATOM     25  H   UNL A   1      33.898  20.281  23.073  1.00  0.00     0.036 H 
ATOM     26  C   UNL A   1      36.305  20.084  24.770  1.00  0.00    -0.038 C 
ATOM     27  H   UNL A   1      36.686  18.055  24.411  1.00  0.00     0.027 H 
ATOM     28  H   UNL A   1      35.939  18.477  26.004  1.00  0.00     0.027 H 
ATOM     29  C   UNL A   1      35.689  22.218  23.758  1.00  0.00    -0.037 C 
ATOM     30  C   UNL A   1      33.226  22.941  23.122  1.00  0.00    -0.006 C 
ATOM     31  C   UNL A   1      32.019  21.985  25.144  1.00  0.00    -0.084 C 
ATOM     32  H   UNL A   1      36.833  20.174  23.843  1.00  0.00     0.028 H 
ATOM     33  H   UNL A   1      36.861  20.332  25.650  1.00  0.00     0.028 H 
ATOM     34  C   UNL A   1      34.726  23.332  23.342  1.00  0.00    -0.043 C 
ATOM     35  H   UNL A   1      36.009  21.725  22.863  1.00  0.00     0.028 H 
ATOM     36  H   UNL A   1      36.453  22.720  24.312  1.00  0.00     0.028 H 
ATOM     37  C   UNL A   1      32.275  24.248  23.339  1.00  0.00    -0.020 C 
ATOM     38  C   UNL A   1      31.501  23.339  25.567  1.00  0.00    -0.031 C 
ATOM     39  H   UNL A   1      31.695  21.156  25.667  1.00  0.00     0.058 H 
ATOM     40  H   UNL A   1      35.089  23.745  22.424  1.00  0.00     0.028 H 
ATOM     41  H   UNL A   1      34.714  24.008  24.172  1.00  0.00     0.028 H 
ATOM     42  C   UNL A   1      32.274  24.504  24.890  1.00  0.00    -0.026 C 
ATOM     43  C   UNL A   1      32.783  25.486  22.552  1.00  0.00    -0.046 C 
ATOM     44  H   UNL A   1      31.603  23.429  26.628  1.00  0.00     0.031 H 
ATOM     45  H   UNL A   1      30.478  23.406  25.264  1.00  0.00     0.031 H 
ATOM     46  C   UNL A   1      31.982  25.963  25.439  1.00  0.00    -0.025 C 
ATOM     47  H   UNL A   1      33.299  24.494  25.198  1.00  0.00     0.032 H 
ATOM     48  C   UNL A   1      32.156  26.802  23.015  1.00  0.00    -0.049 C 
ATOM     49  H   UNL A   1      33.844  25.554  22.674  1.00  0.00     0.027 H 
ATOM     50  H   UNL A   1      32.502  25.345  21.528  1.00  0.00     0.027 H 
ATOM     51  C   UNL A   1      32.790  26.150  26.767  1.00  0.00    -0.045 C 
ATOM     52  C   UNL A   1      32.557  27.065  24.470  1.00  0.00    -0.028 C 
ATOM     53  H   UNL A   1      32.505  27.603  22.397  1.00  0.00     0.027 H 
ATOM     54  H   UNL A   1      31.090  26.740  22.941  1.00  0.00     0.027 H 
ATOM     55  C   UNL A   1      32.703  27.557  27.360  1.00  0.00    -0.026 C 
ATOM     56  H   UNL A   1      33.818  25.932  26.569  1.00  0.00     0.027 H 
ATOM     57  H   UNL A   1      32.358  25.485  27.487  1.00  0.00     0.027 H 
ATOM     58  C   UNL A   1      32.396  28.557  24.957  1.00  0.00    -0.006 C 
ATOM     59  H   UNL A   1      33.621  26.956  24.508  1.00  0.00     0.031 H 
ATOM     60  C   UNL A   1      33.050  28.672  26.370  1.00  0.00     0.059 C 
ATOM     61  H   UNL A   1      33.380  27.616  28.185  1.00  0.00     0.029 H 
ATOM     62  H   UNL A   1      31.683  27.707  27.649  1.00  0.00     0.029 H 
ATOM     63  H   UNL A   1      34.097  28.575  26.166  1.00  0.00     0.061 H 
BRANCH  18  64
ATOM     64  C   UNL A   1      32.094  18.708  24.039  1.00  0.00    -0.062 C 
ATOM     65  H   UNL A   1      31.273  19.005  24.657  1.00  0.00     0.023 H 
ATOM     66  H   UNL A   1      32.111  17.641  23.957  1.00  0.00     0.023 H 
ATOM     67  H   UNL A   1      31.982  19.138  23.065  1.00  0.00     0.023 H 
ENDBRANCH  18  64
BRANCH  19  68
ATOM     68  C   UNL A   1      34.346  16.797  25.141  1.00  0.00    -0.062 C 
ATOM     69  H   UNL A   1      33.818  16.149  24.473  1.00  0.00     0.023 H 
ATOM     70  H   UNL A   1      33.774  16.930  26.035  1.00  0.00     0.023 H 
ATOM     71  H   UNL A   1      35.293  16.363  25.385  1.00  0.00     0.023 H 
ENDBRANCH  19  68
BRANCH  30  72
ATOM     72  C   UNL A   1      33.074  22.421  21.667  1.00  0.00    -0.055 C 
ATOM     73  H   UNL A   1      34.018  22.481  21.167  1.00  0.00     0.024 H 
ATOM     74  H   UNL A   1      32.356  23.020  21.148  1.00  0.00     0.024 H 
ATOM     75  H   UNL A   1      32.744  21.404  21.686  1.00  0.00     0.024 H 
ENDBRANCH  30  72
BRANCH  37  76
ATOM     76  C   UNL A   1      30.833  23.983  22.804  1.00  0.00    -0.059 C 
ATOM     77  H   UNL A   1      30.745  22.958  22.509  1.00  0.00     0.024 H 
ATOM     78  H   UNL A   1      30.645  24.615  21.960  1.00  0.00     0.024 H 
ATOM     79  H   UNL A   1      30.122  24.196  23.574  1.00  0.00     0.024 H 
ENDBRANCH  37  76
BRANCH  46  80
ATOM     80  C   UNL A   1      30.482  26.104  25.756  1.00  0.00    -0.059 C 
ATOM     81  H   UNL A   1      29.970  25.214  25.456  1.00  0.00     0.024 H 
ATOM     82  H   UNL A   1      30.083  26.943  25.225  1.00  0.00     0.024 H 
ATOM     83  H   UNL A   1      30.352  26.252  26.808  1.00  0.00     0.024 H 
ENDBRANCH  46  80
BRANCH  58  84
ATOM     84  C   UNL A   1      30.944  29.082  24.931  1.00  0.00    -0.057 C 
ATOM     85  H   UNL A   1      30.952  30.150  25.002  1.00  0.00     0.024 H 
ATOM     86  H   UNL A   1      30.402  28.673  25.757  1.00  0.00     0.024 H 
ATOM     87  H   UNL A   1      30.475  28.788  24.015  1.00  0.00     0.024 H 
ENDBRANCH  58  84
BRANCH  58  88
ATOM     88  C   UNL A   1      33.183  29.519  24.020  1.00  0.00    -0.057 C 
ATOM     89  H   UNL A   1      33.938  30.027  24.583  1.00  0.00     0.024 H 
ATOM     90  H   UNL A   1      32.511  30.236  23.598  1.00  0.00     0.024 H 
ATOM     91  H   UNL A   1      33.643  28.956  23.234  1.00  0.00     0.024 H 
ENDBRANCH  58  88
BRANCH  60  92
ATOM     92  O   UNL A   1      32.757  29.933  26.976  1.00  0.00    -0.393 OA
ATOM     93  H   UNL A   1      31.801  30.090  26.946  1.00  0.00     0.210 HD
ENDBRANCH  60  92
ENDBRANCH  14  17
ENDBRANCH  10  13
ENDBRANCH   7  10
ENDBRANCH   4   7
ENDBRANCH   1   4
BRANCH   1  94
ATOM     94  C   UNL A   1      39.601  20.872  25.654  1.00  0.00    -0.036 C 
ATOM     95  H   UNL A   1      40.447  21.062  25.026  1.00  0.00     0.028 H 
ATOM     96  H   UNL A   1      38.679  20.680  25.145  1.00  0.00     0.028 H 
BRANCH  94  97
ATOM     97  C   UNL A   1      39.885  19.594  26.423  1.00  0.00     0.018 C 
ATOM     98  H   UNL A   1      39.027  18.958  26.346  1.00  0.00     0.049 H 
ATOM     99  H   UNL A   1      40.097  19.883  27.431  1.00  0.00     0.049 H 
BRANCH  97 100
ATOM    100  N   UNL A   1      41.039  18.859  25.950  1.00  0.00    -0.352 N 
ATOM    101  C   UNL A   1      42.349  19.272  25.842  1.00  0.00     0.251 C 
ATOM    102  H   UNL A   1      40.863  17.933  25.664  1.00  0.00     0.163 HD
ATOM    103  O   UNL A   1      43.185  18.531  25.345  1.00  0.00    -0.269 OA
BRANCH 101 104
ATOM    104  C   UNL A   1      42.744  20.631  26.287  1.00  0.00     0.039 A 
ATOM    105  C   UNL A   1      43.164  21.553  25.324  1.00  0.00    -0.049 A 
ATOM    106  C   UNL A   1      42.709  21.003  27.634  1.00  0.00    -0.049 A 
ATOM    107  C   UNL A   1      43.490  22.858  25.702  1.00  0.00    -0.053 A 
ATOM    108  H   UNL A   1      43.232  21.269  24.334  1.00  0.00     0.063 H 
ATOM    109  C   UNL A   1      42.948  22.328  27.998  1.00  0.00    -0.053 A 
ATOM    110  H   UNL A   1      42.506  20.299  28.359  1.00  0.00     0.063 H 
ATOM    111  C   UNL A   1      43.354  23.267  27.038  1.00  0.00    -0.014 A 
ATOM    112  H   UNL A   1      43.835  23.525  24.994  1.00  0.00     0.063 H 
ATOM    113  H   UNL A   1      42.827  22.619  28.981  1.00  0.00     0.063 H 
BRANCH 111 114
ATOM    114  C   UNL A   1      43.650  24.665  27.447  1.00  0.00     0.031 A 
ATOM    115  C   UNL A   1      45.076  25.136  27.548  1.00  0.00     0.074 A 
ATOM    116  C   UNL A   1      42.642  25.498  27.772  1.00  0.00     0.049 A 
ATOM    117  N   UNL A   1      45.541  26.299  27.928  1.00  0.00    -0.248 NA
ATOM    118  C   UNL A   1      46.122  24.160  27.201  1.00  0.00    -0.034 C 
ATOM    119  C   UNL A   1      41.220  25.147  27.759  1.00  0.00    -0.036 A 
ATOM    120  N   UNL A   1      42.655  26.808  28.181  1.00  0.00    -0.354 N 
ATOM    121  C   UNL A   1      46.925  26.189  27.878  1.00  0.00     0.074 A 
ATOM    122  C   UNL A   1      47.226  24.829  27.493  1.00  0.00    -0.034 C 
ATOM    123  H   UNL A   1      46.019  23.203  26.828  1.00  0.00     0.065 H 
ATOM    124  C   UNL A   1      40.499  26.222  28.113  1.00  0.00    -0.036 A 
ATOM    125  H   UNL A   1      40.834  24.221  27.516  1.00  0.00     0.065 H 
ATOM    126  C   UNL A   1      41.405  27.325  28.419  1.00  0.00     0.049 A 
ATOM    127  H   UNL A   1      43.483  27.329  28.292  1.00  0.00     0.167 HD
ATOM    128  C   UNL A   1      47.859  27.144  28.104  1.00  0.00     0.037 A 
ATOM    129  H   UNL A   1      48.178  24.430  27.451  1.00  0.00     0.065 H 
ATOM    130  H   UNL A   1      39.468  26.263  28.160  1.00  0.00     0.065 H 
ATOM    131  C   UNL A   1      41.032  28.548  28.842  1.00  0.00     0.037 A 
ATOM    132  C   UNL A   1      47.553  28.502  28.467  1.00  0.00     0.049 A 
ATOM    133  C   UNL A   1      42.090  29.586  29.104  1.00  0.00     0.074 A 
ATOM    134  C   UNL A   1      48.422  29.560  28.664  1.00  0.00    -0.036 A 
ATOM    135  N   UNL A   1      46.273  28.990  28.691  1.00  0.00    -0.354 N 
ATOM    136  N   UNL A   1      43.392  29.490  28.983  1.00  0.00    -0.248 NA
ATOM    137  C   UNL A   1      41.628  30.906  29.555  1.00  0.00    -0.034 C 
ATOM    138  C   UNL A   1      47.675  30.672  29.065  1.00  0.00    -0.036 A 
ATOM    139  H   UNL A   1      49.447  29.533  28.535  1.00  0.00     0.065 H 
ATOM    140  C   UNL A   1      46.334  30.326  29.054  1.00  0.00     0.049 A 
ATOM    141  H   UNL A   1      45.446  28.464  28.606  1.00  0.00     0.167 HD
ATOM    142  C   UNL A   1      43.901  30.740  29.310  1.00  0.00     0.074 A 
ATOM    143  C   UNL A   1      42.764  31.583  29.619  1.00  0.00    -0.034 C 
ATOM    144  H   UNL A   1      40.668  31.222  29.767  1.00  0.00     0.065 H 
ATOM    145  H   UNL A   1      48.059  31.593  29.326  1.00  0.00     0.065 H 
ATOM    146  C   UNL A   1      45.191  31.154  29.351  1.00  0.00     0.037 A 
ATOM    147  H   UNL A   1      42.832  32.585  29.858  1.00  0.00     0.065 H 
BRANCH 128 148
ATOM    148  C   UNL A   1      49.304  26.750  27.966  1.00  0.00     0.064 A 
ATOM    149  C   UNL A   1      49.938  26.690  26.716  1.00  0.00     0.173 A 
ATOM    150  C   UNL A   1      50.075  26.464  29.104  1.00  0.00     0.173 A 
ATOM    151  F   UNL A   1      49.246  26.944  25.595  1.00  0.00    -0.203 F 
ATOM    152  C   UNL A   1      51.277  26.324  26.606  1.00  0.00     0.198 A 
ATOM    153  C   UNL A   1      51.424  26.133  28.993  1.00  0.00     0.198 A 
ATOM    154  F   UNL A   1      49.524  26.512  30.326  1.00  0.00    -0.203 F 
ATOM    155  F   UNL A   1      51.844  26.217  25.396  1.00  0.00    -0.200 F 
ATOM    156  C   UNL A   1      52.020  26.053  27.744  1.00  0.00     0.200 A 
ATOM    157  F   UNL A   1      52.144  25.886  30.096  1.00  0.00    -0.200 F 
ATOM    158  F   UNL A   1      53.311  25.709  27.637  1.00  0.00    -0.200 F 
ENDBRANCH 128 148
BRANCH 131 159
ATOM    159  C   UNL A   1      39.590  28.867  29.028  1.00  0.00     0.064 A 
ATOM    160  C   UNL A   1      38.805  29.313  27.956  1.00  0.00     0.173 A 
ATOM    161  C   UNL A   1      38.970  28.743  30.281  1.00  0.00     0.173 A 
ATOM    162  F   UNL A   1      39.354  29.467  26.743  1.00  0.00    -0.203 F 
ATOM    163  C   UNL A   1      37.463  29.647  28.134  1.00  0.00     0.198 A 
ATOM    164  C   UNL A   1      37.620  29.045  30.450  1.00  0.00     0.198 A 
ATOM    165  F   UNL A   1      39.673  28.315  31.340  1.00  0.00    -0.203 F 
ATOM    166  F   UNL A   1      36.751  30.122  27.103  1.00  0.00    -0.200 F 
ATOM    167  C   UNL A   1      36.870  29.507  29.378  1.00  0.00     0.200 A 
ATOM    168  F   UNL A   1      37.048  28.893  31.652  1.00  0.00    -0.200 F 
ATOM    169  F   UNL A   1      35.579  29.824  29.549  1.00  0.00    -0.200 F 
ENDBRANCH 131 159
BRANCH 146 170
ATOM    170  C   UNL A   1      45.445  32.591  29.704  1.00  0.00     0.064 A 
ATOM    171  C   UNL A   1      45.695  32.997  31.023  1.00  0.00     0.173 A 
ATOM    172  C   UNL A   1      45.478  33.571  28.699  1.00  0.00     0.173 A 
ATOM    173  F   UNL A   1      45.661  32.102  32.022  1.00  0.00    -0.203 F 
ATOM    174  C   UNL A   1      45.939  34.334  31.328  1.00  0.00     0.198 A 
ATOM    175  C   UNL A   1      45.759  34.901  29.002  1.00  0.00     0.198 A 
ATOM    176  F   UNL A   1      45.255  33.237  27.420  1.00  0.00    -0.203 F 
ATOM    177  F   UNL A   1      46.121  34.706  32.602  1.00  0.00    -0.200 F 
ATOM    178  C   UNL A   1      45.979  35.282  30.317  1.00  0.00     0.200 A 
ATOM    179  F   UNL A   1      45.815  35.813  28.022  1.00  0.00    -0.200 F 
ATOM    180  F   UNL A   1      46.225  36.567  30.611  1.00  0.00    -0.200 F 
ENDBRANCH 146 170
ENDBRANCH 111 114
ENDBRANCH 101 104
ENDBRANCH  97 100
ENDBRANCH  94  97
ENDBRANCH   1  94
TORSDOF 21
ENDMDL
MODEL 2
REMARK VINA RESULT:     -12.0      5.016     10.047
REMARK SMILES C[C@H]1[C@H](C)CC[C@@]2(C(=O)NCCCCCCNC(=O)c3ccc(-c4c5nc(c(-c6c(F)c(F)c(F)c(F)c6F)c6ccc([nH]6)c(-c6c(F)c(F)c(F)c(F)c6F)c6nc(c(-c7c(F)c(F)c(F)c(F)c7F)c7ccc4[nH]7)C=C6)C=C5)cc3)CC[C@@]3(C)C(=CC[C@@H]4[C@@]5(C)CC[C@H](O)C(C)(C)[C@@H]5CC[C@]43C)[C@H]12
REMARK SMILES IDX 14 1 13 4 12 7 11 10 10 13 8 14 9 15 7 17 2 18 3 19 105 20
REMARK SMILES IDX 5 22 87 24 6 26 83 29 85 30 88 31 84 34 103 37 89 38 90 42
REMARK SMILES IDX 102 43 91 46 101 48 93 51 100 52 94 55 97 58 95 60 1 64 4 68
REMARK SMILES IDX 86 72 104 76 92 80 98 84 99 88 96 92 15 94 16 97 17 100
REMARK SMILES IDX 18 101 19 103 20 104 21 105 82 106 22 107 81 109 23 111
REMARK SMILES IDX 24 114 25 115 75 116 26 117 80 118 74 119 76 120 27 121
REMARK SMILES IDX 79 122 73 124 72 126 28 128 60 131 40 132 59 133 41 134
REMARK SMILES IDX 44 135 58 136 77 137 42 138 43 140 57 142 78 143 45 146
REMARK SMILES IDX 29 148 30 149 38 150 31 151 32 152 36 153 39 154 33 155
REMARK SMILES IDX 34 156 37 157 35 158 61 159 62 160 70 161 63 162 64 163
REMARK SMILES IDX 68 164 71 165 65 166 66 167 69 168 67 169 46 170 47 171
REMARK SMILES IDX 55 172 48 173 49 174 53 175 56 176 50 177 51 178 54 179
REMARK SMILES IDX 52 180
REMARK H PARENT 14 2 14 3 13 5 13 6 12 8 12 9 11 11 11 12 10 16 2 21 3 23
REMARK H PARENT 105 25 5 27 5 28 6 32 6 33 83 35 83 36 88 39 84 40 84 41 89 44
REMARK H PARENT 89 45 90 47 102 49 102 50 101 53 101 54 93 56 93 57 100 59
REMARK H PARENT 94 61 94 62 95 63 1 65 1 66 1 67 4 69 4 70 4 71 86 73 86 74
REMARK H PARENT 86 75 104 77 104 78 104 79 92 81 92 82 92 83 98 85 98 86 98 87
REMARK H PARENT 99 89 99 90 99 91 96 93 15 95 15 96 16 98 16 99 17 102 21 108
REMARK H PARENT 82 110 22 112 81 113 80 123 74 125 76 127 79 129 73 130 41 139
REMARK H PARENT 44 141 77 144 42 145 78 147
REMARK Flexibility Score: inf
ROOT
ATOM      1  C   UNL A   1      34.312  31.536  28.365  1.00  0.00    -0.052 C 
ATOM      2  H   UNL A   1      35.055  32.277  28.571  1.00  0.00     0.027 H 
ATOM      3  H   UNL A   1      34.040  30.900  29.182  1.00  0.00     0.027 H 
ENDROOT
BRANCH   1   4
ATOM      4  C   UNL A   1      34.906  30.578  27.326  1.00  0.00    -0.052 C 
ATOM      5  H   UNL A   1      34.467  30.832  26.384  1.00  0.00     0.027 H 
ATOM      6  H   UNL A   1      35.962  30.723  27.429  1.00  0.00     0.027 H 
BRANCH   4   7
ATOM      7  C   UNL A   1      34.736  29.061  27.502  1.00  0.00    -0.036 C 
ATOM      8  H   UNL A   1      35.668  28.680  27.867  1.00  0.00     0.028 H 
ATOM      9  H   UNL A   1      33.896  28.968  28.158  1.00  0.00     0.028 H 
BRANCH   7  10
ATOM     10  C   UNL A   1      34.351  28.215  26.283  1.00  0.00     0.017 C 
ATOM     11  H   UNL A   1      35.188  27.600  26.028  1.00  0.00     0.049 H 
ATOM     12  H   UNL A   1      33.484  27.657  26.569  1.00  0.00     0.049 H 
BRANCH  10  13
ATOM     13  N   UNL A   1      33.974  28.974  25.104  1.00  0.00    -0.356 N 
ATOM     14  C   UNL A   1      32.781  29.047  24.429  1.00  0.00     0.226 C 
ATOM     15  O   UNL A   1      32.904  29.076  23.197  1.00  0.00    -0.274 OA
ATOM     16  H   UNL A   1      34.694  29.529  24.725  1.00  0.00     0.163 HD
BRANCH  14  17
ATOM     17  C   UNL A   1      31.357  29.175  25.099  1.00  0.00     0.056 C 
ATOM     18  C   UNL A   1      29.814  29.633  23.071  1.00  0.00    -0.034 C 
ATOM     19  C   UNL A   1      29.385  30.991  23.720  1.00  0.00    -0.041 C 
ATOM     20  C   UNL A   1      30.223  28.623  24.184  1.00  0.00    -0.002 C 
ATOM     21  H   UNL A   1      30.663  29.810  22.443  1.00  0.00     0.031 H 
ATOM     22  C   UNL A   1      30.374  31.569  24.750  1.00  0.00    -0.049 C 
ATOM     23  H   UNL A   1      28.476  30.688  24.198  1.00  0.00     0.030 H 
ATOM     24  C   UNL A   1      30.659  27.178  23.846  1.00  0.00    -0.063 C 
ATOM     25  H   UNL A   1      29.254  28.535  24.632  1.00  0.00     0.036 H 
ATOM     26  C   UNL A   1      31.116  30.594  25.632  1.00  0.00    -0.038 C 
ATOM     27  H   UNL A   1      29.823  32.225  25.390  1.00  0.00     0.027 H 
ATOM     28  H   UNL A   1      31.137  32.034  24.161  1.00  0.00     0.027 H 
ATOM     29  C   UNL A   1      31.310  28.287  26.403  1.00  0.00    -0.037 C 
ATOM     30  C   UNL A   1      30.569  26.157  25.021  1.00  0.00    -0.006 C 
ATOM     31  C   UNL A   1      31.359  26.906  22.724  1.00  0.00    -0.084 C 
ATOM     32  H   UNL A   1      30.558  30.502  26.541  1.00  0.00     0.028 H 
ATOM     33  H   UNL A   1      32.097  31.013  25.728  1.00  0.00     0.028 H 
ATOM     34  C   UNL A   1      31.339  26.765  26.241  1.00  0.00    -0.043 C 
ATOM     35  H   UNL A   1      30.409  28.533  26.924  1.00  0.00     0.028 H 
ATOM     36  H   UNL A   1      32.222  28.517  26.915  1.00  0.00     0.028 H 
ATOM     37  C   UNL A   1      31.211  24.712  24.625  1.00  0.00    -0.020 C 
ATOM     38  C   UNL A   1      32.302  25.734  22.586  1.00  0.00    -0.031 C 
ATOM     39  H   UNL A   1      31.244  27.535  21.914  1.00  0.00     0.058 H 
ATOM     40  H   UNL A   1      30.922  26.339  27.130  1.00  0.00     0.028 H 
ATOM     41  H   UNL A   1      32.367  26.528  26.062  1.00  0.00     0.028 H 
ATOM     42  C   UNL A   1      32.591  25.045  23.948  1.00  0.00    -0.026 C 
ATOM     43  C   UNL A   1      31.384  23.784  25.857  1.00  0.00    -0.046 C 
ATOM     44  H   UNL A   1      33.226  26.084  22.175  1.00  0.00     0.031 H 
ATOM     45  H   UNL A   1      31.836  25.014  21.948  1.00  0.00     0.031 H 
ATOM     46  C   UNL A   1      33.749  23.962  23.965  1.00  0.00    -0.025 C 
ATOM     47  H   UNL A   1      33.092  25.725  24.606  1.00  0.00     0.032 H 
ATOM     48  C   UNL A   1      32.310  22.594  25.599  1.00  0.00    -0.049 C 
ATOM     49  H   UNL A   1      31.789  24.360  26.662  1.00  0.00     0.027 H 
ATOM     50  H   UNL A   1      30.417  23.386  26.089  1.00  0.00     0.027 H 
ATOM     51  C   UNL A   1      35.118  24.720  24.016  1.00  0.00    -0.045 C 
ATOM     52  C   UNL A   1      33.719  23.112  25.292  1.00  0.00    -0.028 C 
ATOM     53  H   UNL A   1      32.340  21.968  26.466  1.00  0.00     0.027 H 
ATOM     54  H   UNL A   1      31.946  22.027  24.768  1.00  0.00     0.027 H 
ATOM     55  C   UNL A   1      36.335  23.804  24.155  1.00  0.00    -0.026 C 
ATOM     56  H   UNL A   1      35.103  25.386  24.852  1.00  0.00     0.027 H 
ATOM     57  H   UNL A   1      35.223  25.231  23.081  1.00  0.00     0.027 H 
ATOM     58  C   UNL A   1      34.878  22.055  25.454  1.00  0.00    -0.006 C 
ATOM     59  H   UNL A   1      33.960  23.796  26.078  1.00  0.00     0.031 H 
ATOM     60  C   UNL A   1      36.238  22.811  25.317  1.00  0.00     0.059 C 
ATOM     61  H   UNL A   1      37.200  24.415  24.305  1.00  0.00     0.029 H 
ATOM     62  H   UNL A   1      36.389  23.224  23.256  1.00  0.00     0.029 H 
ATOM     63  H   UNL A   1      36.289  23.394  26.213  1.00  0.00     0.061 H 
BRANCH  18  64
ATOM     64  C   UNL A   1      28.713  29.062  22.163  1.00  0.00    -0.062 C 
ATOM     65  H   UNL A   1      29.131  28.316  21.521  1.00  0.00     0.023 H 
ATOM     66  H   UNL A   1      28.294  29.849  21.571  1.00  0.00     0.023 H 
ATOM     67  H   UNL A   1      27.945  28.623  22.767  1.00  0.00     0.023 H 
ENDBRANCH  18  64
BRANCH  19  68
ATOM     68  C   UNL A   1      29.129  32.136  22.726  1.00  0.00    -0.062 C 
ATOM     69  H   UNL A   1      30.012  32.310  22.147  1.00  0.00     0.023 H 
ATOM     70  H   UNL A   1      28.874  33.026  23.263  1.00  0.00     0.023 H 
ATOM     71  H   UNL A   1      28.323  31.869  22.075  1.00  0.00     0.023 H 
ENDBRANCH  19  68
BRANCH  30  72
ATOM     72  C   UNL A   1      29.084  25.973  25.434  1.00  0.00    -0.055 C 
ATOM     73  H   UNL A   1      28.968  26.227  26.467  1.00  0.00     0.024 H 
ATOM     74  H   UNL A   1      28.796  24.954  25.282  1.00  0.00     0.024 H 
ATOM     75  H   UNL A   1      28.467  26.611  24.838  1.00  0.00     0.024 H 
ENDBRANCH  30  72
BRANCH  37  76
ATOM     76  C   UNL A   1      30.273  23.934  23.651  1.00  0.00    -0.059 C 
ATOM     77  H   UNL A   1      30.068  22.963  24.053  1.00  0.00     0.024 H 
ATOM     78  H   UNL A   1      30.752  23.832  22.699  1.00  0.00     0.024 H 
ATOM     79  H   UNL A   1      29.356  24.471  23.532  1.00  0.00     0.024 H 
ENDBRANCH  37  76
BRANCH  46  80
ATOM     80  C   UNL A   1      33.697  23.133  22.669  1.00  0.00    -0.059 C 
ATOM     81  H   UNL A   1      34.481  22.404  22.680  1.00  0.00     0.024 H 
ATOM     82  H   UNL A   1      33.825  23.781  21.826  1.00  0.00     0.024 H 
ATOM     83  H   UNL A   1      32.751  22.638  22.599  1.00  0.00     0.024 H 
ENDBRANCH  46  80
BRANCH  58  84
ATOM     84  C   UNL A   1      34.774  20.844  24.503  1.00  0.00    -0.057 C 
ATOM     85  H   UNL A   1      33.744  20.603  24.345  1.00  0.00     0.024 H 
ATOM     86  H   UNL A   1      35.274  20.004  24.938  1.00  0.00     0.024 H 
ATOM     87  H   UNL A   1      35.233  21.085  23.567  1.00  0.00     0.024 H 
ENDBRANCH  58  84
BRANCH  58  88
ATOM     88  C   UNL A   1      34.852  21.440  26.884  1.00  0.00    -0.057 C 
ATOM     89  H   UNL A   1      35.518  20.603  26.925  1.00  0.00     0.024 H 
ATOM     90  H   UNL A   1      33.859  21.117  27.115  1.00  0.00     0.024 H 
ATOM     91  H   UNL A   1      35.162  22.177  27.596  1.00  0.00     0.024 H 
ENDBRANCH  58  88
BRANCH  60  92
ATOM     92  O   UNL A   1      37.333  21.897  25.233  1.00  0.00    -0.393 OA
ATOM     93  H   UNL A   1      37.082  21.142  24.680  1.00  0.00     0.210 HD
ENDBRANCH  60  92
ENDBRANCH  14  17
ENDBRANCH  10  13
ENDBRANCH   7  10
ENDBRANCH   4   7
ENDBRANCH   1   4
BRANCH   1  94
ATOM     94  C   UNL A   1      33.021  32.273  28.021  1.00  0.00    -0.036 C 
ATOM     95  H   UNL A   1      32.509  32.461  28.942  1.00  0.00     0.028 H 
ATOM     96  H   UNL A   1      32.519  31.624  27.334  1.00  0.00     0.028 H 
BRANCH  94  97
ATOM     97  C   UNL A   1      33.129  33.597  27.284  1.00  0.00     0.018 C 
ATOM     98  H   UNL A   1      32.560  33.525  26.380  1.00  0.00     0.049 H 
ATOM     99  H   UNL A   1      34.171  33.766  27.106  1.00  0.00     0.049 H 
BRANCH  97 100
ATOM    100  N   UNL A   1      32.646  34.736  28.036  1.00  0.00    -0.352 N 
ATOM    101  C   UNL A   1      33.109  35.253  29.225  1.00  0.00     0.251 C 
ATOM    102  H   UNL A   1      31.877  35.209  27.640  1.00  0.00     0.163 HD
ATOM    103  O   UNL A   1      32.524  36.186  29.757  1.00  0.00    -0.269 OA
BRANCH 101 104
ATOM    104  C   UNL A   1      34.293  34.654  29.891  1.00  0.00     0.039 A 
ATOM    105  C   UNL A   1      34.105  33.965  31.093  1.00  0.00    -0.049 A 
ATOM    106  C   UNL A   1      35.577  34.767  29.349  1.00  0.00    -0.049 A 
ATOM    107  C   UNL A   1      35.190  33.343  31.717  1.00  0.00    -0.053 A 
ATOM    108  H   UNL A   1      33.166  33.917  31.517  1.00  0.00     0.063 H 
ATOM    109  C   UNL A   1      36.640  34.072  29.925  1.00  0.00    -0.053 A 
ATOM    110  H   UNL A   1      35.738  35.364  28.524  1.00  0.00     0.063 H 
ATOM    111  C   UNL A   1      36.461  33.362  31.121  1.00  0.00    -0.014 A 
ATOM    112  H   UNL A   1      35.055  32.867  32.622  1.00  0.00     0.063 H 
ATOM    113  H   UNL A   1      37.564  34.080  29.466  1.00  0.00     0.063 H 
BRANCH 111 114
ATOM    114  C   UNL A   1      37.613  32.663  31.748  1.00  0.00     0.031 A 
ATOM    115  C   UNL A   1      38.263  31.500  31.048  1.00  0.00     0.074 A 
ATOM    116  C   UNL A   1      38.048  33.044  32.965  1.00  0.00     0.049 A 
ATOM    117  N   UNL A   1      39.248  30.735  31.447  1.00  0.00    -0.248 NA
ATOM    118  C   UNL A   1      37.716  31.130  29.732  1.00  0.00    -0.034 C 
ATOM    119  C   UNL A   1      37.472  34.126  33.767  1.00  0.00    -0.036 A 
ATOM    120  N   UNL A   1      39.069  32.562  33.746  1.00  0.00    -0.354 N 
ATOM    121  C   UNL A   1      39.426  29.792  30.443  1.00  0.00     0.074 A 
ATOM    122  C   UNL A   1      38.408  30.038  29.447  1.00  0.00    -0.034 C 
ATOM    123  H   UNL A   1      36.982  31.599  29.179  1.00  0.00     0.065 H 
ATOM    124  C   UNL A   1      38.167  34.245  34.909  1.00  0.00    -0.036 A 
ATOM    125  H   UNL A   1      36.663  34.706  33.496  1.00  0.00     0.065 H 
ATOM    126  C   UNL A   1      39.208  33.222  34.943  1.00  0.00     0.049 A 
ATOM    127  H   UNL A   1      39.649  31.814  33.473  1.00  0.00     0.167 HD
ATOM    128  C   UNL A   1      40.370  28.825  30.349  1.00  0.00     0.037 A 
ATOM    129  H   UNL A   1      38.244  29.443  28.620  1.00  0.00     0.065 H 
ATOM    130  H   UNL A   1      37.993  34.947  35.646  1.00  0.00     0.065 H 
ATOM    131  C   UNL A   1      40.073  33.021  35.955  1.00  0.00     0.037 A 
ATOM    132  C   UNL A   1      41.394  28.597  31.334  1.00  0.00     0.049 A 
ATOM    133  C   UNL A   1      41.102  31.928  35.833  1.00  0.00     0.074 A 
ATOM    134  C   UNL A   1      42.431  27.682  31.306  1.00  0.00    -0.036 A 
ATOM    135  N   UNL A   1      41.506  29.292  32.531  1.00  0.00    -0.354 N 
ATOM    136  N   UNL A   1      41.305  31.089  34.847  1.00  0.00    -0.248 NA
ATOM    137  C   UNL A   1      42.026  31.758  36.963  1.00  0.00    -0.034 C 
ATOM    138  C   UNL A   1      43.134  27.781  32.511  1.00  0.00    -0.036 A 
ATOM    139  H   UNL A   1      42.647  27.037  30.529  1.00  0.00     0.065 H 
ATOM    140  C   UNL A   1      42.578  28.804  33.261  1.00  0.00     0.049 A 
ATOM    141  H   UNL A   1      40.912  30.022  32.817  1.00  0.00     0.167 HD
ATOM    142  C   UNL A   1      42.397  30.317  35.219  1.00  0.00     0.074 A 
ATOM    143  C   UNL A   1      42.823  30.798  36.517  1.00  0.00    -0.034 C 
ATOM    144  H   UNL A   1      42.049  32.257  37.866  1.00  0.00     0.065 H 
ATOM    145  H   UNL A   1      43.932  27.191  32.792  1.00  0.00     0.065 H 
ATOM    146  C   UNL A   1      42.993  29.300  34.549  1.00  0.00     0.037 A 
ATOM    147  H   UNL A   1      43.643  30.438  37.030  1.00  0.00     0.065 H 
BRANCH 128 148
ATOM    148  C   UNL A   1      40.339  27.939  29.134  1.00  0.00     0.064 A 
ATOM    149  C   UNL A   1      41.074  28.242  27.978  1.00  0.00     0.173 A 
ATOM    150  C   UNL A   1      39.591  26.751  29.139  1.00  0.00     0.173 A 
ATOM    151  F   UNL A   1      41.798  29.371  27.915  1.00  0.00    -0.203 F 
ATOM    152  C   UNL A   1      41.035  27.411  26.861  1.00  0.00     0.198 A 
ATOM    153  C   UNL A   1      39.583  25.903  28.033  1.00  0.00     0.198 A 
ATOM    154  F   UNL A   1      38.874  26.406  30.219  1.00  0.00    -0.203 F 
ATOM    155  F   UNL A   1      41.700  27.753  25.749  1.00  0.00    -0.200 F 
ATOM    156  C   UNL A   1      40.295  26.239  26.893  1.00  0.00     0.200 A 
ATOM    157  F   UNL A   1      38.879  24.763  28.072  1.00  0.00    -0.200 F 
ATOM    158  F   UNL A   1      40.265  25.435  25.821  1.00  0.00    -0.200 F 
ENDBRANCH 128 148
BRANCH 131 159
ATOM    159  C   UNL A   1      40.018  33.883  37.167  1.00  0.00     0.064 A 
ATOM    160  C   UNL A   1      39.191  33.555  38.250  1.00  0.00     0.173 A 
ATOM    161  C   UNL A   1      40.782  35.056  37.265  1.00  0.00     0.173 A 
ATOM    162  F   UNL A   1      38.427  32.454  38.199  1.00  0.00    -0.203 F 
ATOM    163  C   UNL A   1      39.109  34.378  39.372  1.00  0.00     0.198 A 
ATOM    164  C   UNL A   1      40.724  35.862  38.401  1.00  0.00     0.198 A 
ATOM    165  F   UNL A   1      41.594  35.415  36.260  1.00  0.00    -0.203 F 
ATOM    166  F   UNL A   1      38.269  34.067  40.369  1.00  0.00    -0.200 F 
ATOM    167  C   UNL A   1      39.880  35.528  39.449  1.00  0.00     0.200 A 
ATOM    168  F   UNL A   1      41.483  36.963  38.477  1.00  0.00    -0.200 F 
ATOM    169  F   UNL A   1      39.805  36.318  40.529  1.00  0.00    -0.200 F 
ENDBRANCH 131 159
BRANCH 146 170
ATOM    170  C   UNL A   1      44.196  28.664  35.186  1.00  0.00     0.064 A 
ATOM    171  C   UNL A   1      44.084  27.551  36.032  1.00  0.00     0.173 A 
ATOM    172  C   UNL A   1      45.483  29.153  34.912  1.00  0.00     0.173 A 
ATOM    173  F   UNL A   1      42.876  27.055  36.338  1.00  0.00    -0.203 F 
ATOM    174  C   UNL A   1      45.213  26.971  36.604  1.00  0.00     0.198 A 
ATOM    175  C   UNL A   1      46.612  28.547  35.455  1.00  0.00     0.198 A 
ATOM    176  F   UNL A   1      45.648  30.210  34.102  1.00  0.00    -0.203 F 
ATOM    177  F   UNL A   1      45.078  25.942  37.453  1.00  0.00    -0.200 F 
ATOM    178  C   UNL A   1      46.475  27.463  36.308  1.00  0.00     0.200 A 
ATOM    179  F   UNL A   1      47.832  29.013  35.154  1.00  0.00    -0.200 F 
ATOM    180  F   UNL A   1      47.562  26.895  36.851  1.00  0.00    -0.200 F 
ENDBRANCH 146 170
ENDBRANCH 111 114
ENDBRANCH 101 104
ENDBRANCH  97 100
ENDBRANCH  94  97
ENDBRANCH   1  94
TORSDOF 21
ENDMDL
MODEL 3
REMARK VINA RESULT:     -12.0      0.062      1.467
REMARK SMILES C[C@H]1[C@H](C)CC[C@@]2(C(=O)NCCCCCCNC(=O)c3ccc(-c4c5nc(c(-c6c(F)c(F)c(F)c(F)c6F)c6ccc([nH]6)c(-c6c(F)c(F)c(F)c(F)c6F)c6nc(c(-c7c(F)c(F)c(F)c(F)c7F)c7ccc4[nH]7)C=C6)C=C5)cc3)CC[C@@]3(C)C(=CC[C@@H]4[C@@]5(C)CC[C@H](O)C(C)(C)[C@@H]5CC[C@]43C)[C@H]12
REMARK SMILES IDX 14 1 13 4 12 7 11 10 10 13 8 14 9 15 7 17 2 18 3 19 105 20
REMARK SMILES IDX 5 22 87 24 6 26 83 29 85 30 88 31 84 34 103 37 89 38 90 42
REMARK SMILES IDX 102 43 91 46 101 48 93 51 100 52 94 55 97 58 95 60 1 64 4 68
REMARK SMILES IDX 86 72 104 76 92 80 98 84 99 88 96 92 15 94 16 97 17 100
REMARK SMILES IDX 18 101 19 103 20 104 21 105 82 106 22 107 81 109 23 111
REMARK SMILES IDX 24 114 25 115 75 116 26 117 80 118 74 119 76 120 27 121
REMARK SMILES IDX 79 122 73 124 72 126 28 128 60 131 40 132 59 133 41 134
REMARK SMILES IDX 44 135 58 136 77 137 42 138 43 140 57 142 78 143 45 146
REMARK SMILES IDX 29 148 30 149 38 150 31 151 32 152 36 153 39 154 33 155
REMARK SMILES IDX 34 156 37 157 35 158 61 159 62 160 70 161 63 162 64 163
REMARK SMILES IDX 68 164 71 165 65 166 66 167 69 168 67 169 46 170 47 171
REMARK SMILES IDX 55 172 48 173 49 174 53 175 56 176 50 177 51 178 54 179
REMARK SMILES IDX 52 180
REMARK H PARENT 14 2 14 3 13 5 13 6 12 8 12 9 11 11 11 12 10 16 2 21 3 23
REMARK H PARENT 105 25 5 27 5 28 6 32 6 33 83 35 83 36 88 39 84 40 84 41 89 44
REMARK H PARENT 89 45 90 47 102 49 102 50 101 53 101 54 93 56 93 57 100 59
REMARK H PARENT 94 61 94 62 95 63 1 65 1 66 1 67 4 69 4 70 4 71 86 73 86 74
REMARK H PARENT 86 75 104 77 104 78 104 79 92 81 92 82 92 83 98 85 98 86 98 87
REMARK H PARENT 99 89 99 90 99 91 96 93 15 95 15 96 16 98 16 99 17 102 21 108
REMARK H PARENT 82 110 22 112 81 113 80 123 74 125 76 127 79 129 73 130 41 139
REMARK H PARENT 44 141 77 144 42 145 78 147
REMARK Flexibility Score: inf
ROOT
ATOM      1  C   UNL A   1      39.349  22.167  26.475  1.00  0.00    -0.052 C 
ATOM      2  H   UNL A   1      38.650  21.919  27.245  1.00  0.00     0.027 H 
ATOM      3  H   UNL A   1      40.318  22.486  26.801  1.00  0.00     0.027 H 
ENDROOT
BRANCH   1   4
ATOM      4  C   UNL A   1      38.787  23.383  25.730  1.00  0.00    -0.052 C 
ATOM      5  H   UNL A   1      39.617  24.018  25.501  1.00  0.00     0.027 H 
ATOM      6  H   UNL A   1      38.261  22.948  24.904  1.00  0.00     0.027 H 
BRANCH   4   7
ATOM      7  C   UNL A   1      37.723  24.265  26.402  1.00  0.00    -0.036 C 
ATOM      8  H   UNL A   1      37.861  24.173  27.460  1.00  0.00     0.028 H 
ATOM      9  H   UNL A   1      37.889  25.236  25.985  1.00  0.00     0.028 H 
BRANCH   7  10
ATOM     10  C   UNL A   1      36.244  23.986  26.116  1.00  0.00     0.017 C 
ATOM     11  H   UNL A   1      35.671  24.807  26.496  1.00  0.00     0.049 H 
ATOM     12  H   UNL A   1      36.163  23.866  25.056  1.00  0.00     0.049 H 
BRANCH  10  13
ATOM     13  N   UNL A   1      35.724  22.764  26.704  1.00  0.00    -0.356 N 
ATOM     14  C   UNL A   1      34.962  21.761  26.160  1.00  0.00     0.226 C 
ATOM     15  O   UNL A   1      34.084  21.331  26.920  1.00  0.00    -0.274 OA
ATOM     16  H   UNL A   1      35.958  22.634  27.651  1.00  0.00     0.163 HD
BRANCH  14  17
ATOM     17  C   UNL A   1      35.187  21.110  24.739  1.00  0.00     0.056 C 
ATOM     18  C   UNL A   1      33.444  19.195  24.711  1.00  0.00    -0.034 C 
ATOM     19  C   UNL A   1      34.603  18.161  24.510  1.00  0.00    -0.041 C 
ATOM     20  C   UNL A   1      33.861  20.574  24.120  1.00  0.00    -0.002 C 
ATOM     21  H   UNL A   1      33.273  19.312  25.761  1.00  0.00     0.031 H 
ATOM     22  C   UNL A   1      35.995  18.637  24.966  1.00  0.00    -0.049 C 
ATOM     23  H   UNL A   1      34.570  18.053  23.445  1.00  0.00     0.030 H 
ATOM     24  C   UNL A   1      32.900  21.786  24.138  1.00  0.00    -0.063 C 
ATOM     25  H   UNL A   1      33.909  20.260  23.098  1.00  0.00     0.036 H 
ATOM     26  C   UNL A   1      36.338  20.094  24.767  1.00  0.00    -0.038 C 
ATOM     27  H   UNL A   1      36.721  18.061  24.431  1.00  0.00     0.027 H 
ATOM     28  H   UNL A   1      35.992  18.503  26.028  1.00  0.00     0.027 H 
ATOM     29  C   UNL A   1      35.702  22.212  23.734  1.00  0.00    -0.037 C 
ATOM     30  C   UNL A   1      33.229  22.919  23.118  1.00  0.00    -0.006 C 
ATOM     31  C   UNL A   1      32.050  21.986  25.168  1.00  0.00    -0.084 C 
ATOM     32  H   UNL A   1      36.854  20.173  23.832  1.00  0.00     0.028 H 
ATOM     33  H   UNL A   1      36.904  20.356  25.636  1.00  0.00     0.028 H 
ATOM     34  C   UNL A   1      34.730  23.318  23.314  1.00  0.00    -0.043 C 
ATOM     35  H   UNL A   1      36.013  21.708  22.842  1.00  0.00     0.028 H 
ATOM     36  H   UNL A   1      36.472  22.724  24.272  1.00  0.00     0.028 H 
ATOM     37  C   UNL A   1      32.277  24.225  23.329  1.00  0.00    -0.020 C 
ATOM     38  C   UNL A   1      31.533  23.344  25.578  1.00  0.00    -0.031 C 
ATOM     39  H   UNL A   1      31.735  21.164  25.706  1.00  0.00     0.058 H 
ATOM     40  H   UNL A   1      35.081  23.719  22.386  1.00  0.00     0.028 H 
ATOM     41  H   UNL A   1      34.727  24.004  24.135  1.00  0.00     0.028 H 
ATOM     42  C   UNL A   1      32.294  24.503  24.877  1.00  0.00    -0.026 C 
ATOM     43  C   UNL A   1      32.771  25.454  22.519  1.00  0.00    -0.046 C 
ATOM     44  H   UNL A   1      31.648  23.450  26.637  1.00  0.00     0.031 H 
ATOM     45  H   UNL A   1      30.506  23.404  25.288  1.00  0.00     0.031 H 
ATOM     46  C   UNL A   1      32.004  25.969  25.409  1.00  0.00    -0.025 C 
ATOM     47  H   UNL A   1      33.323  24.500  25.171  1.00  0.00     0.032 H 
ATOM     48  C   UNL A   1      32.145  26.774  22.971  1.00  0.00    -0.049 C 
ATOM     49  H   UNL A   1      33.833  25.527  22.627  1.00  0.00     0.027 H 
ATOM     50  H   UNL A   1      32.478  25.298  21.501  1.00  0.00     0.027 H 
ATOM     51  C   UNL A   1      32.828  26.176  26.724  1.00  0.00    -0.045 C 
ATOM     52  C   UNL A   1      32.564  27.058  24.417  1.00  0.00    -0.028 C 
ATOM     53  H   UNL A   1      32.485  27.568  22.338  1.00  0.00     0.027 H 
ATOM     54  H   UNL A   1      31.079  26.707  22.912  1.00  0.00     0.027 H 
ATOM     55  C   UNL A   1      32.743  27.591  27.298  1.00  0.00    -0.026 C 
ATOM     56  H   UNL A   1      33.854  25.959  26.516  1.00  0.00     0.027 H 
ATOM     57  H   UNL A   1      32.407  25.520  27.458  1.00  0.00     0.027 H 
ATOM     58  C   UNL A   1      32.404  28.556  24.886  1.00  0.00    -0.006 C 
ATOM     59  H   UNL A   1      33.628  26.953  24.444  1.00  0.00     0.031 H 
ATOM     60  C   UNL A   1      33.075  28.693  26.289  1.00  0.00     0.059 C 
ATOM     61  H   UNL A   1      33.430  27.663  28.115  1.00  0.00     0.029 H 
ATOM     62  H   UNL A   1      31.727  27.741  27.598  1.00  0.00     0.029 H 
ATOM     63  H   UNL A   1      34.119  28.597  26.074  1.00  0.00     0.061 H 
BRANCH  18  64
ATOM     64  C   UNL A   1      32.123  18.695  24.107  1.00  0.00    -0.062 C 
ATOM     65  H   UNL A   1      31.302  19.167  24.604  1.00  0.00     0.023 H 
ATOM     66  H   UNL A   1      32.052  17.634  24.231  1.00  0.00     0.023 H 
ATOM     67  H   UNL A   1      32.094  18.934  23.064  1.00  0.00     0.023 H 
ENDBRANCH  18  64
BRANCH  19  68
ATOM     68  C   UNL A   1      34.395  16.806  25.208  1.00  0.00    -0.062 C 
ATOM     69  H   UNL A   1      33.462  16.384  24.896  1.00  0.00     0.023 H 
ATOM     70  H   UNL A   1      34.385  16.948  26.268  1.00  0.00     0.023 H 
ATOM     71  H   UNL A   1      35.192  16.144  24.944  1.00  0.00     0.023 H 
ENDBRANCH  19  68
BRANCH  30  72
ATOM     72  C   UNL A   1      33.061  22.378  21.672  1.00  0.00    -0.055 C 
ATOM     73  H   UNL A   1      33.149  21.312  21.679  1.00  0.00     0.024 H 
ATOM     74  H   UNL A   1      33.819  22.797  21.045  1.00  0.00     0.024 H 
ATOM     75  H   UNL A   1      32.097  22.655  21.300  1.00  0.00     0.024 H 
ENDBRANCH  30  72
BRANCH  37  76
ATOM     76  C   UNL A   1      30.830  23.949  22.815  1.00  0.00    -0.059 C 
ATOM     77  H   UNL A   1      30.345  23.256  23.471  1.00  0.00     0.024 H 
ATOM     78  H   UNL A   1      30.875  23.534  21.829  1.00  0.00     0.024 H 
ATOM     79  H   UNL A   1      30.278  24.865  22.792  1.00  0.00     0.024 H 
ENDBRANCH  37  76
BRANCH  46  80
ATOM     80  C   UNL A   1      30.508  26.109  25.742  1.00  0.00    -0.059 C 
ATOM     81  H   UNL A   1      29.995  25.213  25.459  1.00  0.00     0.024 H 
ATOM     82  H   UNL A   1      30.099  26.940  25.206  1.00  0.00     0.024 H 
ATOM     83  H   UNL A   1      30.390  26.270  26.794  1.00  0.00     0.024 H 
ENDBRANCH  46  80
BRANCH  58  84
ATOM     84  C   UNL A   1      30.950  29.077  24.871  1.00  0.00    -0.057 C 
ATOM     85  H   UNL A   1      30.955  30.141  24.757  1.00  0.00     0.024 H 
ATOM     86  H   UNL A   1      30.468  28.818  25.790  1.00  0.00     0.024 H 
ATOM     87  H   UNL A   1      30.421  28.633  24.054  1.00  0.00     0.024 H 
ENDBRANCH  58  84
BRANCH  58  88
ATOM     88  C   UNL A   1      33.176  29.508  23.926  1.00  0.00    -0.057 C 
ATOM     89  H   UNL A   1      32.579  29.701  23.059  1.00  0.00     0.024 H 
ATOM     90  H   UNL A   1      34.095  29.047  23.630  1.00  0.00     0.024 H 
ATOM     91  H   UNL A   1      33.385  30.430  24.428  1.00  0.00     0.024 H 
ENDBRANCH  58  88
BRANCH  60  92
ATOM     92  O   UNL A   1      32.785  29.961  26.881  1.00  0.00    -0.393 OA
ATOM     93  H   UNL A   1      33.521  30.225  27.455  1.00  0.00     0.210 HD
ENDBRANCH  60  92
ENDBRANCH  14  17
ENDBRANCH  10  13
ENDBRANCH   7  10
ENDBRANCH   4   7
ENDBRANCH   1   4
BRANCH   1  94
ATOM     94  C   UNL A   1      39.622  20.892  25.683  1.00  0.00    -0.036 C 
ATOM     95  H   UNL A   1      40.461  21.086  25.049  1.00  0.00     0.028 H 
ATOM     96  H   UNL A   1      38.698  20.686  25.183  1.00  0.00     0.028 H 
BRANCH  94  97
ATOM     97  C   UNL A   1      39.925  19.621  26.459  1.00  0.00     0.018 C 
ATOM     98  H   UNL A   1      39.070  18.980  26.399  1.00  0.00     0.049 H 
ATOM     99  H   UNL A   1      40.150  19.920  27.462  1.00  0.00     0.049 H 
BRANCH  97 100
ATOM    100  N   UNL A   1      41.076  18.890  25.974  1.00  0.00    -0.352 N 
ATOM    101  C   UNL A   1      42.384  19.307  25.853  1.00  0.00     0.251 C 
ATOM    102  H   UNL A   1      40.900  17.963  25.691  1.00  0.00     0.163 HD
ATOM    103  O   UNL A   1      43.217  18.568  25.348  1.00  0.00    -0.269 OA
BRANCH 101 104
ATOM    104  C   UNL A   1      42.779  20.668  26.294  1.00  0.00     0.039 A 
ATOM    105  C   UNL A   1      43.192  21.588  25.326  1.00  0.00    -0.049 A 
ATOM    106  C   UNL A   1      42.751  21.043  27.640  1.00  0.00    -0.049 A 
ATOM    107  C   UNL A   1      43.518  22.895  25.699  1.00  0.00    -0.053 A 
ATOM    108  H   UNL A   1      43.255  21.302  24.336  1.00  0.00     0.063 H 
ATOM    109  C   UNL A   1      42.990  22.369  27.999  1.00  0.00    -0.053 A 
ATOM    110  H   UNL A   1      42.553  20.339  28.367  1.00  0.00     0.063 H 
ATOM    111  C   UNL A   1      43.388  23.306  27.035  1.00  0.00    -0.014 A 
ATOM    112  H   UNL A   1      43.857  23.561  24.988  1.00  0.00     0.063 H 
ATOM    113  H   UNL A   1      42.873  22.661  28.982  1.00  0.00     0.063 H 
BRANCH 111 114
ATOM    114  C   UNL A   1      43.684  24.705  27.440  1.00  0.00     0.031 A 
ATOM    115  C   UNL A   1      45.110  25.177  27.541  1.00  0.00     0.074 A 
ATOM    116  C   UNL A   1      42.675  25.539  27.761  1.00  0.00     0.049 A 
ATOM    117  N   UNL A   1      45.575  26.342  27.917  1.00  0.00    -0.248 NA
ATOM    118  C   UNL A   1      46.156  24.200  27.197  1.00  0.00    -0.034 C 
ATOM    119  C   UNL A   1      41.253  25.189  27.748  1.00  0.00    -0.036 A 
ATOM    120  N   UNL A   1      42.688  26.851  28.166  1.00  0.00    -0.354 N 
ATOM    121  C   UNL A   1      46.959  26.231  27.868  1.00  0.00     0.074 A 
ATOM    122  C   UNL A   1      47.260  24.869  27.488  1.00  0.00    -0.034 C 
ATOM    123  H   UNL A   1      46.053  23.242  26.828  1.00  0.00     0.065 H 
ATOM    124  C   UNL A   1      40.532  26.265  28.097  1.00  0.00    -0.036 A 
ATOM    125  H   UNL A   1      40.868  24.262  27.508  1.00  0.00     0.065 H 
ATOM    126  C   UNL A   1      41.437  27.369  28.400  1.00  0.00     0.049 A 
ATOM    127  H   UNL A   1      43.516  27.373  28.276  1.00  0.00     0.167 HD
ATOM    128  C   UNL A   1      47.892  27.186  28.092  1.00  0.00     0.037 A 
ATOM    129  H   UNL A   1      48.212  24.471  27.448  1.00  0.00     0.065 H 
ATOM    130  H   UNL A   1      39.501  26.306  28.144  1.00  0.00     0.065 H 
ATOM    131  C   UNL A   1      41.064  28.594  28.819  1.00  0.00     0.037 A 
ATOM    132  C   UNL A   1      47.586  28.546  28.450  1.00  0.00     0.049 A 
ATOM    133  C   UNL A   1      42.123  29.632  29.079  1.00  0.00     0.074 A 
ATOM    134  C   UNL A   1      48.455  29.605  28.644  1.00  0.00    -0.036 A 
ATOM    135  N   UNL A   1      46.306  29.035  28.672  1.00  0.00    -0.354 N 
ATOM    136  N   UNL A   1      43.424  29.536  28.959  1.00  0.00    -0.248 NA
ATOM    137  C   UNL A   1      41.660  30.954  29.525  1.00  0.00    -0.034 C 
ATOM    138  C   UNL A   1      47.708  30.718  29.041  1.00  0.00    -0.036 A 
ATOM    139  H   UNL A   1      49.480  29.578  28.516  1.00  0.00     0.065 H 
ATOM    140  C   UNL A   1      46.366  30.372  29.030  1.00  0.00     0.049 A 
ATOM    141  H   UNL A   1      45.478  28.508  28.587  1.00  0.00     0.167 HD
ATOM    142  C   UNL A   1      43.933  30.787  29.282  1.00  0.00     0.074 A 
ATOM    143  C   UNL A   1      42.796  31.631  29.587  1.00  0.00    -0.034 C 
ATOM    144  H   UNL A   1      40.700  31.270  29.735  1.00  0.00     0.065 H 
ATOM    145  H   UNL A   1      48.091  31.640  29.299  1.00  0.00     0.065 H 
ATOM    146  C   UNL A   1      45.223  31.201  29.322  1.00  0.00     0.037 A 
ATOM    147  H   UNL A   1      42.864  32.634  29.823  1.00  0.00     0.065 H 
BRANCH 128 148
ATOM    148  C   UNL A   1      49.337  26.793  27.957  1.00  0.00     0.064 A 
ATOM    149  C   UNL A   1      50.130  26.493  29.076  1.00  0.00     0.173 A 
ATOM    150  C   UNL A   1      49.928  26.678  26.689  1.00  0.00     0.173 A 
ATOM    151  F   UNL A   1      49.619  26.597  30.312  1.00  0.00    -0.203 F 
ATOM    152  C   UNL A   1      51.467  26.130  28.933  1.00  0.00     0.198 A 
ATOM    153  C   UNL A   1      51.256  26.280  26.548  1.00  0.00     0.198 A 
ATOM    154  F   UNL A   1      49.217  26.945  25.583  1.00  0.00    -0.203 F 
ATOM    155  F   UNL A   1      52.218  25.906  30.020  1.00  0.00    -0.200 F 
ATOM    156  C   UNL A   1      52.026  26.017  27.670  1.00  0.00     0.200 A 
ATOM    157  F   UNL A   1      51.790  26.156  25.325  1.00  0.00    -0.200 F 
ATOM    158  F   UNL A   1      53.310  25.659  27.534  1.00  0.00    -0.200 F 
ENDBRANCH 128 148
BRANCH 131 159
ATOM    159  C   UNL A   1      39.622  28.913  29.003  1.00  0.00     0.064 A 
ATOM    160  C   UNL A   1      39.011  28.793  30.259  1.00  0.00     0.173 A 
ATOM    161  C   UNL A   1      38.824  29.334  27.929  1.00  0.00     0.173 A 
ATOM    162  F   UNL A   1      39.725  28.376  31.314  1.00  0.00    -0.203 F 
ATOM    163  C   UNL A   1      37.652  29.056  30.428  1.00  0.00     0.198 A 
ATOM    164  C   UNL A   1      37.473  29.628  28.106  1.00  0.00     0.198 A 
ATOM    165  F   UNL A   1      39.359  29.471  26.707  1.00  0.00    -0.203 F 
ATOM    166  F   UNL A   1      37.083  28.881  31.629  1.00  0.00    -0.200 F 
ATOM    167  C   UNL A   1      36.886  29.479  29.354  1.00  0.00     0.200 A 
ATOM    168  F   UNL A   1      36.741  30.052  27.067  1.00  0.00    -0.200 F 
ATOM    169  F   UNL A   1      35.581  29.736  29.517  1.00  0.00    -0.200 F 
ENDBRANCH 131 159
BRANCH 146 170
ATOM    170  C   UNL A   1      45.477  32.639  29.672  1.00  0.00     0.064 A 
ATOM    171  C   UNL A   1      45.724  33.050  30.990  1.00  0.00     0.173 A 
ATOM    172  C   UNL A   1      45.513  33.616  28.663  1.00  0.00     0.173 A 
ATOM    173  F   UNL A   1      45.686  32.159  31.992  1.00  0.00    -0.203 F 
ATOM    174  C   UNL A   1      45.967  34.388  31.290  1.00  0.00     0.198 A 
ATOM    175  C   UNL A   1      45.794  34.946  28.962  1.00  0.00     0.198 A 
ATOM    176  F   UNL A   1      45.293  33.277  27.384  1.00  0.00    -0.203 F 
ATOM    177  F   UNL A   1      46.146  34.765  32.563  1.00  0.00    -0.200 F 
ATOM    178  C   UNL A   1      46.011  35.332  30.275  1.00  0.00     0.200 A 
ATOM    179  F   UNL A   1      45.853  35.855  27.978  1.00  0.00    -0.200 F 
ATOM    180  F   UNL A   1      46.256  36.618  30.565  1.00  0.00    -0.200 F 
ENDBRANCH 146 170
ENDBRANCH 111 114
ENDBRANCH 101 104
ENDBRANCH  97 100
ENDBRANCH  94  97
ENDBRANCH   1  94
TORSDOF 21
ENDMDL
MODEL 4
REMARK VINA RESULT:     -12.0      5.053     10.086
REMARK SMILES C[C@H]1[C@H](C)CC[C@@]2(C(=O)NCCCCCCNC(=O)c3ccc(-c4c5nc(c(-c6c(F)c(F)c(F)c(F)c6F)c6ccc([nH]6)c(-c6c(F)c(F)c(F)c(F)c6F)c6nc(c(-c7c(F)c(F)c(F)c(F)c7F)c7ccc4[nH]7)C=C6)C=C5)cc3)CC[C@@]3(C)C(=CC[C@@H]4[C@@]5(C)CC[C@H](O)C(C)(C)[C@@H]5CC[C@]43C)[C@H]12
REMARK SMILES IDX 14 1 13 4 12 7 11 10 10 13 8 14 9 15 7 17 2 18 3 19 105 20
REMARK SMILES IDX 5 22 87 24 6 26 83 29 85 30 88 31 84 34 103 37 89 38 90 42
REMARK SMILES IDX 102 43 91 46 101 48 93 51 100 52 94 55 97 58 95 60 1 64 4 68
REMARK SMILES IDX 86 72 104 76 92 80 98 84 99 88 96 92 15 94 16 97 17 100
REMARK SMILES IDX 18 101 19 103 20 104 21 105 82 106 22 107 81 109 23 111
REMARK SMILES IDX 24 114 25 115 75 116 26 117 80 118 74 119 76 120 27 121
REMARK SMILES IDX 79 122 73 124 72 126 28 128 60 131 40 132 59 133 41 134
REMARK SMILES IDX 44 135 58 136 77 137 42 138 43 140 57 142 78 143 45 146
REMARK SMILES IDX 29 148 30 149 38 150 31 151 32 152 36 153 39 154 33 155
REMARK SMILES IDX 34 156 37 157 35 158 61 159 62 160 70 161 63 162 64 163
REMARK SMILES IDX 68 164 71 165 65 166 66 167 69 168 67 169 46 170 47 171
REMARK SMILES IDX 55 172 48 173 49 174 53 175 56 176 50 177 51 178 54 179
REMARK SMILES IDX 52 180
REMARK H PARENT 14 2 14 3 13 5 13 6 12 8 12 9 11 11 11 12 10 16 2 21 3 23
REMARK H PARENT 105 25 5 27 5 28 6 32 6 33 83 35 83 36 88 39 84 40 84 41 89 44
REMARK H PARENT 89 45 90 47 102 49 102 50 101 53 101 54 93 56 93 57 100 59
REMARK H PARENT 94 61 94 62 95 63 1 65 1 66 1 67 4 69 4 70 4 71 86 73 86 74
REMARK H PARENT 86 75 104 77 104 78 104 79 92 81 92 82 92 83 98 85 98 86 98 87
REMARK H PARENT 99 89 99 90 99 91 96 93 15 95 15 96 16 98 16 99 17 102 21 108
REMARK H PARENT 82 110 22 112 81 113 80 123 74 125 76 127 79 129 73 130 41 139
REMARK H PARENT 44 141 77 144 42 145 78 147
REMARK Flexibility Score: inf
ROOT
ATOM      1  C   UNL A   1      34.321  31.421  28.360  1.00  0.00    -0.052 C 
ATOM      2  H   UNL A   1      35.057  32.162  28.588  1.00  0.00     0.027 H 
ATOM      3  H   UNL A   1      34.037  30.775  29.166  1.00  0.00     0.027 H 
ENDROOT
BRANCH   1   4
ATOM      4  C   UNL A   1      34.937  30.476  27.322  1.00  0.00    -0.052 C 
ATOM      5  H   UNL A   1      34.515  30.739  26.375  1.00  0.00     0.027 H 
ATOM      6  H   UNL A   1      35.990  30.622  27.447  1.00  0.00     0.027 H 
BRANCH   4   7
ATOM      7  C   UNL A   1      34.768  28.957  27.479  1.00  0.00    -0.036 C 
ATOM      8  H   UNL A   1      35.725  28.559  27.746  1.00  0.00     0.028 H 
ATOM      9  H   UNL A   1      33.992  28.856  28.208  1.00  0.00     0.028 H 
BRANCH   7  10
ATOM     10  C   UNL A   1      34.261  28.144  26.282  1.00  0.00     0.017 C 
ATOM     11  H   UNL A   1      35.025  27.445  26.009  1.00  0.00     0.049 H 
ATOM     12  H   UNL A   1      33.352  27.678  26.601  1.00  0.00     0.049 H 
BRANCH  10  13
ATOM     13  N   UNL A   1      33.926  28.926  25.105  1.00  0.00    -0.356 N 
ATOM     14  C   UNL A   1      32.755  29.024  24.398  1.00  0.00     0.226 C 
ATOM     15  O   UNL A   1      32.913  29.072  23.171  1.00  0.00    -0.274 OA
ATOM     16  H   UNL A   1      34.663  29.479  24.757  1.00  0.00     0.163 HD
BRANCH  14  17
ATOM     17  C   UNL A   1      31.313  29.156  25.030  1.00  0.00     0.056 C 
ATOM     18  C   UNL A   1      29.823  29.585  22.957  1.00  0.00    -0.034 C 
ATOM     19  C   UNL A   1      29.374  30.951  23.579  1.00  0.00    -0.041 C 
ATOM     20  C   UNL A   1      30.204  28.591  24.093  1.00  0.00    -0.002 C 
ATOM     21  H   UNL A   1      30.686  29.756  22.350  1.00  0.00     0.031 H 
ATOM     22  C   UNL A   1      30.335  31.543  24.626  1.00  0.00    -0.049 C 
ATOM     23  H   UNL A   1      28.454  30.651  24.036  1.00  0.00     0.030 H 
ATOM     24  C   UNL A   1      30.652  27.142  23.784  1.00  0.00    -0.063 C 
ATOM     25  H   UNL A   1      29.225  28.506  24.516  1.00  0.00     0.036 H 
ATOM     26  C   UNL A   1      31.056  30.582  25.539  1.00  0.00    -0.038 C 
ATOM     27  H   UNL A   1      29.766  32.206  25.243  1.00  0.00     0.027 H 
ATOM     28  H   UNL A   1      31.112  32.003  24.051  1.00  0.00     0.027 H 
ATOM     29  C   UNL A   1      31.235  28.284  26.343  1.00  0.00    -0.037 C 
ATOM     30  C   UNL A   1      30.534  26.136  24.970  1.00  0.00    -0.006 C 
ATOM     31  C   UNL A   1      31.382  26.858  22.685  1.00  0.00    -0.084 C 
ATOM     32  H   UNL A   1      30.475  30.500  26.435  1.00  0.00     0.028 H 
ATOM     33  H   UNL A   1      32.032  31.004  25.655  1.00  0.00     0.028 H 
ATOM     34  C   UNL A   1      31.271  26.761  26.201  1.00  0.00    -0.043 C 
ATOM     35  H   UNL A   1      30.320  28.535  26.838  1.00  0.00     0.028 H 
ATOM     36  H   UNL A   1      32.132  28.523  26.875  1.00  0.00     0.028 H 
ATOM     37  C   UNL A   1      31.189  24.688  24.608  1.00  0.00    -0.020 C 
ATOM     38  C   UNL A   1      32.330  25.687  22.586  1.00  0.00    -0.031 C 
ATOM     39  H   UNL A   1      31.286  27.477  21.864  1.00  0.00     0.058 H 
ATOM     40  H   UNL A   1      30.832  26.345  27.084  1.00  0.00     0.028 H 
ATOM     41  H   UNL A   1      32.304  26.524  26.052  1.00  0.00     0.028 H 
ATOM     42  C   UNL A   1      32.586  25.016  23.963  1.00  0.00    -0.026 C 
ATOM     43  C   UNL A   1      31.332  23.775  25.855  1.00  0.00    -0.046 C 
ATOM     44  H   UNL A   1      33.264  26.034  22.194  1.00  0.00     0.031 H 
ATOM     45  H   UNL A   1      31.883  24.958  21.944  1.00  0.00     0.031 H 
ATOM     46  C   UNL A   1      33.745  23.935  24.023  1.00  0.00    -0.025 C 
ATOM     47  H   UNL A   1      33.068  25.705  24.625  1.00  0.00     0.032 H 
ATOM     48  C   UNL A   1      32.267  22.585  25.636  1.00  0.00    -0.049 C 
ATOM     49  H   UNL A   1      31.715  24.363  26.664  1.00  0.00     0.027 H 
ATOM     50  H   UNL A   1      30.361  23.378  26.068  1.00  0.00     0.027 H 
ATOM     51  C   UNL A   1      35.111  24.697  24.100  1.00  0.00    -0.045 C 
ATOM     52  C   UNL A   1      33.682  23.103  25.360  1.00  0.00    -0.028 C 
ATOM     53  H   UNL A   1      32.276  21.970  26.512  1.00  0.00     0.027 H 
ATOM     54  H   UNL A   1      31.926  22.006  24.803  1.00  0.00     0.027 H 
ATOM     55  C   UNL A   1      36.325  23.786  24.281  1.00  0.00    -0.026 C 
ATOM     56  H   UNL A   1      35.072  25.374  24.927  1.00  0.00     0.027 H 
ATOM     57  H   UNL A   1      35.239  25.197  23.162  1.00  0.00     0.027 H 
ATOM     58  C   UNL A   1      34.840  22.051  25.565  1.00  0.00    -0.006 C 
ATOM     59  H   UNL A   1      33.902  23.797  26.143  1.00  0.00     0.031 H 
ATOM     60  C   UNL A   1      36.201  22.807  25.453  1.00  0.00     0.059 C 
ATOM     61  H   UNL A   1      37.185  24.401  24.447  1.00  0.00     0.029 H 
ATOM     62  H   UNL A   1      36.404  23.196  23.392  1.00  0.00     0.029 H 
ATOM     63  H   UNL A   1      36.227  23.402  26.343  1.00  0.00     0.061 H 
BRANCH  18  64
ATOM     64  C   UNL A   1      28.746  29.000  22.029  1.00  0.00    -0.062 C 
ATOM     65  H   UNL A   1      29.142  28.148  21.517  1.00  0.00     0.023 H 
ATOM     66  H   UNL A   1      28.450  29.740  21.314  1.00  0.00     0.023 H 
ATOM     67  H   UNL A   1      27.896  28.705  22.609  1.00  0.00     0.023 H 
ENDBRANCH  18  64
BRANCH  19  68
ATOM     68  C   UNL A   1      29.141  32.083  22.563  1.00  0.00    -0.062 C 
ATOM     69  H   UNL A   1      28.194  31.942  22.084  1.00  0.00     0.023 H 
ATOM     70  H   UNL A   1      29.918  32.069  21.828  1.00  0.00     0.023 H 
ATOM     71  H   UNL A   1      29.146  33.024  23.072  1.00  0.00     0.023 H 
ENDBRANCH  19  68
BRANCH  30  72
ATOM     72  C   UNL A   1      29.039  25.953  25.346  1.00  0.00    -0.055 C 
ATOM     73  H   UNL A   1      28.651  25.089  24.849  1.00  0.00     0.024 H 
ATOM     74  H   UNL A   1      28.487  26.818  25.046  1.00  0.00     0.024 H 
ATOM     75  H   UNL A   1      28.953  25.825  26.405  1.00  0.00     0.024 H 
ENDBRANCH  30  72
BRANCH  37  76
ATOM     76  C   UNL A   1      30.278  23.895  23.620  1.00  0.00    -0.059 C 
ATOM     77  H   UNL A   1      30.567  24.115  22.613  1.00  0.00     0.024 H 
ATOM     78  H   UNL A   1      29.257  24.182  23.769  1.00  0.00     0.024 H 
ATOM     79  H   UNL A   1      30.384  22.846  23.800  1.00  0.00     0.024 H 
ENDBRANCH  37  76
BRANCH  46  80
ATOM     80  C   UNL A   1      33.729  23.091  22.736  1.00  0.00    -0.059 C 
ATOM     81  H   UNL A   1      33.348  22.115  22.956  1.00  0.00     0.024 H 
ATOM     82  H   UNL A   1      34.724  23.008  22.352  1.00  0.00     0.024 H 
ATOM     83  H   UNL A   1      33.102  23.562  22.008  1.00  0.00     0.024 H 
ENDBRANCH  46  80
BRANCH  58  84
ATOM     84  C   UNL A   1      34.763  20.827  24.626  1.00  0.00    -0.057 C 
ATOM     85  H   UNL A   1      34.062  20.120  25.020  1.00  0.00     0.024 H 
ATOM     86  H   UNL A   1      35.728  20.371  24.554  1.00  0.00     0.024 H 
ATOM     87  H   UNL A   1      34.445  21.142  23.654  1.00  0.00     0.024 H 
ENDBRANCH  58  84
BRANCH  58  88
ATOM     88  C   UNL A   1      34.778  21.453  27.001  1.00  0.00    -0.057 C 
ATOM     89  H   UNL A   1      34.403  22.192  27.679  1.00  0.00     0.024 H 
ATOM     90  H   UNL A   1      35.759  21.155  27.306  1.00  0.00     0.024 H 
ATOM     91  H   UNL A   1      34.128  20.603  27.007  1.00  0.00     0.024 H 
ENDBRANCH  58  88
BRANCH  60  92
ATOM     92  O   UNL A   1      37.300  21.896  25.409  1.00  0.00    -0.393 OA
ATOM     93  H   UNL A   1      37.197  21.233  26.109  1.00  0.00     0.210 HD
ENDBRANCH  60  92
ENDBRANCH  14  17
ENDBRANCH  10  13
ENDBRANCH   7  10
ENDBRANCH   4   7
ENDBRANCH   1   4
BRANCH   1  94
ATOM     94  C   UNL A   1      33.035  32.158  28.001  1.00  0.00    -0.036 C 
ATOM     95  H   UNL A   1      32.517  32.356  28.917  1.00  0.00     0.028 H 
ATOM     96  H   UNL A   1      32.535  31.503  27.318  1.00  0.00     0.028 H 
BRANCH  94  97
ATOM     97  C   UNL A   1      33.150  33.474  27.251  1.00  0.00     0.018 C 
ATOM     98  H   UNL A   1      32.588  33.393  26.343  1.00  0.00     0.049 H 
ATOM     99  H   UNL A   1      34.193  33.639  27.079  1.00  0.00     0.049 H 
BRANCH  97 100
ATOM    100  N   UNL A   1      32.663  34.621  27.986  1.00  0.00    -0.352 N 
ATOM    101  C   UNL A   1      33.116  35.149  29.175  1.00  0.00     0.251 C 
ATOM    102  H   UNL A   1      31.899  35.092  27.579  1.00  0.00     0.163 HD
ATOM    103  O   UNL A   1      32.528  36.089  29.691  1.00  0.00    -0.269 OA
BRANCH 101 104
ATOM    104  C   UNL A   1      34.292  34.554  29.858  1.00  0.00     0.039 A 
ATOM    105  C   UNL A   1      34.091  33.877  31.064  1.00  0.00    -0.049 A 
ATOM    106  C   UNL A   1      35.582  34.660  29.328  1.00  0.00    -0.049 A 
ATOM    107  C   UNL A   1      35.168  33.258  31.704  1.00  0.00    -0.053 A 
ATOM    108  H   UNL A   1      33.148  33.834  31.480  1.00  0.00     0.063 H 
ATOM    109  C   UNL A   1      36.637  33.968  29.920  1.00  0.00    -0.053 A 
ATOM    110  H   UNL A   1      35.752  35.249  28.499  1.00  0.00     0.063 H 
ATOM    111  C   UNL A   1      36.445  33.270  31.121  1.00  0.00    -0.014 A 
ATOM    112  H   UNL A   1      35.023  32.790  32.613  1.00  0.00     0.063 H 
ATOM    113  H   UNL A   1      37.566  33.970  29.471  1.00  0.00     0.063 H 
BRANCH 111 114
ATOM    114  C   UNL A   1      37.590  32.574  31.766  1.00  0.00     0.031 A 
ATOM    115  C   UNL A   1      38.264  31.423  31.069  1.00  0.00     0.074 A 
ATOM    116  C   UNL A   1      37.996  32.948  32.995  1.00  0.00     0.049 A 
ATOM    117  N   UNL A   1      39.246  30.663  31.483  1.00  0.00    -0.248 NA
ATOM    118  C   UNL A   1      37.747  31.060  29.739  1.00  0.00    -0.034 C 
ATOM    119  C   UNL A   1      37.395  34.018  33.795  1.00  0.00    -0.036 A 
ATOM    120  N   UNL A   1      39.004  32.467  33.793  1.00  0.00    -0.354 N 
ATOM    121  C   UNL A   1      39.453  29.729  30.474  1.00  0.00     0.074 A 
ATOM    122  C   UNL A   1      38.455  29.977  29.459  1.00  0.00    -0.034 C 
ATOM    123  H   UNL A   1      37.021  31.528  29.175  1.00  0.00     0.065 H 
ATOM    124  C   UNL A   1      38.065  34.132  34.952  1.00  0.00    -0.036 A 
ATOM    125  H   UNL A   1      36.586  34.593  33.512  1.00  0.00     0.065 H 
ATOM    126  C   UNL A   1      39.114  33.117  34.998  1.00  0.00     0.049 A 
ATOM    127  H   UNL A   1      39.596  31.726  33.526  1.00  0.00     0.167 HD
ATOM    128  C   UNL A   1      40.407  28.771  30.391  1.00  0.00     0.037 A 
ATOM    129  H   UNL A   1      38.312  29.387  28.623  1.00  0.00     0.065 H 
ATOM    130  H   UNL A   1      37.869  34.826  35.691  1.00  0.00     0.065 H 
ATOM    131  C   UNL A   1      39.959  32.914  36.027  1.00  0.00     0.037 A 
ATOM    132  C   UNL A   1      41.412  28.542  31.395  1.00  0.00     0.049 A 
ATOM    133  C   UNL A   1      40.998  31.831  35.916  1.00  0.00     0.074 A 
ATOM    134  C   UNL A   1      42.456  27.636  31.381  1.00  0.00    -0.036 A 
ATOM    135  N   UNL A   1      41.493  29.228  32.600  1.00  0.00    -0.354 N 
ATOM    136  N   UNL A   1      41.230  31.002  34.927  1.00  0.00    -0.248 NA
ATOM    137  C   UNL A   1      41.901  31.658  37.064  1.00  0.00    -0.034 C 
ATOM    138  C   UNL A   1      43.134  27.730  32.601  1.00  0.00    -0.036 A 
ATOM    139  H   UNL A   1      42.695  27.000  30.603  1.00  0.00     0.065 H 
ATOM    140  C   UNL A   1      42.553  28.741  33.348  1.00  0.00     0.049 A 
ATOM    141  H   UNL A   1      40.887  29.951  32.880  1.00  0.00     0.167 HD
ATOM    142  C   UNL A   1      42.319  30.235  35.316  1.00  0.00     0.074 A 
ATOM    143  C   UNL A   1      42.714  30.709  36.627  1.00  0.00    -0.034 C 
ATOM    144  H   UNL A   1      41.900  32.149  37.971  1.00  0.00     0.065 H 
ATOM    145  H   UNL A   1      43.931  27.144  32.894  1.00  0.00     0.065 H 
ATOM    146  C   UNL A   1      42.938  29.230  34.649  1.00  0.00     0.037 A 
ATOM    147  H   UNL A   1      43.527  30.351  37.153  1.00  0.00     0.065 H 
BRANCH 128 148
ATOM    148  C   UNL A   1      40.408  27.896  29.168  1.00  0.00     0.064 A 
ATOM    149  C   UNL A   1      39.639  26.724  29.096  1.00  0.00     0.173 A 
ATOM    150  C   UNL A   1      41.163  28.252  28.039  1.00  0.00     0.173 A 
ATOM    151  F   UNL A   1      38.907  26.332  30.150  1.00  0.00    -0.203 F 
ATOM    152  C   UNL A   1      39.652  25.924  27.956  1.00  0.00     0.198 A 
ATOM    153  C   UNL A   1      41.145  27.468  26.887  1.00  0.00     0.198 A 
ATOM    154  F   UNL A   1      41.912  29.364  28.048  1.00  0.00    -0.203 F 
ATOM    155  F   UNL A   1      38.953  24.780  27.934  1.00  0.00    -0.200 F 
ATOM    156  C   UNL A   1      40.398  26.301  26.850  1.00  0.00     0.200 A 
ATOM    157  F   UNL A   1      41.856  27.842  25.814  1.00  0.00    -0.200 F 
ATOM    158  F   UNL A   1      40.403  25.535  25.751  1.00  0.00    -0.200 F 
ENDBRANCH 128 148
BRANCH 131 159
ATOM    159  C   UNL A   1      39.872  33.765  37.245  1.00  0.00     0.064 A 
ATOM    160  C   UNL A   1      39.014  33.427  38.302  1.00  0.00     0.173 A 
ATOM    161  C   UNL A   1      40.633  34.936  37.374  1.00  0.00     0.173 A 
ATOM    162  F   UNL A   1      38.251  32.328  38.219  1.00  0.00    -0.203 F 
ATOM    163  C   UNL A   1      38.903  34.240  39.429  1.00  0.00     0.198 A 
ATOM    164  C   UNL A   1      40.545  35.731  38.516  1.00  0.00     0.198 A 
ATOM    165  F   UNL A   1      41.473  35.304  36.396  1.00  0.00    -0.203 F 
ATOM    166  F   UNL A   1      38.036  33.921  40.399  1.00  0.00    -0.200 F 
ATOM    167  C   UNL A   1      39.672  35.388  39.538  1.00  0.00     0.200 A 
ATOM    168  F   UNL A   1      41.303  36.831  38.623  1.00  0.00    -0.200 F 
ATOM    169  F   UNL A   1      39.568  36.168  40.622  1.00  0.00    -0.200 F 
ENDBRANCH 131 159
BRANCH 146 170
ATOM    170  C   UNL A   1      44.132  28.598  35.305  1.00  0.00     0.064 A 
ATOM    171  C   UNL A   1      45.432  29.085  35.106  1.00  0.00     0.173 A 
ATOM    172  C   UNL A   1      43.965  27.512  36.180  1.00  0.00     0.173 A 
ATOM    173  F   UNL A   1      45.647  30.111  34.269  1.00  0.00    -0.203 F 
ATOM    174  C   UNL A   1      46.524  28.490  35.733  1.00  0.00     0.198 A 
ATOM    175  C   UNL A   1      45.055  26.944  36.834  1.00  0.00     0.198 A 
ATOM    176  F   UNL A   1      42.743  27.012  36.414  1.00  0.00    -0.203 F 
ATOM    177  F   UNL A   1      47.762  28.938  35.485  1.00  0.00    -0.200 F 
ATOM    178  C   UNL A   1      46.334  27.427  36.603  1.00  0.00     0.200 A 
ATOM    179  F   UNL A   1      44.867  25.928  37.688  1.00  0.00    -0.200 F 
ATOM    180  F   UNL A   1      47.385  26.863  37.214  1.00  0.00    -0.200 F 
ENDBRANCH 146 170
ENDBRANCH 111 114
ENDBRANCH 101 104
ENDBRANCH  97 100
ENDBRANCH  94  97
ENDBRANCH   1  94
TORSDOF 21
ENDMDL
MODEL 5
REMARK VINA RESULT:     -12.0      0.929      6.762
REMARK SMILES C[C@H]1[C@H](C)CC[C@@]2(C(=O)NCCCCCCNC(=O)c3ccc(-c4c5nc(c(-c6c(F)c(F)c(F)c(F)c6F)c6ccc([nH]6)c(-c6c(F)c(F)c(F)c(F)c6F)c6nc(c(-c7c(F)c(F)c(F)c(F)c7F)c7ccc4[nH]7)C=C6)C=C5)cc3)CC[C@@]3(C)C(=CC[C@@H]4[C@@]5(C)CC[C@H](O)C(C)(C)[C@@H]5CC[C@]43C)[C@H]12
REMARK SMILES IDX 14 1 13 4 12 7 11 10 10 13 8 14 9 15 7 17 2 18 3 19 105 20
REMARK SMILES IDX 5 22 87 24 6 26 83 29 85 30 88 31 84 34 103 37 89 38 90 42
REMARK SMILES IDX 102 43 91 46 101 48 93 51 100 52 94 55 97 58 95 60 1 64 4 68
REMARK SMILES IDX 86 72 104 76 92 80 98 84 99 88 96 92 15 94 16 97 17 100
REMARK SMILES IDX 18 101 19 103 20 104 21 105 82 106 22 107 81 109 23 111
REMARK SMILES IDX 24 114 25 115 75 116 26 117 80 118 74 119 76 120 27 121
REMARK SMILES IDX 79 122 73 124 72 126 28 128 60 131 40 132 59 133 41 134
REMARK SMILES IDX 44 135 58 136 77 137 42 138 43 140 57 142 78 143 45 146
REMARK SMILES IDX 29 148 30 149 38 150 31 151 32 152 36 153 39 154 33 155
REMARK SMILES IDX 34 156 37 157 35 158 61 159 62 160 70 161 63 162 64 163
REMARK SMILES IDX 68 164 71 165 65 166 66 167 69 168 67 169 46 170 47 171
REMARK SMILES IDX 55 172 48 173 49 174 53 175 56 176 50 177 51 178 54 179
REMARK SMILES IDX 52 180
REMARK H PARENT 14 2 14 3 13 5 13 6 12 8 12 9 11 11 11 12 10 16 2 21 3 23
REMARK H PARENT 105 25 5 27 5 28 6 32 6 33 83 35 83 36 88 39 84 40 84 41 89 44
REMARK H PARENT 89 45 90 47 102 49 102 50 101 53 101 54 93 56 93 57 100 59
REMARK H PARENT 94 61 94 62 95 63 1 65 1 66 1 67 4 69 4 70 4 71 86 73 86 74
REMARK H PARENT 86 75 104 77 104 78 104 79 92 81 92 82 92 83 98 85 98 86 98 87
REMARK H PARENT 99 89 99 90 99 91 96 93 15 95 15 96 16 98 16 99 17 102 21 108
REMARK H PARENT 82 110 22 112 81 113 80 123 74 125 76 127 79 129 73 130 41 139
REMARK H PARENT 44 141 77 144 42 145 78 147
REMARK Flexibility Score: inf
ROOT
ATOM      1  C   UNL A   1      39.668  22.322  26.158  1.00  0.00    -0.052 C 
ATOM      2  H   UNL A   1      40.631  22.684  26.449  1.00  0.00     0.027 H 
ATOM      3  H   UNL A   1      39.463  22.321  25.107  1.00  0.00     0.027 H 
ENDROOT
BRANCH   1   4
ATOM      4  C   UNL A   1      38.628  23.284  26.742  1.00  0.00    -0.052 C 
ATOM      5  H   UNL A   1      37.995  22.706  27.382  1.00  0.00     0.027 H 
ATOM      6  H   UNL A   1      39.224  24.045  27.202  1.00  0.00     0.027 H 
BRANCH   4   7
ATOM      7  C   UNL A   1      37.707  24.075  25.801  1.00  0.00    -0.036 C 
ATOM      8  H   UNL A   1      37.981  25.107  25.885  1.00  0.00     0.028 H 
ATOM      9  H   UNL A   1      37.860  23.620  24.845  1.00  0.00     0.028 H 
BRANCH   7  10
ATOM     10  C   UNL A   1      36.191  23.995  26.012  1.00  0.00     0.017 C 
ATOM     11  H   UNL A   1      35.898  24.818  26.629  1.00  0.00     0.049 H 
ATOM     12  H   UNL A   1      35.752  24.017  25.036  1.00  0.00     0.049 H 
BRANCH  10  13
ATOM     13  N   UNL A   1      35.723  22.772  26.640  1.00  0.00    -0.356 N 
ATOM     14  C   UNL A   1      34.967  21.741  26.142  1.00  0.00     0.226 C 
ATOM     15  O   UNL A   1      34.127  21.304  26.940  1.00  0.00    -0.274 OA
ATOM     16  H   UNL A   1      35.993  22.665  27.581  1.00  0.00     0.163 HD
BRANCH  14  17
ATOM     17  C   UNL A   1      35.158  21.068  24.726  1.00  0.00     0.056 C 
ATOM     18  C   UNL A   1      33.436  19.135  24.779  1.00  0.00    -0.034 C 
ATOM     19  C   UNL A   1      34.600  18.110  24.561  1.00  0.00    -0.041 C 
ATOM     20  C   UNL A   1      33.821  20.508  24.153  1.00  0.00    -0.002 C 
ATOM     21  H   UNL A   1      33.293  19.269  25.831  1.00  0.00     0.031 H 
ATOM     22  C   UNL A   1      35.999  18.608  24.969  1.00  0.00    -0.049 C 
ATOM     23  H   UNL A   1      34.537  17.984  23.500  1.00  0.00     0.030 H 
ATOM     24  C   UNL A   1      32.849  21.711  24.180  1.00  0.00    -0.063 C 
ATOM     25  H   UNL A   1      33.844  20.178  23.136  1.00  0.00     0.036 H 
ATOM     26  C   UNL A   1      36.320  20.065  24.737  1.00  0.00    -0.038 C 
ATOM     27  H   UNL A   1      36.715  18.031  24.424  1.00  0.00     0.027 H 
ATOM     28  H   UNL A   1      36.028  18.492  26.033  1.00  0.00     0.027 H 
ATOM     29  C   UNL A   1      35.633  22.158  23.688  1.00  0.00    -0.037 C 
ATOM     30  C   UNL A   1      33.136  22.830  23.132  1.00  0.00    -0.006 C 
ATOM     31  C   UNL A   1      32.026  21.920  25.229  1.00  0.00    -0.084 C 
ATOM     32  H   UNL A   1      36.809  20.133  23.787  1.00  0.00     0.028 H 
ATOM     33  H   UNL A   1      36.908  20.347  25.585  1.00  0.00     0.028 H 
ATOM     34  C   UNL A   1      34.638  23.247  23.278  1.00  0.00    -0.043 C 
ATOM     35  H   UNL A   1      35.924  21.643  22.796  1.00  0.00     0.028 H 
ATOM     36  H   UNL A   1      36.412  22.688  24.195  1.00  0.00     0.028 H 
ATOM     37  C   UNL A   1      32.177  24.130  23.349  1.00  0.00    -0.020 C 
ATOM     38  C   UNL A   1      31.507  23.279  25.632  1.00  0.00    -0.031 C 
ATOM     39  H   UNL A   1      31.735  21.103  25.790  1.00  0.00     0.058 H 
ATOM     40  H   UNL A   1      34.958  23.636  22.334  1.00  0.00     0.028 H 
ATOM     41  H   UNL A   1      34.650  23.948  24.088  1.00  0.00     0.028 H 
ATOM     42  C   UNL A   1      32.235  24.433  24.890  1.00  0.00    -0.026 C 
ATOM     43  C   UNL A   1      32.634  25.350  22.505  1.00  0.00    -0.046 C 
ATOM     44  H   UNL A   1      31.650  23.403  26.685  1.00  0.00     0.031 H 
ATOM     45  H   UNL A   1      30.471  23.323  25.371  1.00  0.00     0.031 H 
ATOM     46  C   UNL A   1      31.944  25.905  25.407  1.00  0.00    -0.025 C 
ATOM     47  H   UNL A   1      33.271  24.446  25.155  1.00  0.00     0.032 H 
ATOM     48  C   UNL A   1      32.007  26.671  22.953  1.00  0.00    -0.049 C 
ATOM     49  H   UNL A   1      33.698  25.436  22.581  1.00  0.00     0.027 H 
ATOM     50  H   UNL A   1      32.313  25.174  21.498  1.00  0.00     0.027 H 
ATOM     51  C   UNL A   1      32.803  26.142  26.694  1.00  0.00    -0.045 C 
ATOM     52  C   UNL A   1      32.464  26.984  24.382  1.00  0.00    -0.028 C 
ATOM     53  H   UNL A   1      32.320  27.457  22.298  1.00  0.00     0.027 H 
ATOM     54  H   UNL A   1      30.941  26.592  22.925  1.00  0.00     0.027 H 
ATOM     55  C   UNL A   1      32.719  27.565  27.247  1.00  0.00    -0.026 C 
ATOM     56  H   UNL A   1      33.825  25.932  26.460  1.00  0.00     0.027 H 
ATOM     57  H   UNL A   1      32.410  25.494  27.451  1.00  0.00     0.027 H 
ATOM     58  C   UNL A   1      32.301  28.487  24.831  1.00  0.00    -0.006 C 
ATOM     59  H   UNL A   1      33.529  26.890  24.379  1.00  0.00     0.031 H 
ATOM     60  C   UNL A   1      33.011  28.655  26.211  1.00  0.00     0.059 C 
ATOM     61  H   UNL A   1      33.429  27.659  28.042  1.00  0.00     0.029 H 
ATOM     62  H   UNL A   1      31.711  27.711  27.574  1.00  0.00     0.029 H 
ATOM     63  H   UNL A   1      34.049  28.565  25.968  1.00  0.00     0.061 H 
BRANCH  18  64
ATOM     64  C   UNL A   1      32.103  18.612  24.221  1.00  0.00    -0.062 C 
ATOM     65  H   UNL A   1      31.437  19.433  24.060  1.00  0.00     0.023 H 
ATOM     66  H   UNL A   1      31.666  17.930  24.921  1.00  0.00     0.023 H 
ATOM     67  H   UNL A   1      32.278  18.107  23.293  1.00  0.00     0.023 H 
ENDBRANCH  18  64
BRANCH  19  68
ATOM     68  C   UNL A   1      34.426  16.765  25.287  1.00  0.00    -0.062 C 
ATOM     69  H   UNL A   1      33.631  16.844  25.999  1.00  0.00     0.023 H 
ATOM     70  H   UNL A   1      35.334  16.513  25.794  1.00  0.00     0.023 H 
ATOM     71  H   UNL A   1      34.191  16.003  24.574  1.00  0.00     0.023 H 
ENDBRANCH  19  68
BRANCH  30  72
ATOM     72  C   UNL A   1      32.933  22.264  21.701  1.00  0.00    -0.055 C 
ATOM     73  H   UNL A   1      33.502  21.364  21.590  1.00  0.00     0.024 H 
ATOM     74  H   UNL A   1      33.259  22.985  20.982  1.00  0.00     0.024 H 
ATOM     75  H   UNL A   1      31.896  22.051  21.547  1.00  0.00     0.024 H 
ENDBRANCH  30  72
BRANCH  37  76
ATOM     76  C   UNL A   1      30.718  23.830  22.881  1.00  0.00    -0.059 C 
ATOM     77  H   UNL A   1      30.441  24.520  22.111  1.00  0.00     0.024 H 
ATOM     78  H   UNL A   1      30.050  23.935  23.711  1.00  0.00     0.024 H 
ATOM     79  H   UNL A   1      30.663  22.831  22.503  1.00  0.00     0.024 H 
ENDBRANCH  37  76
BRANCH  46  80
ATOM     80  C   UNL A   1      30.457  26.035  25.780  1.00  0.00    -0.059 C 
ATOM     81  H   UNL A   1      29.860  25.976  24.894  1.00  0.00     0.024 H 
ATOM     82  H   UNL A   1      30.291  26.977  26.260  1.00  0.00     0.024 H 
ATOM     83  H   UNL A   1      30.185  25.242  26.446  1.00  0.00     0.024 H 
ENDBRANCH  46  80
BRANCH  58  84
ATOM     84  C   UNL A   1      30.842  28.993  24.848  1.00  0.00    -0.057 C 
ATOM     85  H   UNL A   1      30.188  28.201  24.550  1.00  0.00     0.024 H 
ATOM     86  H   UNL A   1      30.741  29.814  24.170  1.00  0.00     0.024 H 
ATOM     87  H   UNL A   1      30.588  29.314  25.837  1.00  0.00     0.024 H 
ENDBRANCH  58  84
BRANCH  58  88
ATOM     88  C   UNL A   1      33.036  29.431  23.833  1.00  0.00    -0.057 C 
ATOM     89  H   UNL A   1      32.315  29.950  23.237  1.00  0.00     0.024 H 
ATOM     90  H   UNL A   1      33.673  28.852  23.198  1.00  0.00     0.024 H 
ATOM     91  H   UNL A   1      33.624  30.139  24.379  1.00  0.00     0.024 H 
ENDBRANCH  58  88
BRANCH  60  92
ATOM     92  O   UNL A   1      32.724  29.929  26.790  1.00  0.00    -0.393 OA
ATOM     93  H   UNL A   1      33.554  30.359  27.050  1.00  0.00     0.210 HD
ENDBRANCH  60  92
ENDBRANCH  14  17
ENDBRANCH  10  13
ENDBRANCH   7  10
ENDBRANCH   4   7
ENDBRANCH   1   4
BRANCH   1  94
ATOM     94  C   UNL A   1      39.600  20.850  26.553  1.00  0.00    -0.036 C 
ATOM     95  H   UNL A   1      38.618  20.671  26.938  1.00  0.00     0.028 H 
ATOM     96  H   UNL A   1      40.403  20.723  27.249  1.00  0.00     0.028 H 
BRANCH  94  97
ATOM     97  C   UNL A   1      39.862  19.809  25.478  1.00  0.00     0.018 C 
ATOM     98  H   UNL A   1      40.195  20.314  24.595  1.00  0.00     0.049 H 
ATOM     99  H   UNL A   1      38.941  19.282  25.331  1.00  0.00     0.049 H 
BRANCH  97 100
ATOM    100  N   UNL A   1      40.855  18.819  25.838  1.00  0.00    -0.352 N 
ATOM    101  C   UNL A   1      42.131  19.003  26.321  1.00  0.00     0.251 C 
ATOM    102  H   UNL A   1      40.578  17.881  25.721  1.00  0.00     0.163 HD
ATOM    103  O   UNL A   1      42.863  18.040  26.502  1.00  0.00    -0.269 OA
BRANCH 101 104
ATOM    104  C   UNL A   1      42.641  20.373  26.584  1.00  0.00     0.039 A 
ATOM    105  C   UNL A   1      43.124  21.123  25.508  1.00  0.00    -0.049 A 
ATOM    106  C   UNL A   1      42.652  20.919  27.871  1.00  0.00    -0.049 A 
ATOM    107  C   UNL A   1      43.560  22.435  25.712  1.00  0.00    -0.053 A 
ATOM    108  H   UNL A   1      43.157  20.707  24.564  1.00  0.00     0.063 H 
ATOM    109  C   UNL A   1      43.002  22.256  28.057  1.00  0.00    -0.053 A 
ATOM    110  H   UNL A   1      42.400  20.334  28.682  1.00  0.00     0.063 H 
ATOM    111  C   UNL A   1      43.472  23.024  26.982  1.00  0.00    -0.014 A 
ATOM    112  H   UNL A   1      43.950  22.973  24.922  1.00  0.00     0.063 H 
ATOM    113  H   UNL A   1      42.916  22.681  28.994  1.00  0.00     0.063 H 
BRANCH 111 114
ATOM    114  C   UNL A   1      43.886  24.435  27.205  1.00  0.00     0.031 A 
ATOM    115  C   UNL A   1      42.882  25.451  27.679  1.00  0.00     0.074 A 
ATOM    116  C   UNL A   1      45.152  24.812  26.938  1.00  0.00     0.049 A 
ATOM    117  N   UNL A   1      43.036  26.734  27.890  1.00  0.00    -0.248 NA
ATOM    118  C   UNL A   1      41.515  24.965  27.924  1.00  0.00    -0.034 C 
ATOM    119  C   UNL A   1      46.207  23.933  26.430  1.00  0.00    -0.036 A 
ATOM    120  N   UNL A   1      45.768  26.035  27.051  1.00  0.00    -0.354 N 
ATOM    121  C   UNL A   1      41.788  27.206  28.277  1.00  0.00     0.074 A 
ATOM    122  C   UNL A   1      40.875  26.088  28.211  1.00  0.00    -0.034 C 
ATOM    123  H   UNL A   1      41.151  24.001  27.883  1.00  0.00     0.065 H 
ATOM    124  C   UNL A   1      47.343  24.636  26.304  1.00  0.00    -0.036 A 
ATOM    125  H   UNL A   1      46.094  22.932  26.205  1.00  0.00     0.065 H 
ATOM    126  C   UNL A   1      47.090  26.023  26.681  1.00  0.00     0.049 A 
ATOM    127  H   UNL A   1      45.304  26.844  27.369  1.00  0.00     0.167 HD
ATOM    128  C   UNL A   1      41.442  28.453  28.678  1.00  0.00     0.037 A 
ATOM    129  H   UNL A   1      39.856  26.156  28.368  1.00  0.00     0.065 H 
ATOM    130  H   UNL A   1      48.251  24.255  25.992  1.00  0.00     0.065 H 
ATOM    131  C   UNL A   1      47.995  27.020  26.643  1.00  0.00     0.037 A 
ATOM    132  C   UNL A   1      42.361  29.558  28.762  1.00  0.00     0.049 A 
ATOM    133  C   UNL A   1      47.581  28.401  27.077  1.00  0.00     0.074 A 
ATOM    134  C   UNL A   1      42.125  30.845  29.209  1.00  0.00    -0.036 A 
ATOM    135  N   UNL A   1      43.696  29.505  28.384  1.00  0.00    -0.354 N 
ATOM    136  N   UNL A   1      46.416  28.819  27.509  1.00  0.00    -0.248 NA
ATOM    137  C   UNL A   1      48.609  29.449  27.024  1.00  0.00    -0.034 C 
ATOM    138  C   UNL A   1      43.298  31.588  29.047  1.00  0.00    -0.036 A 
ATOM    139  H   UNL A   1      41.234  31.197  29.597  1.00  0.00     0.065 H 
ATOM    140  C   UNL A   1      44.286  30.746  28.561  1.00  0.00     0.049 A 
ATOM    141  H   UNL A   1      44.154  28.704  28.042  1.00  0.00     0.167 HD
ATOM    142  C   UNL A   1      46.578  30.164  27.811  1.00  0.00     0.074 A 
ATOM    143  C   UNL A   1      47.961  30.489  27.526  1.00  0.00    -0.034 C 
ATOM    144  H   UNL A   1      49.582  29.390  26.685  1.00  0.00     0.065 H 
ATOM    145  H   UNL A   1      43.410  32.592  29.253  1.00  0.00     0.065 H 
ATOM    146  C   UNL A   1      45.667  31.051  28.281  1.00  0.00     0.037 A 
ATOM    147  H   UNL A   1      48.386  31.415  27.694  1.00  0.00     0.065 H 
BRANCH 128 148
ATOM    148  C   UNL A   1      40.007  28.689  29.058  1.00  0.00     0.064 A 
ATOM    149  C   UNL A   1      39.546  28.489  30.368  1.00  0.00     0.173 A 
ATOM    150  C   UNL A   1      39.086  29.155  28.106  1.00  0.00     0.173 A 
ATOM    151  F   UNL A   1      40.380  28.035  31.315  1.00  0.00    -0.203 F 
ATOM    152  C   UNL A   1      38.213  28.712  30.703  1.00  0.00     0.198 A 
ATOM    153  C   UNL A   1      37.761  29.411  28.453  1.00  0.00     0.198 A 
ATOM    154  F   UNL A   1      39.472  29.370  26.839  1.00  0.00    -0.203 F 
ATOM    155  F   UNL A   1      37.785  28.459  31.948  1.00  0.00    -0.200 F 
ATOM    156  C   UNL A   1      37.324  29.180  29.748  1.00  0.00     0.200 A 
ATOM    157  F   UNL A   1      36.908  29.878  27.531  1.00  0.00    -0.200 F 
ATOM    158  F   UNL A   1      36.043  29.402  30.073  1.00  0.00    -0.200 F 
ENDBRANCH 128 148
BRANCH 131 159
ATOM    159  C   UNL A   1      49.388  26.749  26.193  1.00  0.00     0.064 A 
ATOM    160  C   UNL A   1      49.770  26.954  24.860  1.00  0.00     0.173 A 
ATOM    161  C   UNL A   1      50.362  26.269  27.082  1.00  0.00     0.173 A 
ATOM    162  F   UNL A   1      48.871  27.393  23.967  1.00  0.00    -0.203 F 
ATOM    163  C   UNL A   1      51.063  26.667  24.427  1.00  0.00     0.198 A 
ATOM    164  C   UNL A   1      51.664  26.014  26.656  1.00  0.00     0.198 A 
ATOM    165  F   UNL A   1      50.052  26.059  28.370  1.00  0.00    -0.203 F 
ATOM    166  F   UNL A   1      51.385  26.822  23.136  1.00  0.00    -0.200 F 
ATOM    167  C   UNL A   1      52.010  26.203  25.326  1.00  0.00     0.200 A 
ATOM    168  F   UNL A   1      52.580  25.580  27.532  1.00  0.00    -0.200 F 
ATOM    169  F   UNL A   1      53.255  25.930  24.912  1.00  0.00    -0.200 F 
ENDBRANCH 131 159
BRANCH 146 170
ATOM    170  C   UNL A   1      46.141  32.449  28.555  1.00  0.00     0.064 A 
ATOM    171  C   UNL A   1      46.685  32.817  29.794  1.00  0.00     0.173 A 
ATOM    172  C   UNL A   1      46.087  33.425  27.547  1.00  0.00     0.173 A 
ATOM    173  F   UNL A   1      46.746  31.927  30.796  1.00  0.00    -0.203 F 
ATOM    174  C   UNL A   1      47.129  34.117  30.024  1.00  0.00     0.198 A 
ATOM    175  C   UNL A   1      46.566  34.713  27.768  1.00  0.00     0.198 A 
ATOM    176  F   UNL A   1      45.585  33.125  26.340  1.00  0.00    -0.203 F 
ATOM    177  F   UNL A   1      47.594  34.460  31.233  1.00  0.00    -0.200 F 
ATOM    178  C   UNL A   1      47.077  35.060  29.009  1.00  0.00     0.200 A 
ATOM    179  F   UNL A   1      46.531  35.619  26.781  1.00  0.00    -0.200 F 
ATOM    180  F   UNL A   1      47.515  36.308  29.229  1.00  0.00    -0.200 F 
ENDBRANCH 146 170
ENDBRANCH 111 114
ENDBRANCH 101 104
ENDBRANCH  97 100
ENDBRANCH  94  97
ENDBRANCH   1  94
TORSDOF 21
ENDMDL
MODEL 6
REMARK VINA RESULT:     -12.0      4.832     10.481
REMARK SMILES C[C@H]1[C@H](C)CC[C@@]2(C(=O)NCCCCCCNC(=O)c3ccc(-c4c5nc(c(-c6c(F)c(F)c(F)c(F)c6F)c6ccc([nH]6)c(-c6c(F)c(F)c(F)c(F)c6F)c6nc(c(-c7c(F)c(F)c(F)c(F)c7F)c7ccc4[nH]7)C=C6)C=C5)cc3)CC[C@@]3(C)C(=CC[C@@H]4[C@@]5(C)CC[C@H](O)C(C)(C)[C@@H]5CC[C@]43C)[C@H]12
REMARK SMILES IDX 14 1 13 4 12 7 11 10 10 13 8 14 9 15 7 17 2 18 3 19 105 20
REMARK SMILES IDX 5 22 87 24 6 26 83 29 85 30 88 31 84 34 103 37 89 38 90 42
REMARK SMILES IDX 102 43 91 46 101 48 93 51 100 52 94 55 97 58 95 60 1 64 4 68
REMARK SMILES IDX 86 72 104 76 92 80 98 84 99 88 96 92 15 94 16 97 17 100
REMARK SMILES IDX 18 101 19 103 20 104 21 105 82 106 22 107 81 109 23 111
REMARK SMILES IDX 24 114 25 115 75 116 26 117 80 118 74 119 76 120 27 121
REMARK SMILES IDX 79 122 73 124 72 126 28 128 60 131 40 132 59 133 41 134
REMARK SMILES IDX 44 135 58 136 77 137 42 138 43 140 57 142 78 143 45 146
REMARK SMILES IDX 29 148 30 149 38 150 31 151 32 152 36 153 39 154 33 155
REMARK SMILES IDX 34 156 37 157 35 158 61 159 62 160 70 161 63 162 64 163
REMARK SMILES IDX 68 164 71 165 65 166 66 167 69 168 67 169 46 170 47 171
REMARK SMILES IDX 55 172 48 173 49 174 53 175 56 176 50 177 51 178 54 179
REMARK SMILES IDX 52 180
REMARK H PARENT 14 2 14 3 13 5 13 6 12 8 12 9 11 11 11 12 10 16 2 21 3 23
REMARK H PARENT 105 25 5 27 5 28 6 32 6 33 83 35 83 36 88 39 84 40 84 41 89 44
REMARK H PARENT 89 45 90 47 102 49 102 50 101 53 101 54 93 56 93 57 100 59
REMARK H PARENT 94 61 94 62 95 63 1 65 1 66 1 67 4 69 4 70 4 71 86 73 86 74
REMARK H PARENT 86 75 104 77 104 78 104 79 92 81 92 82 92 83 98 85 98 86 98 87
REMARK H PARENT 99 89 99 90 99 91 96 93 15 95 15 96 16 98 16 99 17 102 21 108
REMARK H PARENT 82 110 22 112 81 113 80 123 74 125 76 127 79 129 73 130 41 139
REMARK H PARENT 44 141 77 144 42 145 78 147
REMARK Flexibility Score: inf
ROOT
ATOM      1  C   UNL A   1      34.370  31.448  27.685  1.00  0.00    -0.052 C 
ATOM      2  H   UNL A   1      34.551  31.486  26.632  1.00  0.00     0.027 H 
ATOM      3  H   UNL A   1      35.116  31.896  28.309  1.00  0.00     0.027 H 
ENDROOT
BRANCH   1   4
ATOM      4  C   UNL A   1      34.380  29.970  28.092  1.00  0.00    -0.052 C 
ATOM      5  H   UNL A   1      34.776  29.924  29.085  1.00  0.00     0.027 H 
ATOM      6  H   UNL A   1      33.362  29.668  27.956  1.00  0.00     0.027 H 
BRANCH   4   7
ATOM      7  C   UNL A   1      35.168  28.953  27.251  1.00  0.00    -0.036 C 
ATOM      8  H   UNL A   1      35.945  29.492  26.750  1.00  0.00     0.028 H 
ATOM      9  H   UNL A   1      35.482  28.218  27.961  1.00  0.00     0.028 H 
BRANCH   7  10
ATOM     10  C   UNL A   1      34.423  28.144  26.184  1.00  0.00     0.017 C 
ATOM     11  H   UNL A   1      35.065  27.351  25.860  1.00  0.00     0.049 H 
ATOM     12  H   UNL A   1      33.521  27.799  26.646  1.00  0.00     0.049 H 
BRANCH  10  13
ATOM     13  N   UNL A   1      34.016  28.900  25.013  1.00  0.00    -0.356 N 
ATOM     14  C   UNL A   1      32.803  28.982  24.376  1.00  0.00     0.226 C 
ATOM     15  O   UNL A   1      32.887  29.003  23.140  1.00  0.00    -0.274 OA
ATOM     16  H   UNL A   1      34.729  29.444  24.608  1.00  0.00     0.163 HD
BRANCH  14  17
ATOM     17  C   UNL A   1      31.403  29.129  25.091  1.00  0.00     0.056 C 
ATOM     18  C   UNL A   1      29.791  29.525  23.104  1.00  0.00    -0.034 C 
ATOM     19  C   UNL A   1      29.382  30.902  23.727  1.00  0.00    -0.041 C 
ATOM     20  C   UNL A   1      30.239  28.549  24.232  1.00  0.00    -0.002 C 
ATOM     21  H   UNL A   1      30.617  29.683  22.443  1.00  0.00     0.031 H 
ATOM     22  C   UNL A   1      30.405  31.511  24.704  1.00  0.00    -0.049 C 
ATOM     23  H   UNL A   1      28.490  30.612  24.244  1.00  0.00     0.030 H 
ATOM     24  C   UNL A   1      30.665  27.095  23.922  1.00  0.00    -0.063 C 
ATOM     25  H   UNL A   1      29.287  28.474  24.715  1.00  0.00     0.036 H 
ATOM     26  C   UNL A   1      31.178  30.563  25.589  1.00  0.00    -0.038 C 
ATOM     27  H   UNL A   1      29.875  32.185  25.343  1.00  0.00     0.027 H 
ATOM     28  H   UNL A   1      31.146  31.959  24.076  1.00  0.00     0.027 H 
ATOM     29  C   UNL A   1      31.403  28.280  26.421  1.00  0.00    -0.037 C 
ATOM     30  C   UNL A   1      30.617  26.110  25.130  1.00  0.00    -0.006 C 
ATOM     31  C   UNL A   1      31.327  26.790  22.786  1.00  0.00    -0.084 C 
ATOM     32  H   UNL A   1      30.652  30.498  26.519  1.00  0.00     0.028 H 
ATOM     33  H   UNL A   1      32.161  30.986  25.638  1.00  0.00     0.028 H 
ATOM     34  C   UNL A   1      31.428  26.754  26.304  1.00  0.00    -0.043 C 
ATOM     35  H   UNL A   1      30.519  28.542  26.966  1.00  0.00     0.028 H 
ATOM     36  H   UNL A   1      32.331  28.526  26.894  1.00  0.00     0.028 H 
ATOM     37  C   UNL A   1      31.248  24.654  24.755  1.00  0.00    -0.020 C 
ATOM     38  C   UNL A   1      32.266  25.615  22.651  1.00  0.00    -0.031 C 
ATOM     39  H   UNL A   1      31.183  27.394  21.962  1.00  0.00     0.058 H 
ATOM     40  H   UNL A   1      31.042  26.355  27.219  1.00  0.00     0.028 H 
ATOM     41  H   UNL A   1      32.450  26.512  26.097  1.00  0.00     0.028 H 
ATOM     42  C   UNL A   1      32.603  24.968  24.022  1.00  0.00    -0.026 C 
ATOM     43  C   UNL A   1      31.465  23.763  26.008  1.00  0.00    -0.046 C 
ATOM     44  H   UNL A   1      33.175  25.953  22.198  1.00  0.00     0.031 H 
ATOM     45  H   UNL A   1      31.780  24.876  22.050  1.00  0.00     0.031 H 
ATOM     46  C   UNL A   1      33.763  23.885  24.031  1.00  0.00    -0.025 C 
ATOM     47  H   UNL A   1      33.125  25.667  24.641  1.00  0.00     0.032 H 
ATOM     48  C   UNL A   1      32.383  22.567  25.754  1.00  0.00    -0.049 C 
ATOM     49  H   UNL A   1      31.896  24.364  26.781  1.00  0.00     0.027 H 
ATOM     50  H   UNL A   1      30.507  23.372  26.285  1.00  0.00     0.027 H 
ATOM     51  C   UNL A   1      35.132  24.645  24.012  1.00  0.00    -0.045 C 
ATOM     52  C   UNL A   1      33.780  23.076  25.383  1.00  0.00    -0.028 C 
ATOM     53  H   UNL A   1      32.444  21.967  26.638  1.00  0.00     0.027 H 
ATOM     54  H   UNL A   1      31.992  21.975  24.953  1.00  0.00     0.027 H 
ATOM     55  C   UNL A   1      36.354  23.735  24.136  1.00  0.00    -0.026 C 
ATOM     56  H   UNL A   1      35.144  25.337  24.828  1.00  0.00     0.027 H 
ATOM     57  H   UNL A   1      35.203  25.129  23.059  1.00  0.00     0.027 H 
ATOM     58  C   UNL A   1      34.946  22.025  25.537  1.00  0.00    -0.006 C 
ATOM     59  H   UNL A   1      34.047  23.784  26.140  1.00  0.00     0.031 H 
ATOM     60  C   UNL A   1      36.299  22.777  25.330  1.00  0.00     0.059 C 
ATOM     61  H   UNL A   1      37.223  24.351  24.238  1.00  0.00     0.029 H 
ATOM     62  H   UNL A   1      36.378  23.129  23.254  1.00  0.00     0.029 H 
ATOM     63  H   UNL A   1      36.379  23.387  26.206  1.00  0.00     0.061 H 
BRANCH  18  64
ATOM     64  C   UNL A   1      28.659  28.926  22.253  1.00  0.00    -0.062 C 
ATOM     65  H   UNL A   1      28.332  29.649  21.535  1.00  0.00     0.023 H 
ATOM     66  H   UNL A   1      27.840  28.656  22.886  1.00  0.00     0.023 H 
ATOM     67  H   UNL A   1      29.018  28.056  21.743  1.00  0.00     0.023 H 
ENDBRANCH  18  64
BRANCH  19  68
ATOM     68  C   UNL A   1      29.089  32.017  22.708  1.00  0.00    -0.062 C 
ATOM     69  H   UNL A   1      29.834  32.781  22.792  1.00  0.00     0.023 H 
ATOM     70  H   UNL A   1      28.125  32.436  22.904  1.00  0.00     0.023 H 
ATOM     71  H   UNL A   1      29.107  31.609  21.720  1.00  0.00     0.023 H 
ENDBRANCH  19  68
BRANCH  30  72
ATOM     72  C   UNL A   1      29.148  25.937  25.600  1.00  0.00    -0.055 C 
ATOM     73  H   UNL A   1      29.104  25.188  26.363  1.00  0.00     0.024 H 
ATOM     74  H   UNL A   1      28.542  25.638  24.771  1.00  0.00     0.024 H 
ATOM     75  H   UNL A   1      28.788  26.865  25.989  1.00  0.00     0.024 H 
ENDBRANCH  30  72
BRANCH  37  76
ATOM     76  C   UNL A   1      30.278  23.846  23.838  1.00  0.00    -0.059 C 
ATOM     77  H   UNL A   1      30.846  23.254  23.151  1.00  0.00     0.024 H 
ATOM     78  H   UNL A   1      29.655  24.525  23.293  1.00  0.00     0.024 H 
ATOM     79  H   UNL A   1      29.667  23.206  24.440  1.00  0.00     0.024 H 
ENDBRANCH  37  76
BRANCH  46  80
ATOM     80  C   UNL A   1      33.668  23.019  22.763  1.00  0.00    -0.059 C 
ATOM     81  H   UNL A   1      34.635  22.625  22.527  1.00  0.00     0.024 H 
ATOM     82  H   UNL A   1      33.318  23.617  21.947  1.00  0.00     0.024 H 
ATOM     83  H   UNL A   1      32.986  22.211  22.932  1.00  0.00     0.024 H 
ENDBRANCH  46  80
BRANCH  58  84
ATOM     84  C   UNL A   1      34.811  20.785  24.626  1.00  0.00    -0.057 C 
ATOM     85  H   UNL A   1      33.993  20.184  24.963  1.00  0.00     0.024 H 
ATOM     86  H   UNL A   1      35.715  20.213  24.666  1.00  0.00     0.024 H 
ATOM     87  H   UNL A   1      34.633  21.100  23.619  1.00  0.00     0.024 H 
ENDBRANCH  58  84
BRANCH  58  88
ATOM     88  C   UNL A   1      34.970  21.453  26.985  1.00  0.00    -0.057 C 
ATOM     89  H   UNL A   1      34.644  20.434  26.970  1.00  0.00     0.024 H 
ATOM     90  H   UNL A   1      34.316  22.028  27.606  1.00  0.00     0.024 H 
ATOM     91  H   UNL A   1      35.966  21.503  27.372  1.00  0.00     0.024 H 
ENDBRANCH  58  88
BRANCH  60  92
ATOM     92  O   UNL A   1      37.392  21.862  25.236  1.00  0.00    -0.393 OA
ATOM     93  H   UNL A   1      38.219  22.326  25.437  1.00  0.00     0.210 HD
ENDBRANCH  60  92
ENDBRANCH  14  17
ENDBRANCH  10  13
ENDBRANCH   7  10
ENDBRANCH   4   7
ENDBRANCH   1   4
BRANCH   1  94
ATOM     94  C   UNL A   1      33.114  32.269  27.958  1.00  0.00    -0.036 C 
ATOM     95  H   UNL A   1      33.118  32.517  28.999  1.00  0.00     0.028 H 
ATOM     96  H   UNL A   1      32.310  31.642  27.632  1.00  0.00     0.028 H 
BRANCH  94  97
ATOM     97  C   UNL A   1      32.923  33.563  27.184  1.00  0.00     0.018 C 
ATOM     98  H   UNL A   1      32.167  33.403  26.444  1.00  0.00     0.049 H 
ATOM     99  H   UNL A   1      33.874  33.809  26.759  1.00  0.00     0.049 H 
BRANCH  97 100
ATOM    100  N   UNL A   1      32.528  34.690  28.001  1.00  0.00    -0.352 N 
ATOM    101  C   UNL A   1      33.067  35.137  29.187  1.00  0.00     0.251 C 
ATOM    102  H   UNL A   1      31.766  35.213  27.660  1.00  0.00     0.163 HD
ATOM    103  O   UNL A   1      32.551  36.073  29.781  1.00  0.00    -0.269 OA
BRANCH 101 104
ATOM    104  C   UNL A   1      34.251  34.459  29.773  1.00  0.00     0.039 A 
ATOM    105  C   UNL A   1      34.067  33.655  30.902  1.00  0.00    -0.049 A 
ATOM    106  C   UNL A   1      35.529  34.609  29.229  1.00  0.00    -0.049 A 
ATOM    107  C   UNL A   1      35.150  32.958  31.446  1.00  0.00    -0.053 A 
ATOM    108  H   UNL A   1      33.133  33.576  31.332  1.00  0.00     0.063 H 
ATOM    109  C   UNL A   1      36.589  33.845  29.717  1.00  0.00    -0.053 A 
ATOM    110  H   UNL A   1      35.689  35.284  28.466  1.00  0.00     0.063 H 
ATOM    111  C   UNL A   1      36.414  33.021  30.839  1.00  0.00    -0.014 A 
ATOM    112  H   UNL A   1      35.019  32.395  32.301  1.00  0.00     0.063 H 
ATOM    113  H   UNL A   1      37.508  33.888  29.250  1.00  0.00     0.063 H 
BRANCH 111 114
ATOM    114  C   UNL A   1      37.564  32.248  31.377  1.00  0.00     0.031 A 
ATOM    115  C   UNL A   1      38.103  32.552  32.749  1.00  0.00     0.074 A 
ATOM    116  C   UNL A   1      38.152  31.303  30.617  1.00  0.00     0.049 A 
ATOM    117  N   UNL A   1      39.122  32.022  33.377  1.00  0.00    -0.248 NA
ATOM    118  C   UNL A   1      37.421  33.614  33.507  1.00  0.00    -0.034 C 
ATOM    119  C   UNL A   1      37.752  30.946  29.253  1.00  0.00    -0.036 A 
ATOM    120  N   UNL A   1      39.214  30.473  30.877  1.00  0.00    -0.354 N 
ATOM    121  C   UNL A   1      39.210  32.692  34.590  1.00  0.00     0.074 A 
ATOM    122  C   UNL A   1      38.183  33.709  34.586  1.00  0.00    -0.034 C 
ATOM    123  H   UNL A   1      36.572  34.145  33.260  1.00  0.00     0.065 H 
ATOM    124  C   UNL A   1      38.538  29.952  28.811  1.00  0.00    -0.036 A 
ATOM    125  H   UNL A   1      36.988  31.388  28.719  1.00  0.00     0.065 H 
ATOM    126  C   UNL A   1      39.524  29.629  29.838  1.00  0.00     0.049 A 
ATOM    127  H   UNL A   1      39.707  30.481  31.729  1.00  0.00     0.167 HD
ATOM    128  C   UNL A   1      40.052  32.461  35.626  1.00  0.00     0.037 A 
ATOM    129  H   UNL A   1      38.059  34.418  35.326  1.00  0.00     0.065 H 
ATOM    130  H   UNL A   1      38.458  29.490  27.891  1.00  0.00     0.065 H 
ATOM    131  C   UNL A   1      40.496  28.705  29.724  1.00  0.00     0.037 A 
ATOM    132  C   UNL A   1      41.059  31.432  35.634  1.00  0.00     0.049 A 
ATOM    133  C   UNL A   1      41.431  28.479  30.883  1.00  0.00     0.074 A 
ATOM    134  C   UNL A   1      41.924  31.079  36.653  1.00  0.00    -0.036 A 
ATOM    135  N   UNL A   1      41.337  30.593  34.564  1.00  0.00    -0.354 N 
ATOM    136  N   UNL A   1      41.457  29.071  32.053  1.00  0.00    -0.248 NA
ATOM    137  C   UNL A   1      42.467  27.453  30.709  1.00  0.00    -0.034 C 
ATOM    138  C   UNL A   1      42.766  30.067  36.181  1.00  0.00    -0.036 A 
ATOM    139  H   UNL A   1      41.945  31.492  37.599  1.00  0.00     0.065 H 
ATOM    140  C   UNL A   1      42.381  29.742  34.890  1.00  0.00     0.049 A 
ATOM    141  H   UNL A   1      40.862  30.600  33.701  1.00  0.00     0.167 HD
ATOM    142  C   UNL A   1      42.486  28.468  32.764  1.00  0.00     0.074 A 
ATOM    143  C   UNL A   1      43.050  27.453  31.898  1.00  0.00    -0.034 C 
ATOM    144  H   UNL A   1      42.684  26.881  29.877  1.00  0.00     0.065 H 
ATOM    145  H   UNL A   1      43.543  29.636  36.706  1.00  0.00     0.065 H 
ATOM    146  C   UNL A   1      42.926  28.731  34.019  1.00  0.00     0.037 A 
ATOM    147  H   UNL A   1      43.810  26.810  32.175  1.00  0.00     0.065 H 
BRANCH 128 148
ATOM    148  C   UNL A   1      39.920  33.339  36.839  1.00  0.00     0.064 A 
ATOM    149  C   UNL A   1      40.701  34.492  37.007  1.00  0.00     0.173 A 
ATOM    150  C   UNL A   1      38.973  33.042  37.833  1.00  0.00     0.173 A 
ATOM    151  F   UNL A   1      41.629  34.817  36.093  1.00  0.00    -0.203 F 
ATOM    152  C   UNL A   1      40.567  35.295  38.137  1.00  0.00     0.198 A 
ATOM    153  C   UNL A   1      38.816  33.867  38.945  1.00  0.00     0.198 A 
ATOM    154  F   UNL A   1      38.194  31.955  37.723  1.00  0.00    -0.203 F 
ATOM    155  F   UNL A   1      41.366  36.358  38.300  1.00  0.00    -0.200 F 
ATOM    156  C   UNL A   1      39.619  34.985  39.101  1.00  0.00     0.200 A 
ATOM    157  F   UNL A   1      37.890  33.574  39.868  1.00  0.00    -0.200 F 
ATOM    158  F   UNL A   1      39.485  35.763  40.184  1.00  0.00    -0.200 F 
ENDBRANCH 128 148
BRANCH 131 159
ATOM    159  C   UNL A   1      40.627  27.908  28.474  1.00  0.00     0.064 A 
ATOM    160  C   UNL A   1      39.996  26.663  28.342  1.00  0.00     0.173 A 
ATOM    161  C   UNL A   1      41.392  28.368  27.391  1.00  0.00     0.173 A 
ATOM    162  F   UNL A   1      39.270  26.170  29.355  1.00  0.00    -0.203 F 
ATOM    163  C   UNL A   1      40.146  25.897  27.186  1.00  0.00     0.198 A 
ATOM    164  C   UNL A   1      41.513  27.616  26.224  1.00  0.00     0.198 A 
ATOM    165  F   UNL A   1      42.012  29.554  27.462  1.00  0.00    -0.203 F 
ATOM    166  F   UNL A   1      39.575  24.687  27.109  1.00  0.00    -0.200 F 
ATOM    167  C   UNL A   1      40.899  26.377  26.126  1.00  0.00     0.200 A 
ATOM    168  F   UNL A   1      42.230  28.092  25.196  1.00  0.00    -0.200 F 
ATOM    169  F   UNL A   1      41.040  25.643  25.014  1.00  0.00    -0.200 F 
ENDBRANCH 131 159
BRANCH 146 170
ATOM    170  C   UNL A   1      44.046  27.883  34.551  1.00  0.00     0.064 A 
ATOM    171  C   UNL A   1      43.808  26.657  35.190  1.00  0.00     0.173 A 
ATOM    172  C   UNL A   1      45.380  28.287  34.381  1.00  0.00     0.173 A 
ATOM    173  F   UNL A   1      42.551  26.233  35.390  1.00  0.00    -0.203 F 
ATOM    174  C   UNL A   1      44.862  25.882  35.665  1.00  0.00     0.198 A 
ATOM    175  C   UNL A   1      46.432  27.491  34.825  1.00  0.00     0.198 A 
ATOM    176  F   UNL A   1      45.664  29.446  33.769  1.00  0.00    -0.203 F 
ATOM    177  F   UNL A   1      44.609  24.740  36.321  1.00  0.00    -0.200 F 
ATOM    178  C   UNL A   1      46.172  26.294  35.475  1.00  0.00     0.200 A 
ATOM    179  F   UNL A   1      47.698  27.883  34.624  1.00  0.00    -0.200 F 
ATOM    180  F   UNL A   1      47.186  25.541  35.924  1.00  0.00    -0.200 F 
ENDBRANCH 146 170
ENDBRANCH 111 114
ENDBRANCH 101 104
ENDBRANCH  97 100
ENDBRANCH  94  97
ENDBRANCH   1  94
TORSDOF 21
ENDMDL
MODEL 7
REMARK VINA RESULT:     -12.0      0.926      6.841
REMARK SMILES C[C@H]1[C@H](C)CC[C@@]2(C(=O)NCCCCCCNC(=O)c3ccc(-c4c5nc(c(-c6c(F)c(F)c(F)c(F)c6F)c6ccc([nH]6)c(-c6c(F)c(F)c(F)c(F)c6F)c6nc(c(-c7c(F)c(F)c(F)c(F)c7F)c7ccc4[nH]7)C=C6)C=C5)cc3)CC[C@@]3(C)C(=CC[C@@H]4[C@@]5(C)CC[C@H](O)C(C)(C)[C@@H]5CC[C@]43C)[C@H]12
REMARK SMILES IDX 14 1 13 4 12 7 11 10 10 13 8 14 9 15 7 17 2 18 3 19 105 20
REMARK SMILES IDX 5 22 87 24 6 26 83 29 85 30 88 31 84 34 103 37 89 38 90 42
REMARK SMILES IDX 102 43 91 46 101 48 93 51 100 52 94 55 97 58 95 60 1 64 4 68
REMARK SMILES IDX 86 72 104 76 92 80 98 84 99 88 96 92 15 94 16 97 17 100
REMARK SMILES IDX 18 101 19 103 20 104 21 105 82 106 22 107 81 109 23 111
REMARK SMILES IDX 24 114 25 115 75 116 26 117 80 118 74 119 76 120 27 121
REMARK SMILES IDX 79 122 73 124 72 126 28 128 60 131 40 132 59 133 41 134
REMARK SMILES IDX 44 135 58 136 77 137 42 138 43 140 57 142 78 143 45 146
REMARK SMILES IDX 29 148 30 149 38 150 31 151 32 152 36 153 39 154 33 155
REMARK SMILES IDX 34 156 37 157 35 158 61 159 62 160 70 161 63 162 64 163
REMARK SMILES IDX 68 164 71 165 65 166 66 167 69 168 67 169 46 170 47 171
REMARK SMILES IDX 55 172 48 173 49 174 53 175 56 176 50 177 51 178 54 179
REMARK SMILES IDX 52 180
REMARK H PARENT 14 2 14 3 13 5 13 6 12 8 12 9 11 11 11 12 10 16 2 21 3 23
REMARK H PARENT 105 25 5 27 5 28 6 32 6 33 83 35 83 36 88 39 84 40 84 41 89 44
REMARK H PARENT 89 45 90 47 102 49 102 50 101 53 101 54 93 56 93 57 100 59
REMARK H PARENT 94 61 94 62 95 63 1 65 1 66 1 67 4 69 4 70 4 71 86 73 86 74
REMARK H PARENT 86 75 104 77 104 78 104 79 92 81 92 82 92 83 98 85 98 86 98 87
REMARK H PARENT 99 89 99 90 99 91 96 93 15 95 15 96 16 98 16 99 17 102 21 108
REMARK H PARENT 82 110 22 112 81 113 80 123 74 125 76 127 79 129 73 130 41 139
REMARK H PARENT 44 141 77 144 42 145 78 147
REMARK Flexibility Score: inf
ROOT
ATOM      1  C   UNL A   1      39.668  22.342  26.169  1.00  0.00    -0.052 C 
ATOM      2  H   UNL A   1      40.635  22.704  26.446  1.00  0.00     0.027 H 
ATOM      3  H   UNL A   1      39.449  22.337  25.121  1.00  0.00     0.027 H 
ENDROOT
BRANCH   1   4
ATOM      4  C   UNL A   1      38.636  23.308  26.762  1.00  0.00    -0.052 C 
ATOM      5  H   UNL A   1      37.998  22.729  27.396  1.00  0.00     0.027 H 
ATOM      6  H   UNL A   1      39.239  24.059  27.229  1.00  0.00     0.027 H 
BRANCH   4   7
ATOM      7  C   UNL A   1      37.722  24.116  25.827  1.00  0.00    -0.036 C 
ATOM      8  H   UNL A   1      37.989  25.147  25.940  1.00  0.00     0.028 H 
ATOM      9  H   UNL A   1      37.891  23.684  24.863  1.00  0.00     0.028 H 
BRANCH   7  10
ATOM     10  C   UNL A   1      36.205  24.021  26.017  1.00  0.00     0.017 C 
ATOM     11  H   UNL A   1      35.894  24.844  26.627  1.00  0.00     0.049 H 
ATOM     12  H   UNL A   1      35.780  24.036  25.035  1.00  0.00     0.049 H 
BRANCH  10  13
ATOM     13  N   UNL A   1      35.739  22.797  26.644  1.00  0.00    -0.356 N 
ATOM     14  C   UNL A   1      34.987  21.764  26.143  1.00  0.00     0.226 C 
ATOM     15  O   UNL A   1      34.147  21.324  26.940  1.00  0.00    -0.274 OA
ATOM     16  H   UNL A   1      36.008  22.690  27.585  1.00  0.00     0.163 HD
BRANCH  14  17
ATOM     17  C   UNL A   1      35.182  21.093  24.727  1.00  0.00     0.056 C 
ATOM     18  C   UNL A   1      33.459  19.161  24.773  1.00  0.00    -0.034 C 
ATOM     19  C   UNL A   1      34.622  18.136  24.557  1.00  0.00    -0.041 C 
ATOM     20  C   UNL A   1      33.846  20.535  24.150  1.00  0.00    -0.002 C 
ATOM     21  H   UNL A   1      33.313  19.293  25.824  1.00  0.00     0.031 H 
ATOM     22  C   UNL A   1      36.021  18.632  24.970  1.00  0.00    -0.049 C 
ATOM     23  H   UNL A   1      34.563  18.011  23.495  1.00  0.00     0.030 H 
ATOM     24  C   UNL A   1      32.874  21.738  24.175  1.00  0.00    -0.063 C 
ATOM     25  H   UNL A   1      33.872  20.206  23.132  1.00  0.00     0.036 H 
ATOM     26  C   UNL A   1      36.343  20.089  24.740  1.00  0.00    -0.038 C 
ATOM     27  H   UNL A   1      36.738  18.055  24.425  1.00  0.00     0.027 H 
ATOM     28  H   UNL A   1      36.047  18.515  26.033  1.00  0.00     0.027 H 
ATOM     29  C   UNL A   1      35.660  22.185  23.692  1.00  0.00    -0.037 C 
ATOM     30  C   UNL A   1      33.165  22.858  23.130  1.00  0.00    -0.006 C 
ATOM     31  C   UNL A   1      32.049  21.945  25.223  1.00  0.00    -0.084 C 
ATOM     32  H   UNL A   1      36.835  20.159  23.792  1.00  0.00     0.028 H 
ATOM     33  H   UNL A   1      36.929  20.370  25.591  1.00  0.00     0.028 H 
ATOM     34  C   UNL A   1      34.667  23.274  23.281  1.00  0.00    -0.043 C 
ATOM     35  H   UNL A   1      35.953  21.670  22.800  1.00  0.00     0.028 H 
ATOM     36  H   UNL A   1      36.438  22.713  24.202  1.00  0.00     0.028 H 
ATOM     37  C   UNL A   1      32.205  24.158  23.346  1.00  0.00    -0.020 C 
ATOM     38  C   UNL A   1      31.528  23.304  25.626  1.00  0.00    -0.031 C 
ATOM     39  H   UNL A   1      31.756  21.128  25.781  1.00  0.00     0.058 H 
ATOM     40  H   UNL A   1      34.989  23.665  22.339  1.00  0.00     0.028 H 
ATOM     41  H   UNL A   1      34.677  23.974  24.092  1.00  0.00     0.028 H 
ATOM     42  C   UNL A   1      32.259  24.459  24.888  1.00  0.00    -0.026 C 
ATOM     43  C   UNL A   1      32.666  25.379  22.505  1.00  0.00    -0.046 C 
ATOM     44  H   UNL A   1      31.669  23.427  26.680  1.00  0.00     0.031 H 
ATOM     45  H   UNL A   1      30.494  23.349  25.361  1.00  0.00     0.031 H 
ATOM     46  C   UNL A   1      31.968  25.930  25.405  1.00  0.00    -0.025 C 
ATOM     47  H   UNL A   1      33.295  24.471  25.156  1.00  0.00     0.032 H 
ATOM     48  C   UNL A   1      32.038  26.700  22.953  1.00  0.00    -0.049 C 
ATOM     49  H   UNL A   1      33.730  25.465  22.585  1.00  0.00     0.027 H 
ATOM     50  H   UNL A   1      32.348  25.205  21.497  1.00  0.00     0.027 H 
ATOM     51  C   UNL A   1      32.823  26.165  26.696  1.00  0.00    -0.045 C 
ATOM     52  C   UNL A   1      32.491  27.010  24.384  1.00  0.00    -0.028 C 
ATOM     53  H   UNL A   1      32.353  27.487  22.300  1.00  0.00     0.027 H 
ATOM     54  H   UNL A   1      30.972  26.622  22.922  1.00  0.00     0.027 H 
ATOM     55  C   UNL A   1      32.738  27.588  27.251  1.00  0.00    -0.026 C 
ATOM     56  H   UNL A   1      33.846  25.955  26.465  1.00  0.00     0.027 H 
ATOM     57  H   UNL A   1      32.427  25.517  27.451  1.00  0.00     0.027 H 
ATOM     58  C   UNL A   1      32.328  28.513  24.834  1.00  0.00    -0.006 C 
ATOM     59  H   UNL A   1      33.556  26.916  24.384  1.00  0.00     0.031 H 
ATOM     60  C   UNL A   1      33.033  28.679  26.217  1.00  0.00     0.059 C 
ATOM     61  H   UNL A   1      33.446  27.680  28.048  1.00  0.00     0.029 H 
ATOM     62  H   UNL A   1      31.729  27.733  27.575  1.00  0.00     0.029 H 
ATOM     63  H   UNL A   1      34.073  28.589  25.977  1.00  0.00     0.061 H 
BRANCH  18  64
ATOM     64  C   UNL A   1      32.127  18.639  24.210  1.00  0.00    -0.062 C 
ATOM     65  H   UNL A   1      32.007  17.610  24.476  1.00  0.00     0.023 H 
ATOM     66  H   UNL A   1      32.128  18.734  23.144  1.00  0.00     0.023 H 
ATOM     67  H   UNL A   1      31.319  19.210  24.618  1.00  0.00     0.023 H 
ENDBRANCH  18  64
BRANCH  19  68
ATOM     68  C   UNL A   1      34.446  16.790  25.280  1.00  0.00    -0.062 C 
ATOM     69  H   UNL A   1      33.450  16.720  25.665  1.00  0.00     0.023 H 
ATOM     70  H   UNL A   1      35.145  16.723  26.087  1.00  0.00     0.023 H 
ATOM     71  H   UNL A   1      34.619  15.990  24.591  1.00  0.00     0.023 H 
ENDBRANCH  19  68
BRANCH  30  72
ATOM     72  C   UNL A   1      32.965  22.294  21.697  1.00  0.00    -0.055 C 
ATOM     73  H   UNL A   1      32.465  23.023  21.095  1.00  0.00     0.024 H 
ATOM     74  H   UNL A   1      32.376  21.403  21.744  1.00  0.00     0.024 H 
ATOM     75  H   UNL A   1      33.919  22.070  21.268  1.00  0.00     0.024 H 
ENDBRANCH  30  72
BRANCH  37  76
ATOM     76  C   UNL A   1      30.748  23.860  22.874  1.00  0.00    -0.059 C 
ATOM     77  H   UNL A   1      30.758  23.581  21.840  1.00  0.00     0.024 H 
ATOM     78  H   UNL A   1      30.146  24.736  23.001  1.00  0.00     0.024 H 
ATOM     79  H   UNL A   1      30.341  23.060  23.456  1.00  0.00     0.024 H 
ENDBRANCH  37  76
BRANCH  46  80
ATOM     80  C   UNL A   1      30.480  26.061  25.775  1.00  0.00    -0.059 C 
ATOM     81  H   UNL A   1      30.385  26.182  26.834  1.00  0.00     0.024 H 
ATOM     82  H   UNL A   1      29.957  25.178  25.469  1.00  0.00     0.024 H 
ATOM     83  H   UNL A   1      30.062  26.913  25.280  1.00  0.00     0.024 H 
ENDBRANCH  46  80
BRANCH  58  84
ATOM     84  C   UNL A   1      30.869  29.020  24.848  1.00  0.00    -0.057 C 
ATOM     85  H   UNL A   1      30.849  30.055  24.579  1.00  0.00     0.024 H 
ATOM     86  H   UNL A   1      30.458  28.898  25.829  1.00  0.00     0.024 H 
ATOM     87  H   UNL A   1      30.289  28.457  24.147  1.00  0.00     0.024 H 
ENDBRANCH  58  84
BRANCH  58  88
ATOM     88  C   UNL A   1      33.066  29.458  23.840  1.00  0.00    -0.057 C 
ATOM     89  H   UNL A   1      34.001  29.020  23.560  1.00  0.00     0.024 H 
ATOM     90  H   UNL A   1      33.241  30.403  24.310  1.00  0.00     0.024 H 
ATOM     91  H   UNL A   1      32.463  29.599  22.967  1.00  0.00     0.024 H 
ENDBRANCH  58  88
BRANCH  60  92
ATOM     92  O   UNL A   1      32.746  29.952  26.797  1.00  0.00    -0.393 OA
ATOM     93  H   UNL A   1      32.944  29.926  27.746  1.00  0.00     0.210 HD
ENDBRANCH  60  92
ENDBRANCH  14  17
ENDBRANCH  10  13
ENDBRANCH   7  10
ENDBRANCH   4   7
ENDBRANCH   1   4
BRANCH   1  94
ATOM     94  C   UNL A   1      39.604  20.872  26.571  1.00  0.00    -0.036 C 
ATOM     95  H   UNL A   1      38.622  20.692  26.957  1.00  0.00     0.028 H 
ATOM     96  H   UNL A   1      40.407  20.750  27.267  1.00  0.00     0.028 H 
BRANCH  94  97
ATOM     97  C   UNL A   1      39.867  19.826  25.501  1.00  0.00     0.018 C 
ATOM     98  H   UNL A   1      40.207  20.327  24.618  1.00  0.00     0.049 H 
ATOM     99  H   UNL A   1      38.946  19.301  25.351  1.00  0.00     0.049 H 
BRANCH  97 100
ATOM    100  N   UNL A   1      40.855  18.835  25.869  1.00  0.00    -0.352 N 
ATOM    101  C   UNL A   1      42.131  19.017  26.355  1.00  0.00     0.251 C 
ATOM    102  H   UNL A   1      40.576  17.897  25.757  1.00  0.00     0.163 HD
ATOM    103  O   UNL A   1      42.859  18.052  26.543  1.00  0.00    -0.269 OA
BRANCH 101 104
ATOM    104  C   UNL A   1      42.646  20.386  26.612  1.00  0.00     0.039 A 
ATOM    105  C   UNL A   1      43.139  21.126  25.533  1.00  0.00    -0.049 A 
ATOM    106  C   UNL A   1      42.650  20.941  27.895  1.00  0.00    -0.049 A 
ATOM    107  C   UNL A   1      43.579  22.437  25.731  1.00  0.00    -0.053 A 
ATOM    108  H   UNL A   1      43.177  20.703  24.593  1.00  0.00     0.063 H 
ATOM    109  C   UNL A   1      43.006  22.278  28.074  1.00  0.00    -0.053 A 
ATOM    110  H   UNL A   1      42.390  20.363  28.708  1.00  0.00     0.063 H 
ATOM    111  C   UNL A   1      43.486  23.036  26.997  1.00  0.00    -0.014 A 
ATOM    112  H   UNL A   1      43.977  22.968  24.940  1.00  0.00     0.063 H 
ATOM    113  H   UNL A   1      42.915  22.710  29.007  1.00  0.00     0.063 H 
BRANCH 111 114
ATOM    114  C   UNL A   1      43.905  24.446  27.212  1.00  0.00     0.031 A 
ATOM    115  C   UNL A   1      42.904  25.469  27.678  1.00  0.00     0.074 A 
ATOM    116  C   UNL A   1      45.173  24.818  26.946  1.00  0.00     0.049 A 
ATOM    117  N   UNL A   1      43.062  26.753  27.882  1.00  0.00    -0.248 NA
ATOM    118  C   UNL A   1      41.534  24.990  27.924  1.00  0.00    -0.034 C 
ATOM    119  C   UNL A   1      46.225  23.931  26.445  1.00  0.00    -0.036 A 
ATOM    120  N   UNL A   1      45.793  26.038  27.053  1.00  0.00    -0.354 N 
ATOM    121  C   UNL A   1      41.815  27.232  28.264  1.00  0.00     0.074 A 
ATOM    122  C   UNL A   1      40.898  26.117  28.203  1.00  0.00    -0.034 C 
ATOM    123  H   UNL A   1      41.166  24.027  27.887  1.00  0.00     0.065 H 
ATOM    124  C   UNL A   1      47.365  24.629  26.318  1.00  0.00    -0.036 A 
ATOM    125  H   UNL A   1      46.109  22.930  26.225  1.00  0.00     0.065 H 
ATOM    126  C   UNL A   1      47.116  26.020  26.685  1.00  0.00     0.049 A 
ATOM    127  H   UNL A   1      45.332  26.851  27.365  1.00  0.00     0.167 HD
ATOM    128  C   UNL A   1      41.474  28.482  28.657  1.00  0.00     0.037 A 
ATOM    129  H   UNL A   1      39.879  26.189  28.357  1.00  0.00     0.065 H 
ATOM    130  H   UNL A   1      48.272  24.244  26.009  1.00  0.00     0.065 H 
ATOM    131  C   UNL A   1      48.025  27.013  26.643  1.00  0.00     0.037 A 
ATOM    132  C   UNL A   1      42.396  29.584  28.737  1.00  0.00     0.049 A 
ATOM    133  C   UNL A   1      47.615  28.398  27.069  1.00  0.00     0.074 A 
ATOM    134  C   UNL A   1      42.164  30.875  29.176  1.00  0.00    -0.036 A 
ATOM    135  N   UNL A   1      43.731  29.524  28.362  1.00  0.00    -0.354 N 
ATOM    136  N   UNL A   1      46.451  28.822  27.497  1.00  0.00    -0.248 NA
ATOM    137  C   UNL A   1      48.648  29.442  27.012  1.00  0.00    -0.034 C 
ATOM    138  C   UNL A   1      43.341  31.612  29.012  1.00  0.00    -0.036 A 
ATOM    139  H   UNL A   1      41.274  31.232  29.560  1.00  0.00     0.065 H 
ATOM    140  C   UNL A   1      44.326  30.764  28.533  1.00  0.00     0.049 A 
ATOM    141  H   UNL A   1      44.187  28.719  28.025  1.00  0.00     0.167 HD
ATOM    142  C   UNL A   1      46.618  30.169  27.791  1.00  0.00     0.074 A 
ATOM    143  C   UNL A   1      48.002  30.487  27.507  1.00  0.00    -0.034 C 
ATOM    144  H   UNL A   1      49.621  29.377  26.675  1.00  0.00     0.065 H 
ATOM    145  H   UNL A   1      43.455  32.617  29.213  1.00  0.00     0.065 H 
ATOM    146  C   UNL A   1      45.708  31.062  28.254  1.00  0.00     0.037 A 
ATOM    147  H   UNL A   1      48.431  31.412  27.671  1.00  0.00     0.065 H 
BRANCH 128 148
ATOM    148  C   UNL A   1      40.038  28.726  29.033  1.00  0.00     0.064 A 
ATOM    149  C   UNL A   1      39.091  29.162  28.093  1.00  0.00     0.173 A 
ATOM    150  C   UNL A   1      39.594  28.485  30.343  1.00  0.00     0.173 A 
ATOM    151  F   UNL A   1      39.463  29.418  26.829  1.00  0.00    -0.203 F 
ATOM    152  C   UNL A   1      37.766  29.383  28.457  1.00  0.00     0.198 A 
ATOM    153  C   UNL A   1      38.259  28.672  30.694  1.00  0.00     0.198 A 
ATOM    154  F   UNL A   1      40.453  28.060  31.282  1.00  0.00    -0.203 F 
ATOM    155  F   UNL A   1      36.894  29.856  27.554  1.00  0.00    -0.200 F 
ATOM    156  C   UNL A   1      37.349  29.131  29.755  1.00  0.00     0.200 A 
ATOM    157  F   UNL A   1      37.856  28.413  31.946  1.00  0.00    -0.200 F 
ATOM    158  F   UNL A   1      36.071  29.336  30.102  1.00  0.00    -0.200 F 
ENDBRANCH 128 148
BRANCH 131 159
ATOM    159  C   UNL A   1      49.417  26.734  26.199  1.00  0.00     0.064 A 
ATOM    160  C   UNL A   1      50.385  26.271  27.102  1.00  0.00     0.173 A 
ATOM    161  C   UNL A   1      49.813  26.932  24.868  1.00  0.00     0.173 A 
ATOM    162  F   UNL A   1      50.062  26.084  28.390  1.00  0.00    -0.203 F 
ATOM    163  C   UNL A   1      51.699  26.043  26.698  1.00  0.00     0.198 A 
ATOM    164  C   UNL A   1      51.119  26.671  24.457  1.00  0.00     0.198 A 
ATOM    165  F   UNL A   1      48.927  27.368  23.960  1.00  0.00    -0.203 F 
ATOM    166  F   UNL A   1      52.615  25.653  27.595  1.00  0.00    -0.200 F 
ATOM    167  C   UNL A   1      52.064  26.237  25.376  1.00  0.00     0.200 A 
ATOM    168  F   UNL A   1      51.463  26.845  23.174  1.00  0.00    -0.200 F 
ATOM    169  F   UNL A   1      53.326  26.014  24.985  1.00  0.00    -0.200 F 
ENDBRANCH 131 159
BRANCH 146 170
ATOM    170  C   UNL A   1      46.188  32.460  28.521  1.00  0.00     0.064 A 
ATOM    171  C   UNL A   1      46.125  33.464  27.544  1.00  0.00     0.173 A 
ATOM    172  C   UNL A   1      46.680  32.808  29.789  1.00  0.00     0.173 A 
ATOM    173  F   UNL A   1      45.677  33.180  26.312  1.00  0.00    -0.203 F 
ATOM    174  C   UNL A   1      46.565  34.757  27.817  1.00  0.00     0.198 A 
ATOM    175  C   UNL A   1      47.084  34.110  30.070  1.00  0.00     0.198 A 
ATOM    176  F   UNL A   1      46.753  31.888  30.763  1.00  0.00    -0.203 F 
ATOM    177  F   UNL A   1      46.547  35.687  26.852  1.00  0.00    -0.200 F 
ATOM    178  C   UNL A   1      47.035  35.081  29.081  1.00  0.00     0.200 A 
ATOM    179  F   UNL A   1      47.522  34.425  31.297  1.00  0.00    -0.200 F 
ATOM    180  F   UNL A   1      47.448  36.328  29.345  1.00  0.00    -0.200 F 
ENDBRANCH 146 170
ENDBRANCH 111 114
ENDBRANCH 101 104
ENDBRANCH  97 100
ENDBRANCH  94  97
ENDBRANCH   1  94
TORSDOF 21
ENDMDL
MODEL 8
REMARK VINA RESULT:     -11.9      4.800     10.435
REMARK SMILES C[C@H]1[C@H](C)CC[C@@]2(C(=O)NCCCCCCNC(=O)c3ccc(-c4c5nc(c(-c6c(F)c(F)c(F)c(F)c6F)c6ccc([nH]6)c(-c6c(F)c(F)c(F)c(F)c6F)c6nc(c(-c7c(F)c(F)c(F)c(F)c7F)c7ccc4[nH]7)C=C6)C=C5)cc3)CC[C@@]3(C)C(=CC[C@@H]4[C@@]5(C)CC[C@H](O)C(C)(C)[C@@H]5CC[C@]43C)[C@H]12
REMARK SMILES IDX 14 1 13 4 12 7 11 10 10 13 8 14 9 15 7 17 2 18 3 19 105 20
REMARK SMILES IDX 5 22 87 24 6 26 83 29 85 30 88 31 84 34 103 37 89 38 90 42
REMARK SMILES IDX 102 43 91 46 101 48 93 51 100 52 94 55 97 58 95 60 1 64 4 68
REMARK SMILES IDX 86 72 104 76 92 80 98 84 99 88 96 92 15 94 16 97 17 100
REMARK SMILES IDX 18 101 19 103 20 104 21 105 82 106 22 107 81 109 23 111
REMARK SMILES IDX 24 114 25 115 75 116 26 117 80 118 74 119 76 120 27 121
REMARK SMILES IDX 79 122 73 124 72 126 28 128 60 131 40 132 59 133 41 134
REMARK SMILES IDX 44 135 58 136 77 137 42 138 43 140 57 142 78 143 45 146
REMARK SMILES IDX 29 148 30 149 38 150 31 151 32 152 36 153 39 154 33 155
REMARK SMILES IDX 34 156 37 157 35 158 61 159 62 160 70 161 63 162 64 163
REMARK SMILES IDX 68 164 71 165 65 166 66 167 69 168 67 169 46 170 47 171
REMARK SMILES IDX 55 172 48 173 49 174 53 175 56 176 50 177 51 178 54 179
REMARK SMILES IDX 52 180
REMARK H PARENT 14 2 14 3 13 5 13 6 12 8 12 9 11 11 11 12 10 16 2 21 3 23
REMARK H PARENT 105 25 5 27 5 28 6 32 6 33 83 35 83 36 88 39 84 40 84 41 89 44
REMARK H PARENT 89 45 90 47 102 49 102 50 101 53 101 54 93 56 93 57 100 59
REMARK H PARENT 94 61 94 62 95 63 1 65 1 66 1 67 4 69 4 70 4 71 86 73 86 74
REMARK H PARENT 86 75 104 77 104 78 104 79 92 81 92 82 92 83 98 85 98 86 98 87
REMARK H PARENT 99 89 99 90 99 91 96 93 15 95 15 96 16 98 16 99 17 102 21 108
REMARK H PARENT 82 110 22 112 81 113 80 123 74 125 76 127 79 129 73 130 41 139
REMARK H PARENT 44 141 77 144 42 145 78 147
REMARK Flexibility Score: inf
ROOT
ATOM      1  C   UNL A   1      34.389  31.450  27.743  1.00  0.00    -0.052 C 
ATOM      2  H   UNL A   1      34.631  31.545  26.706  1.00  0.00     0.027 H 
ATOM      3  H   UNL A   1      35.101  31.853  28.433  1.00  0.00     0.027 H 
ENDROOT
BRANCH   1   4
ATOM      4  C   UNL A   1      34.361  29.952  28.066  1.00  0.00    -0.052 C 
ATOM      5  H   UNL A   1      34.728  29.843  29.064  1.00  0.00     0.027 H 
ATOM      6  H   UNL A   1      33.342  29.678  27.887  1.00  0.00     0.027 H 
BRANCH   4   7
ATOM      7  C   UNL A   1      35.152  28.968  27.190  1.00  0.00    -0.036 C 
ATOM      8  H   UNL A   1      35.914  29.532  26.692  1.00  0.00     0.028 H 
ATOM      9  H   UNL A   1      35.488  28.221  27.877  1.00  0.00     0.028 H 
BRANCH   7  10
ATOM     10  C   UNL A   1      34.406  28.173  26.113  1.00  0.00     0.017 C 
ATOM     11  H   UNL A   1      35.051  27.391  25.771  1.00  0.00     0.049 H 
ATOM     12  H   UNL A   1      33.510  27.814  26.574  1.00  0.00     0.049 H 
BRANCH  10  13
ATOM     13  N   UNL A   1      33.986  28.948  24.958  1.00  0.00    -0.356 N 
ATOM     14  C   UNL A   1      32.766  29.040  24.336  1.00  0.00     0.226 C 
ATOM     15  O   UNL A   1      32.836  29.080  23.101  1.00  0.00    -0.274 OA
ATOM     16  H   UNL A   1      34.695  29.499  24.555  1.00  0.00     0.163 HD
BRANCH  14  17
ATOM     17  C   UNL A   1      31.374  29.174  25.069  1.00  0.00     0.056 C 
ATOM     18  C   UNL A   1      29.739  29.597  23.106  1.00  0.00    -0.034 C 
ATOM     19  C   UNL A   1      29.336  30.964  23.754  1.00  0.00    -0.041 C 
ATOM     20  C   UNL A   1      30.201  28.606  24.214  1.00  0.00    -0.002 C 
ATOM     21  H   UNL A   1      30.558  29.766  22.438  1.00  0.00     0.031 H 
ATOM     22  C   UNL A   1      30.369  31.560  24.728  1.00  0.00    -0.049 C 
ATOM     23  H   UNL A   1      28.450  30.666  24.276  1.00  0.00     0.030 H 
ATOM     24  C   UNL A   1      30.626  27.156  23.878  1.00  0.00    -0.063 C 
ATOM     25  H   UNL A   1      29.254  28.522  24.707  1.00  0.00     0.036 H 
ATOM     26  C   UNL A   1      31.153  30.601  25.591  1.00  0.00    -0.038 C 
ATOM     27  H   UNL A   1      29.845  32.224  25.383  1.00  0.00     0.027 H 
ATOM     28  H   UNL A   1      31.103  32.018  24.098  1.00  0.00     0.027 H 
ATOM     29  C   UNL A   1      31.389  28.306  26.387  1.00  0.00    -0.037 C 
ATOM     30  C   UNL A   1      30.592  26.154  25.072  1.00  0.00    -0.006 C 
ATOM     31  C   UNL A   1      31.275  26.869  22.731  1.00  0.00    -0.084 C 
ATOM     32  H   UNL A   1      30.637  30.521  26.525  1.00  0.00     0.028 H 
ATOM     33  H   UNL A   1      32.135  31.024  25.635  1.00  0.00     0.028 H 
ATOM     34  C   UNL A   1      31.415  26.781  26.247  1.00  0.00    -0.043 C 
ATOM     35  H   UNL A   1      30.511  28.558  26.944  1.00  0.00     0.028 H 
ATOM     36  H   UNL A   1      32.322  28.545  26.853  1.00  0.00     0.028 H 
ATOM     37  C   UNL A   1      31.220  24.704  24.669  1.00  0.00    -0.020 C 
ATOM     38  C   UNL A   1      32.214  25.698  22.568  1.00  0.00    -0.031 C 
ATOM     39  H   UNL A   1      31.122  27.485  21.917  1.00  0.00     0.058 H 
ATOM     40  H   UNL A   1      31.040  26.368  27.160  1.00  0.00     0.028 H 
ATOM     41  H   UNL A   1      32.435  26.544  26.025  1.00  0.00     0.028 H 
ATOM     42  C   UNL A   1      32.567  25.030  23.925  1.00  0.00    -0.026 C 
ATOM     43  C   UNL A   1      31.451  23.795  25.906  1.00  0.00    -0.046 C 
ATOM     44  H   UNL A   1      33.117  26.043  22.110  1.00  0.00     0.031 H 
ATOM     45  H   UNL A   1      31.722  24.967  21.962  1.00  0.00     0.031 H 
ATOM     46  C   UNL A   1      33.728  23.950  23.906  1.00  0.00    -0.025 C 
ATOM     47  H   UNL A   1      33.095  25.721  24.549  1.00  0.00     0.032 H 
ATOM     48  C   UNL A   1      32.369  22.604  25.624  1.00  0.00    -0.049 C 
ATOM     49  H   UNL A   1      31.891  24.385  26.683  1.00  0.00     0.027 H 
ATOM     50  H   UNL A   1      30.498  23.399  26.188  1.00  0.00     0.027 H 
ATOM     51  C   UNL A   1      35.096  24.712  23.883  1.00  0.00    -0.045 C 
ATOM     52  C   UNL A   1      33.761  23.121  25.246  1.00  0.00    -0.028 C 
ATOM     53  H   UNL A   1      32.440  21.991  26.498  1.00  0.00     0.027 H 
ATOM     54  H   UNL A   1      31.969  22.023  24.819  1.00  0.00     0.027 H 
ATOM     55  C   UNL A   1      36.320  23.801  23.980  1.00  0.00    -0.026 C 
ATOM     56  H   UNL A   1      35.116  25.391  24.709  1.00  0.00     0.027 H 
ATOM     57  H   UNL A   1      35.156  25.209  22.937  1.00  0.00     0.027 H 
ATOM     58  C   UNL A   1      34.930  22.069  25.371  1.00  0.00    -0.006 C 
ATOM     59  H   UNL A   1      34.035  23.817  26.009  1.00  0.00     0.031 H 
ATOM     60  C   UNL A   1      36.279  22.825  25.160  1.00  0.00     0.059 C 
ATOM     61  H   UNL A   1      37.189  24.416  24.082  1.00  0.00     0.029 H 
ATOM     62  H   UNL A   1      36.335  23.208  23.089  1.00  0.00     0.029 H 
ATOM     63  H   UNL A   1      36.369  23.423  26.044  1.00  0.00     0.061 H 
BRANCH  18  64
ATOM     64  C   UNL A   1      28.599  29.010  22.258  1.00  0.00    -0.062 C 
ATOM     65  H   UNL A   1      27.664  29.190  22.745  1.00  0.00     0.023 H 
ATOM     66  H   UNL A   1      28.745  27.955  22.145  1.00  0.00     0.023 H 
ATOM     67  H   UNL A   1      28.596  29.474  21.294  1.00  0.00     0.023 H 
ENDBRANCH  18  64
BRANCH  19  68
ATOM     68  C   UNL A   1      29.031  32.093  22.754  1.00  0.00    -0.062 C 
ATOM     69  H   UNL A   1      27.971  32.186  22.634  1.00  0.00     0.023 H 
ATOM     70  H   UNL A   1      29.478  31.865  21.810  1.00  0.00     0.023 H 
ATOM     71  H   UNL A   1      29.430  33.014  23.125  1.00  0.00     0.023 H 
ENDBRANCH  19  68
BRANCH  30  72
ATOM     72  C   UNL A   1      29.128  25.972  25.555  1.00  0.00    -0.055 C 
ATOM     73  H   UNL A   1      28.766  25.015  25.240  1.00  0.00     0.024 H 
ATOM     74  H   UNL A   1      28.516  26.742  25.136  1.00  0.00     0.024 H 
ATOM     75  H   UNL A   1      29.096  26.031  26.622  1.00  0.00     0.024 H 
ENDBRANCH  30  72
BRANCH  37  76
ATOM     76  C   UNL A   1      30.241  23.908  23.751  1.00  0.00    -0.059 C 
ATOM     77  H   UNL A   1      29.308  24.430  23.687  1.00  0.00     0.024 H 
ATOM     78  H   UNL A   1      30.077  22.934  24.164  1.00  0.00     0.024 H 
ATOM     79  H   UNL A   1      30.665  23.814  22.773  1.00  0.00     0.024 H 
ENDBRANCH  37  76
BRANCH  46  80
ATOM     80  C   UNL A   1      33.620  23.102  22.626  1.00  0.00    -0.059 C 
ATOM     81  H   UNL A   1      34.537  23.165  22.078  1.00  0.00     0.024 H 
ATOM     82  H   UNL A   1      32.817  23.468  22.021  1.00  0.00     0.024 H 
ATOM     83  H   UNL A   1      33.432  22.081  22.889  1.00  0.00     0.024 H 
ENDBRANCH  46  80
BRANCH  58  84
ATOM     84  C   UNL A   1      34.786  20.843  24.444  1.00  0.00    -0.057 C 
ATOM     85  H   UNL A   1      33.970  20.237  24.779  1.00  0.00     0.024 H 
ATOM     86  H   UNL A   1      35.690  20.270  24.467  1.00  0.00     0.024 H 
ATOM     87  H   UNL A   1      34.599  21.172  23.443  1.00  0.00     0.024 H 
ENDBRANCH  58  84
BRANCH  58  88
ATOM     88  C   UNL A   1      34.970  21.476  26.810  1.00  0.00    -0.057 C 
ATOM     89  H   UNL A   1      35.930  21.038  26.988  1.00  0.00     0.024 H 
ATOM     90  H   UNL A   1      34.213  20.726  26.908  1.00  0.00     0.024 H 
ATOM     91  H   UNL A   1      34.796  22.255  27.523  1.00  0.00     0.024 H 
ENDBRANCH  58  88
BRANCH  60  92
ATOM     92  O   UNL A   1      37.372  21.913  25.041  1.00  0.00    -0.393 OA
ATOM     93  H   UNL A   1      38.078  22.173  25.653  1.00  0.00     0.210 HD
ENDBRANCH  60  92
ENDBRANCH  14  17
ENDBRANCH  10  13
ENDBRANCH   7  10
ENDBRANCH   4   7
ENDBRANCH   1   4
BRANCH   1  94
ATOM     94  C   UNL A   1      33.126  32.271  27.989  1.00  0.00    -0.036 C 
ATOM     95  H   UNL A   1      33.130  32.556  29.020  1.00  0.00     0.028 H 
ATOM     96  H   UNL A   1      32.327  31.625  27.688  1.00  0.00     0.028 H 
BRANCH  94  97
ATOM     97  C   UNL A   1      32.924  33.534  27.169  1.00  0.00     0.018 C 
ATOM     98  H   UNL A   1      32.164  33.342  26.440  1.00  0.00     0.049 H 
ATOM     99  H   UNL A   1      33.870  33.769  26.729  1.00  0.00     0.049 H 
BRANCH  97 100
ATOM    100  N   UNL A   1      32.528  34.689  27.946  1.00  0.00    -0.352 N 
ATOM    101  C   UNL A   1      33.083  35.191  29.102  1.00  0.00     0.251 C 
ATOM    102  H   UNL A   1      31.752  35.187  27.599  1.00  0.00     0.163 HD
ATOM    103  O   UNL A   1      32.564  36.144  29.667  1.00  0.00    -0.269 OA
BRANCH 101 104
ATOM    104  C   UNL A   1      34.286  34.554  29.693  1.00  0.00     0.039 A 
ATOM    105  C   UNL A   1      34.133  33.785  30.851  1.00  0.00    -0.049 A 
ATOM    106  C   UNL A   1      35.554  34.707  29.125  1.00  0.00    -0.049 A 
ATOM    107  C   UNL A   1      35.236  33.127  31.402  1.00  0.00    -0.053 A 
ATOM    108  H   UNL A   1      33.207  33.705  31.298  1.00  0.00     0.063 H 
ATOM    109  C   UNL A   1      36.634  33.978  29.623  1.00  0.00    -0.053 A 
ATOM    110  H   UNL A   1      35.691  35.359  28.337  1.00  0.00     0.063 H 
ATOM    111  C   UNL A   1      36.490  33.190  30.774  1.00  0.00    -0.014 A 
ATOM    112  H   UNL A   1      35.127  32.590  32.277  1.00  0.00     0.063 H 
ATOM    113  H   UNL A   1      37.545  34.021  29.140  1.00  0.00     0.063 H 
BRANCH 111 114
ATOM    114  C   UNL A   1      37.661  32.455  31.320  1.00  0.00     0.031 A 
ATOM    115  C   UNL A   1      38.244  32.847  32.651  1.00  0.00     0.074 A 
ATOM    116  C   UNL A   1      38.227  31.467  30.601  1.00  0.00     0.049 A 
ATOM    117  N   UNL A   1      39.286  32.360  33.276  1.00  0.00    -0.248 NA
ATOM    118  C   UNL A   1      37.583  33.952  33.364  1.00  0.00    -0.034 C 
ATOM    119  C   UNL A   1      37.785  31.024  29.277  1.00  0.00    -0.036 A 
ATOM    120  N   UNL A   1      39.302  30.657  30.877  1.00  0.00    -0.354 N 
ATOM    121  C   UNL A   1      39.411  33.105  34.442  1.00  0.00     0.074 A 
ATOM    122  C   UNL A   1      38.380  34.118  34.408  1.00  0.00    -0.034 C 
ATOM    123  H   UNL A   1      36.724  34.465  33.113  1.00  0.00     0.065 H 
ATOM    124  C   UNL A   1      38.560  30.006  28.872  1.00  0.00    -0.036 A 
ATOM    125  H   UNL A   1      37.001  31.429  28.742  1.00  0.00     0.065 H 
ATOM    126  C   UNL A   1      39.581  29.751  29.883  1.00  0.00     0.049 A 
ATOM    127  H   UNL A   1      39.824  30.720  31.710  1.00  0.00     0.167 HD
ATOM    128  C   UNL A   1      40.288  32.942  35.461  1.00  0.00     0.037 A 
ATOM    129  H   UNL A   1      38.277  34.871  35.107  1.00  0.00     0.065 H 
ATOM    130  H   UNL A   1      38.451  29.487  27.986  1.00  0.00     0.065 H 
ATOM    131  C   UNL A   1      40.553  28.824  29.795  1.00  0.00     0.037 A 
ATOM    132  C   UNL A   1      41.300  31.919  35.499  1.00  0.00     0.049 A 
ATOM    133  C   UNL A   1      41.527  28.674  30.934  1.00  0.00     0.074 A 
ATOM    134  C   UNL A   1      42.201  31.632  36.509  1.00  0.00    -0.036 A 
ATOM    135  N   UNL A   1      41.546  31.014  34.475  1.00  0.00    -0.354 N 
ATOM    136  N   UNL A   1      41.590  29.338  32.062  1.00  0.00    -0.248 NA
ATOM    137  C   UNL A   1      42.562  27.641  30.789  1.00  0.00    -0.034 C 
ATOM    138  C   UNL A   1      43.032  30.595  36.073  1.00  0.00    -0.036 A 
ATOM    139  H   UNL A   1      42.251  32.104  37.426  1.00  0.00     0.065 H 
ATOM    140  C   UNL A   1      42.606  30.189  34.819  1.00  0.00     0.049 A 
ATOM    141  H   UNL A   1      41.043  30.967  33.631  1.00  0.00     0.167 HD
ATOM    142  C   UNL A   1      42.645  28.784  32.775  1.00  0.00     0.074 A 
ATOM    143  C   UNL A   1      43.184  27.718  31.956  1.00  0.00    -0.034 C 
ATOM    144  H   UNL A   1      42.754  27.019  29.988  1.00  0.00     0.065 H 
ATOM    145  H   UNL A   1      43.827  30.200  36.597  1.00  0.00     0.065 H 
ATOM    146  C   UNL A   1      43.125  29.126  33.996  1.00  0.00     0.037 A 
ATOM    147  H   UNL A   1      43.956  27.096  32.246  1.00  0.00     0.065 H 
BRANCH 128 148
ATOM    148  C   UNL A   1      40.193  33.894  36.621  1.00  0.00     0.064 A 
ATOM    149  C   UNL A   1      40.962  35.067  36.681  1.00  0.00     0.173 A 
ATOM    150  C   UNL A   1      39.294  33.648  37.671  1.00  0.00     0.173 A 
ATOM    151  F   UNL A   1      41.844  35.345  35.709  1.00  0.00    -0.203 F 
ATOM    152  C   UNL A   1      40.861  35.938  37.762  1.00  0.00     0.198 A 
ATOM    153  C   UNL A   1      39.170  34.541  38.734  1.00  0.00     0.198 A 
ATOM    154  F   UNL A   1      38.529  32.546  37.664  1.00  0.00    -0.203 F 
ATOM    155  F   UNL A   1      41.649  37.021  37.823  1.00  0.00    -0.200 F 
ATOM    156  C   UNL A   1      39.961  35.678  38.784  1.00  0.00     0.200 A 
ATOM    157  F   UNL A   1      38.288  34.295  39.712  1.00  0.00    -0.200 F 
ATOM    158  F   UNL A   1      39.859  36.522  39.820  1.00  0.00    -0.200 F 
ENDBRANCH 128 148
BRANCH 131 159
ATOM    159  C   UNL A   1      40.646  27.950  28.593  1.00  0.00     0.064 A 
ATOM    160  C   UNL A   1      41.374  28.351  27.464  1.00  0.00     0.173 A 
ATOM    161  C   UNL A   1      40.003  26.704  28.544  1.00  0.00     0.173 A 
ATOM    162  F   UNL A   1      41.992  29.541  27.454  1.00  0.00    -0.203 F 
ATOM    163  C   UNL A   1      41.434  27.552  26.323  1.00  0.00     0.198 A 
ATOM    164  C   UNL A   1      40.091  25.892  27.415  1.00  0.00     0.198 A 
ATOM    165  F   UNL A   1      39.297  26.270  29.598  1.00  0.00    -0.203 F 
ATOM    166  F   UNL A   1      42.092  27.985  25.239  1.00  0.00    -0.200 F 
ATOM    167  C   UNL A   1      40.797  26.321  26.301  1.00  0.00     0.200 A 
ATOM    168  F   UNL A   1      39.487  24.696  27.405  1.00  0.00    -0.200 F 
ATOM    169  F   UNL A   1      40.858  25.551  25.206  1.00  0.00    -0.200 F 
ENDBRANCH 131 159
BRANCH 146 170
ATOM    170  C   UNL A   1      44.266  28.316  34.541  1.00  0.00     0.064 A 
ATOM    171  C   UNL A   1      45.602  28.710  34.371  1.00  0.00     0.173 A 
ATOM    172  C   UNL A   1      44.015  27.149  35.280  1.00  0.00     0.173 A 
ATOM    173  F   UNL A   1      45.896  29.809  33.661  1.00  0.00    -0.203 F 
ATOM    174  C   UNL A   1      46.645  27.949  34.895  1.00  0.00     0.198 A 
ATOM    175  C   UNL A   1      45.058  26.412  35.834  1.00  0.00     0.198 A 
ATOM    176  F   UNL A   1      42.756  26.732  35.481  1.00  0.00    -0.203 F 
ATOM    177  F   UNL A   1      47.915  28.315  34.673  1.00  0.00    -0.200 F 
ATOM    178  C   UNL A   1      46.372  26.807  35.632  1.00  0.00     0.200 A 
ATOM    179  F   UNL A   1      44.792  25.318  36.561  1.00  0.00    -0.200 F 
ATOM    180  F   UNL A   1      47.376  26.083  36.145  1.00  0.00    -0.200 F 
ENDBRANCH 146 170
ENDBRANCH 111 114
ENDBRANCH 101 104
ENDBRANCH  97 100
ENDBRANCH  94  97
ENDBRANCH   1  94
TORSDOF 21
ENDMDL
MODEL 9
REMARK VINA RESULT:     -11.3      2.796      8.798
REMARK SMILES C[C@H]1[C@H](C)CC[C@@]2(C(=O)NCCCCCCNC(=O)c3ccc(-c4c5nc(c(-c6c(F)c(F)c(F)c(F)c6F)c6ccc([nH]6)c(-c6c(F)c(F)c(F)c(F)c6F)c6nc(c(-c7c(F)c(F)c(F)c(F)c7F)c7ccc4[nH]7)C=C6)C=C5)cc3)CC[C@@]3(C)C(=CC[C@@H]4[C@@]5(C)CC[C@H](O)C(C)(C)[C@@H]5CC[C@]43C)[C@H]12
REMARK SMILES IDX 14 1 13 4 12 7 11 10 10 13 8 14 9 15 7 17 2 18 3 19 105 20
REMARK SMILES IDX 5 22 87 24 6 26 83 29 85 30 88 31 84 34 103 37 89 38 90 42
REMARK SMILES IDX 102 43 91 46 101 48 93 51 100 52 94 55 97 58 95 60 1 64 4 68
REMARK SMILES IDX 86 72 104 76 92 80 98 84 99 88 96 92 15 94 16 97 17 100
REMARK SMILES IDX 18 101 19 103 20 104 21 105 82 106 22 107 81 109 23 111
REMARK SMILES IDX 24 114 25 115 75 116 26 117 80 118 74 119 76 120 27 121
REMARK SMILES IDX 79 122 73 124 72 126 28 128 60 131 40 132 59 133 41 134
REMARK SMILES IDX 44 135 58 136 77 137 42 138 43 140 57 142 78 143 45 146
REMARK SMILES IDX 29 148 30 149 38 150 31 151 32 152 36 153 39 154 33 155
REMARK SMILES IDX 34 156 37 157 35 158 61 159 62 160 70 161 63 162 64 163
REMARK SMILES IDX 68 164 71 165 65 166 66 167 69 168 67 169 46 170 47 171
REMARK SMILES IDX 55 172 48 173 49 174 53 175 56 176 50 177 51 178 54 179
REMARK SMILES IDX 52 180
REMARK H PARENT 14 2 14 3 13 5 13 6 12 8 12 9 11 11 11 12 10 16 2 21 3 23
REMARK H PARENT 105 25 5 27 5 28 6 32 6 33 83 35 83 36 88 39 84 40 84 41 89 44
REMARK H PARENT 89 45 90 47 102 49 102 50 101 53 101 54 93 56 93 57 100 59
REMARK H PARENT 94 61 94 62 95 63 1 65 1 66 1 67 4 69 4 70 4 71 86 73 86 74
REMARK H PARENT 86 75 104 77 104 78 104 79 92 81 92 82 92 83 98 85 98 86 98 87
REMARK H PARENT 99 89 99 90 99 91 96 93 15 95 15 96 16 98 16 99 17 102 21 108
REMARK H PARENT 82 110 22 112 81 113 80 123 74 125 76 127 79 129 73 130 41 139
REMARK H PARENT 44 141 77 144 42 145 78 147
REMARK Flexibility Score: inf
ROOT
ATOM      1  C   UNL A   1      35.415  31.771  28.661  1.00  0.00    -0.052 C 
ATOM      2  H   UNL A   1      35.706  32.541  27.979  1.00  0.00     0.027 H 
ATOM      3  H   UNL A   1      36.209  31.186  29.079  1.00  0.00     0.027 H 
ENDROOT
BRANCH   1   4
ATOM      4  C   UNL A   1      34.581  30.757  27.869  1.00  0.00    -0.052 C 
ATOM      5  H   UNL A   1      33.655  30.642  28.392  1.00  0.00     0.027 H 
ATOM      6  H   UNL A   1      34.539  31.182  26.888  1.00  0.00     0.027 H 
BRANCH   4   7
ATOM      7  C   UNL A   1      35.131  29.344  27.621  1.00  0.00    -0.036 C 
ATOM      8  H   UNL A   1      36.133  29.455  27.261  1.00  0.00     0.028 H 
ATOM      9  H   UNL A   1      35.018  28.852  28.564  1.00  0.00     0.028 H 
BRANCH   7  10
ATOM     10  C   UNL A   1      34.398  28.429  26.635  1.00  0.00     0.017 C 
ATOM     11  H   UNL A   1      35.034  27.597  26.418  1.00  0.00     0.049 H 
ATOM     12  H   UNL A   1      33.481  28.151  27.110  1.00  0.00     0.049 H 
BRANCH  10  13
ATOM     13  N   UNL A   1      34.029  29.053  25.376  1.00  0.00    -0.356 N 
ATOM     14  C   UNL A   1      32.855  29.017  24.668  1.00  0.00     0.226 C 
ATOM     15  O   UNL A   1      33.011  28.928  23.443  1.00  0.00    -0.274 OA
ATOM     16  H   UNL A   1      34.741  29.593  24.962  1.00  0.00     0.163 HD
BRANCH  14  17
ATOM     17  C   UNL A   1      31.409  29.158  25.286  1.00  0.00     0.056 C 
ATOM     18  C   UNL A   1      29.954  29.694  23.212  1.00  0.00    -0.034 C 
ATOM     19  C   UNL A   1      29.527  31.046  23.876  1.00  0.00    -0.041 C 
ATOM     20  C   UNL A   1      30.300  28.651  24.316  1.00  0.00    -0.002 C 
ATOM     21  H   UNL A   1      30.830  29.867  22.622  1.00  0.00     0.031 H 
ATOM     22  C   UNL A   1      30.488  31.579  24.956  1.00  0.00    -0.049 C 
ATOM     23  H   UNL A   1      28.595  30.750  24.312  1.00  0.00     0.030 H 
ATOM     24  C   UNL A   1      30.720  27.205  23.961  1.00  0.00    -0.063 C 
ATOM     25  H   UNL A   1      29.313  28.573  24.724  1.00  0.00     0.036 H 
ATOM     26  C   UNL A   1      31.176  30.570  25.843  1.00  0.00    -0.038 C 
ATOM     27  H   UNL A   1      29.925  32.232  25.590  1.00  0.00     0.027 H 
ATOM     28  H   UNL A   1      31.282  32.042  24.407  1.00  0.00     0.027 H 
ATOM     29  C   UNL A   1      31.294  28.242  26.566  1.00  0.00    -0.037 C 
ATOM     30  C   UNL A   1      30.564  26.160  25.108  1.00  0.00    -0.006 C 
ATOM     31  C   UNL A   1      31.457  26.944  22.861  1.00  0.00    -0.084 C 
ATOM     32  H   UNL A   1      30.582  30.469  26.728  1.00  0.00     0.028 H 
ATOM     33  H   UNL A   1      32.160  30.967  25.985  1.00  0.00     0.028 H 
ATOM     34  C   UNL A   1      31.299  26.724  26.370  1.00  0.00    -0.043 C 
ATOM     35  H   UNL A   1      30.378  28.496  27.058  1.00  0.00     0.028 H 
ATOM     36  H   UNL A   1      32.190  28.442  27.117  1.00  0.00     0.028 H 
ATOM     37  C   UNL A   1      31.193  24.712  24.703  1.00  0.00    -0.020 C 
ATOM     38  C   UNL A   1      32.381  25.757  22.732  1.00  0.00    -0.031 C 
ATOM     39  H   UNL A   1      31.386  27.593  22.062  1.00  0.00     0.058 H 
ATOM     40  H   UNL A   1      30.839  26.287  27.232  1.00  0.00     0.028 H 
ATOM     41  H   UNL A   1      32.328  26.470  26.225  1.00  0.00     0.028 H 
ATOM     42  C   UNL A   1      32.604  25.031  24.087  1.00  0.00    -0.026 C 
ATOM     43  C   UNL A   1      31.299  23.752  25.919  1.00  0.00    -0.046 C 
ATOM     44  H   UNL A   1      33.327  26.096  22.364  1.00  0.00     0.031 H 
ATOM     45  H   UNL A   1      31.926  25.061  22.059  1.00  0.00     0.031 H 
ATOM     46  C   UNL A   1      33.739  23.924  24.122  1.00  0.00    -0.025 C 
ATOM     47  H   UNL A   1      33.092  25.685  24.779  1.00  0.00     0.032 H 
ATOM     48  C   UNL A   1      32.211  22.550  25.668  1.00  0.00    -0.049 C 
ATOM     49  H   UNL A   1      31.684  24.302  26.752  1.00  0.00     0.027 H 
ATOM     50  H   UNL A   1      30.317  23.370  26.105  1.00  0.00     0.027 H 
ATOM     51  C   UNL A   1      35.120  24.652  24.243  1.00  0.00    -0.045 C 
ATOM     52  C   UNL A   1      33.640  23.045  25.428  1.00  0.00    -0.028 C 
ATOM     53  H   UNL A   1      32.195  21.904  26.521  1.00  0.00     0.027 H 
ATOM     54  H   UNL A   1      31.868  22.009  24.811  1.00  0.00     0.027 H 
ATOM     55  C   UNL A   1      36.311  23.708  24.407  1.00  0.00    -0.026 C 
ATOM     56  H   UNL A   1      35.085  25.300  25.094  1.00  0.00     0.027 H 
ATOM     57  H   UNL A   1      35.270  25.182  23.325  1.00  0.00     0.027 H 
ATOM     58  C   UNL A   1      34.772  21.961  25.609  1.00  0.00    -0.006 C 
ATOM     59  H   UNL A   1      33.865  23.706  26.238  1.00  0.00     0.031 H 
ATOM     60  C   UNL A   1      36.150  22.691  25.540  1.00  0.00     0.059 C 
ATOM     61  H   UNL A   1      37.182  24.297  24.604  1.00  0.00     0.029 H 
ATOM     62  H   UNL A   1      36.388  23.148  23.498  1.00  0.00     0.029 H 
ATOM     63  H   UNL A   1      36.178  23.253  26.451  1.00  0.00     0.061 H 
BRANCH  18  64
ATOM     64  C   UNL A   1      28.877  29.166  22.250  1.00  0.00    -0.062 C 
ATOM     65  H   UNL A   1      28.186  28.554  22.791  1.00  0.00     0.023 H 
ATOM     66  H   UNL A   1      29.340  28.587  21.479  1.00  0.00     0.023 H 
ATOM     67  H   UNL A   1      28.355  29.992  21.812  1.00  0.00     0.023 H 
ENDBRANCH  18  64
BRANCH  19  68
ATOM     68  C   UNL A   1      29.332  32.218  22.900  1.00  0.00    -0.062 C 
ATOM     69  H   UNL A   1      28.359  32.640  23.040  1.00  0.00     0.023 H 
ATOM     70  H   UNL A   1      29.426  31.865  21.894  1.00  0.00     0.023 H 
ATOM     71  H   UNL A   1      30.075  32.965  23.086  1.00  0.00     0.023 H 
ENDBRANCH  19  68
BRANCH  30  72
ATOM     72  C   UNL A   1      29.061  25.997  25.460  1.00  0.00    -0.055 C 
ATOM     73  H   UNL A   1      28.792  26.711  26.210  1.00  0.00     0.024 H 
ATOM     74  H   UNL A   1      28.887  25.008  25.828  1.00  0.00     0.024 H 
ATOM     75  H   UNL A   1      28.471  26.161  24.583  1.00  0.00     0.024 H 
ENDBRANCH  30  72
BRANCH  37  76
ATOM     76  C   UNL A   1      30.277  23.975  23.676  1.00  0.00    -0.059 C 
ATOM     77  H   UNL A   1      30.679  24.091  22.691  1.00  0.00     0.024 H 
ATOM     78  H   UNL A   1      29.292  24.394  23.711  1.00  0.00     0.024 H 
ATOM     79  H   UNL A   1      30.230  22.935  23.922  1.00  0.00     0.024 H 
ENDBRANCH  37  76
BRANCH  46  80
ATOM     80  C   UNL A   1      33.720  23.126  22.806  1.00  0.00    -0.059 C 
ATOM     81  H   UNL A   1      34.359  23.602  22.092  1.00  0.00     0.024 H 
ATOM     82  H   UNL A   1      32.721  23.091  22.424  1.00  0.00     0.024 H 
ATOM     83  H   UNL A   1      34.069  22.130  22.988  1.00  0.00     0.024 H 
ENDBRANCH  46  80
BRANCH  58  84
ATOM     84  C   UNL A   1      34.680  20.774  24.626  1.00  0.00    -0.057 C 
ATOM     85  H   UNL A   1      35.365  20.009  24.928  1.00  0.00     0.024 H 
ATOM     86  H   UNL A   1      34.929  21.106  23.640  1.00  0.00     0.024 H 
ATOM     87  H   UNL A   1      33.684  20.384  24.630  1.00  0.00     0.024 H 
ENDBRANCH  58  84
BRANCH  58  88
ATOM     88  C   UNL A   1      34.678  21.315  27.022  1.00  0.00    -0.057 C 
ATOM     89  H   UNL A   1      35.007  22.018  27.759  1.00  0.00     0.024 H 
ATOM     90  H   UNL A   1      35.300  20.445  27.058  1.00  0.00     0.024 H 
ATOM     91  H   UNL A   1      33.664  21.037  27.222  1.00  0.00     0.024 H 
ENDBRANCH  58  88
BRANCH  60  92
ATOM     92  O   UNL A   1      37.230  21.757  25.477  1.00  0.00    -0.393 OA
ATOM     93  H   UNL A   1      36.877  20.854  25.503  1.00  0.00     0.210 HD
ENDBRANCH  60  92
ENDBRANCH  14  17
ENDBRANCH  10  13
ENDBRANCH   7  10
ENDBRANCH   4   7
ENDBRANCH   1   4
BRANCH   1  94
ATOM     94  C   UNL A   1      34.778  32.453  29.868  1.00  0.00    -0.036 C 
ATOM     95  H   UNL A   1      33.718  32.347  29.768  1.00  0.00     0.028 H 
ATOM     96  H   UNL A   1      35.151  33.455  29.835  1.00  0.00     0.028 H 
BRANCH  94  97
ATOM     97  C   UNL A   1      35.154  31.953  31.252  1.00  0.00     0.018 C 
ATOM     98  H   UNL A   1      36.001  31.305  31.157  1.00  0.00     0.049 H 
ATOM     99  H   UNL A   1      34.292  31.453  31.643  1.00  0.00     0.049 H 
BRANCH  97 100
ATOM    100  N   UNL A   1      35.488  33.002  32.192  1.00  0.00    -0.352 N 
ATOM    101  C   UNL A   1      36.724  33.513  32.522  1.00  0.00     0.251 C 
ATOM    102  H   UNL A   1      34.724  33.408  32.662  1.00  0.00     0.163 HD
ATOM    103  O   UNL A   1      36.822  34.356  33.403  1.00  0.00    -0.269 OA
BRANCH 101 104
ATOM    104  C   UNL A   1      37.946  33.014  31.843  1.00  0.00     0.039 A 
ATOM    105  C   UNL A   1      38.812  32.181  32.558  1.00  0.00    -0.049 A 
ATOM    106  C   UNL A   1      38.246  33.358  30.522  1.00  0.00    -0.049 A 
ATOM    107  C   UNL A   1      39.942  31.649  31.931  1.00  0.00    -0.053 A 
ATOM    108  H   UNL A   1      38.616  31.959  33.546  1.00  0.00     0.063 H 
ATOM    109  C   UNL A   1      39.324  32.756  29.874  1.00  0.00    -0.053 A 
ATOM    110  H   UNL A   1      37.671  34.057  30.028  1.00  0.00     0.063 H 
ATOM    111  C   UNL A   1      40.191  31.905  30.574  1.00  0.00    -0.014 A 
ATOM    112  H   UNL A   1      40.599  31.064  32.472  1.00  0.00     0.063 H 
ATOM    113  H   UNL A   1      39.484  32.940  28.871  1.00  0.00     0.063 H 
BRANCH 111 114
ATOM    114  C   UNL A   1      41.362  31.307  29.881  1.00  0.00     0.031 A 
ATOM    115  C   UNL A   1      42.583  32.142  29.604  1.00  0.00     0.074 A 
ATOM    116  C   UNL A   1      41.312  30.027  29.461  1.00  0.00     0.049 A 
ATOM    117  N   UNL A   1      43.686  31.818  28.976  1.00  0.00    -0.248 NA
ATOM    118  C   UNL A   1      42.551  33.537  30.072  1.00  0.00    -0.034 C 
ATOM    119  C   UNL A   1      40.169  29.128  29.628  1.00  0.00    -0.036 A 
ATOM    120  N   UNL A   1      42.242  29.261  28.803  1.00  0.00    -0.354 N 
ATOM    121  C   UNL A   1      44.466  32.968  28.963  1.00  0.00     0.074 A 
ATOM    122  C   UNL A   1      43.688  34.013  29.588  1.00  0.00    -0.034 C 
ATOM    123  H   UNL A   1      41.829  34.018  30.631  1.00  0.00     0.065 H 
ATOM    124  C   UNL A   1      40.476  27.926  29.115  1.00  0.00    -0.036 A 
ATOM    125  H   UNL A   1      39.271  29.377  30.071  1.00  0.00     0.065 H 
ATOM    126  C   UNL A   1      41.819  27.980  28.545  1.00  0.00     0.049 A 
ATOM    127  H   UNL A   1      43.130  29.598  28.542  1.00  0.00     0.167 HD
ATOM    128  C   UNL A   1      45.728  33.129  28.498  1.00  0.00     0.037 A 
ATOM    129  H   UNL A   1      43.980  35.001  29.650  1.00  0.00     0.065 H 
ATOM    130  H   UNL A   1      39.861  27.097  29.123  1.00  0.00     0.065 H 
ATOM    131  C   UNL A   1      42.441  26.966  27.913  1.00  0.00     0.037 A 
ATOM    132  C   UNL A   1      46.506  32.079  27.895  1.00  0.00     0.049 A 
ATOM    133  C   UNL A   1      43.836  27.176  27.389  1.00  0.00     0.074 A 
ATOM    134  C   UNL A   1      47.812  32.123  27.443  1.00  0.00    -0.036 A 
ATOM    135  N   UNL A   1      46.044  30.792  27.657  1.00  0.00    -0.354 N 
ATOM    136  N   UNL A   1      44.590  28.246  27.448  1.00  0.00    -0.248 NA
ATOM    137  C   UNL A   1      44.471  26.034  26.717  1.00  0.00    -0.034 C 
ATOM    138  C   UNL A   1      48.122  30.883  26.877  1.00  0.00    -0.036 A 
ATOM    139  H   UNL A   1      48.449  32.933  27.512  1.00  0.00     0.065 H 
ATOM    140  C   UNL A   1      47.032  30.043  27.037  1.00  0.00     0.049 A 
ATOM    141  H   UNL A   1      45.148  30.461  27.894  1.00  0.00     0.167 HD
ATOM    142  C   UNL A   1      45.796  27.899  26.852  1.00  0.00     0.074 A 
ATOM    143  C   UNL A   1      45.678  26.512  26.453  1.00  0.00    -0.034 C 
ATOM    144  H   UNL A   1      44.079  25.103  26.505  1.00  0.00     0.065 H 
ATOM    145  H   UNL A   1      49.012  30.635  26.418  1.00  0.00     0.065 H 
ATOM    146  C   UNL A   1      46.901  28.660  26.653  1.00  0.00     0.037 A 
ATOM    147  H   UNL A   1      46.438  25.966  26.018  1.00  0.00     0.065 H 
BRANCH 128 148
ATOM    148  C   UNL A   1      46.346  34.493  28.623  1.00  0.00     0.064 A 
ATOM    149  C   UNL A   1      46.215  35.460  27.614  1.00  0.00     0.173 A 
ATOM    150  C   UNL A   1      47.051  34.852  29.783  1.00  0.00     0.173 A 
ATOM    151  F   UNL A   1      45.561  35.167  26.479  1.00  0.00    -0.203 F 
ATOM    152  C   UNL A   1      46.795  36.720  27.745  1.00  0.00     0.198 A 
ATOM    153  C   UNL A   1      47.598  36.126  29.926  1.00  0.00     0.198 A 
ATOM    154  F   UNL A   1      47.203  33.971  30.783  1.00  0.00    -0.203 F 
ATOM    155  F   UNL A   1      46.704  37.605  26.742  1.00  0.00    -0.200 F 
ATOM    156  C   UNL A   1      47.479  37.053  28.903  1.00  0.00     0.200 A 
ATOM    157  F   UNL A   1      48.246  36.451  31.053  1.00  0.00    -0.200 F 
ATOM    158  F   UNL A   1      48.029  38.269  29.032  1.00  0.00    -0.200 F 
ENDBRANCH 128 148
BRANCH 131 159
ATOM    159  C   UNL A   1      41.757  25.653  27.755  1.00  0.00     0.064 A 
ATOM    160  C   UNL A   1      42.115  24.553  28.548  1.00  0.00     0.173 A 
ATOM    161  C   UNL A   1      40.742  25.467  26.805  1.00  0.00     0.173 A 
ATOM    162  F   UNL A   1      43.093  24.673  29.457  1.00  0.00    -0.203 F 
ATOM    163  C   UNL A   1      41.503  23.312  28.379  1.00  0.00     0.198 A 
ATOM    164  C   UNL A   1      40.107  24.234  26.660  1.00  0.00     0.198 A 
ATOM    165  F   UNL A   1      40.356  26.487  26.025  1.00  0.00    -0.203 F 
ATOM    166  F   UNL A   1      41.903  22.265  29.113  1.00  0.00    -0.200 F 
ATOM    167  C   UNL A   1      40.496  23.155  27.440  1.00  0.00     0.200 A 
ATOM    168  F   UNL A   1      39.123  24.093  25.762  1.00  0.00    -0.200 F 
ATOM    169  F   UNL A   1      39.904  21.964  27.279  1.00  0.00    -0.200 F 
ENDBRANCH 131 159
BRANCH 146 170
ATOM    170  C   UNL A   1      48.087  27.999  26.010  1.00  0.00     0.064 A 
ATOM    171  C   UNL A   1      48.174  27.825  24.621  1.00  0.00     0.173 A 
ATOM    172  C   UNL A   1      49.170  27.572  26.795  1.00  0.00     0.173 A 
ATOM    173  F   UNL A   1      47.161  28.203  23.828  1.00  0.00    -0.203 F 
ATOM    174  C   UNL A   1      49.288  27.219  24.044  1.00  0.00     0.198 A 
ATOM    175  C   UNL A   1      50.297  27.001  26.211  1.00  0.00     0.198 A 
ATOM    176  F   UNL A   1      49.142  27.723  28.127  1.00  0.00    -0.203 F 
ATOM    177  F   UNL A   1      49.326  27.014  22.721  1.00  0.00    -0.200 F 
ATOM    178  C   UNL A   1      50.351  26.817  24.838  1.00  0.00     0.200 A 
ATOM    179  F   UNL A   1      51.332  26.629  26.978  1.00  0.00    -0.200 F 
ATOM    180  F   UNL A   1      51.427  26.245  24.280  1.00  0.00    -0.200 F 
ENDBRANCH 146 170
ENDBRANCH 111 114
ENDBRANCH 101 104
ENDBRANCH  97 100
ENDBRANCH  94  97
ENDBRANCH   1  94
TORSDOF 21
ENDMDL
MODEL 10
REMARK VINA RESULT:     -11.1      2.583      8.705
REMARK SMILES C[C@H]1[C@H](C)CC[C@@]2(C(=O)NCCCCCCNC(=O)c3ccc(-c4c5nc(c(-c6c(F)c(F)c(F)c(F)c6F)c6ccc([nH]6)c(-c6c(F)c(F)c(F)c(F)c6F)c6nc(c(-c7c(F)c(F)c(F)c(F)c7F)c7ccc4[nH]7)C=C6)C=C5)cc3)CC[C@@]3(C)C(=CC[C@@H]4[C@@]5(C)CC[C@H](O)C(C)(C)[C@@H]5CC[C@]43C)[C@H]12
REMARK SMILES IDX 14 1 13 4 12 7 11 10 10 13 8 14 9 15 7 17 2 18 3 19 105 20
REMARK SMILES IDX 5 22 87 24 6 26 83 29 85 30 88 31 84 34 103 37 89 38 90 42
REMARK SMILES IDX 102 43 91 46 101 48 93 51 100 52 94 55 97 58 95 60 1 64 4 68
REMARK SMILES IDX 86 72 104 76 92 80 98 84 99 88 96 92 15 94 16 97 17 100
REMARK SMILES IDX 18 101 19 103 20 104 21 105 82 106 22 107 81 109 23 111
REMARK SMILES IDX 24 114 25 115 75 116 26 117 80 118 74 119 76 120 27 121
REMARK SMILES IDX 79 122 73 124 72 126 28 128 60 131 40 132 59 133 41 134
REMARK SMILES IDX 44 135 58 136 77 137 42 138 43 140 57 142 78 143 45 146
REMARK SMILES IDX 29 148 30 149 38 150 31 151 32 152 36 153 39 154 33 155
REMARK SMILES IDX 34 156 37 157 35 158 61 159 62 160 70 161 63 162 64 163
REMARK SMILES IDX 68 164 71 165 65 166 66 167 69 168 67 169 46 170 47 171
REMARK SMILES IDX 55 172 48 173 49 174 53 175 56 176 50 177 51 178 54 179
REMARK SMILES IDX 52 180
REMARK H PARENT 14 2 14 3 13 5 13 6 12 8 12 9 11 11 11 12 10 16 2 21 3 23
REMARK H PARENT 105 25 5 27 5 28 6 32 6 33 83 35 83 36 88 39 84 40 84 41 89 44
REMARK H PARENT 89 45 90 47 102 49 102 50 101 53 101 54 93 56 93 57 100 59
REMARK H PARENT 94 61 94 62 95 63 1 65 1 66 1 67 4 69 4 70 4 71 86 73 86 74
REMARK H PARENT 86 75 104 77 104 78 104 79 92 81 92 82 92 83 98 85 98 86 98 87
REMARK H PARENT 99 89 99 90 99 91 96 93 15 95 15 96 16 98 16 99 17 102 21 108
REMARK H PARENT 82 110 22 112 81 113 80 123 74 125 76 127 79 129 73 130 41 139
REMARK H PARENT 44 141 77 144 42 145 78 147
REMARK Flexibility Score: inf
ROOT
ATOM      1  C   UNL A   1      33.734  31.575  27.998  1.00  0.00    -0.052 C 
ATOM      2  H   UNL A   1      33.695  31.249  29.015  1.00  0.00     0.027 H 
ATOM      3  H   UNL A   1      32.824  31.492  27.440  1.00  0.00     0.027 H 
ENDROOT
BRANCH   1   4
ATOM      4  C   UNL A   1      34.710  30.650  27.263  1.00  0.00    -0.052 C 
ATOM      5  H   UNL A   1      34.558  30.807  26.216  1.00  0.00     0.027 H 
ATOM      6  H   UNL A   1      35.664  30.924  27.666  1.00  0.00     0.027 H 
BRANCH   4   7
ATOM      7  C   UNL A   1      34.648  29.133  27.500  1.00  0.00    -0.036 C 
ATOM      8  H   UNL A   1      35.582  28.843  27.935  1.00  0.00     0.028 H 
ATOM      9  H   UNL A   1      33.780  29.001  28.110  1.00  0.00     0.028 H 
BRANCH   7  10
ATOM     10  C   UNL A   1      34.404  28.208  26.302  1.00  0.00     0.017 C 
ATOM     11  H   UNL A   1      35.311  27.677  26.102  1.00  0.00     0.049 H 
ATOM     12  H   UNL A   1      33.590  27.571  26.578  1.00  0.00     0.049 H 
BRANCH  10  13
ATOM     13  N   UNL A   1      33.998  28.881  25.080  1.00  0.00    -0.356 N 
ATOM     14  C   UNL A   1      32.786  28.919  24.439  1.00  0.00     0.226 C 
ATOM     15  O   UNL A   1      32.870  28.853  23.205  1.00  0.00    -0.274 OA
ATOM     16  H   UNL A   1      34.712  29.395  24.639  1.00  0.00     0.163 HD
BRANCH  14  17
ATOM     17  C   UNL A   1      31.385  29.116  25.141  1.00  0.00     0.056 C 
ATOM     18  C   UNL A   1      29.848  29.777  23.165  1.00  0.00    -0.034 C 
ATOM     19  C   UNL A   1      29.528  31.131  23.883  1.00  0.00    -0.041 C 
ATOM     20  C   UNL A   1      30.200  28.690  24.223  1.00  0.00    -0.002 C 
ATOM     21  H   UNL A   1      30.697  29.922  22.530  1.00  0.00     0.031 H 
ATOM     22  C   UNL A   1      30.572  31.588  24.919  1.00  0.00    -0.049 C 
ATOM     23  H   UNL A   1      28.607  30.871  24.363  1.00  0.00     0.030 H 
ATOM     24  C   UNL A   1      30.525  27.235  23.812  1.00  0.00    -0.063 C 
ATOM     25  H   UNL A   1      29.235  28.651  24.685  1.00  0.00     0.036 H 
ATOM     26  C   UNL A   1      31.256  30.523  25.742  1.00  0.00    -0.038 C 
ATOM     27  H   UNL A   1      30.080  32.252  25.598  1.00  0.00     0.027 H 
ATOM     28  H   UNL A   1      31.358  32.025  24.337  1.00  0.00     0.027 H 
ATOM     29  C   UNL A   1      31.295  28.175  26.404  1.00  0.00    -0.037 C 
ATOM     30  C   UNL A   1      30.380  26.170  24.942  1.00  0.00    -0.006 C 
ATOM     31  C   UNL A   1      31.186  26.965  22.667  1.00  0.00    -0.084 C 
ATOM     32  H   UNL A   1      30.707  30.429  26.656  1.00  0.00     0.028 H 
ATOM     33  H   UNL A   1      32.265  30.867  25.838  1.00  0.00     0.028 H 
ATOM     34  C   UNL A   1      31.211  26.664  26.174  1.00  0.00    -0.043 C 
ATOM     35  H   UNL A   1      30.422  28.461  26.953  1.00  0.00     0.028 H 
ATOM     36  H   UNL A   1      32.229  28.315  26.908  1.00  0.00     0.028 H 
ATOM     37  C   UNL A   1      30.910  24.703  24.469  1.00  0.00    -0.020 C 
ATOM     38  C   UNL A   1      32.040  25.738  22.458  1.00  0.00    -0.031 C 
ATOM     39  H   UNL A   1      31.105  27.638  21.888  1.00  0.00     0.058 H 
ATOM     40  H   UNL A   1      30.778  26.228  27.050  1.00  0.00     0.028 H 
ATOM     41  H   UNL A   1      32.217  26.362  25.964  1.00  0.00     0.028 H 
ATOM     42  C   UNL A   1      32.300  24.968  23.782  1.00  0.00    -0.026 C 
ATOM     43  C   UNL A   1      31.035  23.708  25.654  1.00  0.00    -0.046 C 
ATOM     44  H   UNL A   1      32.980  26.039  22.046  1.00  0.00     0.031 H 
ATOM     45  H   UNL A   1      31.514  25.083  21.797  1.00  0.00     0.031 H 
ATOM     46  C   UNL A   1      33.377  23.804  23.728  1.00  0.00    -0.025 C 
ATOM     47  H   UNL A   1      32.859  25.578  24.460  1.00  0.00     0.032 H 
ATOM     48  C   UNL A   1      31.869  22.469  25.326  1.00  0.00    -0.049 C 
ATOM     49  H   UNL A   1      31.493  24.216  26.477  1.00  0.00     0.027 H 
ATOM     50  H   UNL A   1      30.046  23.370  25.887  1.00  0.00     0.027 H 
ATOM     51  C   UNL A   1      34.798  24.459  23.787  1.00  0.00    -0.045 C 
ATOM     52  C   UNL A   1      33.306  22.899  25.016  1.00  0.00    -0.028 C 
ATOM     53  H   UNL A   1      31.867  21.803  26.163  1.00  0.00     0.027 H 
ATOM     54  H   UNL A   1      31.452  21.968  24.477  1.00  0.00     0.027 H 
ATOM     55  C   UNL A   1      35.947  23.454  23.862  1.00  0.00    -0.026 C 
ATOM     56  H   UNL A   1      34.844  25.086  24.653  1.00  0.00     0.027 H 
ATOM     57  H   UNL A   1      34.925  25.005  22.875  1.00  0.00     0.027 H 
ATOM     58  C   UNL A   1      34.389  21.755  25.108  1.00  0.00    -0.006 C 
ATOM     59  H   UNL A   1      33.609  23.527  25.827  1.00  0.00     0.031 H 
ATOM     60  C   UNL A   1      35.797  22.417  24.979  1.00  0.00     0.059 C 
ATOM     61  H   UNL A   1      36.856  23.994  24.023  1.00  0.00     0.029 H 
ATOM     62  H   UNL A   1      35.945  22.914  22.937  1.00  0.00     0.029 H 
ATOM     63  H   UNL A   1      35.904  22.954  25.900  1.00  0.00     0.061 H 
BRANCH  18  64
ATOM     64  C   UNL A   1      28.694  29.328  22.254  1.00  0.00    -0.062 C 
ATOM     65  H   UNL A   1      27.963  30.107  22.195  1.00  0.00     0.023 H 
ATOM     66  H   UNL A   1      28.243  28.445  22.657  1.00  0.00     0.023 H 
ATOM     67  H   UNL A   1      29.073  29.120  21.274  1.00  0.00     0.023 H 
ENDBRANCH  18  64
BRANCH  19  68
ATOM     68  C   UNL A   1      29.339  32.336  22.946  1.00  0.00    -0.062 C 
ATOM     69  H   UNL A   1      29.427  33.242  23.509  1.00  0.00     0.023 H 
ATOM     70  H   UNL A   1      28.370  32.290  22.495  1.00  0.00     0.023 H 
ATOM     71  H   UNL A   1      30.089  32.315  22.184  1.00  0.00     0.023 H 
ENDBRANCH  19  68
BRANCH  30  72
ATOM     72  C   UNL A   1      28.893  26.073  25.374  1.00  0.00    -0.055 C 
ATOM     73  H   UNL A   1      28.741  26.652  26.261  1.00  0.00     0.024 H 
ATOM     74  H   UNL A   1      28.644  25.051  25.568  1.00  0.00     0.024 H 
ATOM     75  H   UNL A   1      28.270  26.449  24.591  1.00  0.00     0.024 H 
ENDBRANCH  30  72
BRANCH  37  76
ATOM     76  C   UNL A   1      29.903  24.039  23.479  1.00  0.00    -0.059 C 
ATOM     77  H   UNL A   1      28.931  24.010  23.925  1.00  0.00     0.024 H 
ATOM     78  H   UNL A   1      30.224  23.041  23.260  1.00  0.00     0.024 H 
ATOM     79  H   UNL A   1      29.865  24.607  22.574  1.00  0.00     0.024 H 
ENDBRANCH  37  76
BRANCH  46  80
ATOM     80  C   UNL A   1      33.246  23.043  22.397  1.00  0.00    -0.059 C 
ATOM     81  H   UNL A   1      32.553  22.235  22.515  1.00  0.00     0.024 H 
ATOM     82  H   UNL A   1      34.201  22.654  22.113  1.00  0.00     0.024 H 
ATOM     83  H   UNL A   1      32.890  23.709  21.638  1.00  0.00     0.024 H 
ENDBRANCH  46  80
BRANCH  58  84
ATOM     84  C   UNL A   1      34.183  20.599  24.105  1.00  0.00    -0.057 C 
ATOM     85  H   UNL A   1      34.940  19.859  24.256  1.00  0.00     0.024 H 
ATOM     86  H   UNL A   1      34.247  20.978  23.107  1.00  0.00     0.024 H 
ATOM     87  H   UNL A   1      33.219  20.161  24.260  1.00  0.00     0.024 H 
ENDBRANCH  58  84
BRANCH  58  88
ATOM     88  C   UNL A   1      34.341  21.078  26.509  1.00  0.00    -0.057 C 
ATOM     89  H   UNL A   1      33.326  21.021  26.843  1.00  0.00     0.024 H 
ATOM     90  H   UNL A   1      34.913  21.656  27.205  1.00  0.00     0.024 H 
ATOM     91  H   UNL A   1      34.750  20.091  26.444  1.00  0.00     0.024 H 
ENDBRANCH  58  88
BRANCH  60  92
ATOM     92  O   UNL A   1      36.822  21.433  24.834  1.00  0.00    -0.393 OA
ATOM     93  H   UNL A   1      36.800  20.830  25.593  1.00  0.00     0.210 HD
ENDBRANCH  60  92
ENDBRANCH  14  17
ENDBRANCH  10  13
ENDBRANCH   7  10
ENDBRANCH   4   7
ENDBRANCH   1   4
BRANCH   1  94
ATOM     94  C   UNL A   1      34.025  33.073  28.015  1.00  0.00    -0.036 C 
ATOM     95  H   UNL A   1      33.085  33.577  28.102  1.00  0.00     0.028 H 
ATOM     96  H   UNL A   1      34.565  33.250  27.108  1.00  0.00     0.028 H 
BRANCH  94  97
ATOM     97  C   UNL A   1      34.931  33.613  29.108  1.00  0.00     0.018 C 
ATOM     98  H   UNL A   1      34.866  34.682  29.101  1.00  0.00     0.049 H 
ATOM     99  H   UNL A   1      35.917  33.257  28.893  1.00  0.00     0.049 H 
BRANCH  97 100
ATOM    100  N   UNL A   1      34.601  33.147  30.438  1.00  0.00    -0.352 N 
ATOM    101  C   UNL A   1      35.321  32.325  31.276  1.00  0.00     0.251 C 
ATOM    102  H   UNL A   1      33.738  33.463  30.794  1.00  0.00     0.163 HD
ATOM    103  O   UNL A   1      34.846  31.973  32.346  1.00  0.00    -0.269 OA
BRANCH 101 104
ATOM    104  C   UNL A   1      36.658  31.826  30.866  1.00  0.00     0.039 A 
ATOM    105  C   UNL A   1      37.450  31.181  31.821  1.00  0.00    -0.049 A 
ATOM    106  C   UNL A   1      37.138  31.991  29.564  1.00  0.00    -0.049 A 
ATOM    107  C   UNL A   1      38.690  30.651  31.455  1.00  0.00    -0.053 A 
ATOM    108  H   UNL A   1      37.117  31.096  32.794  1.00  0.00     0.063 H 
ATOM    109  C   UNL A   1      38.333  31.385  29.180  1.00  0.00    -0.053 A 
ATOM    110  H   UNL A   1      36.607  32.560  28.887  1.00  0.00     0.063 H 
ATOM    111  C   UNL A   1      39.129  30.719  30.124  1.00  0.00    -0.014 A 
ATOM    112  H   UNL A   1      39.288  30.207  32.171  1.00  0.00     0.063 H 
ATOM    113  H   UNL A   1      38.635  31.428  28.194  1.00  0.00     0.063 H 
BRANCH 111 114
ATOM    114  C   UNL A   1      40.423  30.117  29.710  1.00  0.00     0.031 A 
ATOM    115  C   UNL A   1      41.685  30.938  29.750  1.00  0.00     0.074 A 
ATOM    116  C   UNL A   1      40.459  28.849  29.256  1.00  0.00     0.049 A 
ATOM    117  N   UNL A   1      42.900  30.609  29.390  1.00  0.00    -0.248 NA
ATOM    118  C   UNL A   1      41.559  32.321  30.236  1.00  0.00    -0.034 C 
ATOM    119  C   UNL A   1      39.299  27.966  29.124  1.00  0.00    -0.036 A 
ATOM    120  N   UNL A   1      41.509  28.082  28.814  1.00  0.00    -0.354 N 
ATOM    121  C   UNL A   1      43.675  31.745  29.593  1.00  0.00     0.074 A 
ATOM    122  C   UNL A   1      42.783  32.789  30.046  1.00  0.00    -0.034 C 
ATOM    123  H   UNL A   1      40.731  32.801  30.622  1.00  0.00     0.065 H 
ATOM    124  C   UNL A   1      39.705  26.771  28.665  1.00  0.00    -0.036 A 
ATOM    125  H   UNL A   1      38.325  28.220  29.350  1.00  0.00     0.065 H 
ATOM    126  C   UNL A   1      41.144  26.815  28.428  1.00  0.00     0.049 A 
ATOM    127  H   UNL A   1      42.438  28.410  28.778  1.00  0.00     0.167 HD
ATOM    128  C   UNL A   1      45.012  31.895  29.442  1.00  0.00     0.037 A 
ATOM    129  H   UNL A   1      43.063  33.770  30.202  1.00  0.00     0.065 H 
ATOM    130  H   UNL A   1      39.095  25.953  28.505  1.00  0.00     0.065 H 
ATOM    131  C   UNL A   1      41.886  25.806  27.933  1.00  0.00     0.037 A 
ATOM    132  C   UNL A   1      45.899  30.846  29.011  1.00  0.00     0.049 A 
ATOM    133  C   UNL A   1      43.368  26.004  27.758  1.00  0.00     0.074 A 
ATOM    134  C   UNL A   1      47.275  30.879  28.879  1.00  0.00    -0.036 A 
ATOM    135  N   UNL A   1      45.491  29.573  28.636  1.00  0.00    -0.354 N 
ATOM    136  N   UNL A   1      44.099  27.060  28.021  1.00  0.00    -0.248 NA
ATOM    137  C   UNL A   1      44.130  24.867  27.222  1.00  0.00    -0.034 C 
ATOM    138  C   UNL A   1      47.695  29.647  28.368  1.00  0.00    -0.036 A 
ATOM    139  H   UNL A   1      47.887  31.676  29.118  1.00  0.00     0.065 H 
ATOM    140  C   UNL A   1      46.589  28.823  28.245  1.00  0.00     0.049 A 
ATOM    141  H   UNL A   1      44.561  29.252  28.646  1.00  0.00     0.167 HD
ATOM    142  C   UNL A   1      45.406  26.706  27.716  1.00  0.00     0.074 A 
ATOM    143  C   UNL A   1      45.370  25.331  27.263  1.00  0.00    -0.034 C 
ATOM    144  H   UNL A   1      43.788  23.949  26.900  1.00  0.00     0.065 H 
ATOM    145  H   UNL A   1      48.665  29.395  28.125  1.00  0.00     0.065 H 
ATOM    146  C   UNL A   1      46.536  27.451  27.804  1.00  0.00     0.037 A 
ATOM    147  H   UNL A   1      46.205  24.782  27.005  1.00  0.00     0.065 H 
BRANCH 128 148
ATOM    148  C   UNL A   1      45.600  33.245  29.746  1.00  0.00     0.064 A 
ATOM    149  C   UNL A   1      46.051  33.584  31.031  1.00  0.00     0.173 A 
ATOM    150  C   UNL A   1      45.746  34.203  28.729  1.00  0.00     0.173 A 
ATOM    151  F   UNL A   1      45.926  32.710  32.042  1.00  0.00    -0.203 F 
ATOM    152  C   UNL A   1      46.593  34.839  31.295  1.00  0.00     0.198 A 
ATOM    153  C   UNL A   1      46.321  35.445  28.990  1.00  0.00     0.198 A 
ATOM    154  F   UNL A   1      45.338  33.933  27.480  1.00  0.00    -0.203 F 
ATOM    155  F   UNL A   1      46.963  35.158  32.543  1.00  0.00    -0.200 F 
ATOM    156  C   UNL A   1      46.734  35.765  30.273  1.00  0.00     0.200 A 
ATOM    157  F   UNL A   1      46.471  36.333  27.997  1.00  0.00    -0.200 F 
ATOM    158  F   UNL A   1      47.264  36.970  30.527  1.00  0.00    -0.200 F 
ENDBRANCH 128 148
BRANCH 131 159
ATOM    159  C   UNL A   1      41.244  24.509  27.583  1.00  0.00     0.064 A 
ATOM    160  C   UNL A   1      40.362  24.409  26.498  1.00  0.00     0.173 A 
ATOM    161  C   UNL A   1      41.489  23.348  28.331  1.00  0.00     0.173 A 
ATOM    162  F   UNL A   1      40.080  25.495  25.763  1.00  0.00    -0.203 F 
ATOM    163  C   UNL A   1      39.731  23.205  26.189  1.00  0.00     0.198 A 
ATOM    164  C   UNL A   1      40.883  22.137  28.001  1.00  0.00     0.198 A 
ATOM    165  F   UNL A   1      42.327  23.385  29.377  1.00  0.00    -0.203 F 
ATOM    166  F   UNL A   1      38.852  23.152  25.179  1.00  0.00    -0.200 F 
ATOM    167  C   UNL A   1      39.996  22.069  26.937  1.00  0.00     0.200 A 
ATOM    168  F   UNL A   1      41.154  21.038  28.718  1.00  0.00    -0.200 F 
ATOM    169  F   UNL A   1      39.393  20.911  26.638  1.00  0.00    -0.200 F 
ENDBRANCH 131 159
BRANCH 146 170
ATOM    170  C   UNL A   1      47.832  26.786  27.439  1.00  0.00     0.064 A 
ATOM    171  C   UNL A   1      48.382  26.889  26.153  1.00  0.00     0.173 A 
ATOM    172  C   UNL A   1      48.555  26.068  28.406  1.00  0.00     0.173 A 
ATOM    173  F   UNL A   1      47.725  27.551  25.189  1.00  0.00    -0.203 F 
ATOM    174  C   UNL A   1      49.591  26.273  25.840  1.00  0.00     0.198 A 
ATOM    175  C   UNL A   1      49.781  25.485  28.099  1.00  0.00     0.198 A 
ATOM    176  F   UNL A   1      48.080  25.947  29.655  1.00  0.00    -0.203 F 
ATOM    177  F   UNL A   1      50.070  26.338  24.590  1.00  0.00    -0.200 F 
ATOM    178  C   UNL A   1      50.293  25.580  26.814  1.00  0.00     0.200 A 
ATOM    179  F   UNL A   1      50.467  24.831  29.047  1.00  0.00    -0.200 F 
ATOM    180  F   UNL A   1      51.462  24.997  26.514  1.00  0.00    -0.200 F 
ENDBRANCH 146 170
ENDBRANCH 111 114
ENDBRANCH 101 104
ENDBRANCH  97 100
ENDBRANCH  94  97
ENDBRANCH   1  94
TORSDOF 21
ENDMDL
