MODEL 1
REMARK VINA RESULT:     -12.2      0.000      0.000
REMARK SMILES O=C1NC(=O)/C(=C/c2ccc(OCc3cn(-c4ccc(C(=O)NCCCCCCNC(=O)c5ccc(-c6c7nc(c(-c8c(F)c(F)c(F)c(F)c8F)c8ccc([nH]8)c(-c8c(F)c(F)c(F)c(F)c8F)c8nc(c(-c9c(F)c(F)c(F)c(F)c9F)c9ccc6[nH]9)C=C8)C=C7)cc5)cc4)nn3)cc2)S1
REMARK SMILES IDX 25 1 24 4 23 7 21 8 22 9 20 11 17 12 18 13 97 14 19 15 96 17
REMARK SMILES IDX 16 21 14 22 15 23 99 24 98 26 13 27 12 30 11 31 8 32 9 33
REMARK SMILES IDX 101 34 10 35 100 37 7 41 1 42 2 43 3 44 102 45 4 46 6 48
REMARK SMILES IDX 5 49 26 51 27 54 28 57 29 60 30 63 31 64 32 66 33 67 34 68
REMARK SMILES IDX 95 69 35 70 94 72 36 74 37 77 38 78 88 79 39 80 93 81 87 82
REMARK SMILES IDX 89 83 40 84 92 85 86 87 85 89 41 91 73 94 53 95 72 96 54 97
REMARK SMILES IDX 57 98 71 99 90 100 55 101 56 103 70 105 91 106 58 109 42 111
REMARK SMILES IDX 43 112 51 113 44 114 45 115 49 116 52 117 46 118 47 119
REMARK SMILES IDX 50 120 48 121 74 122 75 123 83 124 76 125 77 126 81 127
REMARK SMILES IDX 84 128 78 129 79 130 82 131 80 132 59 133 60 134 68 135
REMARK SMILES IDX 61 136 62 137 66 138 69 139 63 140 64 141 67 142 65 143
REMARK H PARENT 25 2 25 3 24 5 24 6 23 10 18 16 97 18 19 19 96 20 15 25 13 28
REMARK H PARENT 13 29 9 36 101 38 10 39 100 40 3 47 7 50 26 52 26 53 27 55
REMARK H PARENT 27 56 28 58 28 59 29 61 29 62 30 65 34 71 95 73 35 75 94 76
REMARK H PARENT 93 86 87 88 89 90 92 92 86 93 54 102 57 104 90 107 55 108
REMARK H PARENT 91 110
REMARK Flexibility Score: inf
ROOT
ATOM      1  C   UNL A   1      34.826  32.243  27.656  1.00  0.00    -0.036 C 
ATOM      2  H   UNL A   1      34.582  32.870  26.824  1.00  0.00     0.028 H 
ATOM      3  H   UNL A   1      35.818  31.850  27.572  1.00  0.00     0.028 H 
ENDROOT
BRANCH   1   4
ATOM      4  C   UNL A   1      33.858  31.058  27.679  1.00  0.00     0.018 C 
ATOM      5  H   UNL A   1      34.341  30.194  27.273  1.00  0.00     0.049 H 
ATOM      6  H   UNL A   1      33.561  30.860  28.687  1.00  0.00     0.049 H 
BRANCH   4   7
ATOM      7  N   UNL A   1      32.690  31.374  26.885  1.00  0.00    -0.352 N 
ATOM      8  C   UNL A   1      31.839  30.611  26.130  1.00  0.00     0.251 C 
ATOM      9  O   UNL A   1      30.958  31.198  25.503  1.00  0.00    -0.269 OA
ATOM     10  H   UNL A   1      32.459  32.332  26.888  1.00  0.00     0.163 HD
BRANCH   8  11
ATOM     11  C   UNL A   1      31.879  29.123  26.113  1.00  0.00     0.039 A 
ATOM     12  C   UNL A   1      32.140  26.350  26.382  1.00  0.00     0.066 A 
ATOM     13  C   UNL A   1      31.493  27.086  27.380  1.00  0.00    -0.036 A 
ATOM     14  C   UNL A   1      32.579  26.975  25.215  1.00  0.00    -0.036 A 
ATOM     15  C   UNL A   1      31.402  28.471  27.260  1.00  0.00    -0.047 A 
ATOM     16  H   UNL A   1      31.089  26.607  28.200  1.00  0.00     0.065 H 
ATOM     17  C   UNL A   1      32.370  28.346  25.059  1.00  0.00    -0.047 A 
ATOM     18  H   UNL A   1      33.051  26.430  24.477  1.00  0.00     0.065 H 
ATOM     19  H   UNL A   1      30.978  29.023  28.022  1.00  0.00     0.063 H 
ATOM     20  H   UNL A   1      32.582  28.793  24.153  1.00  0.00     0.063 H 
BRANCH  12  21
ATOM     21  N   UNL A   1      32.310  24.965  26.549  1.00  0.00    -0.220 N 
ATOM     22  C   UNL A   1      32.985  22.893  26.510  1.00  0.00     0.120 A 
ATOM     23  C   UNL A   1      33.342  24.165  26.113  1.00  0.00     0.058 A 
ATOM     24  N   UNL A   1      31.797  22.971  27.190  1.00  0.00    -0.131 NA
ATOM     25  H   UNL A   1      34.193  24.453  25.604  1.00  0.00     0.086 H 
ATOM     26  N   UNL A   1      31.417  24.233  27.242  1.00  0.00    -0.062 NA
BRANCH  22  27
ATOM     27  C   UNL A   1      33.710  21.590  26.414  1.00  0.00     0.134 C 
ATOM     28  H   UNL A   1      34.511  21.607  27.123  1.00  0.00     0.078 H 
ATOM     29  H   UNL A   1      32.978  20.834  26.605  1.00  0.00     0.078 H 
BRANCH  27  30
ATOM     30  O   UNL A   1      34.267  21.281  25.124  1.00  0.00    -0.487 OA
BRANCH  30  31
ATOM     31  C   UNL A   1      35.594  20.952  25.045  1.00  0.00     0.119 A 
ATOM     32  C   UNL A   1      38.234  19.998  25.207  1.00  0.00    -0.024 A 
ATOM     33  C   UNL A   1      37.177  19.108  25.001  1.00  0.00    -0.051 A 
ATOM     34  C   UNL A   1      37.971  21.369  25.228  1.00  0.00    -0.051 A 
ATOM     35  C   UNL A   1      35.862  19.587  24.930  1.00  0.00    -0.019 A 
ATOM     36  H   UNL A   1      37.365  18.098  24.902  1.00  0.00     0.063 H 
ATOM     37  C   UNL A   1      36.663  21.841  25.110  1.00  0.00    -0.019 A 
ATOM     38  H   UNL A   1      38.750  22.038  25.331  1.00  0.00     0.063 H 
ATOM     39  H   UNL A   1      35.084  18.922  24.791  1.00  0.00     0.066 H 
ATOM     40  H   UNL A   1      36.487  22.858  25.069  1.00  0.00     0.066 H 
BRANCH  32  41
ATOM     41  C   UNL A   1      39.605  19.513  25.377  1.00  0.00    -0.035 C 
ATOM     42  O   UNL A   1      42.633  22.213  28.372  1.00  0.00    -0.261 OA
ATOM     43  C   UNL A   1      42.090  21.418  27.607  1.00  0.00     0.290 C 
ATOM     44  N   UNL A   1      42.696  20.379  26.993  1.00  0.00    -0.282 N 
ATOM     45  S   UNL A   1      40.399  21.475  27.163  1.00  0.00    -0.022 SA
ATOM     46  C   UNL A   1      41.942  19.586  26.178  1.00  0.00     0.265 C 
ATOM     47  H   UNL A   1      43.655  20.200  27.129  1.00  0.00     0.174 HD
ATOM     48  C   UNL A   1      40.545  20.093  26.139  1.00  0.00     0.083 C 
ATOM     49  O   UNL A   1      42.360  18.619  25.568  1.00  0.00    -0.268 OA
ATOM     50  H   UNL A   1      39.871  18.655  24.869  1.00  0.00     0.064 H 
ENDBRANCH  32  41
ENDBRANCH  30  31
ENDBRANCH  27  30
ENDBRANCH  22  27
ENDBRANCH  12  21
ENDBRANCH   8  11
ENDBRANCH   4   7
ENDBRANCH   1   4
BRANCH   1  51
ATOM     51  C   UNL A   1      34.761  33.079  28.940  1.00  0.00    -0.052 C 
ATOM     52  H   UNL A   1      35.478  32.685  29.630  1.00  0.00     0.027 H 
ATOM     53  H   UNL A   1      33.753  33.012  29.290  1.00  0.00     0.027 H 
BRANCH  51  54
ATOM     54  C   UNL A   1      35.053  34.579  28.753  1.00  0.00    -0.052 C 
ATOM     55  H   UNL A   1      35.233  34.751  27.713  1.00  0.00     0.027 H 
ATOM     56  H   UNL A   1      35.891  34.790  29.384  1.00  0.00     0.027 H 
BRANCH  54  57
ATOM     57  C   UNL A   1      33.942  35.543  29.204  1.00  0.00    -0.036 C 
ATOM     58  H   UNL A   1      33.347  35.799  28.353  1.00  0.00     0.028 H 
ATOM     59  H   UNL A   1      34.419  36.399  29.632  1.00  0.00     0.028 H 
BRANCH  57  60
ATOM     60  C   UNL A   1      33.035  34.950  30.268  1.00  0.00     0.018 C 
ATOM     61  H   UNL A   1      33.293  33.920  30.408  1.00  0.00     0.049 H 
ATOM     62  H   UNL A   1      32.024  35.051  29.935  1.00  0.00     0.049 H 
BRANCH  60  63
ATOM     63  N   UNL A   1      33.165  35.651  31.552  1.00  0.00    -0.352 N 
ATOM     64  C   UNL A   1      33.880  35.303  32.685  1.00  0.00     0.251 C 
ATOM     65  H   UNL A   1      32.669  36.499  31.617  1.00  0.00     0.163 HD
ATOM     66  O   UNL A   1      33.599  35.774  33.780  1.00  0.00    -0.269 OA
BRANCH  64  67
ATOM     67  C   UNL A   1      35.009  34.372  32.544  1.00  0.00     0.039 A 
ATOM     68  C   UNL A   1      34.872  32.980  32.551  1.00  0.00    -0.049 A 
ATOM     69  C   UNL A   1      36.251  34.954  32.363  1.00  0.00    -0.049 A 
ATOM     70  C   UNL A   1      36.018  32.205  32.377  1.00  0.00    -0.053 A 
ATOM     71  H   UNL A   1      33.948  32.538  32.680  1.00  0.00     0.063 H 
ATOM     72  C   UNL A   1      37.246  34.215  31.815  1.00  0.00    -0.053 A 
ATOM     73  H   UNL A   1      36.417  35.933  32.639  1.00  0.00     0.063 H 
ATOM     74  C   UNL A   1      37.208  32.853  32.031  1.00  0.00    -0.014 A 
ATOM     75  H   UNL A   1      35.988  31.180  32.500  1.00  0.00     0.063 H 
ATOM     76  H   UNL A   1      37.999  34.652  31.261  1.00  0.00     0.063 H 
BRANCH  74  77
ATOM     77  C   UNL A   1      38.475  32.185  31.815  1.00  0.00     0.031 A 
ATOM     78  C   UNL A   1      39.162  31.825  33.070  1.00  0.00     0.074 A 
ATOM     79  C   UNL A   1      38.794  31.654  30.612  1.00  0.00     0.049 A 
ATOM     80  N   UNL A   1      40.230  32.361  33.553  1.00  0.00    -0.248 NA
ATOM     81  C   UNL A   1      38.481  30.906  33.998  1.00  0.00    -0.034 C 
ATOM     82  C   UNL A   1      37.994  31.616  29.378  1.00  0.00    -0.036 A 
ATOM     83  N   UNL A   1      39.880  30.907  30.277  1.00  0.00    -0.354 N 
ATOM     84  C   UNL A   1      40.484  31.677  34.736  1.00  0.00     0.074 A 
ATOM     85  C   UNL A   1      39.259  31.008  35.078  1.00  0.00    -0.034 C 
ATOM     86  H   UNL A   1      37.633  30.337  33.852  1.00  0.00     0.065 H 
ATOM     87  C   UNL A   1      38.513  30.703  28.525  1.00  0.00    -0.036 A 
ATOM     88  H   UNL A   1      37.163  32.199  29.191  1.00  0.00     0.065 H 
ATOM     89  C   UNL A   1      39.751  30.196  29.083  1.00  0.00     0.049 A 
ATOM     90  H   UNL A   1      40.692  30.869  30.834  1.00  0.00     0.167 HD
ATOM     91  C   UNL A   1      41.764  31.474  35.157  1.00  0.00     0.037 A 
ATOM     92  H   UNL A   1      39.015  30.661  36.018  1.00  0.00     0.065 H 
ATOM     93  H   UNL A   1      38.096  30.414  27.626  1.00  0.00     0.065 H 
ATOM     94  C   UNL A   1      40.591  29.213  28.665  1.00  0.00     0.037 A 
ATOM     95  C   UNL A   1      42.678  32.317  34.418  1.00  0.00     0.049 A 
ATOM     96  C   UNL A   1      41.856  29.369  29.443  1.00  0.00     0.074 A 
ATOM     97  C   UNL A   1      42.768  33.681  34.204  1.00  0.00    -0.036 A 
ATOM     98  N   UNL A   1      43.413  31.737  33.410  1.00  0.00    -0.354 N 
ATOM     99  N   UNL A   1      42.659  30.392  29.312  1.00  0.00    -0.248 NA
ATOM    100  C   UNL A   1      41.936  28.675  30.723  1.00  0.00    -0.034 C 
ATOM    101  C   UNL A   1      43.087  33.812  32.818  1.00  0.00    -0.036 A 
ATOM    102  H   UNL A   1      42.635  34.437  34.895  1.00  0.00     0.065 H 
ATOM    103  C   UNL A   1      43.284  32.533  32.299  1.00  0.00     0.049 A 
ATOM    104  H   UNL A   1      43.935  30.905  33.473  1.00  0.00     0.167 HD
ATOM    105  C   UNL A   1      43.011  30.734  30.611  1.00  0.00     0.074 A 
ATOM    106  C   UNL A   1      42.575  29.608  31.435  1.00  0.00    -0.034 C 
ATOM    107  H   UNL A   1      41.599  27.739  30.997  1.00  0.00     0.065 H 
ATOM    108  H   UNL A   1      43.158  34.698  32.294  1.00  0.00     0.065 H 
ATOM    109  C   UNL A   1      43.327  32.020  30.949  1.00  0.00     0.037 A 
ATOM    110  H   UNL A   1      42.742  29.540  32.452  1.00  0.00     0.065 H 
BRANCH  91 111
ATOM    111  C   UNL A   1      42.240  30.256  35.916  1.00  0.00     0.064 A 
ATOM    112  C   UNL A   1      43.177  30.441  36.952  1.00  0.00     0.173 A 
ATOM    113  C   UNL A   1      42.059  28.918  35.499  1.00  0.00     0.173 A 
ATOM    114  F   UNL A   1      43.430  31.668  37.434  1.00  0.00    -0.203 F 
ATOM    115  C   UNL A   1      43.948  29.389  37.451  1.00  0.00     0.198 A 
ATOM    116  C   UNL A   1      42.791  27.863  36.039  1.00  0.00     0.198 A 
ATOM    117  F   UNL A   1      41.259  28.576  34.486  1.00  0.00    -0.203 F 
ATOM    118  F   UNL A   1      44.923  29.641  38.334  1.00  0.00    -0.200 F 
ATOM    119  C   UNL A   1      43.762  28.101  36.985  1.00  0.00     0.200 A 
ATOM    120  F   UNL A   1      42.600  26.623  35.565  1.00  0.00    -0.200 F 
ATOM    121  F   UNL A   1      44.543  27.101  37.410  1.00  0.00    -0.200 F 
ENDBRANCH  91 111
BRANCH  94 122
ATOM    122  C   UNL A   1      40.253  27.973  27.917  1.00  0.00     0.064 A 
ATOM    123  C   UNL A   1      40.885  27.651  26.703  1.00  0.00     0.173 A 
ATOM    124  C   UNL A   1      39.495  26.944  28.510  1.00  0.00     0.173 A 
ATOM    125  F   UNL A   1      41.670  28.552  26.092  1.00  0.00    -0.203 F 
ATOM    126  C   UNL A   1      40.777  26.376  26.130  1.00  0.00     0.198 A 
ATOM    127  C   UNL A   1      39.382  25.676  27.936  1.00  0.00     0.198 A 
ATOM    128  F   UNL A   1      38.925  27.116  29.712  1.00  0.00    -0.203 F 
ATOM    129  F   UNL A   1      41.441  26.091  25.001  1.00  0.00    -0.200 F 
ATOM    130  C   UNL A   1      40.033  25.388  26.752  1.00  0.00     0.200 A 
ATOM    131  F   UNL A   1      38.692  24.719  28.573  1.00  0.00    -0.200 F 
ATOM    132  F   UNL A   1      39.977  24.152  26.237  1.00  0.00    -0.200 F 
ENDBRANCH  94 122
BRANCH 109 133
ATOM    133  C   UNL A   1      43.516  33.032  29.852  1.00  0.00     0.064 A 
ATOM    134  C   UNL A   1      44.658  33.116  29.035  1.00  0.00     0.173 A 
ATOM    135  C   UNL A   1      42.422  33.834  29.503  1.00  0.00     0.173 A 
ATOM    136  F   UNL A   1      45.707  32.308  29.229  1.00  0.00    -0.203 F 
ATOM    137  C   UNL A   1      44.714  33.995  27.953  1.00  0.00     0.198 A 
ATOM    138  C   UNL A   1      42.464  34.681  28.398  1.00  0.00     0.198 A 
ATOM    139  F   UNL A   1      41.281  33.756  30.206  1.00  0.00    -0.203 F 
ATOM    140  F   UNL A   1      45.821  34.061  27.197  1.00  0.00    -0.200 F 
ATOM    141  C   UNL A   1      43.613  34.770  27.631  1.00  0.00     0.200 A 
ATOM    142  F   UNL A   1      41.376  35.387  28.060  1.00  0.00    -0.200 F 
ATOM    143  F   UNL A   1      43.649  35.583  26.565  1.00  0.00    -0.200 F 
ENDBRANCH 109 133
ENDBRANCH  74  77
ENDBRANCH  64  67
ENDBRANCH  60  63
ENDBRANCH  57  60
ENDBRANCH  54  57
ENDBRANCH  51  54
ENDBRANCH   1  51
TORSDOF 18
ENDMDL
MODEL 2
REMARK VINA RESULT:     -12.1      3.564      9.775
REMARK SMILES O=C1NC(=O)/C(=C/c2ccc(OCc3cn(-c4ccc(C(=O)NCCCCCCNC(=O)c5ccc(-c6c7nc(c(-c8c(F)c(F)c(F)c(F)c8F)c8ccc([nH]8)c(-c8c(F)c(F)c(F)c(F)c8F)c8nc(c(-c9c(F)c(F)c(F)c(F)c9F)c9ccc6[nH]9)C=C8)C=C7)cc5)cc4)nn3)cc2)S1
REMARK SMILES IDX 25 1 24 4 23 7 21 8 22 9 20 11 17 12 18 13 97 14 19 15 96 17
REMARK SMILES IDX 16 21 14 22 15 23 99 24 98 26 13 27 12 30 11 31 8 32 9 33
REMARK SMILES IDX 101 34 10 35 100 37 7 41 1 42 2 43 3 44 102 45 4 46 6 48
REMARK SMILES IDX 5 49 26 51 27 54 28 57 29 60 30 63 31 64 32 66 33 67 34 68
REMARK SMILES IDX 95 69 35 70 94 72 36 74 37 77 38 78 88 79 39 80 93 81 87 82
REMARK SMILES IDX 89 83 40 84 92 85 86 87 85 89 41 91 73 94 53 95 72 96 54 97
REMARK SMILES IDX 57 98 71 99 90 100 55 101 56 103 70 105 91 106 58 109 42 111
REMARK SMILES IDX 43 112 51 113 44 114 45 115 49 116 52 117 46 118 47 119
REMARK SMILES IDX 50 120 48 121 74 122 75 123 83 124 76 125 77 126 81 127
REMARK SMILES IDX 84 128 78 129 79 130 82 131 80 132 59 133 60 134 68 135
REMARK SMILES IDX 61 136 62 137 66 138 69 139 63 140 64 141 67 142 65 143
REMARK H PARENT 25 2 25 3 24 5 24 6 23 10 18 16 97 18 19 19 96 20 15 25 13 28
REMARK H PARENT 13 29 9 36 101 38 10 39 100 40 3 47 7 50 26 52 26 53 27 55
REMARK H PARENT 27 56 28 58 28 59 29 61 29 62 30 65 34 71 95 73 35 75 94 76
REMARK H PARENT 93 86 87 88 89 90 92 92 86 93 54 102 57 104 90 107 55 108
REMARK H PARENT 91 110
REMARK Flexibility Score: inf
ROOT
ATOM      1  C   UNL A   1      45.630  27.799  25.802  1.00  0.00    -0.036 C 
ATOM      2  H   UNL A   1      45.974  27.204  24.982  1.00  0.00     0.028 H 
ATOM      3  H   UNL A   1      45.505  28.823  25.519  1.00  0.00     0.028 H 
ENDROOT
BRANCH   1   4
ATOM      4  C   UNL A   1      46.676  27.749  26.918  1.00  0.00     0.018 C 
ATOM      5  H   UNL A   1      46.901  28.744  27.241  1.00  0.00     0.049 H 
ATOM      6  H   UNL A   1      46.292  27.184  27.741  1.00  0.00     0.049 H 
BRANCH   4   7
ATOM      7  N   UNL A   1      47.881  27.120  26.422  1.00  0.00    -0.352 N 
ATOM      8  C   UNL A   1      48.159  25.854  25.979  1.00  0.00     0.251 C 
ATOM      9  O   UNL A   1      49.326  25.603  25.680  1.00  0.00    -0.269 OA
ATOM     10  H   UNL A   1      48.659  27.724  26.396  1.00  0.00     0.163 HD
BRANCH   8  11
ATOM     11  C   UNL A   1      47.111  24.820  25.759  1.00  0.00     0.039 A 
ATOM     12  C   UNL A   1      45.342  22.662  25.543  1.00  0.00     0.066 A 
ATOM     13  C   UNL A   1      45.646  23.187  26.804  1.00  0.00    -0.036 A 
ATOM     14  C   UNL A   1      45.847  23.259  24.389  1.00  0.00    -0.036 A 
ATOM     15  C   UNL A   1      46.558  24.235  26.908  1.00  0.00    -0.047 A 
ATOM     16  H   UNL A   1      45.199  22.800  27.650  1.00  0.00     0.065 H 
ATOM     17  C   UNL A   1      46.664  24.385  24.507  1.00  0.00    -0.047 A 
ATOM     18  H   UNL A   1      45.618  22.874  23.460  1.00  0.00     0.065 H 
ATOM     19  H   UNL A   1      46.829  24.586  27.841  1.00  0.00     0.063 H 
ATOM     20  H   UNL A   1      46.941  24.904  23.659  1.00  0.00     0.063 H 
BRANCH  12  21
ATOM     21  N   UNL A   1      44.493  21.547  25.449  1.00  0.00    -0.220 N 
ATOM     22  C   UNL A   1      42.958  20.023  25.722  1.00  0.00     0.120 A 
ATOM     23  C   UNL A   1      43.385  21.241  26.208  1.00  0.00     0.058 A 
ATOM     24  N   UNL A   1      43.779  19.661  24.685  1.00  0.00    -0.131 NA
ATOM     25  H   UNL A   1      42.967  21.800  26.969  1.00  0.00     0.086 H 
ATOM     26  N   UNL A   1      44.679  20.607  24.503  1.00  0.00    -0.062 NA
BRANCH  22  27
ATOM     27  C   UNL A   1      41.766  19.190  26.060  1.00  0.00     0.134 C 
ATOM     28  H   UNL A   1      41.371  18.795  25.147  1.00  0.00     0.078 H 
ATOM     29  H   UNL A   1      42.115  18.441  26.740  1.00  0.00     0.078 H 
BRANCH  27  30
ATOM     30  O   UNL A   1      40.701  19.874  26.744  1.00  0.00    -0.487 OA
BRANCH  30  31
ATOM     31  C   UNL A   1      39.594  20.245  26.029  1.00  0.00     0.119 A 
ATOM     32  C   UNL A   1      37.199  21.214  24.920  1.00  0.00    -0.024 A 
ATOM     33  C   UNL A   1      38.127  22.101  25.470  1.00  0.00    -0.051 A 
ATOM     34  C   UNL A   1      37.523  19.859  24.837  1.00  0.00    -0.051 A 
ATOM     35  C   UNL A   1      39.315  21.613  26.030  1.00  0.00    -0.019 A 
ATOM     36  H   UNL A   1      37.938  23.115  25.465  1.00  0.00     0.063 H 
ATOM     37  C   UNL A   1      38.730  19.386  25.355  1.00  0.00    -0.019 A 
ATOM     38  H   UNL A   1      36.866  19.202  24.389  1.00  0.00     0.063 H 
ATOM     39  H   UNL A   1      39.991  22.272  26.447  1.00  0.00     0.066 H 
ATOM     40  H   UNL A   1      38.984  18.392  25.237  1.00  0.00     0.066 H 
BRANCH  32  41
ATOM     41  C   UNL A   1      35.910  21.690  24.413  1.00  0.00    -0.035 C 
ATOM     42  O   UNL A   1      32.341  22.707  27.827  1.00  0.00    -0.261 OA
ATOM     43  C   UNL A   1      33.042  22.518  26.834  1.00  0.00     0.290 C 
ATOM     44  N   UNL A   1      32.637  22.642  25.551  1.00  0.00    -0.282 N 
ATOM     45  S   UNL A   1      34.726  22.051  26.890  1.00  0.00    -0.022 SA
ATOM     46  C   UNL A   1      33.549  22.402  24.564  1.00  0.00     0.265 C 
ATOM     47  H   UNL A   1      31.711  22.896  25.335  1.00  0.00     0.174 HD
ATOM     48  C   UNL A   1      34.852  22.017  25.169  1.00  0.00     0.083 C 
ATOM     49  O   UNL A   1      33.318  22.479  23.372  1.00  0.00    -0.268 OA
ATOM     50  H   UNL A   1      35.808  21.782  23.390  1.00  0.00     0.064 H 
ENDBRANCH  32  41
ENDBRANCH  30  31
ENDBRANCH  27  30
ENDBRANCH  22  27
ENDBRANCH  12  21
ENDBRANCH   8  11
ENDBRANCH   4   7
ENDBRANCH   1   4
BRANCH   1  51
ATOM     51  C   UNL A   1      44.263  27.270  26.255  1.00  0.00    -0.052 C 
ATOM     52  H   UNL A   1      43.987  27.786  27.150  1.00  0.00     0.027 H 
ATOM     53  H   UNL A   1      44.381  26.215  26.392  1.00  0.00     0.027 H 
BRANCH  51  54
ATOM     54  C   UNL A   1      43.127  27.447  25.232  1.00  0.00    -0.052 C 
ATOM     55  H   UNL A   1      43.570  27.689  24.289  1.00  0.00     0.027 H 
ATOM     56  H   UNL A   1      42.498  28.215  25.631  1.00  0.00     0.027 H 
BRANCH  54  57
ATOM     57  C   UNL A   1      42.212  26.229  25.023  1.00  0.00    -0.036 C 
ATOM     58  H   UNL A   1      42.092  26.069  23.972  1.00  0.00     0.028 H 
ATOM     59  H   UNL A   1      41.281  26.444  25.505  1.00  0.00     0.028 H 
BRANCH  57  60
ATOM     60  C   UNL A   1      42.761  24.958  25.647  1.00  0.00     0.018 C 
ATOM     61  H   UNL A   1      43.566  25.214  26.304  1.00  0.00     0.049 H 
ATOM     62  H   UNL A   1      43.098  24.320  24.857  1.00  0.00     0.049 H 
BRANCH  60  63
ATOM     63  N   UNL A   1      41.735  24.234  26.411  1.00  0.00    -0.352 N 
ATOM     64  C   UNL A   1      41.297  24.425  27.709  1.00  0.00     0.251 C 
ATOM     65  H   UNL A   1      41.291  23.502  25.924  1.00  0.00     0.163 HD
ATOM     66  O   UNL A   1      40.725  23.532  28.322  1.00  0.00    -0.269 OA
BRANCH  64  67
ATOM     67  C   UNL A   1      41.506  25.739  28.335  1.00  0.00     0.039 A 
ATOM     68  C   UNL A   1      42.599  26.043  29.153  1.00  0.00    -0.049 A 
ATOM     69  C   UNL A   1      40.560  26.705  28.040  1.00  0.00    -0.049 A 
ATOM     70  C   UNL A   1      42.701  27.337  29.662  1.00  0.00    -0.053 A 
ATOM     71  H   UNL A   1      43.312  25.329  29.374  1.00  0.00     0.063 H 
ATOM     72  C   UNL A   1      40.883  28.010  28.210  1.00  0.00    -0.053 A 
ATOM     73  H   UNL A   1      39.626  26.436  27.696  1.00  0.00     0.063 H 
ATOM     74  C   UNL A   1      41.807  28.305  29.190  1.00  0.00    -0.014 A 
ATOM     75  H   UNL A   1      43.416  27.574  30.368  1.00  0.00     0.063 H 
ATOM     76  H   UNL A   1      40.455  28.750  27.632  1.00  0.00     0.063 H 
BRANCH  74  77
ATOM     77  C   UNL A   1      41.792  29.688  29.621  1.00  0.00     0.031 A 
ATOM     78  C   UNL A   1      42.852  30.502  28.995  1.00  0.00     0.074 A 
ATOM     79  C   UNL A   1      40.714  30.218  30.244  1.00  0.00     0.049 A 
ATOM     80  N   UNL A   1      43.904  30.979  29.566  1.00  0.00    -0.248 NA
ATOM     81  C   UNL A   1      42.854  30.634  27.529  1.00  0.00    -0.034 C 
ATOM     82  C   UNL A   1      39.429  29.581  30.570  1.00  0.00    -0.036 A 
ATOM     83  N   UNL A   1      40.498  31.511  30.608  1.00  0.00    -0.354 N 
ATOM     84  C   UNL A   1      44.580  31.675  28.572  1.00  0.00     0.074 A 
ATOM     85  C   UNL A   1      44.043  31.205  27.324  1.00  0.00    -0.034 C 
ATOM     86  H   UNL A   1      42.131  30.360  26.845  1.00  0.00     0.065 H 
ATOM     87  C   UNL A   1      38.510  30.530  30.862  1.00  0.00    -0.036 A 
ATOM     88  H   UNL A   1      39.255  28.564  30.575  1.00  0.00     0.065 H 
ATOM     89  C   UNL A   1      39.166  31.822  30.884  1.00  0.00     0.049 A 
ATOM     90  H   UNL A   1      41.224  32.175  30.670  1.00  0.00     0.167 HD
ATOM     91  C   UNL A   1      45.297  32.793  28.874  1.00  0.00     0.037 A 
ATOM     92  H   UNL A   1      44.507  31.294  26.407  1.00  0.00     0.065 H 
ATOM     93  H   UNL A   1      37.507  30.362  31.040  1.00  0.00     0.065 H 
ATOM     94  C   UNL A   1      38.673  33.080  31.036  1.00  0.00     0.037 A 
ATOM     95  C   UNL A   1      45.493  32.895  30.304  1.00  0.00     0.049 A 
ATOM     96  C   UNL A   1      39.841  33.969  31.311  1.00  0.00     0.074 A 
ATOM     97  C   UNL A   1      46.042  32.059  31.260  1.00  0.00    -0.036 A 
ATOM     98  N   UNL A   1      44.703  33.782  30.998  1.00  0.00    -0.354 N 
ATOM     99  N   UNL A   1      40.557  33.898  32.402  1.00  0.00    -0.248 NA
ATOM    100  C   UNL A   1      40.520  34.545  30.157  1.00  0.00    -0.034 C 
ATOM    101  C   UNL A   1      45.152  32.148  32.374  1.00  0.00    -0.036 A 
ATOM    102  H   UNL A   1      46.904  31.497  31.186  1.00  0.00     0.065 H 
ATOM    103  C   UNL A   1      44.186  33.110  32.078  1.00  0.00     0.049 A 
ATOM    104  H   UNL A   1      44.537  34.723  30.764  1.00  0.00     0.167 HD
ATOM    105  C   UNL A   1      41.872  34.001  31.969  1.00  0.00     0.074 A 
ATOM    106  C   UNL A   1      41.784  34.450  30.581  1.00  0.00    -0.034 C 
ATOM    107  H   UNL A   1      40.138  34.916  29.273  1.00  0.00     0.065 H 
ATOM    108  H   UNL A   1      45.213  31.597  33.244  1.00  0.00     0.065 H 
ATOM    109  C   UNL A   1      42.898  33.413  32.657  1.00  0.00     0.037 A 
ATOM    110  H   UNL A   1      42.605  34.668  29.993  1.00  0.00     0.065 H 
BRANCH  91 111
ATOM    111  C   UNL A   1      45.463  33.987  27.961  1.00  0.00     0.064 A 
ATOM    112  C   UNL A   1      46.758  34.514  27.781  1.00  0.00     0.173 A 
ATOM    113  C   UNL A   1      44.409  34.805  27.495  1.00  0.00     0.173 A 
ATOM    114  F   UNL A   1      47.837  33.825  28.180  1.00  0.00    -0.203 F 
ATOM    115  C   UNL A   1      46.971  35.800  27.281  1.00  0.00     0.198 A 
ATOM    116  C   UNL A   1      44.630  36.065  26.945  1.00  0.00     0.198 A 
ATOM    117  F   UNL A   1      43.121  34.485  27.647  1.00  0.00    -0.203 F 
ATOM    118  F   UNL A   1      48.210  36.308  27.264  1.00  0.00    -0.200 F 
ATOM    119  C   UNL A   1      45.905  36.580  26.874  1.00  0.00     0.200 A 
ATOM    120  F   UNL A   1      43.580  36.807  26.565  1.00  0.00    -0.200 F 
ATOM    121  F   UNL A   1      46.098  37.837  26.457  1.00  0.00    -0.200 F 
ENDBRANCH  91 111
BRANCH  94 122
ATOM    122  C   UNL A   1      37.344  33.600  30.621  1.00  0.00     0.064 A 
ATOM    123  C   UNL A   1      36.961  33.646  29.269  1.00  0.00     0.173 A 
ATOM    124  C   UNL A   1      36.316  33.816  31.561  1.00  0.00     0.173 A 
ATOM    125  F   UNL A   1      37.862  33.400  28.306  1.00  0.00    -0.203 F 
ATOM    126  C   UNL A   1      35.632  33.876  28.885  1.00  0.00     0.198 A 
ATOM    127  C   UNL A   1      34.994  34.053  31.178  1.00  0.00     0.198 A 
ATOM    128  F   UNL A   1      36.553  33.707  32.876  1.00  0.00    -0.203 F 
ATOM    129  F   UNL A   1      35.297  33.856  27.587  1.00  0.00    -0.200 F 
ATOM    130  C   UNL A   1      34.649  34.071  29.841  1.00  0.00     0.200 A 
ATOM    131  F   UNL A   1      34.048  34.197  32.117  1.00  0.00    -0.200 F 
ATOM    132  F   UNL A   1      33.369  34.233  29.477  1.00  0.00    -0.200 F 
ENDBRANCH  94 122
BRANCH 109 133
ATOM    133  C   UNL A   1      42.622  32.841  34.020  1.00  0.00     0.064 A 
ATOM    134  C   UNL A   1      42.239  31.510  34.262  1.00  0.00     0.173 A 
ATOM    135  C   UNL A   1      42.928  33.630  35.137  1.00  0.00     0.173 A 
ATOM    136  F   UNL A   1      42.036  30.655  33.253  1.00  0.00    -0.203 F 
ATOM    137  C   UNL A   1      42.124  31.011  35.560  1.00  0.00     0.198 A 
ATOM    138  C   UNL A   1      42.852  33.119  36.430  1.00  0.00     0.198 A 
ATOM    139  F   UNL A   1      43.357  34.891  34.971  1.00  0.00    -0.203 F 
ATOM    140  F   UNL A   1      41.748  29.740  35.761  1.00  0.00    -0.200 F 
ATOM    141  C   UNL A   1      42.439  31.815  36.643  1.00  0.00     0.200 A 
ATOM    142  F   UNL A   1      43.211  33.886  37.469  1.00  0.00    -0.200 F 
ATOM    143  F   UNL A   1      42.372  31.325  37.888  1.00  0.00    -0.200 F 
ENDBRANCH 109 133
ENDBRANCH  74  77
ENDBRANCH  64  67
ENDBRANCH  60  63
ENDBRANCH  57  60
ENDBRANCH  54  57
ENDBRANCH  51  54
ENDBRANCH   1  51
TORSDOF 18
ENDMDL
MODEL 3
REMARK VINA RESULT:     -12.1      5.324     11.540
REMARK SMILES O=C1NC(=O)/C(=C/c2ccc(OCc3cn(-c4ccc(C(=O)NCCCCCCNC(=O)c5ccc(-c6c7nc(c(-c8c(F)c(F)c(F)c(F)c8F)c8ccc([nH]8)c(-c8c(F)c(F)c(F)c(F)c8F)c8nc(c(-c9c(F)c(F)c(F)c(F)c9F)c9ccc6[nH]9)C=C8)C=C7)cc5)cc4)nn3)cc2)S1
REMARK SMILES IDX 25 1 24 4 23 7 21 8 22 9 20 11 17 12 18 13 97 14 19 15 96 17
REMARK SMILES IDX 16 21 14 22 15 23 99 24 98 26 13 27 12 30 11 31 8 32 9 33
REMARK SMILES IDX 101 34 10 35 100 37 7 41 1 42 2 43 3 44 102 45 4 46 6 48
REMARK SMILES IDX 5 49 26 51 27 54 28 57 29 60 30 63 31 64 32 66 33 67 34 68
REMARK SMILES IDX 95 69 35 70 94 72 36 74 37 77 38 78 88 79 39 80 93 81 87 82
REMARK SMILES IDX 89 83 40 84 92 85 86 87 85 89 41 91 73 94 53 95 72 96 54 97
REMARK SMILES IDX 57 98 71 99 90 100 55 101 56 103 70 105 91 106 58 109 42 111
REMARK SMILES IDX 43 112 51 113 44 114 45 115 49 116 52 117 46 118 47 119
REMARK SMILES IDX 50 120 48 121 74 122 75 123 83 124 76 125 77 126 81 127
REMARK SMILES IDX 84 128 78 129 79 130 82 131 80 132 59 133 60 134 68 135
REMARK SMILES IDX 61 136 62 137 66 138 69 139 63 140 64 141 67 142 65 143
REMARK H PARENT 25 2 25 3 24 5 24 6 23 10 18 16 97 18 19 19 96 20 15 25 13 28
REMARK H PARENT 13 29 9 36 101 38 10 39 100 40 3 47 7 50 26 52 26 53 27 55
REMARK H PARENT 27 56 28 58 28 59 29 61 29 62 30 65 34 71 95 73 35 75 94 76
REMARK H PARENT 93 86 87 88 89 90 92 92 86 93 54 102 57 104 90 107 55 108
REMARK H PARENT 91 110
REMARK Flexibility Score: inf
ROOT
ATOM      1  C   UNL A   1      46.601  25.927  25.333  1.00  0.00    -0.036 C 
ATOM      2  H   UNL A   1      46.835  25.660  24.323  1.00  0.00     0.028 H 
ATOM      3  H   UNL A   1      46.318  26.956  25.411  1.00  0.00     0.028 H 
ENDROOT
BRANCH   1   4
ATOM      4  C   UNL A   1      47.847  25.719  26.197  1.00  0.00     0.018 C 
ATOM      5  H   UNL A   1      47.620  25.043  26.994  1.00  0.00     0.049 H 
ATOM      6  H   UNL A   1      48.633  25.312  25.596  1.00  0.00     0.049 H 
BRANCH   4   7
ATOM      7  N   UNL A   1      48.269  26.989  26.748  1.00  0.00    -0.352 N 
ATOM      8  C   UNL A   1      48.139  27.559  27.986  1.00  0.00     0.251 C 
ATOM      9  O   UNL A   1      48.553  28.709  28.127  1.00  0.00    -0.269 OA
ATOM     10  H   UNL A   1      48.746  27.559  26.102  1.00  0.00     0.163 HD
BRANCH   8  11
ATOM     11  C   UNL A   1      47.612  26.824  29.169  1.00  0.00     0.039 A 
ATOM     12  C   UNL A   1      46.352  25.670  31.386  1.00  0.00     0.066 A 
ATOM     13  C   UNL A   1      45.691  25.708  30.153  1.00  0.00    -0.036 A 
ATOM     14  C   UNL A   1      47.665  26.126  31.498  1.00  0.00    -0.036 A 
ATOM     15  C   UNL A   1      46.308  26.319  29.063  1.00  0.00    -0.047 A 
ATOM     16  H   UNL A   1      44.754  25.288  30.052  1.00  0.00     0.065 H 
ATOM     17  C   UNL A   1      48.310  26.625  30.365  1.00  0.00    -0.047 A 
ATOM     18  H   UNL A   1      48.153  26.093  32.406  1.00  0.00     0.065 H 
ATOM     19  H   UNL A   1      45.800  26.401  28.168  1.00  0.00     0.063 H 
ATOM     20  H   UNL A   1      49.317  26.851  30.411  1.00  0.00     0.063 H 
BRANCH  12  21
ATOM     21  N   UNL A   1      45.691  25.134  32.504  1.00  0.00    -0.220 N 
ATOM     22  C   UNL A   1      45.103  24.036  34.293  1.00  0.00     0.120 A 
ATOM     23  C   UNL A   1      46.176  24.266  33.456  1.00  0.00     0.058 A 
ATOM     24  N   UNL A   1      44.044  24.787  33.851  1.00  0.00    -0.131 NA
ATOM     25  H   UNL A   1      47.128  23.874  33.528  1.00  0.00     0.086 H 
ATOM     26  N   UNL A   1      44.421  25.477  32.793  1.00  0.00    -0.062 NA
BRANCH  22  27
ATOM     27  C   UNL A   1      44.991  23.254  35.560  1.00  0.00     0.134 C 
ATOM     28  H   UNL A   1      45.620  23.720  36.291  1.00  0.00     0.078 H 
ATOM     29  H   UNL A   1      43.953  23.259  35.816  1.00  0.00     0.078 H 
BRANCH  27  30
ATOM     30  O   UNL A   1      45.368  21.868  35.472  1.00  0.00    -0.487 OA
BRANCH  30  31
ATOM     31  C   UNL A   1      46.699  21.552  35.423  1.00  0.00     0.119 A 
ATOM     32  C   UNL A   1      49.303  20.494  35.387  1.00  0.00    -0.024 A 
ATOM     33  C   UNL A   1      48.333  20.002  34.510  1.00  0.00    -0.051 A 
ATOM     34  C   UNL A   1      48.990  21.582  36.203  1.00  0.00    -0.051 A 
ATOM     35  C   UNL A   1      47.034  20.526  34.538  1.00  0.00    -0.019 A 
ATOM     36  H   UNL A   1      48.573  19.252  33.843  1.00  0.00     0.063 H 
ATOM     37  C   UNL A   1      47.706  22.129  36.191  1.00  0.00    -0.019 A 
ATOM     38  H   UNL A   1      49.713  21.985  36.819  1.00  0.00     0.063 H 
ATOM     39  H   UNL A   1      46.318  20.148  33.897  1.00  0.00     0.066 H 
ATOM     40  H   UNL A   1      47.501  22.969  36.756  1.00  0.00     0.066 H 
BRANCH  32  41
ATOM     41  C   UNL A   1      50.641  19.900  35.440  1.00  0.00    -0.035 C 
ATOM     42  O   UNL A   1      53.838  21.121  31.737  1.00  0.00    -0.261 OA
ATOM     43  C   UNL A   1      53.239  20.683  32.717  1.00  0.00     0.290 C 
ATOM     44  N   UNL A   1      53.718  19.768  33.588  1.00  0.00    -0.282 N 
ATOM     45  S   UNL A   1      51.626  21.172  33.187  1.00  0.00    -0.022 SA
ATOM     46  C   UNL A   1      52.921  19.396  34.632  1.00  0.00     0.265 C 
ATOM     47  H   UNL A   1      54.615  19.380  33.472  1.00  0.00     0.174 HD
ATOM     48  C   UNL A   1      51.622  20.116  34.552  1.00  0.00     0.083 C 
ATOM     49  O   UNL A   1      53.229  18.586  35.487  1.00  0.00    -0.268 OA
ATOM     50  H   UNL A   1      50.846  19.264  36.227  1.00  0.00     0.064 H 
ENDBRANCH  32  41
ENDBRANCH  30  31
ENDBRANCH  27  30
ENDBRANCH  22  27
ENDBRANCH  12  21
ENDBRANCH   8  11
ENDBRANCH   4   7
ENDBRANCH   1   4
BRANCH   1  51
ATOM     51  C   UNL A   1      45.413  25.079  25.803  1.00  0.00    -0.052 C 
ATOM     52  H   UNL A   1      44.674  25.082  25.029  1.00  0.00     0.027 H 
ATOM     53  H   UNL A   1      45.072  25.520  26.717  1.00  0.00     0.027 H 
BRANCH  51  54
ATOM     54  C   UNL A   1      45.751  23.613  26.133  1.00  0.00    -0.052 C 
ATOM     55  H   UNL A   1      45.619  23.476  27.186  1.00  0.00     0.027 H 
ATOM     56  H   UNL A   1      46.756  23.467  25.795  1.00  0.00     0.027 H 
BRANCH  54  57
ATOM     57  C   UNL A   1      44.911  22.548  25.410  1.00  0.00    -0.036 C 
ATOM     58  H   UNL A   1      44.492  21.889  26.142  1.00  0.00     0.028 H 
ATOM     59  H   UNL A   1      45.562  22.035  24.734  1.00  0.00     0.028 H 
BRANCH  57  60
ATOM     60  C   UNL A   1      43.780  23.139  24.588  1.00  0.00     0.018 C 
ATOM     61  H   UNL A   1      44.021  23.046  23.549  1.00  0.00     0.049 H 
ATOM     62  H   UNL A   1      43.669  24.166  24.866  1.00  0.00     0.049 H 
BRANCH  60  63
ATOM     63  N   UNL A   1      42.503  22.457  24.842  1.00  0.00    -0.352 N 
ATOM     64  C   UNL A   1      41.674  22.510  25.948  1.00  0.00     0.251 C 
ATOM     65  H   UNL A   1      42.188  21.875  24.113  1.00  0.00     0.163 HD
ATOM     66  O   UNL A   1      40.860  21.622  26.173  1.00  0.00    -0.269 OA
BRANCH  64  67
ATOM     67  C   UNL A   1      41.770  23.673  26.843  1.00  0.00     0.039 A 
ATOM     68  C   UNL A   1      42.587  23.715  27.977  1.00  0.00    -0.049 A 
ATOM     69  C   UNL A   1      41.015  24.775  26.480  1.00  0.00    -0.049 A 
ATOM     70  C   UNL A   1      42.614  24.890  28.726  1.00  0.00    -0.053 A 
ATOM     71  H   UNL A   1      43.157  22.899  28.251  1.00  0.00     0.063 H 
ATOM     72  C   UNL A   1      41.353  25.991  26.975  1.00  0.00    -0.053 A 
ATOM     73  H   UNL A   1      40.211  24.674  25.844  1.00  0.00     0.063 H 
ATOM     74  C   UNL A   1      41.962  26.017  28.213  1.00  0.00    -0.014 A 
ATOM     75  H   UNL A   1      43.100  24.927  29.636  1.00  0.00     0.063 H 
ATOM     76  H   UNL A   1      41.163  26.858  26.450  1.00  0.00     0.063 H 
BRANCH  74  77
ATOM     77  C   UNL A   1      41.905  27.304  28.873  1.00  0.00     0.031 A 
ATOM     78  C   UNL A   1      42.961  28.233  28.425  1.00  0.00     0.074 A 
ATOM     79  C   UNL A   1      40.801  27.700  29.549  1.00  0.00     0.049 A 
ATOM     80  N   UNL A   1      43.988  28.625  29.097  1.00  0.00    -0.248 NA
ATOM     81  C   UNL A   1      42.994  28.615  27.003  1.00  0.00    -0.034 C 
ATOM     82  C   UNL A   1      39.524  26.993  29.727  1.00  0.00    -0.036 A 
ATOM     83  N   UNL A   1      40.548  28.908  30.123  1.00  0.00    -0.354 N 
ATOM     84  C   UNL A   1      44.671  29.494  28.254  1.00  0.00     0.074 A 
ATOM     85  C   UNL A   1      44.174  29.234  26.931  1.00  0.00    -0.034 C 
ATOM     86  H   UNL A   1      42.293  28.449  26.263  1.00  0.00     0.065 H 
ATOM     87  C   UNL A   1      38.577  27.861  30.152  1.00  0.00    -0.036 A 
ATOM     88  H   UNL A   1      39.373  25.987  29.553  1.00  0.00     0.065 H 
ATOM     89  C   UNL A   1      39.203  29.142  30.412  1.00  0.00     0.049 A 
ATOM     90  H   UNL A   1      41.257  29.565  30.316  1.00  0.00     0.167 HD
ATOM     91  C   UNL A   1      45.355  30.556  28.762  1.00  0.00     0.037 A 
ATOM     92  H   UNL A   1      44.657  29.488  26.055  1.00  0.00     0.065 H 
ATOM     93  H   UNL A   1      37.575  27.646  30.271  1.00  0.00     0.065 H 
ATOM     94  C   UNL A   1      38.678  30.346  30.763  1.00  0.00     0.037 A 
ATOM     95  C   UNL A   1      45.516  30.415  30.193  1.00  0.00     0.049 A 
ATOM     96  C   UNL A   1      39.819  31.196  31.218  1.00  0.00     0.074 A 
ATOM     97  C   UNL A   1      46.061  29.438  31.007  1.00  0.00    -0.036 A 
ATOM     98  N   UNL A   1      44.690  31.154  31.008  1.00  0.00    -0.354 N 
ATOM     99  N   UNL A   1      40.511  30.952  32.299  1.00  0.00    -0.248 NA
ATOM    100  C   UNL A   1      40.512  31.973  30.197  1.00  0.00    -0.034 C 
ATOM    101  C   UNL A   1      45.143  29.318  32.095  1.00  0.00    -0.036 A 
ATOM    102  H   UNL A   1      46.937  28.913  30.861  1.00  0.00     0.065 H 
ATOM    103  C   UNL A   1      44.163  30.298  31.942  1.00  0.00     0.049 A 
ATOM    104  H   UNL A   1      44.508  32.119  30.933  1.00  0.00     0.167 HD
ATOM    105  C   UNL A   1      41.833  31.152  31.925  1.00  0.00     0.074 A 
ATOM    106  C   UNL A   1      41.767  31.830  30.632  1.00  0.00    -0.034 C 
ATOM    107  H   UNL A   1      40.141  32.484  29.380  1.00  0.00     0.065 H 
ATOM    108  H   UNL A   1      45.197  28.627  32.860  1.00  0.00     0.065 H 
ATOM    109  C   UNL A   1      42.855  30.474  32.530  1.00  0.00     0.037 A 
ATOM    110  H   UNL A   1      42.596  32.161  30.113  1.00  0.00     0.065 H 
BRANCH  91 111
ATOM    111  C   UNL A   1      45.516  31.891  28.071  1.00  0.00     0.064 A 
ATOM    112  C   UNL A   1      44.352  32.591  27.694  1.00  0.00     0.173 A 
ATOM    113  C   UNL A   1      46.718  32.373  27.507  1.00  0.00     0.173 A 
ATOM    114  F   UNL A   1      43.152  32.227  28.170  1.00  0.00    -0.203 F 
ATOM    115  C   UNL A   1      44.378  33.615  26.745  1.00  0.00     0.198 A 
ATOM    116  C   UNL A   1      46.746  33.432  26.602  1.00  0.00     0.198 A 
ATOM    117  F   UNL A   1      47.901  31.785  27.708  1.00  0.00    -0.203 F 
ATOM    118  F   UNL A   1      43.228  34.151  26.316  1.00  0.00    -0.200 F 
ATOM    119  C   UNL A   1      45.575  34.027  26.191  1.00  0.00     0.200 A 
ATOM    120  F   UNL A   1      47.918  33.809  26.070  1.00  0.00    -0.200 F 
ATOM    121  F   UNL A   1      45.598  34.960  25.232  1.00  0.00    -0.200 F 
ENDBRANCH  91 111
BRANCH  94 122
ATOM    122  C   UNL A   1      37.347  30.906  30.408  1.00  0.00     0.064 A 
ATOM    123  C   UNL A   1      36.416  31.271  31.395  1.00  0.00     0.173 A 
ATOM    124  C   UNL A   1      37.064  31.344  29.098  1.00  0.00     0.173 A 
ATOM    125  F   UNL A   1      36.630  30.942  32.678  1.00  0.00    -0.203 F 
ATOM    126  C   UNL A   1      35.283  32.039  31.092  1.00  0.00     0.198 A 
ATOM    127  C   UNL A   1      35.931  32.104  28.797  1.00  0.00     0.198 A 
ATOM    128  F   UNL A   1      37.931  31.128  28.099  1.00  0.00    -0.203 F 
ATOM    129  F   UNL A   1      34.447  32.415  32.072  1.00  0.00    -0.200 F 
ATOM    130  C   UNL A   1      35.047  32.461  29.795  1.00  0.00     0.200 A 
ATOM    131  F   UNL A   1      35.741  32.539  27.543  1.00  0.00    -0.200 F 
ATOM    132  F   UNL A   1      33.996  33.245  29.514  1.00  0.00    -0.200 F 
ENDBRANCH  94 122
BRANCH 109 133
ATOM    133  C   UNL A   1      42.561  29.672  33.768  1.00  0.00     0.064 A 
ATOM    134  C   UNL A   1      42.068  28.355  33.764  1.00  0.00     0.173 A 
ATOM    135  C   UNL A   1      42.960  30.200  35.003  1.00  0.00     0.173 A 
ATOM    136  F   UNL A   1      41.767  27.733  32.617  1.00  0.00    -0.203 F 
ATOM    137  C   UNL A   1      41.939  27.624  34.945  1.00  0.00     0.198 A 
ATOM    138  C   UNL A   1      42.869  29.455  36.175  1.00  0.00     0.198 A 
ATOM    139  F   UNL A   1      43.495  31.429  35.065  1.00  0.00    -0.203 F 
ATOM    140  F   UNL A   1      41.456  26.373  34.912  1.00  0.00    -0.200 F 
ATOM    141  C   UNL A   1      42.348  28.172  36.149  1.00  0.00     0.200 A 
ATOM    142  F   UNL A   1      43.318  29.972  37.327  1.00  0.00    -0.200 F 
ATOM    143  F   UNL A   1      42.266  27.456  37.279  1.00  0.00    -0.200 F 
ENDBRANCH 109 133
ENDBRANCH  74  77
ENDBRANCH  64  67
ENDBRANCH  60  63
ENDBRANCH  57  60
ENDBRANCH  54  57
ENDBRANCH  51  54
ENDBRANCH   1  51
TORSDOF 18
ENDMDL
MODEL 4
REMARK VINA RESULT:     -12.0      3.945      8.186
REMARK SMILES O=C1NC(=O)/C(=C/c2ccc(OCc3cn(-c4ccc(C(=O)NCCCCCCNC(=O)c5ccc(-c6c7nc(c(-c8c(F)c(F)c(F)c(F)c8F)c8ccc([nH]8)c(-c8c(F)c(F)c(F)c(F)c8F)c8nc(c(-c9c(F)c(F)c(F)c(F)c9F)c9ccc6[nH]9)C=C8)C=C7)cc5)cc4)nn3)cc2)S1
REMARK SMILES IDX 25 1 24 4 23 7 21 8 22 9 20 11 17 12 18 13 97 14 19 15 96 17
REMARK SMILES IDX 16 21 14 22 15 23 99 24 98 26 13 27 12 30 11 31 8 32 9 33
REMARK SMILES IDX 101 34 10 35 100 37 7 41 1 42 2 43 3 44 102 45 4 46 6 48
REMARK SMILES IDX 5 49 26 51 27 54 28 57 29 60 30 63 31 64 32 66 33 67 34 68
REMARK SMILES IDX 95 69 35 70 94 72 36 74 37 77 38 78 88 79 39 80 93 81 87 82
REMARK SMILES IDX 89 83 40 84 92 85 86 87 85 89 41 91 73 94 53 95 72 96 54 97
REMARK SMILES IDX 57 98 71 99 90 100 55 101 56 103 70 105 91 106 58 109 42 111
REMARK SMILES IDX 43 112 51 113 44 114 45 115 49 116 52 117 46 118 47 119
REMARK SMILES IDX 50 120 48 121 74 122 75 123 83 124 76 125 77 126 81 127
REMARK SMILES IDX 84 128 78 129 79 130 82 131 80 132 59 133 60 134 68 135
REMARK SMILES IDX 61 136 62 137 66 138 69 139 63 140 64 141 67 142 65 143
REMARK H PARENT 25 2 25 3 24 5 24 6 23 10 18 16 97 18 19 19 96 20 15 25 13 28
REMARK H PARENT 13 29 9 36 101 38 10 39 100 40 3 47 7 50 26 52 26 53 27 55
REMARK H PARENT 27 56 28 58 28 59 29 61 29 62 30 65 34 71 95 73 35 75 94 76
REMARK H PARENT 93 86 87 88 89 90 92 92 86 93 54 102 57 104 90 107 55 108
REMARK H PARENT 91 110
REMARK Flexibility Score: inf
ROOT
ATOM      1  C   UNL A   1      40.447  33.720  36.679  1.00  0.00    -0.036 C 
ATOM      2  H   UNL A   1      41.280  33.895  37.328  1.00  0.00     0.028 H 
ATOM      3  H   UNL A   1      39.525  33.700  37.221  1.00  0.00     0.028 H 
ENDROOT
BRANCH   1   4
ATOM      4  C   UNL A   1      40.625  32.353  36.013  1.00  0.00     0.018 C 
ATOM      5  H   UNL A   1      40.439  32.442  34.963  1.00  0.00     0.049 H 
ATOM      6  H   UNL A   1      41.624  32.007  36.171  1.00  0.00     0.049 H 
BRANCH   4   7
ATOM      7  N   UNL A   1      39.691  31.410  36.590  1.00  0.00    -0.352 N 
ATOM      8  C   UNL A   1      38.469  30.940  36.186  1.00  0.00     0.251 C 
ATOM      9  O   UNL A   1      37.876  30.178  36.948  1.00  0.00    -0.269 OA
ATOM     10  H   UNL A   1      39.994  31.029  37.445  1.00  0.00     0.163 HD
BRANCH   8  11
ATOM     11  C   UNL A   1      37.885  31.235  34.848  1.00  0.00     0.039 A 
ATOM     12  C   UNL A   1      36.471  31.761  32.491  1.00  0.00     0.066 A 
ATOM     13  C   UNL A   1      36.322  32.609  33.594  1.00  0.00    -0.036 A 
ATOM     14  C   UNL A   1      37.382  30.706  32.529  1.00  0.00    -0.036 A 
ATOM     15  C   UNL A   1      36.998  32.319  34.778  1.00  0.00    -0.047 A 
ATOM     16  H   UNL A   1      35.716  33.441  33.531  1.00  0.00     0.065 H 
ATOM     17  C   UNL A   1      38.140  30.504  33.684  1.00  0.00    -0.047 A 
ATOM     18  H   UNL A   1      37.494  30.084  31.714  1.00  0.00     0.065 H 
ATOM     19  H   UNL A   1      36.845  32.909  35.611  1.00  0.00     0.063 H 
ATOM     20  H   UNL A   1      38.900  29.804  33.678  1.00  0.00     0.063 H 
BRANCH  12  21
ATOM     21  N   UNL A   1      35.719  32.004  31.330  1.00  0.00    -0.220 N 
ATOM     22  C   UNL A   1      34.920  32.102  29.304  1.00  0.00     0.120 A 
ATOM     23  C   UNL A   1      35.913  31.512  30.059  1.00  0.00     0.058 A 
ATOM     24  N   UNL A   1      34.154  32.880  30.133  1.00  0.00    -0.131 NA
ATOM     25  H   UNL A   1      36.639  30.850  29.742  1.00  0.00     0.086 H 
ATOM     26  N   UNL A   1      34.621  32.784  31.362  1.00  0.00    -0.062 NA
BRANCH  22  27
ATOM     27  C   UNL A   1      34.533  31.924  27.872  1.00  0.00     0.134 C 
ATOM     28  H   UNL A   1      34.695  32.856  27.370  1.00  0.00     0.078 H 
ATOM     29  H   UNL A   1      35.137  31.122  27.503  1.00  0.00     0.078 H 
BRANCH  27  30
ATOM     30  O   UNL A   1      33.169  31.528  27.640  1.00  0.00    -0.487 OA
BRANCH  30  31
ATOM     31  C   UNL A   1      32.933  30.373  26.945  1.00  0.00     0.119 A 
ATOM     32  C   UNL A   1      32.033  28.048  25.644  1.00  0.00    -0.024 A 
ATOM     33  C   UNL A   1      31.434  29.280  25.373  1.00  0.00    -0.051 A 
ATOM     34  C   UNL A   1      33.145  28.006  26.487  1.00  0.00    -0.051 A 
ATOM     35  C   UNL A   1      31.879  30.435  26.030  1.00  0.00    -0.019 A 
ATOM     36  H   UNL A   1      30.663  29.340  24.689  1.00  0.00     0.063 H 
ATOM     37  C   UNL A   1      33.612  29.168  27.102  1.00  0.00    -0.019 A 
ATOM     38  H   UNL A   1      33.625  27.108  26.656  1.00  0.00     0.063 H 
ATOM     39  H   UNL A   1      31.423  31.340  25.835  1.00  0.00     0.066 H 
ATOM     40  H   UNL A   1      34.469  29.135  27.677  1.00  0.00     0.066 H 
BRANCH  32  41
ATOM     41  C   UNL A   1      31.526  26.814  25.040  1.00  0.00    -0.035 C 
ATOM     42  O   UNL A   1      33.277  25.616  20.466  1.00  0.00    -0.261 OA
ATOM     43  C   UNL A   1      32.716  25.709  21.556  1.00  0.00     0.290 C 
ATOM     44  N   UNL A   1      31.760  24.876  22.022  1.00  0.00    -0.282 N 
ATOM     45  S   UNL A   1      33.055  26.955  22.736  1.00  0.00    -0.022 SA
ATOM     46  C   UNL A   1      31.245  25.120  23.263  1.00  0.00     0.265 C 
ATOM     47  H   UNL A   1      31.443  24.117  21.482  1.00  0.00     0.174 HD
ATOM     48  C   UNL A   1      31.883  26.333  23.840  1.00  0.00     0.083 C 
ATOM     49  O   UNL A   1      30.384  24.450  23.802  1.00  0.00    -0.268 OA
ATOM     50  H   UNL A   1      30.836  26.269  25.582  1.00  0.00     0.064 H 
ENDBRANCH  32  41
ENDBRANCH  30  31
ENDBRANCH  27  30
ENDBRANCH  22  27
ENDBRANCH  12  21
ENDBRANCH   8  11
ENDBRANCH   4   7
ENDBRANCH   1   4
BRANCH   1  51
ATOM     51  C   UNL A   1      40.367  34.863  35.660  1.00  0.00    -0.052 C 
ATOM     52  H   UNL A   1      41.151  35.558  35.878  1.00  0.00     0.027 H 
ATOM     53  H   UNL A   1      39.388  35.283  35.758  1.00  0.00     0.027 H 
BRANCH  51  54
ATOM     54  C   UNL A   1      40.506  34.433  34.189  1.00  0.00    -0.052 C 
ATOM     55  H   UNL A   1      40.598  33.368  34.166  1.00  0.00     0.027 H 
ATOM     56  H   UNL A   1      41.362  34.955  33.816  1.00  0.00     0.027 H 
BRANCH  54  57
ATOM     57  C   UNL A   1      39.345  34.825  33.260  1.00  0.00    -0.036 C 
ATOM     58  H   UNL A   1      39.510  35.822  32.909  1.00  0.00     0.028 H 
ATOM     59  H   UNL A   1      38.442  34.744  33.827  1.00  0.00     0.028 H 
BRANCH  57  60
ATOM     60  C   UNL A   1      39.207  33.907  32.058  1.00  0.00     0.018 C 
ATOM     61  H   UNL A   1      38.167  33.731  31.874  1.00  0.00     0.049 H 
ATOM     62  H   UNL A   1      39.718  32.993  32.279  1.00  0.00     0.049 H 
BRANCH  60  63
ATOM     63  N   UNL A   1      39.813  34.488  30.852  1.00  0.00    -0.352 N 
ATOM     64  C   UNL A   1      40.838  34.011  30.056  1.00  0.00     0.251 C 
ATOM     65  H   UNL A   1      39.428  35.348  30.565  1.00  0.00     0.163 HD
ATOM     66  O   UNL A   1      41.476  34.761  29.327  1.00  0.00    -0.269 OA
BRANCH  64  67
ATOM     67  C   UNL A   1      41.135  32.571  30.081  1.00  0.00     0.039 A 
ATOM     68  C   UNL A   1      40.154  31.575  30.012  1.00  0.00    -0.049 A 
ATOM     69  C   UNL A   1      42.475  32.232  30.141  1.00  0.00    -0.049 A 
ATOM     70  C   UNL A   1      40.567  30.244  30.012  1.00  0.00    -0.053 A 
ATOM     71  H   UNL A   1      39.152  31.819  29.961  1.00  0.00     0.063 H 
ATOM     72  C   UNL A   1      42.856  30.992  29.749  1.00  0.00    -0.053 A 
ATOM     73  H   UNL A   1      43.173  32.913  30.479  1.00  0.00     0.063 H 
ATOM     74  C   UNL A   1      41.937  29.976  29.904  1.00  0.00    -0.014 A 
ATOM     75  H   UNL A   1      39.881  29.476  30.089  1.00  0.00     0.063 H 
ATOM     76  H   UNL A   1      43.792  30.817  29.352  1.00  0.00     0.063 H 
BRANCH  74  77
ATOM     77  C   UNL A   1      42.515  28.648  29.888  1.00  0.00     0.031 A 
ATOM     78  C   UNL A   1      43.043  28.230  31.201  1.00  0.00     0.074 A 
ATOM     79  C   UNL A   1      42.270  27.786  28.873  1.00  0.00     0.049 A 
ATOM     80  N   UNL A   1      44.280  28.095  31.534  1.00  0.00    -0.248 NA
ATOM     81  C   UNL A   1      42.105  28.145  32.333  1.00  0.00    -0.034 C 
ATOM     82  C   UNL A   1      41.422  27.974  27.686  1.00  0.00    -0.036 A 
ATOM     83  N   UNL A   1      42.641  26.482  28.763  1.00  0.00    -0.354 N 
ATOM     84  C   UNL A   1      44.262  27.676  32.859  1.00  0.00     0.074 A 
ATOM     85  C   UNL A   1      42.949  27.986  33.354  1.00  0.00    -0.034 C 
ATOM     86  H   UNL A   1      41.074  28.195  32.335  1.00  0.00     0.065 H 
ATOM     87  C   UNL A   1      41.165  26.775  27.114  1.00  0.00    -0.036 A 
ATOM     88  H   UNL A   1      41.076  28.884  27.342  1.00  0.00     0.065 H 
ATOM     89  C   UNL A   1      41.935  25.757  27.801  1.00  0.00     0.049 A 
ATOM     90  H   UNL A   1      43.349  26.081  29.318  1.00  0.00     0.167 HD
ATOM     91  C   UNL A   1      45.223  26.835  33.333  1.00  0.00     0.037 A 
ATOM     92  H   UNL A   1      42.697  28.075  34.351  1.00  0.00     0.065 H 
ATOM     93  H   UNL A   1      40.525  26.612  26.321  1.00  0.00     0.065 H 
ATOM     94  C   UNL A   1      41.959  24.405  27.669  1.00  0.00     0.037 A 
ATOM     95  C   UNL A   1      46.331  26.761  32.405  1.00  0.00     0.049 A 
ATOM     96  C   UNL A   1      43.175  23.924  28.391  1.00  0.00     0.074 A 
ATOM     97  C   UNL A   1      47.172  27.701  31.835  1.00  0.00    -0.036 A 
ATOM     98  N   UNL A   1      46.418  25.651  31.596  1.00  0.00    -0.354 N 
ATOM     99  N   UNL A   1      44.394  24.188  27.999  1.00  0.00    -0.248 NA
ATOM    100  C   UNL A   1      43.028  23.626  29.810  1.00  0.00    -0.034 C 
ATOM    101  C   UNL A   1      47.287  27.304  30.468  1.00  0.00    -0.036 A 
ATOM    102  H   UNL A   1      47.618  28.509  32.297  1.00  0.00     0.065 H 
ATOM    103  C   UNL A   1      46.611  26.094  30.312  1.00  0.00     0.049 A 
ATOM    104  H   UNL A   1      46.352  24.713  31.885  1.00  0.00     0.167 HD
ATOM    105  C   UNL A   1      45.075  24.519  29.163  1.00  0.00     0.074 A 
ATOM    106  C   UNL A   1      44.194  24.105  30.254  1.00  0.00    -0.034 C 
ATOM    107  H   UNL A   1      42.252  23.176  30.321  1.00  0.00     0.065 H 
ATOM    108  H   UNL A   1      47.785  27.821  29.727  1.00  0.00     0.065 H 
ATOM    109  C   UNL A   1      46.135  25.382  29.149  1.00  0.00     0.037 A 
ATOM    110  H   UNL A   1      44.444  24.174  31.253  1.00  0.00     0.065 H 
BRANCH  91 111
ATOM    111  C   UNL A   1      45.003  25.782  34.395  1.00  0.00     0.064 A 
ATOM    112  C   UNL A   1      45.895  25.736  35.484  1.00  0.00     0.173 A 
ATOM    113  C   UNL A   1      44.162  24.654  34.257  1.00  0.00     0.173 A 
ATOM    114  F   UNL A   1      46.740  26.752  35.719  1.00  0.00    -0.203 F 
ATOM    115  C   UNL A   1      46.013  24.607  36.298  1.00  0.00     0.198 A 
ATOM    116  C   UNL A   1      44.245  23.553  35.106  1.00  0.00     0.198 A 
ATOM    117  F   UNL A   1      43.305  24.508  33.242  1.00  0.00    -0.203 F 
ATOM    118  F   UNL A   1      46.975  24.559  37.230  1.00  0.00    -0.200 F 
ATOM    119  C   UNL A   1      45.195  23.512  36.101  1.00  0.00     0.200 A 
ATOM    120  F   UNL A   1      43.447  22.498  34.890  1.00  0.00    -0.200 F 
ATOM    121  F   UNL A   1      45.349  22.403  36.834  1.00  0.00    -0.200 F 
ENDBRANCH  91 111
BRANCH  94 122
ATOM    122  C   UNL A   1      40.846  23.501  27.276  1.00  0.00     0.064 A 
ATOM    123  C   UNL A   1      39.524  23.968  27.166  1.00  0.00     0.173 A 
ATOM    124  C   UNL A   1      41.096  22.222  26.741  1.00  0.00     0.173 A 
ATOM    125  F   UNL A   1      39.205  25.196  27.601  1.00  0.00    -0.203 F 
ATOM    126  C   UNL A   1      38.523  23.208  26.545  1.00  0.00     0.198 A 
ATOM    127  C   UNL A   1      40.096  21.463  26.128  1.00  0.00     0.198 A 
ATOM    128  F   UNL A   1      42.339  21.719  26.713  1.00  0.00    -0.203 F 
ATOM    129  F   UNL A   1      37.287  23.712  26.408  1.00  0.00    -0.200 F 
ATOM    130  C   UNL A   1      38.813  21.960  26.019  1.00  0.00     0.200 A 
ATOM    131  F   UNL A   1      40.404  20.275  25.587  1.00  0.00    -0.200 F 
ATOM    132  F   UNL A   1      37.871  21.258  25.373  1.00  0.00    -0.200 F 
ENDBRANCH  94 122
BRANCH 109 133
ATOM    133  C   UNL A   1      46.711  25.800  27.823  1.00  0.00     0.064 A 
ATOM    134  C   UNL A   1      46.138  26.763  26.974  1.00  0.00     0.173 A 
ATOM    135  C   UNL A   1      47.988  25.329  27.485  1.00  0.00     0.173 A 
ATOM    136  F   UNL A   1      44.973  27.347  27.279  1.00  0.00    -0.203 F 
ATOM    137  C   UNL A   1      46.792  27.195  25.820  1.00  0.00     0.198 A 
ATOM    138  C   UNL A   1      48.656  25.792  26.354  1.00  0.00     0.198 A 
ATOM    139  F   UNL A   1      48.614  24.454  28.286  1.00  0.00    -0.203 F 
ATOM    140  F   UNL A   1      46.216  28.108  25.023  1.00  0.00    -0.200 F 
ATOM    141  C   UNL A   1      48.055  26.715  25.516  1.00  0.00     0.200 A 
ATOM    142  F   UNL A   1      49.900  25.364  26.097  1.00  0.00    -0.200 F 
ATOM    143  F   UNL A   1      48.703  27.162  24.432  1.00  0.00    -0.200 F 
ENDBRANCH 109 133
ENDBRANCH  74  77
ENDBRANCH  64  67
ENDBRANCH  60  63
ENDBRANCH  57  60
ENDBRANCH  54  57
ENDBRANCH  51  54
ENDBRANCH   1  51
TORSDOF 18
ENDMDL
MODEL 5
REMARK VINA RESULT:     -11.9      4.713     10.610
REMARK SMILES O=C1NC(=O)/C(=C/c2ccc(OCc3cn(-c4ccc(C(=O)NCCCCCCNC(=O)c5ccc(-c6c7nc(c(-c8c(F)c(F)c(F)c(F)c8F)c8ccc([nH]8)c(-c8c(F)c(F)c(F)c(F)c8F)c8nc(c(-c9c(F)c(F)c(F)c(F)c9F)c9ccc6[nH]9)C=C8)C=C7)cc5)cc4)nn3)cc2)S1
REMARK SMILES IDX 25 1 24 4 23 7 21 8 22 9 20 11 17 12 18 13 97 14 19 15 96 17
REMARK SMILES IDX 16 21 14 22 15 23 99 24 98 26 13 27 12 30 11 31 8 32 9 33
REMARK SMILES IDX 101 34 10 35 100 37 7 41 1 42 2 43 3 44 102 45 4 46 6 48
REMARK SMILES IDX 5 49 26 51 27 54 28 57 29 60 30 63 31 64 32 66 33 67 34 68
REMARK SMILES IDX 95 69 35 70 94 72 36 74 37 77 38 78 88 79 39 80 93 81 87 82
REMARK SMILES IDX 89 83 40 84 92 85 86 87 85 89 41 91 73 94 53 95 72 96 54 97
REMARK SMILES IDX 57 98 71 99 90 100 55 101 56 103 70 105 91 106 58 109 42 111
REMARK SMILES IDX 43 112 51 113 44 114 45 115 49 116 52 117 46 118 47 119
REMARK SMILES IDX 50 120 48 121 74 122 75 123 83 124 76 125 77 126 81 127
REMARK SMILES IDX 84 128 78 129 79 130 82 131 80 132 59 133 60 134 68 135
REMARK SMILES IDX 61 136 62 137 66 138 69 139 63 140 64 141 67 142 65 143
REMARK H PARENT 25 2 25 3 24 5 24 6 23 10 18 16 97 18 19 19 96 20 15 25 13 28
REMARK H PARENT 13 29 9 36 101 38 10 39 100 40 3 47 7 50 26 52 26 53 27 55
REMARK H PARENT 27 56 28 58 28 59 29 61 29 62 30 65 34 71 95 73 35 75 94 76
REMARK H PARENT 93 86 87 88 89 90 92 92 86 93 54 102 57 104 90 107 55 108
REMARK H PARENT 91 110
REMARK Flexibility Score: inf
ROOT
ATOM      1  C   UNL A   1      37.721  31.110  33.882  1.00  0.00    -0.036 C 
ATOM      2  H   UNL A   1      36.957  31.183  34.628  1.00  0.00     0.028 H 
ATOM      3  H   UNL A   1      37.942  30.089  33.648  1.00  0.00     0.028 H 
ENDROOT
BRANCH   1   4
ATOM      4  C   UNL A   1      39.001  31.750  34.425  1.00  0.00     0.018 C 
ATOM      5  H   UNL A   1      39.285  31.264  35.334  1.00  0.00     0.049 H 
ATOM      6  H   UNL A   1      39.784  31.647  33.704  1.00  0.00     0.049 H 
BRANCH   4   7
ATOM      7  N   UNL A   1      38.765  33.155  34.683  1.00  0.00    -0.352 N 
ATOM      8  C   UNL A   1      39.331  34.302  34.194  1.00  0.00     0.251 C 
ATOM      9  O   UNL A   1      38.951  35.369  34.674  1.00  0.00    -0.269 OA
ATOM     10  H   UNL A   1      38.053  33.319  35.344  1.00  0.00     0.163 HD
BRANCH   8  11
ATOM     11  C   UNL A   1      40.299  34.313  33.063  1.00  0.00     0.039 A 
ATOM     12  C   UNL A   1      42.164  34.680  31.009  1.00  0.00     0.066 A 
ATOM     13  C   UNL A   1      42.536  34.923  32.335  1.00  0.00    -0.036 A 
ATOM     14  C   UNL A   1      40.899  34.174  30.711  1.00  0.00    -0.036 A 
ATOM     15  C   UNL A   1      41.591  34.778  33.349  1.00  0.00    -0.047 A 
ATOM     16  H   UNL A   1      43.501  35.210  32.560  1.00  0.00     0.065 H 
ATOM     17  C   UNL A   1      40.006  33.920  31.753  1.00  0.00    -0.047 A 
ATOM     18  H   UNL A   1      40.628  33.990  29.733  1.00  0.00     0.065 H 
ATOM     19  H   UNL A   1      41.845  35.014  34.322  1.00  0.00     0.063 H 
ATOM     20  H   UNL A   1      39.116  33.435  31.554  1.00  0.00     0.063 H 
BRANCH  12  21
ATOM     21  N   UNL A   1      43.092  34.914  29.980  1.00  0.00    -0.220 N 
ATOM     22  C   UNL A   1      44.113  35.420  28.122  1.00  0.00     0.120 A 
ATOM     23  C   UNL A   1      42.878  35.461  28.735  1.00  0.00     0.058 A 
ATOM     24  N   UNL A   1      45.018  34.899  29.011  1.00  0.00    -0.131 NA
ATOM     25  H   UNL A   1      41.992  35.822  28.347  1.00  0.00     0.086 H 
ATOM     26  N   UNL A   1      44.399  34.632  30.144  1.00  0.00    -0.062 NA
BRANCH  22  27
ATOM     27  C   UNL A   1      44.574  35.932  26.797  1.00  0.00     0.134 C 
ATOM     28  H   UNL A   1      45.073  35.131  26.291  1.00  0.00     0.078 H 
ATOM     29  H   UNL A   1      43.694  36.279  26.296  1.00  0.00     0.078 H 
BRANCH  27  30
ATOM     30  O   UNL A   1      45.471  37.056  26.840  1.00  0.00    -0.487 OA
BRANCH  30  31
ATOM     31  C   UNL A   1      45.143  38.126  27.627  1.00  0.00     0.119 A 
ATOM     32  C   UNL A   1      44.432  40.546  28.871  1.00  0.00    -0.024 A 
ATOM     33  C   UNL A   1      43.603  39.989  27.894  1.00  0.00    -0.051 A 
ATOM     34  C   UNL A   1      45.558  39.835  29.291  1.00  0.00    -0.051 A 
ATOM     35  C   UNL A   1      43.966  38.788  27.271  1.00  0.00    -0.019 A 
ATOM     36  H   UNL A   1      42.725  40.462  27.632  1.00  0.00     0.063 H 
ATOM     37  C   UNL A   1      45.887  38.615  28.697  1.00  0.00    -0.019 A 
ATOM     38  H   UNL A   1      46.151  40.214  30.045  1.00  0.00     0.063 H 
ATOM     39  H   UNL A   1      43.356  38.388  26.540  1.00  0.00     0.066 H 
ATOM     40  H   UNL A   1      46.689  38.071  29.054  1.00  0.00     0.066 H 
BRANCH  32  41
ATOM     41  C   UNL A   1      44.122  41.845  29.471  1.00  0.00    -0.035 C 
ATOM     42  O   UNL A   1      41.750  41.805  33.920  1.00  0.00    -0.261 OA
ATOM     43  C   UNL A   1      42.310  42.055  32.854  1.00  0.00     0.290 C 
ATOM     44  N   UNL A   1      42.495  43.287  32.332  1.00  0.00    -0.282 N 
ATOM     45  S   UNL A   1      42.992  40.844  31.792  1.00  0.00    -0.022 SA
ATOM     46  C   UNL A   1      43.146  43.387  31.137  1.00  0.00     0.265 C 
ATOM     47  H   UNL A   1      42.167  44.089  32.800  1.00  0.00     0.174 HD
ATOM     48  C   UNL A   1      43.506  42.030  30.648  1.00  0.00     0.083 C 
ATOM     49  O   UNL A   1      43.380  44.432  30.559  1.00  0.00    -0.268 OA
ATOM     50  H   UNL A   1      44.401  42.689  28.945  1.00  0.00     0.064 H 
ENDBRANCH  32  41
ENDBRANCH  30  31
ENDBRANCH  27  30
ENDBRANCH  22  27
ENDBRANCH  12  21
ENDBRANCH   8  11
ENDBRANCH   4   7
ENDBRANCH   1   4
BRANCH   1  51
ATOM     51  C   UNL A   1      37.224  31.787  32.600  1.00  0.00    -0.052 C 
ATOM     52  H   UNL A   1      37.947  31.616  31.831  1.00  0.00     0.027 H 
ATOM     53  H   UNL A   1      37.094  32.822  32.838  1.00  0.00     0.027 H 
BRANCH  51  54
ATOM     54  C   UNL A   1      35.859  31.290  32.089  1.00  0.00    -0.052 C 
ATOM     55  H   UNL A   1      35.502  30.551  32.776  1.00  0.00     0.027 H 
ATOM     56  H   UNL A   1      36.039  30.919  31.101  1.00  0.00     0.027 H 
BRANCH  54  57
ATOM     57  C   UNL A   1      34.765  32.360  31.938  1.00  0.00    -0.036 C 
ATOM     58  H   UNL A   1      34.916  33.110  32.685  1.00  0.00     0.028 H 
ATOM     59  H   UNL A   1      33.822  31.868  32.048  1.00  0.00     0.028 H 
BRANCH  57  60
ATOM     60  C   UNL A   1      34.771  33.028  30.574  1.00  0.00     0.018 C 
ATOM     61  H   UNL A   1      35.781  33.261  30.307  1.00  0.00     0.049 H 
ATOM     62  H   UNL A   1      34.175  33.914  30.637  1.00  0.00     0.049 H 
BRANCH  60  63
ATOM     63  N   UNL A   1      34.193  32.163  29.537  1.00  0.00    -0.352 N 
ATOM     64  C   UNL A   1      34.816  31.443  28.533  1.00  0.00     0.251 C 
ATOM     65  H   UNL A   1      33.212  32.081  29.560  1.00  0.00     0.163 HD
ATOM     66  O   UNL A   1      34.202  31.082  27.537  1.00  0.00    -0.269 OA
BRANCH  64  67
ATOM     67  C   UNL A   1      36.235  31.092  28.698  1.00  0.00     0.039 A 
ATOM     68  C   UNL A   1      37.249  32.035  28.899  1.00  0.00    -0.049 A 
ATOM     69  C   UNL A   1      36.527  29.740  28.679  1.00  0.00    -0.049 A 
ATOM     70  C   UNL A   1      38.552  31.572  29.073  1.00  0.00    -0.053 A 
ATOM     71  H   UNL A   1      37.038  33.045  28.919  1.00  0.00     0.063 H 
ATOM     72  C   UNL A   1      37.689  29.314  29.231  1.00  0.00    -0.053 A 
ATOM     73  H   UNL A   1      35.871  29.067  28.254  1.00  0.00     0.063 H 
ATOM     74  C   UNL A   1      38.752  30.194  29.212  1.00  0.00    -0.014 A 
ATOM     75  H   UNL A   1      39.349  32.228  29.099  1.00  0.00     0.063 H 
ATOM     76  H   UNL A   1      37.776  28.373  29.646  1.00  0.00     0.063 H 
BRANCH  74  77
ATOM     77  C   UNL A   1      40.043  29.566  29.402  1.00  0.00     0.031 A 
ATOM     78  C   UNL A   1      40.334  29.255  30.815  1.00  0.00     0.074 A 
ATOM     79  C   UNL A   1      40.721  29.023  28.364  1.00  0.00     0.049 A 
ATOM     80  N   UNL A   1      41.195  29.837  31.577  1.00  0.00    -0.248 NA
ATOM     81  C   UNL A   1      39.433  28.331  31.524  1.00  0.00    -0.034 C 
ATOM     82  C   UNL A   1      40.327  28.933  26.949  1.00  0.00    -0.036 A 
ATOM     83  N   UNL A   1      41.878  28.307  28.390  1.00  0.00    -0.354 N 
ATOM     84  C   UNL A   1      41.104  29.186  32.801  1.00  0.00     0.074 A 
ATOM     85  C   UNL A   1      39.851  28.482  32.783  1.00  0.00    -0.034 C 
ATOM     86  H   UNL A   1      38.683  27.730  31.149  1.00  0.00     0.065 H 
ATOM     87  C   UNL A   1      41.101  28.021  26.317  1.00  0.00    -0.036 A 
ATOM     88  H   UNL A   1      39.573  29.482  26.507  1.00  0.00     0.065 H 
ATOM     89  C   UNL A   1      42.130  27.569  27.232  1.00  0.00     0.049 A 
ATOM     90  H   UNL A   1      42.487  28.309  29.164  1.00  0.00     0.167 HD
ATOM     91  C   UNL A   1      42.204  29.036  33.590  1.00  0.00     0.037 A 
ATOM     92  H   UNL A   1      39.347  28.145  33.618  1.00  0.00     0.065 H 
ATOM     93  H   UNL A   1      40.979  27.701  25.344  1.00  0.00     0.065 H 
ATOM     94  C   UNL A   1      43.083  26.608  27.111  1.00  0.00     0.037 A 
ATOM     95  C   UNL A   1      43.274  29.896  33.132  1.00  0.00     0.049 A 
ATOM     96  C   UNL A   1      44.054  26.824  28.225  1.00  0.00     0.074 A 
ATOM     97  C   UNL A   1      43.385  31.258  32.915  1.00  0.00    -0.036 A 
ATOM     98  N   UNL A   1      44.292  29.323  32.405  1.00  0.00    -0.354 N 
ATOM     99  N   UNL A   1      44.831  27.872  28.309  1.00  0.00    -0.248 NA
ATOM    100  C   UNL A   1      43.768  26.158  29.491  1.00  0.00    -0.034 C 
ATOM    101  C   UNL A   1      44.099  31.373  31.683  1.00  0.00    -0.036 A 
ATOM    102  H   UNL A   1      43.032  32.022  33.512  1.00  0.00     0.065 H 
ATOM    103  C   UNL A   1      44.478  30.091  31.283  1.00  0.00     0.049 A 
ATOM    104  H   UNL A   1      44.794  28.511  32.645  1.00  0.00     0.167 HD
ATOM    105  C   UNL A   1      44.770  28.251  29.644  1.00  0.00     0.074 A 
ATOM    106  C   UNL A   1      44.140  27.127  30.333  1.00  0.00    -0.034 C 
ATOM    107  H   UNL A   1      43.390  25.216  29.680  1.00  0.00     0.065 H 
ATOM    108  H   UNL A   1      44.300  32.250  31.178  1.00  0.00     0.065 H 
ATOM    109  C   UNL A   1      44.935  29.554  30.023  1.00  0.00     0.037 A 
ATOM    110  H   UNL A   1      43.997  27.085  31.355  1.00  0.00     0.065 H 
BRANCH  91 111
ATOM    111  C   UNL A   1      42.467  27.851  34.491  1.00  0.00     0.064 A 
ATOM    112  C   UNL A   1      43.012  26.685  33.919  1.00  0.00     0.173 A 
ATOM    113  C   UNL A   1      41.950  27.696  35.798  1.00  0.00     0.173 A 
ATOM    114  F   UNL A   1      43.537  26.712  32.684  1.00  0.00    -0.203 F 
ATOM    115  C   UNL A   1      42.945  25.445  34.557  1.00  0.00     0.198 A 
ATOM    116  C   UNL A   1      41.935  26.467  36.453  1.00  0.00     0.198 A 
ATOM    117  F   UNL A   1      41.339  28.684  36.458  1.00  0.00    -0.203 F 
ATOM    118  F   UNL A   1      43.350  24.344  33.910  1.00  0.00    -0.200 F 
ATOM    119  C   UNL A   1      42.396  25.335  35.820  1.00  0.00     0.200 A 
ATOM    120  F   UNL A   1      41.389  26.383  37.675  1.00  0.00    -0.200 F 
ATOM    121  F   UNL A   1      42.267  24.139  36.407  1.00  0.00    -0.200 F 
ENDBRANCH  91 111
BRANCH  94 122
ATOM    122  C   UNL A   1      43.018  25.343  26.333  1.00  0.00     0.064 A 
ATOM    123  C   UNL A   1      43.974  25.034  25.351  1.00  0.00     0.173 A 
ATOM    124  C   UNL A   1      42.168  24.288  26.722  1.00  0.00     0.173 A 
ATOM    125  F   UNL A   1      44.860  25.961  24.957  1.00  0.00    -0.203 F 
ATOM    126  C   UNL A   1      44.083  23.746  24.806  1.00  0.00     0.198 A 
ATOM    127  C   UNL A   1      42.272  23.008  26.174  1.00  0.00     0.198 A 
ATOM    128  F   UNL A   1      41.280  24.450  27.714  1.00  0.00    -0.203 F 
ATOM    129  F   UNL A   1      45.046  23.476  23.912  1.00  0.00    -0.200 F 
ATOM    130  C   UNL A   1      43.237  22.733  25.225  1.00  0.00     0.200 A 
ATOM    131  F   UNL A   1      41.473  22.028  26.621  1.00  0.00    -0.200 F 
ATOM    132  F   UNL A   1      43.378  21.488  24.748  1.00  0.00    -0.200 F 
ENDBRANCH  94 122
BRANCH 109 133
ATOM    133  C   UNL A   1      45.415  30.550  29.003  1.00  0.00     0.064 A 
ATOM    134  C   UNL A   1      46.764  30.752  28.660  1.00  0.00     0.173 A 
ATOM    135  C   UNL A   1      44.454  31.201  28.218  1.00  0.00     0.173 A 
ATOM    136  F   UNL A   1      47.742  30.085  29.284  1.00  0.00    -0.203 F 
ATOM    137  C   UNL A   1      47.129  31.599  27.614  1.00  0.00     0.198 A 
ATOM    138  C   UNL A   1      44.818  32.015  27.149  1.00  0.00     0.198 A 
ATOM    139  F   UNL A   1      43.148  31.002  28.456  1.00  0.00    -0.203 F 
ATOM    140  F   UNL A   1      48.425  31.780  27.316  1.00  0.00    -0.200 F 
ATOM    141  C   UNL A   1      46.155  32.223  26.854  1.00  0.00     0.200 A 
ATOM    142  F   UNL A   1      43.868  32.571  26.384  1.00  0.00    -0.200 F 
ATOM    143  F   UNL A   1      46.502  33.004  25.821  1.00  0.00    -0.200 F 
ENDBRANCH 109 133
ENDBRANCH  74  77
ENDBRANCH  64  67
ENDBRANCH  60  63
ENDBRANCH  57  60
ENDBRANCH  54  57
ENDBRANCH  51  54
ENDBRANCH   1  51
TORSDOF 18
ENDMDL
MODEL 6
REMARK VINA RESULT:     -11.9      3.591      9.825
REMARK SMILES O=C1NC(=O)/C(=C/c2ccc(OCc3cn(-c4ccc(C(=O)NCCCCCCNC(=O)c5ccc(-c6c7nc(c(-c8c(F)c(F)c(F)c(F)c8F)c8ccc([nH]8)c(-c8c(F)c(F)c(F)c(F)c8F)c8nc(c(-c9c(F)c(F)c(F)c(F)c9F)c9ccc6[nH]9)C=C8)C=C7)cc5)cc4)nn3)cc2)S1
REMARK SMILES IDX 25 1 24 4 23 7 21 8 22 9 20 11 17 12 18 13 97 14 19 15 96 17
REMARK SMILES IDX 16 21 14 22 15 23 99 24 98 26 13 27 12 30 11 31 8 32 9 33
REMARK SMILES IDX 101 34 10 35 100 37 7 41 1 42 2 43 3 44 102 45 4 46 6 48
REMARK SMILES IDX 5 49 26 51 27 54 28 57 29 60 30 63 31 64 32 66 33 67 34 68
REMARK SMILES IDX 95 69 35 70 94 72 36 74 37 77 38 78 88 79 39 80 93 81 87 82
REMARK SMILES IDX 89 83 40 84 92 85 86 87 85 89 41 91 73 94 53 95 72 96 54 97
REMARK SMILES IDX 57 98 71 99 90 100 55 101 56 103 70 105 91 106 58 109 42 111
REMARK SMILES IDX 43 112 51 113 44 114 45 115 49 116 52 117 46 118 47 119
REMARK SMILES IDX 50 120 48 121 74 122 75 123 83 124 76 125 77 126 81 127
REMARK SMILES IDX 84 128 78 129 79 130 82 131 80 132 59 133 60 134 68 135
REMARK SMILES IDX 61 136 62 137 66 138 69 139 63 140 64 141 67 142 65 143
REMARK H PARENT 25 2 25 3 24 5 24 6 23 10 18 16 97 18 19 19 96 20 15 25 13 28
REMARK H PARENT 13 29 9 36 101 38 10 39 100 40 3 47 7 50 26 52 26 53 27 55
REMARK H PARENT 27 56 28 58 28 59 29 61 29 62 30 65 34 71 95 73 35 75 94 76
REMARK H PARENT 93 86 87 88 89 90 92 92 86 93 54 102 57 104 90 107 55 108
REMARK H PARENT 91 110
REMARK Flexibility Score: inf
ROOT
ATOM      1  C   UNL A   1      44.238  24.413  25.001  1.00  0.00    -0.036 C 
ATOM      2  H   UNL A   1      44.737  24.570  24.068  1.00  0.00     0.028 H 
ATOM      3  H   UNL A   1      44.931  24.193  25.786  1.00  0.00     0.028 H 
ENDROOT
BRANCH   1   4
ATOM      4  C   UNL A   1      43.299  23.213  24.860  1.00  0.00     0.018 C 
ATOM      5  H   UNL A   1      42.306  23.558  24.663  1.00  0.00     0.049 H 
ATOM      6  H   UNL A   1      43.630  22.595  24.051  1.00  0.00     0.049 H 
BRANCH   4   7
ATOM      7  N   UNL A   1      43.308  22.446  26.087  1.00  0.00    -0.352 N 
ATOM      8  C   UNL A   1      42.336  22.133  27.000  1.00  0.00     0.251 C 
ATOM      9  O   UNL A   1      42.681  21.506  28.001  1.00  0.00    -0.269 OA
ATOM     10  H   UNL A   1      44.192  22.073  26.312  1.00  0.00     0.163 HD
BRANCH   8  11
ATOM     11  C   UNL A   1      40.893  22.432  26.787  1.00  0.00     0.039 A 
ATOM     12  C   UNL A   1      38.232  22.892  26.053  1.00  0.00     0.066 A 
ATOM     13  C   UNL A   1      38.769  21.604  25.947  1.00  0.00    -0.036 A 
ATOM     14  C   UNL A   1      38.986  23.928  26.602  1.00  0.00    -0.036 A 
ATOM     15  C   UNL A   1      40.106  21.390  26.275  1.00  0.00    -0.047 A 
ATOM     16  H   UNL A   1      38.180  20.820  25.625  1.00  0.00     0.065 H 
ATOM     17  C   UNL A   1      40.285  23.667  27.039  1.00  0.00    -0.047 A 
ATOM     18  H   UNL A   1      38.587  24.876  26.685  1.00  0.00     0.065 H 
ATOM     19  H   UNL A   1      40.522  20.454  26.142  1.00  0.00     0.063 H 
ATOM     20  H   UNL A   1      40.805  24.394  27.555  1.00  0.00     0.063 H 
BRANCH  12  21
ATOM     21  N   UNL A   1      36.911  23.122  25.635  1.00  0.00    -0.220 N 
ATOM     22  C   UNL A   1      34.886  22.988  24.839  1.00  0.00     0.120 A 
ATOM     23  C   UNL A   1      36.004  22.228  25.113  1.00  0.00     0.058 A 
ATOM     24  N   UNL A   1      35.136  24.278  25.232  1.00  0.00    -0.131 NA
ATOM     25  H   UNL A   1      36.132  21.215  24.962  1.00  0.00     0.086 H 
ATOM     26  N   UNL A   1      36.347  24.340  25.748  1.00  0.00    -0.062 NA
BRANCH  22  27
ATOM     27  C   UNL A   1      33.532  22.606  24.337  1.00  0.00     0.134 C 
ATOM     28  H   UNL A   1      33.390  23.075  23.385  1.00  0.00     0.078 H 
ATOM     29  H   UNL A   1      33.526  21.536  24.298  1.00  0.00     0.078 H 
BRANCH  27  30
ATOM     30  O   UNL A   1      32.427  22.975  25.182  1.00  0.00    -0.487 OA
BRANCH  30  31
ATOM     31  C   UNL A   1      31.556  23.934  24.739  1.00  0.00     0.119 A 
ATOM     32  C   UNL A   1      29.528  25.798  24.178  1.00  0.00    -0.024 A 
ATOM     33  C   UNL A   1      30.181  25.822  25.413  1.00  0.00    -0.051 A 
ATOM     34  C   UNL A   1      29.966  24.908  23.196  1.00  0.00    -0.051 A 
ATOM     35  C   UNL A   1      31.185  24.885  25.691  1.00  0.00    -0.019 A 
ATOM     36  H   UNL A   1      29.924  26.528  26.119  1.00  0.00     0.063 H 
ATOM     37  C   UNL A   1      30.999  24.008  23.466  1.00  0.00    -0.019 A 
ATOM     38  H   UNL A   1      29.523  24.915  22.265  1.00  0.00     0.063 H 
ATOM     39  H   UNL A   1      31.655  24.899  26.611  1.00  0.00     0.066 H 
ATOM     40  H   UNL A   1      31.352  23.394  22.715  1.00  0.00     0.066 H 
BRANCH  32  41
ATOM     41  C   UNL A   1      28.414  26.707  23.898  1.00  0.00    -0.035 C 
ATOM     42  O   UNL A   1      29.526  31.048  21.586  1.00  0.00    -0.261 OA
ATOM     43  C   UNL A   1      29.029  30.075  22.151  1.00  0.00     0.290 C 
ATOM     44  N   UNL A   1      27.733  29.951  22.510  1.00  0.00    -0.282 N 
ATOM     45  S   UNL A   1      29.918  28.637  22.603  1.00  0.00    -0.022 SA
ATOM     46  C   UNL A   1      27.345  28.796  23.126  1.00  0.00     0.265 C 
ATOM     47  H   UNL A   1      27.088  30.674  22.334  1.00  0.00     0.174 HD
ATOM     48  C   UNL A   1      28.517  27.895  23.285  1.00  0.00     0.083 C 
ATOM     49  O   UNL A   1      26.211  28.555  23.498  1.00  0.00    -0.268 OA
ATOM     50  H   UNL A   1      27.472  26.408  24.196  1.00  0.00     0.064 H 
ENDBRANCH  32  41
ENDBRANCH  30  31
ENDBRANCH  27  30
ENDBRANCH  22  27
ENDBRANCH  12  21
ENDBRANCH   8  11
ENDBRANCH   4   7
ENDBRANCH   1   4
BRANCH   1  51
ATOM     51  C   UNL A   1      43.493  25.698  25.383  1.00  0.00    -0.052 C 
ATOM     52  H   UNL A   1      42.746  25.448  26.106  1.00  0.00     0.027 H 
ATOM     53  H   UNL A   1      43.089  26.092  24.474  1.00  0.00     0.027 H 
BRANCH  51  54
ATOM     54  C   UNL A   1      44.378  26.810  25.977  1.00  0.00    -0.052 C 
ATOM     55  H   UNL A   1      43.854  27.237  26.806  1.00  0.00     0.027 H 
ATOM     56  H   UNL A   1      44.559  27.493  25.174  1.00  0.00     0.027 H 
BRANCH  54  57
ATOM     57  C   UNL A   1      45.767  26.373  26.471  1.00  0.00    -0.036 C 
ATOM     58  H   UNL A   1      46.479  27.120  26.190  1.00  0.00     0.028 H 
ATOM     59  H   UNL A   1      45.981  25.426  26.022  1.00  0.00     0.028 H 
BRANCH  57  60
ATOM     60  C   UNL A   1      45.832  26.186  27.976  1.00  0.00     0.018 C 
ATOM     61  H   UNL A   1      45.480  27.079  28.452  1.00  0.00     0.049 H 
ATOM     62  H   UNL A   1      46.848  25.983  28.242  1.00  0.00     0.049 H 
BRANCH  60  63
ATOM     63  N   UNL A   1      45.009  25.054  28.424  1.00  0.00    -0.352 N 
ATOM     64  C   UNL A   1      44.050  24.993  29.420  1.00  0.00     0.251 C 
ATOM     65  H   UNL A   1      45.162  24.209  27.941  1.00  0.00     0.163 HD
ATOM     66  O   UNL A   1      43.728  23.924  29.924  1.00  0.00    -0.269 OA
BRANCH  64  67
ATOM     67  C   UNL A   1      43.401  26.241  29.846  1.00  0.00     0.039 A 
ATOM     68  C   UNL A   1      43.783  26.967  30.979  1.00  0.00    -0.049 A 
ATOM     69  C   UNL A   1      42.381  26.699  29.030  1.00  0.00    -0.049 A 
ATOM     70  C   UNL A   1      43.108  28.154  31.259  1.00  0.00    -0.053 A 
ATOM     71  H   UNL A   1      44.546  26.635  31.590  1.00  0.00     0.063 H 
ATOM     72  C   UNL A   1      42.028  28.006  29.096  1.00  0.00    -0.053 A 
ATOM     73  H   UNL A   1      41.900  26.058  28.382  1.00  0.00     0.063 H 
ATOM     74  C   UNL A   1      42.208  28.644  30.305  1.00  0.00    -0.014 A 
ATOM     75  H   UNL A   1      43.267  28.658  32.146  1.00  0.00     0.063 H 
ATOM     76  H   UNL A   1      41.639  28.500  28.278  1.00  0.00     0.063 H 
BRANCH  74  77
ATOM     77  C   UNL A   1      41.437  29.861  30.452  1.00  0.00     0.031 A 
ATOM     78  C   UNL A   1      42.231  31.082  30.215  1.00  0.00     0.074 A 
ATOM     79  C   UNL A   1      40.084  29.841  30.458  1.00  0.00     0.049 A 
ATOM     80  N   UNL A   1      42.609  31.946  31.093  1.00  0.00    -0.248 NA
ATOM     81  C   UNL A   1      42.848  31.265  28.891  1.00  0.00    -0.034 C 
ATOM     82  C   UNL A   1      39.177  28.693  30.304  1.00  0.00    -0.036 A 
ATOM     83  N   UNL A   1      39.222  30.893  30.475  1.00  0.00    -0.354 N 
ATOM     84  C   UNL A   1      43.315  32.910  30.383  1.00  0.00     0.074 A 
ATOM     85  C   UNL A   1      43.650  32.306  29.123  1.00  0.00    -0.034 C 
ATOM     86  H   UNL A   1      42.700  30.732  28.020  1.00  0.00     0.065 H 
ATOM     87  C   UNL A   1      37.930  29.132  30.013  1.00  0.00    -0.036 A 
ATOM     88  H   UNL A   1      39.451  27.702  30.402  1.00  0.00     0.065 H 
ATOM     89  C   UNL A   1      37.915  30.579  30.099  1.00  0.00     0.049 A 
ATOM     90  H   UNL A   1      39.498  31.804  30.730  1.00  0.00     0.167 HD
ATOM     91  C   UNL A   1      43.291  34.214  30.773  1.00  0.00     0.037 A 
ATOM     92  H   UNL A   1      44.401  32.627  28.492  1.00  0.00     0.065 H 
ATOM     93  H   UNL A   1      37.124  28.535  29.770  1.00  0.00     0.065 H 
ATOM     94  C   UNL A   1      36.944  31.487  29.815  1.00  0.00     0.037 A 
ATOM     95  C   UNL A   1      42.752  34.331  32.111  1.00  0.00     0.049 A 
ATOM     96  C   UNL A   1      37.381  32.784  30.412  1.00  0.00     0.074 A 
ATOM     97  C   UNL A   1      43.089  33.778  33.334  1.00  0.00    -0.036 A 
ATOM     98  N   UNL A   1      41.449  34.752  32.244  1.00  0.00    -0.354 N 
ATOM     99  N   UNL A   1      37.479  32.986  31.699  1.00  0.00    -0.248 NA
ATOM    100  C   UNL A   1      38.213  33.647  29.581  1.00  0.00    -0.034 C 
ATOM    101  C   UNL A   1      41.840  33.422  33.928  1.00  0.00    -0.036 A 
ATOM    102  H   UNL A   1      44.034  33.653  33.730  1.00  0.00     0.065 H 
ATOM    103  C   UNL A   1      40.820  33.877  33.093  1.00  0.00     0.049 A 
ATOM    104  H   UNL A   1      41.042  35.536  31.809  1.00  0.00     0.167 HD
ATOM    105  C   UNL A   1      38.676  33.672  31.860  1.00  0.00     0.074 A 
ATOM    106  C   UNL A   1      39.058  34.096  30.514  1.00  0.00    -0.034 C 
ATOM    107  H   UNL A   1      38.162  33.852  28.571  1.00  0.00     0.065 H 
ATOM    108  H   UNL A   1      41.715  32.916  34.819  1.00  0.00     0.065 H 
ATOM    109  C   UNL A   1      39.413  33.562  33.006  1.00  0.00     0.037 A 
ATOM    110  H   UNL A   1      39.887  34.676  30.307  1.00  0.00     0.065 H 
BRANCH  91 111
ATOM    111  C   UNL A   1      43.354  35.398  29.835  1.00  0.00     0.064 A 
ATOM    112  C   UNL A   1      42.411  35.473  28.791  1.00  0.00     0.173 A 
ATOM    113  C   UNL A   1      44.446  36.289  29.726  1.00  0.00     0.173 A 
ATOM    114  F   UNL A   1      41.330  34.678  28.788  1.00  0.00    -0.203 F 
ATOM    115  C   UNL A   1      42.604  36.291  27.675  1.00  0.00     0.198 A 
ATOM    116  C   UNL A   1      44.605  37.145  28.639  1.00  0.00     0.198 A 
ATOM    117  F   UNL A   1      45.460  36.303  30.595  1.00  0.00    -0.203 F 
ATOM    118  F   UNL A   1      41.751  36.220  26.645  1.00  0.00    -0.200 F 
ATOM    119  C   UNL A   1      43.708  37.119  27.596  1.00  0.00     0.200 A 
ATOM    120  F   UNL A   1      45.689  37.932  28.578  1.00  0.00    -0.200 F 
ATOM    121  F   UNL A   1      43.932  37.854  26.500  1.00  0.00    -0.200 F 
ENDBRANCH  91 111
BRANCH  94 122
ATOM    122  C   UNL A   1      35.870  31.392  28.792  1.00  0.00     0.064 A 
ATOM    123  C   UNL A   1      35.692  30.232  28.018  1.00  0.00     0.173 A 
ATOM    124  C   UNL A   1      34.826  32.338  28.737  1.00  0.00     0.173 A 
ATOM    125  F   UNL A   1      36.609  29.254  28.049  1.00  0.00    -0.203 F 
ATOM    126  C   UNL A   1      34.536  30.026  27.252  1.00  0.00     0.198 A 
ATOM    127  C   UNL A   1      33.678  32.135  27.968  1.00  0.00     0.198 A 
ATOM    128  F   UNL A   1      34.853  33.437  29.504  1.00  0.00    -0.203 F 
ATOM    129  F   UNL A   1      34.378  28.881  26.572  1.00  0.00    -0.200 F 
ATOM    130  C   UNL A   1      33.527  30.975  27.235  1.00  0.00     0.200 A 
ATOM    131  F   UNL A   1      32.693  33.044  27.996  1.00  0.00    -0.200 F 
ATOM    132  F   UNL A   1      32.396  30.753  26.550  1.00  0.00    -0.200 F 
ENDBRANCH  94 122
BRANCH 109 133
ATOM    133  C   UNL A   1      38.804  32.869  34.195  1.00  0.00     0.064 A 
ATOM    134  C   UNL A   1      39.042  31.527  34.541  1.00  0.00     0.173 A 
ATOM    135  C   UNL A   1      38.091  33.650  35.115  1.00  0.00     0.173 A 
ATOM    136  F   UNL A   1      39.807  30.741  33.775  1.00  0.00    -0.203 F 
ATOM    137  C   UNL A   1      38.547  30.985  35.728  1.00  0.00     0.198 A 
ATOM    138  C   UNL A   1      37.633  33.117  36.318  1.00  0.00     0.198 A 
ATOM    139  F   UNL A   1      37.883  34.953  34.871  1.00  0.00    -0.203 F 
ATOM    140  F   UNL A   1      38.781  29.699  36.028  1.00  0.00    -0.200 F 
ATOM    141  C   UNL A   1      37.851  31.784  36.619  1.00  0.00     0.200 A 
ATOM    142  F   UNL A   1      37.008  33.911  37.199  1.00  0.00    -0.200 F 
ATOM    143  F   UNL A   1      37.413  31.277  37.780  1.00  0.00    -0.200 F 
ENDBRANCH 109 133
ENDBRANCH  74  77
ENDBRANCH  64  67
ENDBRANCH  60  63
ENDBRANCH  57  60
ENDBRANCH  54  57
ENDBRANCH  51  54
ENDBRANCH   1  51
TORSDOF 18
ENDMDL
MODEL 7
REMARK VINA RESULT:     -11.7      3.789     10.064
REMARK SMILES O=C1NC(=O)/C(=C/c2ccc(OCc3cn(-c4ccc(C(=O)NCCCCCCNC(=O)c5ccc(-c6c7nc(c(-c8c(F)c(F)c(F)c(F)c8F)c8ccc([nH]8)c(-c8c(F)c(F)c(F)c(F)c8F)c8nc(c(-c9c(F)c(F)c(F)c(F)c9F)c9ccc6[nH]9)C=C8)C=C7)cc5)cc4)nn3)cc2)S1
REMARK SMILES IDX 25 1 24 4 23 7 21 8 22 9 20 11 17 12 18 13 97 14 19 15 96 17
REMARK SMILES IDX 16 21 14 22 15 23 99 24 98 26 13 27 12 30 11 31 8 32 9 33
REMARK SMILES IDX 101 34 10 35 100 37 7 41 1 42 2 43 3 44 102 45 4 46 6 48
REMARK SMILES IDX 5 49 26 51 27 54 28 57 29 60 30 63 31 64 32 66 33 67 34 68
REMARK SMILES IDX 95 69 35 70 94 72 36 74 37 77 38 78 88 79 39 80 93 81 87 82
REMARK SMILES IDX 89 83 40 84 92 85 86 87 85 89 41 91 73 94 53 95 72 96 54 97
REMARK SMILES IDX 57 98 71 99 90 100 55 101 56 103 70 105 91 106 58 109 42 111
REMARK SMILES IDX 43 112 51 113 44 114 45 115 49 116 52 117 46 118 47 119
REMARK SMILES IDX 50 120 48 121 74 122 75 123 83 124 76 125 77 126 81 127
REMARK SMILES IDX 84 128 78 129 79 130 82 131 80 132 59 133 60 134 68 135
REMARK SMILES IDX 61 136 62 137 66 138 69 139 63 140 64 141 67 142 65 143
REMARK H PARENT 25 2 25 3 24 5 24 6 23 10 18 16 97 18 19 19 96 20 15 25 13 28
REMARK H PARENT 13 29 9 36 101 38 10 39 100 40 3 47 7 50 26 52 26 53 27 55
REMARK H PARENT 27 56 28 58 28 59 29 61 29 62 30 65 34 71 95 73 35 75 94 76
REMARK H PARENT 93 86 87 88 89 90 92 92 86 93 54 102 57 104 90 107 55 108
REMARK H PARENT 91 110
REMARK Flexibility Score: inf
ROOT
ATOM      1  C   UNL A   1      39.007  22.518  26.780  1.00  0.00    -0.036 C 
ATOM      2  H   UNL A   1      38.430  21.800  27.326  1.00  0.00     0.028 H 
ATOM      3  H   UNL A   1      38.850  23.510  27.150  1.00  0.00     0.028 H 
ENDROOT
BRANCH   1   4
ATOM      4  C   UNL A   1      38.563  22.492  25.315  1.00  0.00     0.018 C 
ATOM      5  H   UNL A   1      38.195  23.457  25.037  1.00  0.00     0.049 H 
ATOM      6  H   UNL A   1      39.396  22.235  24.696  1.00  0.00     0.049 H 
BRANCH   4   7
ATOM      7  N   UNL A   1      37.514  21.509  25.146  1.00  0.00    -0.352 N 
ATOM      8  C   UNL A   1      36.162  21.611  24.957  1.00  0.00     0.251 C 
ATOM      9  O   UNL A   1      35.516  20.564  24.916  1.00  0.00    -0.269 OA
ATOM     10  H   UNL A   1      37.838  20.580  25.171  1.00  0.00     0.163 HD
BRANCH   8  11
ATOM     11  C   UNL A   1      35.469  22.905  24.710  1.00  0.00     0.039 A 
ATOM     12  C   UNL A   1      34.419  25.401  24.004  1.00  0.00     0.066 A 
ATOM     13  C   UNL A   1      34.526  24.395  23.038  1.00  0.00    -0.036 A 
ATOM     14  C   UNL A   1      34.751  25.143  25.333  1.00  0.00    -0.036 A 
ATOM     15  C   UNL A   1      35.087  23.168  23.386  1.00  0.00    -0.047 A 
ATOM     16  H   UNL A   1      34.194  24.561  22.075  1.00  0.00     0.065 H 
ATOM     17  C   UNL A   1      35.198  23.869  25.687  1.00  0.00    -0.047 A 
ATOM     18  H   UNL A   1      34.667  25.885  26.045  1.00  0.00     0.065 H 
ATOM     19  H   UNL A   1      35.221  22.444  22.662  1.00  0.00     0.063 H 
ATOM     20  H   UNL A   1      35.331  23.634  26.683  1.00  0.00     0.063 H 
BRANCH  12  21
ATOM     21  N   UNL A   1      33.937  26.667  23.628  1.00  0.00    -0.220 N 
ATOM     22  C   UNL A   1      32.891  28.354  22.729  1.00  0.00     0.120 A 
ATOM     23  C   UNL A   1      32.910  26.976  22.765  1.00  0.00     0.058 A 
ATOM     24  N   UNL A   1      33.858  28.821  23.582  1.00  0.00    -0.131 NA
ATOM     25  H   UNL A   1      32.291  26.322  22.259  1.00  0.00     0.086 H 
ATOM     26  N   UNL A   1      34.459  27.793  24.149  1.00  0.00    -0.062 NA
BRANCH  22  27
ATOM     27  C   UNL A   1      31.967  29.311  22.048  1.00  0.00     0.134 C 
ATOM     28  H   UNL A   1      32.403  30.287  22.108  1.00  0.00     0.078 H 
ATOM     29  H   UNL A   1      31.855  28.947  21.049  1.00  0.00     0.078 H 
BRANCH  27  30
ATOM     30  O   UNL A   1      30.637  29.385  22.591  1.00  0.00    -0.487 OA
BRANCH  30  31
ATOM     31  C   UNL A   1      30.230  28.412  23.463  1.00  0.00     0.119 A 
ATOM     32  C   UNL A   1      29.817  26.322  25.299  1.00  0.00    -0.024 A 
ATOM     33  C   UNL A   1      30.649  27.394  25.630  1.00  0.00    -0.051 A 
ATOM     34  C   UNL A   1      29.116  26.357  24.091  1.00  0.00    -0.051 A 
ATOM     35  C   UNL A   1      30.860  28.428  24.709  1.00  0.00    -0.019 A 
ATOM     36  H   UNL A   1      31.110  27.423  26.553  1.00  0.00     0.063 H 
ATOM     37  C   UNL A   1      29.295  27.415  23.199  1.00  0.00    -0.019 A 
ATOM     38  H   UNL A   1      28.462  25.595  23.858  1.00  0.00     0.063 H 
ATOM     39  H   UNL A   1      31.487  29.210  24.955  1.00  0.00     0.066 H 
ATOM     40  H   UNL A   1      28.730  27.458  22.336  1.00  0.00     0.066 H 
BRANCH  32  41
ATOM     41  C   UNL A   1      29.654  25.185  26.207  1.00  0.00    -0.035 C 
ATOM     42  O   UNL A   1      32.229  20.991  25.107  1.00  0.00    -0.261 OA
ATOM     43  C   UNL A   1      31.514  21.884  25.559  1.00  0.00     0.290 C 
ATOM     44  N   UNL A   1      30.687  21.768  26.621  1.00  0.00    -0.282 N 
ATOM     45  S   UNL A   1      31.431  23.505  24.907  1.00  0.00    -0.022 SA
ATOM     46  C   UNL A   1      29.966  22.864  26.996  1.00  0.00     0.265 C 
ATOM     47  H   UNL A   1      30.606  20.916  27.108  1.00  0.00     0.174 HD
ATOM     48  C   UNL A   1      30.263  23.997  26.080  1.00  0.00     0.083 C 
ATOM     49  O   UNL A   1      29.189  22.898  27.932  1.00  0.00    -0.268 OA
ATOM     50  H   UNL A   1      29.018  25.307  27.011  1.00  0.00     0.064 H 
ENDBRANCH  32  41
ENDBRANCH  30  31
ENDBRANCH  27  30
ENDBRANCH  22  27
ENDBRANCH  12  21
ENDBRANCH   8  11
ENDBRANCH   4   7
ENDBRANCH   1   4
BRANCH   1  51
ATOM     51  C   UNL A   1      40.494  22.185  26.949  1.00  0.00    -0.052 C 
ATOM     52  H   UNL A   1      40.902  22.847  27.683  1.00  0.00     0.027 H 
ATOM     53  H   UNL A   1      40.938  22.297  25.982  1.00  0.00     0.027 H 
BRANCH  51  54
ATOM     54  C   UNL A   1      40.790  20.740  27.393  1.00  0.00    -0.052 C 
ATOM     55  H   UNL A   1      40.072  20.101  26.925  1.00  0.00     0.027 H 
ATOM     56  H   UNL A   1      40.737  20.751  28.461  1.00  0.00     0.027 H 
BRANCH  54  57
ATOM     57  C   UNL A   1      42.191  20.204  27.053  1.00  0.00    -0.036 C 
ATOM     58  H   UNL A   1      42.375  19.333  27.645  1.00  0.00     0.028 H 
ATOM     59  H   UNL A   1      42.890  20.986  27.263  1.00  0.00     0.028 H 
BRANCH  57  60
ATOM     60  C   UNL A   1      42.349  19.836  25.588  1.00  0.00     0.018 C 
ATOM     61  H   UNL A   1      41.825  20.556  24.992  1.00  0.00     0.049 H 
ATOM     62  H   UNL A   1      41.947  18.855  25.448  1.00  0.00     0.049 H 
BRANCH  60  63
ATOM     63  N   UNL A   1      43.759  19.815  25.177  1.00  0.00    -0.352 N 
ATOM     64  C   UNL A   1      44.611  20.861  24.873  1.00  0.00     0.251 C 
ATOM     65  H   UNL A   1      44.160  18.918  25.109  1.00  0.00     0.163 HD
ATOM     66  O   UNL A   1      45.617  20.683  24.198  1.00  0.00    -0.269 OA
BRANCH  64  67
ATOM     67  C   UNL A   1      44.299  22.197  25.402  1.00  0.00     0.039 A 
ATOM     68  C   UNL A   1      43.381  23.072  24.809  1.00  0.00    -0.049 A 
ATOM     69  C   UNL A   1      44.948  22.549  26.572  1.00  0.00    -0.049 A 
ATOM     70  C   UNL A   1      43.149  24.300  25.427  1.00  0.00    -0.053 A 
ATOM     71  H   UNL A   1      42.888  22.814  23.939  1.00  0.00     0.063 H 
ATOM     72  C   UNL A   1      44.427  23.538  27.338  1.00  0.00    -0.053 A 
ATOM     73  H   UNL A   1      45.814  22.067  26.856  1.00  0.00     0.063 H 
ATOM     74  C   UNL A   1      43.709  24.521  26.690  1.00  0.00    -0.014 A 
ATOM     75  H   UNL A   1      42.581  25.026  24.964  1.00  0.00     0.063 H 
ATOM     76  H   UNL A   1      44.562  23.554  28.361  1.00  0.00     0.063 H 
BRANCH  74  77
ATOM     77  C   UNL A   1      43.554  25.741  27.454  1.00  0.00     0.031 A 
ATOM     78  C   UNL A   1      44.488  26.806  27.041  1.00  0.00     0.074 A 
ATOM     79  C   UNL A   1      42.450  25.967  28.204  1.00  0.00     0.049 A 
ATOM     80  N   UNL A   1      45.502  27.250  27.701  1.00  0.00    -0.248 NA
ATOM     81  C   UNL A   1      44.414  27.297  25.655  1.00  0.00    -0.034 C 
ATOM     82  C   UNL A   1      41.260  25.119  28.374  1.00  0.00    -0.036 A 
ATOM     83  N   UNL A   1      42.104  27.094  28.883  1.00  0.00    -0.354 N 
ATOM     84  C   UNL A   1      46.052  28.248  26.905  1.00  0.00     0.074 A 
ATOM     85  C   UNL A   1      45.521  28.040  25.586  1.00  0.00    -0.034 C 
ATOM     86  H   UNL A   1      43.699  27.117  24.933  1.00  0.00     0.065 H 
ATOM     87  C   UNL A   1      40.252  25.848  28.907  1.00  0.00    -0.036 A 
ATOM     88  H   UNL A   1      41.203  24.119  28.126  1.00  0.00     0.065 H 
ATOM     89  C   UNL A   1      40.758  27.164  29.245  1.00  0.00     0.049 A 
ATOM     90  H   UNL A   1      42.752  27.804  29.101  1.00  0.00     0.167 HD
ATOM     91  C   UNL A   1      46.650  29.333  27.470  1.00  0.00     0.037 A 
ATOM     92  H   UNL A   1      45.934  28.409  24.715  1.00  0.00     0.065 H 
ATOM     93  H   UNL A   1      39.284  25.522  29.048  1.00  0.00     0.065 H 
ATOM     94  C   UNL A   1      40.132  28.276  29.713  1.00  0.00     0.037 A 
ATOM     95  C   UNL A   1      46.893  29.101  28.877  1.00  0.00     0.049 A 
ATOM     96  C   UNL A   1      41.202  29.203  30.189  1.00  0.00     0.074 A 
ATOM     97  C   UNL A   1      47.572  28.126  29.587  1.00  0.00    -0.036 A 
ATOM     98  N   UNL A   1      46.036  29.685  29.781  1.00  0.00    -0.354 N 
ATOM     99  N   UNL A   1      41.966  28.950  31.219  1.00  0.00    -0.248 NA
ATOM    100  C   UNL A   1      41.763  30.124  29.208  1.00  0.00    -0.034 C 
ATOM    101  C   UNL A   1      46.725  27.828  30.697  1.00  0.00    -0.036 A 
ATOM    102  H   UNL A   1      48.488  27.708  29.363  1.00  0.00     0.065 H 
ATOM    103  C   UNL A   1      45.644  28.710  30.664  1.00  0.00     0.049 A 
ATOM    104  H   UNL A   1      45.755  30.629  29.793  1.00  0.00     0.167 HD
ATOM    105  C   UNL A   1      43.242  29.315  30.810  1.00  0.00     0.074 A 
ATOM    106  C   UNL A   1      43.046  30.080  29.579  1.00  0.00    -0.034 C 
ATOM    107  H   UNL A   1      41.304  30.655  28.450  1.00  0.00     0.065 H 
ATOM    108  H   UNL A   1      46.884  27.090  31.400  1.00  0.00     0.065 H 
ATOM    109  C   UNL A   1      44.355  28.703  31.315  1.00  0.00     0.037 A 
ATOM    110  H   UNL A   1      43.812  30.534  29.056  1.00  0.00     0.065 H 
BRANCH  91 111
ATOM    111  C   UNL A   1      46.642  30.727  26.884  1.00  0.00     0.064 A 
ATOM    112  C   UNL A   1      47.846  31.458  26.883  1.00  0.00     0.173 A 
ATOM    113  C   UNL A   1      45.480  31.480  26.598  1.00  0.00     0.173 A 
ATOM    114  F   UNL A   1      49.015  30.849  27.137  1.00  0.00    -0.203 F 
ATOM    115  C   UNL A   1      47.872  32.845  26.721  1.00  0.00     0.198 A 
ATOM    116  C   UNL A   1      45.517  32.855  26.382  1.00  0.00     0.198 A 
ATOM    117  F   UNL A   1      44.252  30.956  26.622  1.00  0.00    -0.203 F 
ATOM    118  F   UNL A   1      49.025  33.509  26.871  1.00  0.00    -0.200 F 
ATOM    119  C   UNL A   1      46.704  33.544  26.482  1.00  0.00     0.200 A 
ATOM    120  F   UNL A   1      44.371  33.515  26.160  1.00  0.00    -0.200 F 
ATOM    121  F   UNL A   1      46.714  34.880  26.393  1.00  0.00    -0.200 F 
ENDBRANCH  91 111
BRANCH  94 122
ATOM    122  C   UNL A   1      38.736  28.720  29.458  1.00  0.00     0.064 A 
ATOM    123  C   UNL A   1      37.847  28.995  30.511  1.00  0.00     0.173 A 
ATOM    124  C   UNL A   1      38.325  29.141  28.177  1.00  0.00     0.173 A 
ATOM    125  F   UNL A   1      38.178  28.677  31.772  1.00  0.00    -0.203 F 
ATOM    126  C   UNL A   1      36.633  29.663  30.298  1.00  0.00     0.198 A 
ATOM    127  C   UNL A   1      37.112  29.801  27.964  1.00  0.00     0.198 A 
ATOM    128  F   UNL A   1      39.135  29.009  27.117  1.00  0.00    -0.203 F 
ATOM    129  F   UNL A   1      35.839  29.957  31.338  1.00  0.00    -0.200 F 
ATOM    130  C   UNL A   1      36.272  30.072  29.025  1.00  0.00     0.200 A 
ATOM    131  F   UNL A   1      36.798  30.228  26.732  1.00  0.00    -0.200 F 
ATOM    132  F   UNL A   1      35.140  30.763  28.829  1.00  0.00    -0.200 F 
ENDBRANCH  94 122
BRANCH 109 133
ATOM    133  C   UNL A   1      44.203  27.782  32.495  1.00  0.00     0.064 A 
ATOM    134  C   UNL A   1      44.006  26.393  32.399  1.00  0.00     0.173 A 
ATOM    135  C   UNL A   1      44.441  28.307  33.772  1.00  0.00     0.173 A 
ATOM    136  F   UNL A   1      43.882  25.793  31.210  1.00  0.00    -0.203 F 
ATOM    137  C   UNL A   1      44.001  25.580  33.533  1.00  0.00     0.198 A 
ATOM    138  C   UNL A   1      44.476  27.489  34.899  1.00  0.00     0.198 A 
ATOM    139  F   UNL A   1      44.696  29.616  33.923  1.00  0.00    -0.203 F 
ATOM    140  F   UNL A   1      43.801  24.259  33.413  1.00  0.00    -0.200 F 
ATOM    141  C   UNL A   1      44.246  26.128  34.781  1.00  0.00     0.200 A 
ATOM    142  F   UNL A   1      44.768  28.018  36.095  1.00  0.00    -0.200 F 
ATOM    143  F   UNL A   1      44.286  25.344  35.867  1.00  0.00    -0.200 F 
ENDBRANCH 109 133
ENDBRANCH  74  77
ENDBRANCH  64  67
ENDBRANCH  60  63
ENDBRANCH  57  60
ENDBRANCH  54  57
ENDBRANCH  51  54
ENDBRANCH   1  51
TORSDOF 18
ENDMDL
MODEL 8
REMARK VINA RESULT:     -11.7      4.550      9.561
REMARK SMILES O=C1NC(=O)/C(=C/c2ccc(OCc3cn(-c4ccc(C(=O)NCCCCCCNC(=O)c5ccc(-c6c7nc(c(-c8c(F)c(F)c(F)c(F)c8F)c8ccc([nH]8)c(-c8c(F)c(F)c(F)c(F)c8F)c8nc(c(-c9c(F)c(F)c(F)c(F)c9F)c9ccc6[nH]9)C=C8)C=C7)cc5)cc4)nn3)cc2)S1
REMARK SMILES IDX 25 1 24 4 23 7 21 8 22 9 20 11 17 12 18 13 97 14 19 15 96 17
REMARK SMILES IDX 16 21 14 22 15 23 99 24 98 26 13 27 12 30 11 31 8 32 9 33
REMARK SMILES IDX 101 34 10 35 100 37 7 41 1 42 2 43 3 44 102 45 4 46 6 48
REMARK SMILES IDX 5 49 26 51 27 54 28 57 29 60 30 63 31 64 32 66 33 67 34 68
REMARK SMILES IDX 95 69 35 70 94 72 36 74 37 77 38 78 88 79 39 80 93 81 87 82
REMARK SMILES IDX 89 83 40 84 92 85 86 87 85 89 41 91 73 94 53 95 72 96 54 97
REMARK SMILES IDX 57 98 71 99 90 100 55 101 56 103 70 105 91 106 58 109 42 111
REMARK SMILES IDX 43 112 51 113 44 114 45 115 49 116 52 117 46 118 47 119
REMARK SMILES IDX 50 120 48 121 74 122 75 123 83 124 76 125 77 126 81 127
REMARK SMILES IDX 84 128 78 129 79 130 82 131 80 132 59 133 60 134 68 135
REMARK SMILES IDX 61 136 62 137 66 138 69 139 63 140 64 141 67 142 65 143
REMARK H PARENT 25 2 25 3 24 5 24 6 23 10 18 16 97 18 19 19 96 20 15 25 13 28
REMARK H PARENT 13 29 9 36 101 38 10 39 100 40 3 47 7 50 26 52 26 53 27 55
REMARK H PARENT 27 56 28 58 28 59 29 61 29 62 30 65 34 71 95 73 35 75 94 76
REMARK H PARENT 93 86 87 88 89 90 92 92 86 93 54 102 57 104 90 107 55 108
REMARK H PARENT 91 110
REMARK Flexibility Score: inf
ROOT
ATOM      1  C   UNL A   1      39.483  28.487  29.244  1.00  0.00    -0.036 C 
ATOM      2  H   UNL A   1      40.456  28.787  29.573  1.00  0.00     0.028 H 
ATOM      3  H   UNL A   1      39.301  28.787  28.233  1.00  0.00     0.028 H 
ENDROOT
BRANCH   1   4
ATOM      4  C   UNL A   1      38.435  29.168  30.127  1.00  0.00     0.018 C 
ATOM      5  H   UNL A   1      37.463  28.800  29.875  1.00  0.00     0.049 H 
ATOM      6  H   UNL A   1      38.643  28.956  31.154  1.00  0.00     0.049 H 
BRANCH   4   7
ATOM      7  N   UNL A   1      38.478  30.599  29.911  1.00  0.00    -0.352 N 
ATOM      8  C   UNL A   1      37.695  31.458  29.188  1.00  0.00     0.251 C 
ATOM      9  O   UNL A   1      38.039  32.639  29.146  1.00  0.00    -0.269 OA
ATOM     10  H   UNL A   1      39.221  31.045  30.379  1.00  0.00     0.163 HD
BRANCH   8  11
ATOM     11  C   UNL A   1      36.418  31.047  28.541  1.00  0.00     0.039 A 
ATOM     12  C   UNL A   1      34.198  30.278  27.022  1.00  0.00     0.066 A 
ATOM     13  C   UNL A   1      35.339  29.469  27.042  1.00  0.00    -0.036 A 
ATOM     14  C   UNL A   1      34.127  31.419  27.819  1.00  0.00    -0.036 A 
ATOM     15  C   UNL A   1      36.456  29.877  27.768  1.00  0.00    -0.047 A 
ATOM     16  H   UNL A   1      35.354  28.578  26.522  1.00  0.00     0.065 H 
ATOM     17  C   UNL A   1      35.211  31.748  28.634  1.00  0.00    -0.047 A 
ATOM     18  H   UNL A   1      33.282  32.012  27.807  1.00  0.00     0.065 H 
ATOM     19  H   UNL A   1      37.320  29.312  27.738  1.00  0.00     0.063 H 
ATOM     20  H   UNL A   1      35.121  32.519  29.315  1.00  0.00     0.063 H 
BRANCH  12  21
ATOM     21  N   UNL A   1      33.107  29.908  26.216  1.00  0.00    -0.220 N 
ATOM     22  C   UNL A   1      31.738  28.969  24.804  1.00  0.00     0.120 A 
ATOM     23  C   UNL A   1      32.986  28.826  25.374  1.00  0.00     0.058 A 
ATOM     24  N   UNL A   1      31.146  30.084  25.339  1.00  0.00    -0.131 NA
ATOM     25  H   UNL A   1      33.674  28.075  25.207  1.00  0.00     0.086 H 
ATOM     26  N   UNL A   1      31.966  30.623  26.219  1.00  0.00    -0.062 NA
BRANCH  22  27
ATOM     27  C   UNL A   1      30.974  28.089  23.870  1.00  0.00     0.134 C 
ATOM     28  H   UNL A   1      30.356  28.715  23.260  1.00  0.00     0.078 H 
ATOM     29  H   UNL A   1      31.708  27.538  23.321  1.00  0.00     0.078 H 
BRANCH  27  30
ATOM     30  O   UNL A   1      30.129  27.104  24.492  1.00  0.00    -0.487 OA
BRANCH  30  31
ATOM     31  C   UNL A   1      30.638  25.855  24.721  1.00  0.00     0.119 A 
ATOM     32  C   UNL A   1      31.330  23.142  24.983  1.00  0.00    -0.024 A 
ATOM     33  C   UNL A   1      31.084  23.685  23.719  1.00  0.00    -0.051 A 
ATOM     34  C   UNL A   1      31.328  23.985  26.095  1.00  0.00    -0.051 A 
ATOM     35  C   UNL A   1      30.731  25.035  23.594  1.00  0.00    -0.019 A 
ATOM     36  H   UNL A   1      31.163  23.092  22.879  1.00  0.00     0.063 H 
ATOM     37  C   UNL A   1      31.020  25.340  25.956  1.00  0.00    -0.019 A 
ATOM     38  H   UNL A   1      31.555  23.605  27.026  1.00  0.00     0.063 H 
ATOM     39  H   UNL A   1      30.537  25.427  22.659  1.00  0.00     0.066 H 
ATOM     40  H   UNL A   1      31.077  25.965  26.776  1.00  0.00     0.066 H 
BRANCH  32  41
ATOM     41  C   UNL A   1      31.610  21.714  25.148  1.00  0.00    -0.035 C 
ATOM     42  O   UNL A   1      36.444  20.293  24.943  1.00  0.00    -0.261 OA
ATOM     43  C   UNL A   1      35.221  20.403  25.018  1.00  0.00     0.290 C 
ATOM     44  N   UNL A   1      34.345  19.382  25.132  1.00  0.00    -0.282 N 
ATOM     45  S   UNL A   1      34.367  21.929  24.998  1.00  0.00    -0.022 SA
ATOM     46  C   UNL A   1      33.016  19.683  25.212  1.00  0.00     0.265 C 
ATOM     47  H   UNL A   1      34.655  18.448  25.154  1.00  0.00     0.174 HD
ATOM     48  C   UNL A   1      32.830  21.156  25.131  1.00  0.00     0.083 C 
ATOM     49  O   UNL A   1      32.123  18.862  25.319  1.00  0.00    -0.268 OA
ATOM     50  H   UNL A   1      30.804  21.085  25.288  1.00  0.00     0.064 H 
ENDBRANCH  32  41
ENDBRANCH  30  31
ENDBRANCH  27  30
ENDBRANCH  22  27
ENDBRANCH  12  21
ENDBRANCH   8  11
ENDBRANCH   4   7
ENDBRANCH   1   4
BRANCH   1  51
ATOM     51  C   UNL A   1      39.394  26.957  29.301  1.00  0.00    -0.052 C 
ATOM     52  H   UNL A   1      38.432  26.694  29.688  1.00  0.00     0.027 H 
ATOM     53  H   UNL A   1      40.204  26.633  29.920  1.00  0.00     0.027 H 
BRANCH  51  54
ATOM     54  C   UNL A   1      39.574  26.245  27.948  1.00  0.00    -0.052 C 
ATOM     55  H   UNL A   1      40.600  26.338  27.663  1.00  0.00     0.027 H 
ATOM     56  H   UNL A   1      38.888  26.722  27.278  1.00  0.00     0.027 H 
BRANCH  54  57
ATOM     57  C   UNL A   1      39.210  24.751  27.918  1.00  0.00    -0.036 C 
ATOM     58  H   UNL A   1      38.247  24.626  28.369  1.00  0.00     0.028 H 
ATOM     59  H   UNL A   1      39.974  24.227  28.453  1.00  0.00     0.028 H 
BRANCH  57  60
ATOM     60  C   UNL A   1      39.165  24.177  26.514  1.00  0.00     0.018 C 
ATOM     61  H   UNL A   1      39.558  24.902  25.830  1.00  0.00     0.049 H 
ATOM     62  H   UNL A   1      38.146  23.944  26.283  1.00  0.00     0.049 H 
BRANCH  60  63
ATOM     63  N   UNL A   1      39.952  22.941  26.401  1.00  0.00    -0.352 N 
ATOM     64  C   UNL A   1      41.288  22.766  26.090  1.00  0.00     0.251 C 
ATOM     65  H   UNL A   1      39.452  22.111  26.575  1.00  0.00     0.163 HD
ATOM     66  O   UNL A   1      41.705  21.693  25.670  1.00  0.00    -0.269 OA
BRANCH  64  67
ATOM     67  C   UNL A   1      42.211  23.891  26.299  1.00  0.00     0.039 A 
ATOM     68  C   UNL A   1      42.385  24.934  25.383  1.00  0.00    -0.049 A 
ATOM     69  C   UNL A   1      42.899  23.891  27.500  1.00  0.00    -0.049 A 
ATOM     70  C   UNL A   1      43.268  25.960  25.713  1.00  0.00    -0.053 A 
ATOM     71  H   UNL A   1      41.871  24.944  24.487  1.00  0.00     0.063 H 
ATOM     72  C   UNL A   1      43.423  25.055  27.954  1.00  0.00    -0.053 A 
ATOM     73  H   UNL A   1      43.009  23.019  28.041  1.00  0.00     0.063 H 
ATOM     74  C   UNL A   1      43.798  25.985  27.008  1.00  0.00    -0.014 A 
ATOM     75  H   UNL A   1      43.524  26.682  25.021  1.00  0.00     0.063 H 
ATOM     76  H   UNL A   1      43.536  25.237  28.964  1.00  0.00     0.063 H 
BRANCH  74  77
ATOM     77  C   UNL A   1      44.723  26.986  27.497  1.00  0.00     0.031 A 
ATOM     78  C   UNL A   1      46.124  26.713  27.123  1.00  0.00     0.074 A 
ATOM     79  C   UNL A   1      44.289  28.191  27.935  1.00  0.00     0.049 A 
ATOM     80  N   UNL A   1      47.079  26.339  27.904  1.00  0.00    -0.248 NA
ATOM     81  C   UNL A   1      46.463  26.652  25.691  1.00  0.00    -0.034 C 
ATOM     82  C   UNL A   1      42.916  28.717  27.982  1.00  0.00    -0.036 A 
ATOM     83  N   UNL A   1      45.027  29.269  28.316  1.00  0.00    -0.354 N 
ATOM     84  C   UNL A   1      48.199  26.225  27.090  1.00  0.00     0.074 A 
ATOM     85  C   UNL A   1      47.704  26.164  25.742  1.00  0.00    -0.034 C 
ATOM     86  H   UNL A   1      45.895  26.917  24.872  1.00  0.00     0.065 H 
ATOM     87  C   UNL A   1      42.947  30.060  28.145  1.00  0.00    -0.036 A 
ATOM     88  H   UNL A   1      42.059  28.147  27.903  1.00  0.00     0.065 H 
ATOM     89  C   UNL A   1      44.320  30.472  28.354  1.00  0.00     0.049 A 
ATOM     90  H   UNL A   1      45.983  29.205  28.546  1.00  0.00     0.167 HD
ATOM     91  C   UNL A   1      49.440  26.503  27.577  1.00  0.00     0.037 A 
ATOM     92  H   UNL A   1      48.228  25.795  24.933  1.00  0.00     0.065 H 
ATOM     93  H   UNL A   1      42.127  30.686  28.124  1.00  0.00     0.065 H 
ATOM     94  C   UNL A   1      44.882  31.704  28.475  1.00  0.00     0.037 A 
ATOM     95  C   UNL A   1      49.410  26.577  29.021  1.00  0.00     0.049 A 
ATOM     96  C   UNL A   1      46.262  31.497  29.008  1.00  0.00     0.074 A 
ATOM     97  C   UNL A   1      49.010  25.707  30.020  1.00  0.00    -0.036 A 
ATOM     98  N   UNL A   1      49.415  27.825  29.600  1.00  0.00    -0.354 N 
ATOM     99  N   UNL A   1      46.507  31.043  30.208  1.00  0.00    -0.248 NA
ATOM    100  C   UNL A   1      47.323  31.282  28.031  1.00  0.00    -0.034 C 
ATOM    101  C   UNL A   1      48.299  26.525  30.950  1.00  0.00    -0.036 A 
ATOM    102  H   UNL A   1      49.188  24.692  30.080  1.00  0.00     0.065 H 
ATOM    103  C   UNL A   1      48.404  27.850  30.529  1.00  0.00     0.049 A 
ATOM    104  H   UNL A   1      50.028  28.565  29.386  1.00  0.00     0.167 HD
ATOM    105  C   UNL A   1      47.530  30.119  30.034  1.00  0.00     0.074 A 
ATOM    106  C   UNL A   1      48.026  30.347  28.678  1.00  0.00    -0.034 C 
ATOM    107  H   UNL A   1      47.484  31.722  27.111  1.00  0.00     0.065 H 
ATOM    108  H   UNL A   1      47.796  26.193  31.788  1.00  0.00     0.065 H 
ATOM    109  C   UNL A   1      47.672  29.047  30.871  1.00  0.00     0.037 A 
ATOM    110  H   UNL A   1      48.828  29.844  28.267  1.00  0.00     0.065 H 
BRANCH  91 111
ATOM    111  C   UNL A   1      50.569  27.106  26.772  1.00  0.00     0.064 A 
ATOM    112  C   UNL A   1      51.835  26.490  26.833  1.00  0.00     0.173 A 
ATOM    113  C   UNL A   1      50.554  28.394  26.191  1.00  0.00     0.173 A 
ATOM    114  F   UNL A   1      51.973  25.264  27.360  1.00  0.00    -0.203 F 
ATOM    115  C   UNL A   1      53.002  27.154  26.448  1.00  0.00     0.198 A 
ATOM    116  C   UNL A   1      51.714  29.031  25.756  1.00  0.00     0.198 A 
ATOM    117  F   UNL A   1      49.449  29.142  26.115  1.00  0.00    -0.203 F 
ATOM    118  F   UNL A   1      54.193  26.578  26.659  1.00  0.00    -0.200 F 
ATOM    119  C   UNL A   1      52.941  28.429  25.920  1.00  0.00     0.200 A 
ATOM    120  F   UNL A   1      51.632  30.272  25.256  1.00  0.00    -0.200 F 
ATOM    121  F   UNL A   1      54.060  29.095  25.613  1.00  0.00    -0.200 F 
ENDBRANCH  91 111
BRANCH  94 122
ATOM    122  C   UNL A   1      44.444  32.978  27.845  1.00  0.00     0.064 A 
ATOM    123  C   UNL A   1      44.417  33.137  26.449  1.00  0.00     0.173 A 
ATOM    124  C   UNL A   1      43.787  33.976  28.593  1.00  0.00     0.173 A 
ATOM    125  F   UNL A   1      44.971  32.209  25.654  1.00  0.00    -0.203 F 
ATOM    126  C   UNL A   1      43.762  34.217  25.842  1.00  0.00     0.198 A 
ATOM    127  C   UNL A   1      43.140  35.055  27.988  1.00  0.00     0.198 A 
ATOM    128  F   UNL A   1      43.675  33.874  29.926  1.00  0.00    -0.203 F 
ATOM    129  F   UNL A   1      43.710  34.303  24.504  1.00  0.00    -0.200 F 
ATOM    130  C   UNL A   1      43.117  35.170  26.612  1.00  0.00     0.200 A 
ATOM    131  F   UNL A   1      42.485  35.945  28.747  1.00  0.00    -0.200 F 
ATOM    132  F   UNL A   1      42.440  36.171  26.031  1.00  0.00    -0.200 F 
ENDBRANCH  94 122
BRANCH 109 133
ATOM    133  C   UNL A   1      46.848  28.994  32.128  1.00  0.00     0.064 A 
ATOM    134  C   UNL A   1      45.578  28.397  32.223  1.00  0.00     0.173 A 
ATOM    135  C   UNL A   1      47.447  29.413  33.324  1.00  0.00     0.173 A 
ATOM    136  F   UNL A   1      44.981  27.869  31.148  1.00  0.00    -0.203 F 
ATOM    137  C   UNL A   1      44.925  28.270  33.449  1.00  0.00     0.198 A 
ATOM    138  C   UNL A   1      46.812  29.249  34.552  1.00  0.00     0.198 A 
ATOM    139  F   UNL A   1      48.683  29.936  33.307  1.00  0.00    -0.203 F 
ATOM    140  F   UNL A   1      43.710  27.705  33.509  1.00  0.00    -0.200 F 
ATOM    141  C   UNL A   1      45.547  28.689  34.614  1.00  0.00     0.200 A 
ATOM    142  F   UNL A   1      47.443  29.606  35.679  1.00  0.00    -0.200 F 
ATOM    143  F   UNL A   1      44.940  28.528  35.798  1.00  0.00    -0.200 F 
ENDBRANCH 109 133
ENDBRANCH  74  77
ENDBRANCH  64  67
ENDBRANCH  60  63
ENDBRANCH  57  60
ENDBRANCH  54  57
ENDBRANCH  51  54
ENDBRANCH   1  51
TORSDOF 18
ENDMDL
MODEL 9
REMARK VINA RESULT:     -11.7      1.862      2.656
REMARK SMILES O=C1NC(=O)/C(=C/c2ccc(OCc3cn(-c4ccc(C(=O)NCCCCCCNC(=O)c5ccc(-c6c7nc(c(-c8c(F)c(F)c(F)c(F)c8F)c8ccc([nH]8)c(-c8c(F)c(F)c(F)c(F)c8F)c8nc(c(-c9c(F)c(F)c(F)c(F)c9F)c9ccc6[nH]9)C=C8)C=C7)cc5)cc4)nn3)cc2)S1
REMARK SMILES IDX 25 1 24 4 23 7 21 8 22 9 20 11 17 12 18 13 97 14 19 15 96 17
REMARK SMILES IDX 16 21 14 22 15 23 99 24 98 26 13 27 12 30 11 31 8 32 9 33
REMARK SMILES IDX 101 34 10 35 100 37 7 41 1 42 2 43 3 44 102 45 4 46 6 48
REMARK SMILES IDX 5 49 26 51 27 54 28 57 29 60 30 63 31 64 32 66 33 67 34 68
REMARK SMILES IDX 95 69 35 70 94 72 36 74 37 77 38 78 88 79 39 80 93 81 87 82
REMARK SMILES IDX 89 83 40 84 92 85 86 87 85 89 41 91 73 94 53 95 72 96 54 97
REMARK SMILES IDX 57 98 71 99 90 100 55 101 56 103 70 105 91 106 58 109 42 111
REMARK SMILES IDX 43 112 51 113 44 114 45 115 49 116 52 117 46 118 47 119
REMARK SMILES IDX 50 120 48 121 74 122 75 123 83 124 76 125 77 126 81 127
REMARK SMILES IDX 84 128 78 129 79 130 82 131 80 132 59 133 60 134 68 135
REMARK SMILES IDX 61 136 62 137 66 138 69 139 63 140 64 141 67 142 65 143
REMARK H PARENT 25 2 25 3 24 5 24 6 23 10 18 16 97 18 19 19 96 20 15 25 13 28
REMARK H PARENT 13 29 9 36 101 38 10 39 100 40 3 47 7 50 26 52 26 53 27 55
REMARK H PARENT 27 56 28 58 28 59 29 61 29 62 30 65 34 71 95 73 35 75 94 76
REMARK H PARENT 93 86 87 88 89 90 92 92 86 93 54 102 57 104 90 107 55 108
REMARK H PARENT 91 110
REMARK Flexibility Score: inf
ROOT
ATOM      1  C   UNL A   1      35.834  31.666  27.626  1.00  0.00    -0.036 C 
ATOM      2  H   UNL A   1      35.578  32.497  27.003  1.00  0.00     0.028 H 
ATOM      3  H   UNL A   1      36.560  31.034  27.159  1.00  0.00     0.028 H 
ENDROOT
BRANCH   1   4
ATOM      4  C   UNL A   1      34.576  30.828  27.868  1.00  0.00     0.018 C 
ATOM      5  H   UNL A   1      34.616  29.943  27.269  1.00  0.00     0.049 H 
ATOM      6  H   UNL A   1      34.522  30.558  28.902  1.00  0.00     0.049 H 
BRANCH   4   7
ATOM      7  N   UNL A   1      33.406  31.600  27.510  1.00  0.00    -0.352 N 
ATOM      8  C   UNL A   1      32.235  31.280  26.876  1.00  0.00     0.251 C 
ATOM      9  O   UNL A   1      31.444  32.196  26.651  1.00  0.00    -0.269 OA
ATOM     10  H   UNL A   1      33.462  32.547  27.775  1.00  0.00     0.163 HD
BRANCH   8  11
ATOM     11  C   UNL A   1      31.846  29.883  26.540  1.00  0.00     0.039 A 
ATOM     12  C   UNL A   1      31.411  27.157  26.077  1.00  0.00     0.066 A 
ATOM     13  C   UNL A   1      31.488  27.635  27.390  1.00  0.00    -0.036 A 
ATOM     14  C   UNL A   1      31.465  28.041  25.000  1.00  0.00    -0.036 A 
ATOM     15  C   UNL A   1      31.745  28.986  27.614  1.00  0.00    -0.047 A 
ATOM     16  H   UNL A   1      31.357  26.991  28.186  1.00  0.00     0.065 H 
ATOM     17  C   UNL A   1      31.601  29.407  25.248  1.00  0.00    -0.047 A 
ATOM     18  H   UNL A   1      31.403  27.688  24.033  1.00  0.00     0.065 H 
ATOM     19  H   UNL A   1      31.860  29.331  28.580  1.00  0.00     0.063 H 
ATOM     20  H   UNL A   1      31.520  30.077  24.466  1.00  0.00     0.063 H 
BRANCH  12  21
ATOM     21  N   UNL A   1      31.243  25.780  25.856  1.00  0.00    -0.220 N 
ATOM     22  C   UNL A   1      31.031  23.779  25.018  1.00  0.00     0.120 A 
ATOM     23  C   UNL A   1      31.318  25.083  24.671  1.00  0.00     0.058 A 
ATOM     24  N   UNL A   1      30.836  23.727  26.374  1.00  0.00    -0.131 NA
ATOM     25  H   UNL A   1      31.541  25.453  23.733  1.00  0.00     0.086 H 
ATOM     26  N   UNL A   1      31.004  24.934  26.876  1.00  0.00    -0.062 NA
BRANCH  22  27
ATOM     27  C   UNL A   1      31.028  22.522  24.211  1.00  0.00     0.134 C 
ATOM     28  H   UNL A   1      31.235  21.706  24.873  1.00  0.00     0.078 H 
ATOM     29  H   UNL A   1      30.064  22.472  23.750  1.00  0.00     0.078 H 
BRANCH  27  30
ATOM     30  O   UNL A   1      31.981  22.471  23.134  1.00  0.00    -0.487 OA
BRANCH  30  31
ATOM     31  C   UNL A   1      33.285  22.173  23.426  1.00  0.00     0.119 A 
ATOM     32  C   UNL A   1      35.834  21.561  24.443  1.00  0.00    -0.024 A 
ATOM     33  C   UNL A   1      34.741  20.748  24.752  1.00  0.00    -0.051 A 
ATOM     34  C   UNL A   1      35.662  22.615  23.543  1.00  0.00    -0.051 A 
ATOM     35  C   UNL A   1      33.471  21.062  24.251  1.00  0.00    -0.019 A 
ATOM     36  H   UNL A   1      34.869  19.917  25.350  1.00  0.00     0.063 H 
ATOM     37  C   UNL A   1      34.402  22.893  23.011  1.00  0.00    -0.019 A 
ATOM     38  H   UNL A   1      36.472  23.192  23.270  1.00  0.00     0.063 H 
ATOM     39  H   UNL A   1      32.664  20.465  24.495  1.00  0.00     0.066 H 
ATOM     40  H   UNL A   1      34.297  23.638  22.305  1.00  0.00     0.066 H 
BRANCH  32  41
ATOM     41  C   UNL A   1      37.152  21.307  25.028  1.00  0.00    -0.035 C 
ATOM     42  O   UNL A   1      39.385  25.157  27.398  1.00  0.00    -0.261 OA
ATOM     43  C   UNL A   1      39.043  24.098  26.874  1.00  0.00     0.290 C 
ATOM     44  N   UNL A   1      39.799  22.982  26.790  1.00  0.00    -0.282 N 
ATOM     45  S   UNL A   1      37.485  23.826  26.126  1.00  0.00    -0.022 SA
ATOM     46  C   UNL A   1      39.260  21.886  26.179  1.00  0.00     0.265 C 
ATOM     47  H   UNL A   1      40.711  22.959  27.159  1.00  0.00     0.174 HD
ATOM     48  C   UNL A   1      37.889  22.203  25.700  1.00  0.00     0.083 C 
ATOM     49  O   UNL A   1      39.829  20.819  26.039  1.00  0.00    -0.268 OA
ATOM     50  H   UNL A   1      37.547  20.359  24.914  1.00  0.00     0.064 H 
ENDBRANCH  32  41
ENDBRANCH  30  31
ENDBRANCH  27  30
ENDBRANCH  22  27
ENDBRANCH  12  21
ENDBRANCH   8  11
ENDBRANCH   4   7
ENDBRANCH   1   4
BRANCH   1  51
ATOM     51  C   UNL A   1      36.445  32.197  28.929  1.00  0.00    -0.052 C 
ATOM     52  H   UNL A   1      37.452  31.843  28.992  1.00  0.00     0.027 H 
ATOM     53  H   UNL A   1      35.819  31.842  29.720  1.00  0.00     0.027 H 
BRANCH  51  54
ATOM     54  C   UNL A   1      36.470  33.731  29.055  1.00  0.00    -0.052 C 
ATOM     55  H   UNL A   1      36.607  34.139  28.076  1.00  0.00     0.027 H 
ATOM     56  H   UNL A   1      37.266  33.951  29.737  1.00  0.00     0.027 H 
BRANCH  54  57
ATOM     57  C   UNL A   1      35.214  34.378  29.663  1.00  0.00    -0.036 C 
ATOM     58  H   UNL A   1      34.662  34.852  28.879  1.00  0.00     0.028 H 
ATOM     59  H   UNL A   1      35.543  35.078  30.402  1.00  0.00     0.028 H 
BRANCH  57  60
ATOM     60  C   UNL A   1      34.307  33.379  30.358  1.00  0.00     0.018 C 
ATOM     61  H   UNL A   1      34.708  32.395  30.224  1.00  0.00     0.049 H 
ATOM     62  H   UNL A   1      33.332  33.458  29.925  1.00  0.00     0.049 H 
BRANCH  60  63
ATOM     63  N   UNL A   1      34.190  33.652  31.798  1.00  0.00    -0.352 N 
ATOM     64  C   UNL A   1      34.856  33.079  32.866  1.00  0.00     0.251 C 
ATOM     65  H   UNL A   1      33.540  34.352  32.038  1.00  0.00     0.163 HD
ATOM     66  O   UNL A   1      34.397  33.133  34.001  1.00  0.00    -0.269 OA
BRANCH  64  67
ATOM     67  C   UNL A   1      36.147  32.421  32.618  1.00  0.00     0.039 A 
ATOM     68  C   UNL A   1      36.280  31.061  32.319  1.00  0.00    -0.049 A 
ATOM     69  C   UNL A   1      37.260  33.242  32.661  1.00  0.00    -0.049 A 
ATOM     70  C   UNL A   1      37.559  30.563  32.072  1.00  0.00    -0.053 A 
ATOM     71  H   UNL A   1      35.454  30.442  32.279  1.00  0.00     0.063 H 
ATOM     72  C   UNL A   1      38.397  32.835  32.047  1.00  0.00    -0.053 A 
ATOM     73  H   UNL A   1      37.224  34.149  33.152  1.00  0.00     0.063 H 
ATOM     74  C   UNL A   1      38.614  31.476  31.966  1.00  0.00    -0.014 A 
ATOM     75  H   UNL A   1      37.723  29.549  31.972  1.00  0.00     0.063 H 
ATOM     76  H   UNL A   1      39.072  33.513  31.659  1.00  0.00     0.063 H 
BRANCH  74  77
ATOM     77  C   UNL A   1      39.992  31.111  31.711  1.00  0.00     0.031 A 
ATOM     78  C   UNL A   1      40.797  30.989  32.942  1.00  0.00     0.074 A 
ATOM     79  C   UNL A   1      40.377  30.607  30.515  1.00  0.00     0.049 A 
ATOM     80  N   UNL A   1      41.728  31.784  33.345  1.00  0.00    -0.248 NA
ATOM     81  C   UNL A   1      40.391  29.987  33.941  1.00  0.00    -0.034 C 
ATOM     82  C   UNL A   1      39.558  30.318  29.328  1.00  0.00    -0.036 A 
ATOM     83  N   UNL A   1      41.595  30.118  30.155  1.00  0.00    -0.354 N 
ATOM     84  C   UNL A   1      42.185  31.242  34.539  1.00  0.00     0.074 A 
ATOM     85  C   UNL A   1      41.167  30.325  34.973  1.00  0.00    -0.034 C 
ATOM     86  H   UNL A   1      39.696  29.228  33.864  1.00  0.00     0.065 H 
ATOM     87  C   UNL A   1      40.242  29.508  28.487  1.00  0.00    -0.036 A 
ATOM     88  H   UNL A   1      38.606  30.680  29.161  1.00  0.00     0.065 H 
ATOM     89  C   UNL A   1      41.587  29.334  29.000  1.00  0.00     0.049 A 
ATOM     90  H   UNL A   1      42.415  30.300  30.669  1.00  0.00     0.167 HD
ATOM     91  C   UNL A   1      43.493  31.366  34.900  1.00  0.00     0.037 A 
ATOM     92  H   UNL A   1      41.052  29.980  35.939  1.00  0.00     0.065 H 
ATOM     93  H   UNL A   1      39.868  29.083  27.625  1.00  0.00     0.065 H 
ATOM     94  C   UNL A   1      42.617  28.554  28.578  1.00  0.00     0.037 A 
ATOM     95  C   UNL A   1      44.151  32.359  34.079  1.00  0.00     0.049 A 
ATOM     96  C   UNL A   1      43.841  29.042  29.281  1.00  0.00     0.074 A 
ATOM     97  C   UNL A   1      43.907  33.693  33.805  1.00  0.00    -0.036 A 
ATOM     98  N   UNL A   1      44.959  31.915  33.059  1.00  0.00    -0.354 N 
ATOM     99  N   UNL A   1      44.373  30.217  29.066  1.00  0.00    -0.248 NA
ATOM    100  C   UNL A   1      44.136  28.455  30.583  1.00  0.00    -0.034 C 
ATOM    101  C   UNL A   1      44.128  33.822  32.400  1.00  0.00    -0.036 A 
ATOM    102  H   UNL A   1      43.628  34.433  34.469  1.00  0.00     0.065 H 
ATOM    103  C   UNL A   1      44.600  32.599  31.924  1.00  0.00     0.049 A 
ATOM    104  H   UNL A   1      45.665  31.232  33.129  1.00  0.00     0.167 HD
ATOM    105  C   UNL A   1      44.688  30.699  30.329  1.00  0.00     0.074 A 
ATOM    106  C   UNL A   1      44.566  29.548  31.221  1.00  0.00    -0.034 C 
ATOM    107  H   UNL A   1      44.041  27.482  30.913  1.00  0.00     0.065 H 
ATOM    108  H   UNL A   1      43.967  34.671  31.836  1.00  0.00     0.065 H 
ATOM    109  C   UNL A   1      44.706  32.040  30.596  1.00  0.00     0.037 A 
ATOM    110  H   UNL A   1      44.786  29.575  32.229  1.00  0.00     0.065 H 
BRANCH  91 111
ATOM    111  C   UNL A   1      44.275  30.336  35.683  1.00  0.00     0.064 A 
ATOM    112  C   UNL A   1      44.289  29.008  35.210  1.00  0.00     0.173 A 
ATOM    113  C   UNL A   1      44.756  30.511  37.000  1.00  0.00     0.173 A 
ATOM    114  F   UNL A   1      43.860  28.720  33.972  1.00  0.00    -0.203 F 
ATOM    115  C   UNL A   1      44.648  27.934  36.027  1.00  0.00     0.198 A 
ATOM    116  C   UNL A   1      45.167  29.442  37.793  1.00  0.00     0.198 A 
ATOM    117  F   UNL A   1      44.750  31.693  37.623  1.00  0.00    -0.203 F 
ATOM    118  F   UNL A   1      44.508  26.681  35.574  1.00  0.00    -0.200 F 
ATOM    119  C   UNL A   1      45.076  28.151  37.322  1.00  0.00     0.200 A 
ATOM    120  F   UNL A   1      45.570  29.675  39.050  1.00  0.00    -0.200 F 
ATOM    121  F   UNL A   1      45.357  27.122  38.130  1.00  0.00    -0.200 F 
ENDBRANCH  91 111
BRANCH  94 122
ATOM    122  C   UNL A   1      42.550  27.232  27.901  1.00  0.00     0.064 A 
ATOM    123  C   UNL A   1      42.803  27.097  26.525  1.00  0.00     0.173 A 
ATOM    124  C   UNL A   1      42.499  26.033  28.641  1.00  0.00     0.173 A 
ATOM    125  F   UNL A   1      42.921  28.187  25.752  1.00  0.00    -0.203 F 
ATOM    126  C   UNL A   1      43.007  25.844  25.932  1.00  0.00     0.198 A 
ATOM    127  C   UNL A   1      42.695  24.784  28.048  1.00  0.00     0.198 A 
ATOM    128  F   UNL A   1      42.353  26.053  29.973  1.00  0.00    -0.203 F 
ATOM    129  F   UNL A   1      43.302  25.760  24.626  1.00  0.00    -0.200 F 
ATOM    130  C   UNL A   1      42.961  24.690  26.696  1.00  0.00     0.200 A 
ATOM    131  F   UNL A   1      42.690  23.681  28.810  1.00  0.00    -0.200 F 
ATOM    132  F   UNL A   1      43.215  23.496  26.141  1.00  0.00    -0.200 F 
ENDBRANCH  94 122
BRANCH 109 133
ATOM    133  C   UNL A   1      44.605  33.009  29.450  1.00  0.00     0.064 A 
ATOM    134  C   UNL A   1      43.405  33.588  29.000  1.00  0.00     0.173 A 
ATOM    135  C   UNL A   1      45.797  33.501  28.900  1.00  0.00     0.173 A 
ATOM    136  F   UNL A   1      42.231  33.257  29.549  1.00  0.00    -0.203 F 
ATOM    137  C   UNL A   1      43.400  34.576  28.015  1.00  0.00     0.198 A 
ATOM    138  C   UNL A   1      45.792  34.516  27.947  1.00  0.00     0.198 A 
ATOM    139  F   UNL A   1      46.978  33.032  29.331  1.00  0.00    -0.203 F 
ATOM    140  F   UNL A   1      42.239  35.104  27.599  1.00  0.00    -0.200 F 
ATOM    141  C   UNL A   1      44.595  35.046  27.496  1.00  0.00     0.200 A 
ATOM    142  F   UNL A   1      46.954  35.003  27.490  1.00  0.00    -0.200 F 
ATOM    143  F   UNL A   1      44.594  36.026  26.583  1.00  0.00    -0.200 F 
ENDBRANCH 109 133
ENDBRANCH  74  77
ENDBRANCH  64  67
ENDBRANCH  60  63
ENDBRANCH  57  60
ENDBRANCH  54  57
ENDBRANCH  51  54
ENDBRANCH   1  51
TORSDOF 18
ENDMDL
MODEL 10
REMARK VINA RESULT:     -11.4      3.284      9.735
REMARK SMILES O=C1NC(=O)/C(=C/c2ccc(OCc3cn(-c4ccc(C(=O)NCCCCCCNC(=O)c5ccc(-c6c7nc(c(-c8c(F)c(F)c(F)c(F)c8F)c8ccc([nH]8)c(-c8c(F)c(F)c(F)c(F)c8F)c8nc(c(-c9c(F)c(F)c(F)c(F)c9F)c9ccc6[nH]9)C=C8)C=C7)cc5)cc4)nn3)cc2)S1
REMARK SMILES IDX 25 1 24 4 23 7 21 8 22 9 20 11 17 12 18 13 97 14 19 15 96 17
REMARK SMILES IDX 16 21 14 22 15 23 99 24 98 26 13 27 12 30 11 31 8 32 9 33
REMARK SMILES IDX 101 34 10 35 100 37 7 41 1 42 2 43 3 44 102 45 4 46 6 48
REMARK SMILES IDX 5 49 26 51 27 54 28 57 29 60 30 63 31 64 32 66 33 67 34 68
REMARK SMILES IDX 95 69 35 70 94 72 36 74 37 77 38 78 88 79 39 80 93 81 87 82
REMARK SMILES IDX 89 83 40 84 92 85 86 87 85 89 41 91 73 94 53 95 72 96 54 97
REMARK SMILES IDX 57 98 71 99 90 100 55 101 56 103 70 105 91 106 58 109 42 111
REMARK SMILES IDX 43 112 51 113 44 114 45 115 49 116 52 117 46 118 47 119
REMARK SMILES IDX 50 120 48 121 74 122 75 123 83 124 76 125 77 126 81 127
REMARK SMILES IDX 84 128 78 129 79 130 82 131 80 132 59 133 60 134 68 135
REMARK SMILES IDX 61 136 62 137 66 138 69 139 63 140 64 141 67 142 65 143
REMARK H PARENT 25 2 25 3 24 5 24 6 23 10 18 16 97 18 19 19 96 20 15 25 13 28
REMARK H PARENT 13 29 9 36 101 38 10 39 100 40 3 47 7 50 26 52 26 53 27 55
REMARK H PARENT 27 56 28 58 28 59 29 61 29 62 30 65 34 71 95 73 35 75 94 76
REMARK H PARENT 93 86 87 88 89 90 92 92 86 93 54 102 57 104 90 107 55 108
REMARK H PARENT 91 110
REMARK Flexibility Score: inf
ROOT
ATOM      1  C   UNL A   1      44.009  24.675  25.061  1.00  0.00    -0.036 C 
ATOM      2  H   UNL A   1      44.406  24.620  24.069  1.00  0.00     0.028 H 
ATOM      3  H   UNL A   1      44.724  24.350  25.788  1.00  0.00     0.028 H 
ENDROOT
BRANCH   1   4
ATOM      4  C   UNL A   1      42.795  23.747  25.156  1.00  0.00     0.018 C 
ATOM      5  H   UNL A   1      41.902  24.310  24.983  1.00  0.00     0.049 H 
ATOM      6  H   UNL A   1      42.879  22.975  24.421  1.00  0.00     0.049 H 
BRANCH   4   7
ATOM      7  N   UNL A   1      42.743  23.155  26.475  1.00  0.00    -0.352 N 
ATOM      8  C   UNL A   1      41.708  22.820  27.308  1.00  0.00     0.251 C 
ATOM      9  O   UNL A   1      41.997  22.386  28.423  1.00  0.00    -0.269 OA
ATOM     10  H   UNL A   1      43.630  22.950  26.850  1.00  0.00     0.163 HD
BRANCH   8  11
ATOM     11  C   UNL A   1      40.279  22.872  26.893  1.00  0.00     0.039 A 
ATOM     12  C   UNL A   1      37.708  22.880  25.789  1.00  0.00     0.066 A 
ATOM     13  C   UNL A   1      38.467  21.705  25.772  1.00  0.00    -0.036 A 
ATOM     14  C   UNL A   1      38.189  24.022  26.427  1.00  0.00    -0.036 A 
ATOM     15  C   UNL A   1      39.762  21.718  26.287  1.00  0.00    -0.047 A 
ATOM     16  H   UNL A   1      38.072  20.836  25.379  1.00  0.00     0.065 H 
ATOM     17  C   UNL A   1      39.440  23.981  27.044  1.00  0.00    -0.047 A 
ATOM     18  H   UNL A   1      37.626  24.887  26.444  1.00  0.00     0.065 H 
ATOM     19  H   UNL A   1      40.346  20.869  26.223  1.00  0.00     0.063 H 
ATOM     20  H   UNL A   1      39.751  24.779  27.620  1.00  0.00     0.063 H 
BRANCH  12  21
ATOM     21  N   UNL A   1      36.438  22.887  25.188  1.00  0.00    -0.220 N 
ATOM     22  C   UNL A   1      34.739  22.984  23.826  1.00  0.00     0.120 A 
ATOM     23  C   UNL A   1      36.118  22.983  23.852  1.00  0.00     0.058 A 
ATOM     24  N   UNL A   1      34.284  22.852  25.113  1.00  0.00    -0.131 NA
ATOM     25  H   UNL A   1      36.765  23.041  23.050  1.00  0.00     0.086 H 
ATOM     26  N   UNL A   1      35.318  22.755  25.924  1.00  0.00    -0.062 NA
BRANCH  22  27
ATOM     27  C   UNL A   1      33.774  22.985  22.686  1.00  0.00     0.134 C 
ATOM     28  H   UNL A   1      34.081  23.743  21.996  1.00  0.00     0.078 H 
ATOM     29  H   UNL A   1      33.798  21.995  22.281  1.00  0.00     0.078 H 
BRANCH  27  30
ATOM     30  O   UNL A   1      32.399  23.233  23.033  1.00  0.00    -0.487 OA
BRANCH  30  31
ATOM     31  C   UNL A   1      31.933  24.519  22.983  1.00  0.00     0.119 A 
ATOM     32  C   UNL A   1      30.580  26.980  22.852  1.00  0.00    -0.024 A 
ATOM     33  C   UNL A   1      30.249  26.049  23.838  1.00  0.00    -0.051 A 
ATOM     34  C   UNL A   1      31.656  26.715  22.003  1.00  0.00    -0.051 A 
ATOM     35  C   UNL A   1      30.919  24.820  23.894  1.00  0.00    -0.019 A 
ATOM     36  H   UNL A   1      29.510  26.266  24.525  1.00  0.00     0.063 H 
ATOM     37  C   UNL A   1      32.350  25.507  22.095  1.00  0.00    -0.019 A 
ATOM     38  H   UNL A   1      31.941  27.416  21.302  1.00  0.00     0.063 H 
ATOM     39  H   UNL A   1      30.660  24.130  24.618  1.00  0.00     0.066 H 
ATOM     40  H   UNL A   1      33.179  25.345  21.501  1.00  0.00     0.066 H 
BRANCH  32  41
ATOM     41  C   UNL A   1      29.832  28.232  22.715  1.00  0.00    -0.035 C 
ATOM     42  O   UNL A   1      31.025  31.968  25.885  1.00  0.00    -0.261 OA
ATOM     43  C   UNL A   1      30.567  31.211  25.031  1.00  0.00     0.290 C 
ATOM     44  N   UNL A   1      29.522  31.482  24.218  1.00  0.00    -0.282 N 
ATOM     45  S   UNL A   1      31.193  29.613  24.692  1.00  0.00    -0.022 SA
ATOM     46  C   UNL A   1      29.146  30.529  23.316  1.00  0.00     0.265 C 
ATOM     47  H   UNL A   1      29.045  32.341  24.276  1.00  0.00     0.174 HD
ATOM     48  C   UNL A   1      30.017  29.332  23.461  1.00  0.00     0.083 C 
ATOM     49  O   UNL A   1      28.227  30.644  22.527  1.00  0.00    -0.268 OA
ATOM     50  H   UNL A   1      29.103  28.272  21.985  1.00  0.00     0.064 H 
ENDBRANCH  32  41
ENDBRANCH  30  31
ENDBRANCH  27  30
ENDBRANCH  22  27
ENDBRANCH  12  21
ENDBRANCH   8  11
ENDBRANCH   4   7
ENDBRANCH   1   4
BRANCH   1  51
ATOM     51  C   UNL A   1      43.657  26.135  25.371  1.00  0.00    -0.052 C 
ATOM     52  H   UNL A   1      42.882  26.142  26.108  1.00  0.00     0.027 H 
ATOM     53  H   UNL A   1      43.363  26.576  24.441  1.00  0.00     0.027 H 
BRANCH  51  54
ATOM     54  C   UNL A   1      44.826  26.986  25.900  1.00  0.00    -0.052 C 
ATOM     55  H   UNL A   1      44.497  27.476  26.792  1.00  0.00     0.027 H 
ATOM     56  H   UNL A   1      45.080  27.653  25.102  1.00  0.00     0.027 H 
BRANCH  54  57
ATOM     57  C   UNL A   1      46.119  26.224  26.231  1.00  0.00    -0.036 C 
ATOM     58  H   UNL A   1      46.945  26.753  25.804  1.00  0.00     0.028 H 
ATOM     59  H   UNL A   1      46.021  25.240  25.824  1.00  0.00     0.028 H 
BRANCH  57  60
ATOM     60  C   UNL A   1      46.358  26.076  27.723  1.00  0.00     0.018 C 
ATOM     61  H   UNL A   1      46.136  27.007  28.203  1.00  0.00     0.049 H 
ATOM     62  H   UNL A   1      47.382  25.802  27.869  1.00  0.00     0.049 H 
BRANCH  60  63
ATOM     63  N   UNL A   1      45.517  25.025  28.311  1.00  0.00    -0.352 N 
ATOM     64  C   UNL A   1      44.646  25.082  29.384  1.00  0.00     0.251 C 
ATOM     65  H   UNL A   1      45.581  24.145  27.874  1.00  0.00     0.163 HD
ATOM     66  O   UNL A   1      44.310  24.068  29.984  1.00  0.00    -0.269 OA
BRANCH  64  67
ATOM     67  C   UNL A   1      44.104  26.391  29.780  1.00  0.00     0.039 A 
ATOM     68  C   UNL A   1      44.688  27.211  30.752  1.00  0.00    -0.049 A 
ATOM     69  C   UNL A   1      42.973  26.806  29.099  1.00  0.00    -0.049 A 
ATOM     70  C   UNL A   1      44.095  28.445  31.013  1.00  0.00    -0.053 A 
ATOM     71  H   UNL A   1      45.535  26.912  31.260  1.00  0.00     0.063 H 
ATOM     72  C   UNL A   1      42.664  28.125  29.086  1.00  0.00    -0.053 A 
ATOM     73  H   UNL A   1      42.376  26.122  28.610  1.00  0.00     0.063 H 
ATOM     74  C   UNL A   1      43.059  28.873  30.175  1.00  0.00    -0.014 A 
ATOM     75  H   UNL A   1      44.412  29.028  31.805  1.00  0.00     0.063 H 
ATOM     76  H   UNL A   1      42.154  28.551  28.296  1.00  0.00     0.063 H 
BRANCH  74  77
ATOM     77  C   UNL A   1      42.350  30.127  30.320  1.00  0.00     0.031 A 
ATOM     78  C   UNL A   1      43.074  31.273  29.735  1.00  0.00     0.074 A 
ATOM     79  C   UNL A   1      41.035  30.161  30.638  1.00  0.00     0.049 A 
ATOM     80  N   UNL A   1      43.651  32.234  30.370  1.00  0.00    -0.248 NA
ATOM     81  C   UNL A   1      43.368  31.247  28.292  1.00  0.00    -0.034 C 
ATOM     82  C   UNL A   1      40.110  29.039  30.861  1.00  0.00    -0.036 A 
ATOM     83  N   UNL A   1      40.207  31.238  30.701  1.00  0.00    -0.354 N 
ATOM     84  C   UNL A   1      44.179  33.062  29.387  1.00  0.00     0.074 A 
ATOM     85  C   UNL A   1      44.208  32.278  28.183  1.00  0.00    -0.034 C 
ATOM     86  H   UNL A   1      43.018  30.605  27.564  1.00  0.00     0.065 H 
ATOM     87  C   UNL A   1      38.833  29.481  30.804  1.00  0.00    -0.036 A 
ATOM     88  H   UNL A   1      40.394  28.061  31.035  1.00  0.00     0.065 H 
ATOM     89  C   UNL A   1      38.846  30.926  30.684  1.00  0.00     0.049 A 
ATOM     90  H   UNL A   1      40.540  32.164  30.754  1.00  0.00     0.167 HD
ATOM     91  C   UNL A   1      44.253  34.408  29.582  1.00  0.00     0.037 A 
ATOM     92  H   UNL A   1      44.794  32.480  27.357  1.00  0.00     0.065 H 
ATOM     93  H   UNL A   1      37.989  28.889  30.840  1.00  0.00     0.065 H 
ATOM     94  C   UNL A   1      37.842  31.823  30.503  1.00  0.00     0.037 A 
ATOM     95  C   UNL A   1      44.040  34.729  30.976  1.00  0.00     0.049 A 
ATOM     96  C   UNL A   1      38.413  33.172  30.791  1.00  0.00     0.074 A 
ATOM     97  C   UNL A   1      44.649  34.337  32.156  1.00  0.00    -0.036 A 
ATOM     98  N   UNL A   1      42.806  35.215  31.342  1.00  0.00    -0.354 N 
ATOM     99  N   UNL A   1      38.808  33.546  31.980  1.00  0.00    -0.248 NA
ATOM    100  C   UNL A   1      39.034  33.880  29.678  1.00  0.00    -0.034 C 
ATOM    101  C   UNL A   1      43.570  34.115  33.065  1.00  0.00    -0.036 A 
ATOM    102  H   UNL A   1      45.659  34.231  32.338  1.00  0.00     0.065 H 
ATOM    103  C   UNL A   1      42.387  34.490  32.430  1.00  0.00     0.049 A 
ATOM    104  H   UNL A   1      42.314  35.946  30.905  1.00  0.00     0.167 HD
ATOM    105  C   UNL A   1      40.014  34.200  31.762  1.00  0.00     0.074 A 
ATOM    106  C   UNL A   1      40.075  34.420  30.318  1.00  0.00    -0.034 C 
ATOM    107  H   UNL A   1      38.751  33.946  28.687  1.00  0.00     0.065 H 
ATOM    108  H   UNL A   1      43.653  33.742  34.024  1.00  0.00     0.065 H 
ATOM    109  C   UNL A   1      40.996  34.221  32.713  1.00  0.00     0.037 A 
ATOM    110  H   UNL A   1      40.837  34.933  29.846  1.00  0.00     0.065 H 
BRANCH  91 111
ATOM    111  C   UNL A   1      44.104  35.448  28.494  1.00  0.00     0.064 A 
ATOM    112  C   UNL A   1      45.210  36.271  28.203  1.00  0.00     0.173 A 
ATOM    113  C   UNL A   1      42.875  35.871  27.939  1.00  0.00     0.173 A 
ATOM    114  F   UNL A   1      46.430  35.968  28.672  1.00  0.00    -0.203 F 
ATOM    115  C   UNL A   1      45.075  37.476  27.508  1.00  0.00     0.198 A 
ATOM    116  C   UNL A   1      42.755  37.045  27.199  1.00  0.00     0.198 A 
ATOM    117  F   UNL A   1      41.719  35.242  28.172  1.00  0.00    -0.203 F 
ATOM    118  F   UNL A   1      46.130  38.290  27.381  1.00  0.00    -0.200 F 
ATOM    119  C   UNL A   1      43.844  37.867  27.017  1.00  0.00     0.200 A 
ATOM    120  F   UNL A   1      41.549  37.409  26.740  1.00  0.00    -0.200 F 
ATOM    121  F   UNL A   1      43.696  39.051  26.410  1.00  0.00    -0.200 F 
ENDBRANCH  91 111
BRANCH  94 122
ATOM    122  C   UNL A   1      36.559  31.630  29.777  1.00  0.00     0.064 A 
ATOM    123  C   UNL A   1      35.498  32.544  29.903  1.00  0.00     0.173 A 
ATOM    124  C   UNL A   1      36.442  30.687  28.735  1.00  0.00     0.173 A 
ATOM    125  F   UNL A   1      35.547  33.510  30.833  1.00  0.00    -0.203 F 
ATOM    126  C   UNL A   1      34.399  32.524  29.032  1.00  0.00     0.198 A 
ATOM    127  C   UNL A   1      35.344  30.664  27.872  1.00  0.00     0.198 A 
ATOM    128  F   UNL A   1      37.437  29.829  28.470  1.00  0.00    -0.203 F 
ATOM    129  F   UNL A   1      33.435  33.449  29.149  1.00  0.00    -0.200 F 
ATOM    130  C   UNL A   1      34.329  31.590  28.012  1.00  0.00     0.200 A 
ATOM    131  F   UNL A   1      35.312  29.780  26.865  1.00  0.00    -0.200 F 
ATOM    132  F   UNL A   1      33.309  31.607  27.143  1.00  0.00    -0.200 F 
ENDBRANCH  94 122
BRANCH 109 133
ATOM    133  C   UNL A   1      40.676  33.723  34.096  1.00  0.00     0.064 A 
ATOM    134  C   UNL A   1      40.882  32.402  34.534  1.00  0.00     0.173 A 
ATOM    135  C   UNL A   1      40.310  34.666  35.065  1.00  0.00     0.173 A 
ATOM    136  F   UNL A   1      41.339  31.461  33.699  1.00  0.00    -0.203 F 
ATOM    137  C   UNL A   1      40.684  32.039  35.866  1.00  0.00     0.198 A 
ATOM    138  C   UNL A   1      40.152  34.311  36.402  1.00  0.00     0.198 A 
ATOM    139  F   UNL A   1      40.156  35.955  34.723  1.00  0.00    -0.203 F 
ATOM    140  F   UNL A   1      40.879  30.769  36.253  1.00  0.00    -0.200 F 
ATOM    141  C   UNL A   1      40.328  32.996  36.801  1.00  0.00     0.200 A 
ATOM    142  F   UNL A   1      39.861  35.253  37.310  1.00  0.00    -0.200 F 
ATOM    143  F   UNL A   1      40.180  32.659  38.089  1.00  0.00    -0.200 F 
ENDBRANCH 109 133
ENDBRANCH  74  77
ENDBRANCH  64  67
ENDBRANCH  60  63
ENDBRANCH  57  60
ENDBRANCH  54  57
ENDBRANCH  51  54
ENDBRANCH   1  51
TORSDOF 18
ENDMDL
