MODEL 1
REMARK VINA RESULT:     -11.3      0.000      0.000
REMARK SMILES O=C(CNC(=O)CNC(=O)OCc1ccccc1)NCCCCCCNC(=O)c1ccc(-c2c3nc(c(-c4c(F)c(F)c(F)c(F)c4F)c4ccc([nH]4)c(-c4c(F)c(F)c(F)c(F)c4F)c4nc(c(-c5c(F)c(F)c(F)c(F)c5F)c5ccc2[nH]5)C=C4)C=C3)cc1
REMARK SMILES IDX 20 1 19 4 1 5 2 6 3 8 4 11 5 12 6 14 7 15 8 18 9 19 10 21
REMARK SMILES IDX 11 22 12 23 13 26 14 27 18 28 15 29 17 31 16 33 21 37 22 40
REMARK SMILES IDX 23 43 24 46 25 49 26 52 27 53 28 55 29 56 30 57 91 58 31 59
REMARK SMILES IDX 90 61 32 63 33 66 34 67 84 68 35 69 89 70 83 71 85 72 36 73
REMARK SMILES IDX 88 74 82 76 81 78 37 80 69 83 49 84 68 85 50 86 53 87 67 88
REMARK SMILES IDX 86 89 51 90 52 92 66 94 87 95 54 98 38 100 39 101 47 102
REMARK SMILES IDX 40 103 41 104 45 105 48 106 42 107 43 108 46 109 44 110
REMARK SMILES IDX 70 111 71 112 79 113 72 114 73 115 77 116 80 117 74 118
REMARK SMILES IDX 75 119 78 120 76 121 55 122 56 123 64 124 57 125 58 126
REMARK SMILES IDX 62 127 65 128 59 129 60 130 63 131 61 132
REMARK H PARENT 20 2 20 3 19 7 3 9 3 10 4 13 7 16 7 17 8 20 12 24 12 25 14 30
REMARK H PARENT 18 32 15 34 17 35 16 36 21 38 21 39 22 41 22 42 23 44 23 45
REMARK H PARENT 24 47 24 48 25 50 25 51 26 54 30 60 91 62 31 64 90 65 89 75
REMARK H PARENT 83 77 85 79 88 81 82 82 50 91 53 93 86 96 51 97 87 99
REMARK Flexibility Score: inf
ROOT
ATOM      1  C   UNL A   1      33.550  28.225  25.493  1.00  0.00     0.017 C 
ATOM      2  H   UNL A   1      34.039  27.745  24.671  1.00  0.00     0.049 H 
ATOM      3  H   UNL A   1      34.203  28.362  26.328  1.00  0.00     0.049 H 
ENDROOT
BRANCH   1   4
ATOM      4  N   UNL A   1      32.458  27.378  25.937  1.00  0.00    -0.355 N 
ATOM      5  O   UNL A   1      32.516  25.946  24.144  1.00  0.00    -0.273 OA
ATOM      6  C   UNL A   1      32.049  26.266  25.234  1.00  0.00     0.239 C 
ATOM      7  H   UNL A   1      31.993  27.606  26.774  1.00  0.00     0.163 HD
BRANCH   6   8
ATOM      8  C   UNL A   1      30.893  25.472  25.863  1.00  0.00     0.097 C 
ATOM      9  H   UNL A   1      30.421  24.903  25.089  1.00  0.00     0.059 H 
ATOM     10  H   UNL A   1      30.242  26.193  26.312  1.00  0.00     0.059 H 
BRANCH   8  11
ATOM     11  N   UNL A   1      31.286  24.555  26.927  1.00  0.00    -0.346 N 
ATOM     12  C   UNL A   1      31.705  23.259  26.839  1.00  0.00     0.239 C 
ATOM     13  H   UNL A   1      31.243  24.925  27.839  1.00  0.00     0.164 HD
ATOM     14  O   UNL A   1      31.986  22.667  27.883  1.00  0.00    -0.273 OA
BRANCH  12  15
ATOM     15  C   UNL A   1      31.737  22.550  25.485  1.00  0.00     0.100 C 
ATOM     16  H   UNL A   1      32.621  22.823  24.948  1.00  0.00     0.060 H 
ATOM     17  H   UNL A   1      30.892  22.827  24.891  1.00  0.00     0.060 H 
BRANCH  15  18
ATOM     18  N   UNL A   1      31.737  21.126  25.751  1.00  0.00    -0.312 N 
ATOM     19  C   UNL A   1      32.453  20.179  25.095  1.00  0.00     0.407 C 
ATOM     20  H   UNL A   1      31.157  20.814  26.482  1.00  0.00     0.167 HD
ATOM     21  O   UNL A   1      32.117  19.003  25.160  1.00  0.00    -0.225 OA
BRANCH  19  22
ATOM     22  O   UNL A   1      33.496  20.665  24.386  1.00  0.00    -0.445 OA
BRANCH  22  23
ATOM     23  C   UNL A   1      34.797  20.322  24.895  1.00  0.00     0.118 C 
ATOM     24  H   UNL A   1      35.257  19.639  24.212  1.00  0.00     0.076 H 
ATOM     25  H   UNL A   1      34.651  19.893  25.864  1.00  0.00     0.076 H 
BRANCH  23  26
ATOM     26  C   UNL A   1      35.713  21.514  25.070  1.00  0.00    -0.011 A 
ATOM     27  C   UNL A   1      37.091  21.341  25.253  1.00  0.00    -0.056 A 
ATOM     28  C   UNL A   1      35.199  22.819  25.097  1.00  0.00    -0.056 A 
ATOM     29  C   UNL A   1      37.925  22.444  25.460  1.00  0.00    -0.062 A 
ATOM     30  H   UNL A   1      37.496  20.391  25.234  1.00  0.00     0.063 H 
ATOM     31  C   UNL A   1      36.032  23.922  25.282  1.00  0.00    -0.062 A 
ATOM     32  H   UNL A   1      34.184  22.967  24.978  1.00  0.00     0.063 H 
ATOM     33  C   UNL A   1      37.397  23.734  25.469  1.00  0.00    -0.062 A 
ATOM     34  H   UNL A   1      38.938  22.303  25.607  1.00  0.00     0.062 H 
ATOM     35  H   UNL A   1      35.638  24.876  25.281  1.00  0.00     0.062 H 
ATOM     36  H   UNL A   1      38.017  24.546  25.615  1.00  0.00     0.062 H 
ENDBRANCH  23  26
ENDBRANCH  22  23
ENDBRANCH  19  22
ENDBRANCH  15  18
ENDBRANCH  12  15
ENDBRANCH   8  11
ENDBRANCH   6   8
ENDBRANCH   1   4
BRANCH   1  37
ATOM     37  C   UNL A   1      33.095  29.614  25.042  1.00  0.00    -0.036 C 
ATOM     38  H   UNL A   1      33.216  29.675  23.981  1.00  0.00     0.028 H 
ATOM     39  H   UNL A   1      33.700  30.314  25.581  1.00  0.00     0.028 H 
BRANCH  37  40
ATOM     40  C   UNL A   1      31.640  29.962  25.376  1.00  0.00    -0.052 C 
ATOM     41  H   UNL A   1      31.086  29.047  25.409  1.00  0.00     0.027 H 
ATOM     42  H   UNL A   1      31.326  30.641  24.610  1.00  0.00     0.027 H 
BRANCH  40  43
ATOM     43  C   UNL A   1      31.402  30.698  26.695  1.00  0.00    -0.052 C 
ATOM     44  H   UNL A   1      32.171  30.405  27.378  1.00  0.00     0.027 H 
ATOM     45  H   UNL A   1      30.415  30.424  27.006  1.00  0.00     0.027 H 
BRANCH  43  46
ATOM     46  C   UNL A   1      31.401  32.224  26.617  1.00  0.00    -0.036 C 
ATOM     47  H   UNL A   1      30.563  32.582  27.176  1.00  0.00     0.028 H 
ATOM     48  H   UNL A   1      31.359  32.463  25.574  1.00  0.00     0.028 H 
BRANCH  46  49
ATOM     49  C   UNL A   1      32.653  32.914  27.153  1.00  0.00     0.018 C 
ATOM     50  H   UNL A   1      33.383  32.953  26.371  1.00  0.00     0.049 H 
ATOM     51  H   UNL A   1      32.996  32.348  27.993  1.00  0.00     0.049 H 
BRANCH  49  52
ATOM     52  N   UNL A   1      32.399  34.270  27.617  1.00  0.00    -0.352 N 
ATOM     53  C   UNL A   1      32.986  34.989  28.629  1.00  0.00     0.251 C 
ATOM     54  H   UNL A   1      31.693  34.749  27.125  1.00  0.00     0.163 HD
ATOM     55  O   UNL A   1      32.526  36.084  28.944  1.00  0.00    -0.269 OA
BRANCH  53  56
ATOM     56  C   UNL A   1      34.150  34.450  29.370  1.00  0.00     0.039 A 
ATOM     57  C   UNL A   1      33.925  33.827  30.602  1.00  0.00    -0.049 A 
ATOM     58  C   UNL A   1      35.454  34.576  28.885  1.00  0.00    -0.049 A 
ATOM     59  C   UNL A   1      34.994  33.269  31.309  1.00  0.00    -0.053 A 
ATOM     60  H   UNL A   1      32.970  33.779  30.989  1.00  0.00     0.063 H 
ATOM     61  C   UNL A   1      36.512  33.962  29.558  1.00  0.00    -0.053 A 
ATOM     62  H   UNL A   1      35.636  35.124  28.029  1.00  0.00     0.063 H 
ATOM     63  C   UNL A   1      36.291  33.299  30.774  1.00  0.00    -0.014 A 
ATOM     64  H   UNL A   1      34.828  32.833  32.229  1.00  0.00     0.063 H 
ATOM     65  H   UNL A   1      37.463  33.997  29.158  1.00  0.00     0.063 H 
BRANCH  63  66
ATOM     66  C   UNL A   1      37.413  32.609  31.463  1.00  0.00     0.031 A 
ATOM     67  C   UNL A   1      38.113  31.444  30.823  1.00  0.00     0.074 A 
ATOM     68  C   UNL A   1      37.768  33.006  32.700  1.00  0.00     0.049 A 
ATOM     69  N   UNL A   1      39.106  30.722  31.280  1.00  0.00    -0.248 NA
ATOM     70  C   UNL A   1      37.618  31.016  29.507  1.00  0.00    -0.034 C 
ATOM     71  C   UNL A   1      37.129  34.084  33.456  1.00  0.00    -0.036 A 
ATOM     72  N   UNL A   1      38.751  32.547  33.541  1.00  0.00    -0.354 N 
ATOM     73  C   UNL A   1      39.344  29.750  30.319  1.00  0.00     0.074 A 
ATOM     74  C   UNL A   1      38.364  29.946  29.272  1.00  0.00    -0.034 C 
ATOM     75  H   UNL A   1      36.882  31.439  28.919  1.00  0.00     0.065 H 
ATOM     76  C   UNL A   1      37.757  34.226  34.634  1.00  0.00    -0.036 A 
ATOM     77  H   UNL A   1      36.325  34.645  33.136  1.00  0.00     0.065 H 
ATOM     78  C   UNL A   1      38.823  33.233  34.729  1.00  0.00     0.049 A 
ATOM     79  H   UNL A   1      39.349  31.798  33.315  1.00  0.00     0.167 HD
ATOM     80  C   UNL A   1      40.306  28.796  30.300  1.00  0.00     0.037 A 
ATOM     81  H   UNL A   1      38.257  29.330  28.450  1.00  0.00     0.065 H 
ATOM     82  H   UNL A   1      37.524  34.925  35.356  1.00  0.00     0.065 H 
ATOM     83  C   UNL A   1      39.657  33.082  35.774  1.00  0.00     0.037 A 
ATOM     84  C   UNL A   1      41.300  28.620  31.327  1.00  0.00     0.049 A 
ATOM     85  C   UNL A   1      40.724  32.025  35.722  1.00  0.00     0.074 A 
ATOM     86  C   UNL A   1      42.368  27.740  31.354  1.00  0.00    -0.036 A 
ATOM     87  N   UNL A   1      41.342  29.335  32.515  1.00  0.00    -0.354 N 
ATOM     88  N   UNL A   1      40.995  31.170  34.767  1.00  0.00    -0.248 NA
ATOM     89  C   UNL A   1      41.604  31.918  36.894  1.00  0.00    -0.034 C 
ATOM     90  C   UNL A   1      43.032  27.892  32.577  1.00  0.00    -0.036 A 
ATOM     91  H   UNL A   1      42.630  27.084  30.601  1.00  0.00     0.065 H 
ATOM     92  C   UNL A   1      42.403  28.897  33.294  1.00  0.00     0.049 A 
ATOM     93  H   UNL A   1      40.713  30.049  32.767  1.00  0.00     0.167 HD
ATOM     94  C   UNL A   1      42.087  30.437  35.211  1.00  0.00     0.074 A 
ATOM     95  C   UNL A   1      42.440  30.961  36.515  1.00  0.00    -0.034 C 
ATOM     96  H   UNL A   1      41.578  32.447  37.780  1.00  0.00     0.065 H 
ATOM     97  H   UNL A   1      43.851  27.349  32.891  1.00  0.00     0.065 H 
ATOM     98  C   UNL A   1      42.738  29.421  34.594  1.00  0.00     0.037 A 
ATOM     99  H   UNL A   1      43.240  30.632  37.077  1.00  0.00     0.065 H 
BRANCH  80 100
ATOM    100  C   UNL A   1      40.329  27.862  29.124  1.00  0.00     0.064 A 
ATOM    101  C   UNL A   1      41.107  28.129  27.988  1.00  0.00     0.173 A 
ATOM    102  C   UNL A   1      39.588  26.670  29.147  1.00  0.00     0.173 A 
ATOM    103  F   UNL A   1      41.826  29.259  27.912  1.00  0.00    -0.203 F 
ATOM    104  C   UNL A   1      41.117  27.254  26.904  1.00  0.00     0.198 A 
ATOM    105  C   UNL A   1      39.622  25.785  28.074  1.00  0.00     0.198 A 
ATOM    106  F   UNL A   1      38.834  26.363  30.213  1.00  0.00    -0.203 F 
ATOM    107  F   UNL A   1      41.828  27.555  25.809  1.00  0.00    -0.200 F 
ATOM    108  C   UNL A   1      40.379  26.081  26.950  1.00  0.00     0.200 A 
ATOM    109  F   UNL A   1      38.918  24.645  28.124  1.00  0.00    -0.200 F 
ATOM    110  F   UNL A   1      40.392  25.239  25.907  1.00  0.00    -0.200 F 
ENDBRANCH  80 100
BRANCH  83 111
ATOM    111  C   UNL A   1      39.545  33.992  36.942  1.00  0.00     0.064 A 
ATOM    112  C   UNL A   1      38.790  33.624  38.064  1.00  0.00     0.173 A 
ATOM    113  C   UNL A   1      40.191  35.236  36.966  1.00  0.00     0.173 A 
ATOM    114  F   UNL A   1      38.137  32.453  38.075  1.00  0.00    -0.203 F 
ATOM    115  C   UNL A   1      38.676  34.471  39.163  1.00  0.00     0.198 A 
ATOM    116  C   UNL A   1      40.095  36.073  38.075  1.00  0.00     0.198 A 
ATOM    117  F   UNL A   1      40.927  35.631  35.917  1.00  0.00    -0.203 F 
ATOM    118  F   UNL A   1      37.920  34.111  40.209  1.00  0.00    -0.200 F 
ATOM    119  C   UNL A   1      39.334  35.692  39.170  1.00  0.00     0.200 A 
ATOM    120  F   UNL A   1      40.741  37.247  38.085  1.00  0.00    -0.200 F 
ATOM    121  F   UNL A   1      39.229  36.504  40.231  1.00  0.00    -0.200 F 
ENDBRANCH  83 111
BRANCH  98 122
ATOM    122  C   UNL A   1      43.906  28.820  35.319  1.00  0.00     0.064 A 
ATOM    123  C   UNL A   1      45.215  29.278  35.106  1.00  0.00     0.173 A 
ATOM    124  C   UNL A   1      43.714  27.785  36.247  1.00  0.00     0.173 A 
ATOM    125  F   UNL A   1      45.452  30.253  34.217  1.00  0.00    -0.203 F 
ATOM    126  C   UNL A   1      46.291  28.702  35.774  1.00  0.00     0.198 A 
ATOM    127  C   UNL A   1      44.790  27.229  36.933  1.00  0.00     0.198 A 
ATOM    128  F   UNL A   1      42.481  27.314  36.489  1.00  0.00    -0.203 F 
ATOM    129  F   UNL A   1      47.538  29.119  35.516  1.00  0.00    -0.200 F 
ATOM    130  C   UNL A   1      46.079  27.682  36.690  1.00  0.00     0.200 A 
ATOM    131  F   UNL A   1      44.581  26.251  37.825  1.00  0.00    -0.200 F 
ATOM    132  F   UNL A   1      47.117  27.127  37.331  1.00  0.00    -0.200 F 
ENDBRANCH  98 122
ENDBRANCH  63  66
ENDBRANCH  53  56
ENDBRANCH  49  52
ENDBRANCH  46  49
ENDBRANCH  43  46
ENDBRANCH  40  43
ENDBRANCH  37  40
ENDBRANCH   1  37
TORSDOF 19
ENDMDL
MODEL 2
REMARK VINA RESULT:     -10.6      7.947     13.310
REMARK SMILES O=C(CNC(=O)CNC(=O)OCc1ccccc1)NCCCCCCNC(=O)c1ccc(-c2c3nc(c(-c4c(F)c(F)c(F)c(F)c4F)c4ccc([nH]4)c(-c4c(F)c(F)c(F)c(F)c4F)c4nc(c(-c5c(F)c(F)c(F)c(F)c5F)c5ccc2[nH]5)C=C4)C=C3)cc1
REMARK SMILES IDX 20 1 19 4 1 5 2 6 3 8 4 11 5 12 6 14 7 15 8 18 9 19 10 21
REMARK SMILES IDX 11 22 12 23 13 26 14 27 18 28 15 29 17 31 16 33 21 37 22 40
REMARK SMILES IDX 23 43 24 46 25 49 26 52 27 53 28 55 29 56 30 57 91 58 31 59
REMARK SMILES IDX 90 61 32 63 33 66 34 67 84 68 35 69 89 70 83 71 85 72 36 73
REMARK SMILES IDX 88 74 82 76 81 78 37 80 69 83 49 84 68 85 50 86 53 87 67 88
REMARK SMILES IDX 86 89 51 90 52 92 66 94 87 95 54 98 38 100 39 101 47 102
REMARK SMILES IDX 40 103 41 104 45 105 48 106 42 107 43 108 46 109 44 110
REMARK SMILES IDX 70 111 71 112 79 113 72 114 73 115 77 116 80 117 74 118
REMARK SMILES IDX 75 119 78 120 76 121 55 122 56 123 64 124 57 125 58 126
REMARK SMILES IDX 62 127 65 128 59 129 60 130 63 131 61 132
REMARK H PARENT 20 2 20 3 19 7 3 9 3 10 4 13 7 16 7 17 8 20 12 24 12 25 14 30
REMARK H PARENT 18 32 15 34 17 35 16 36 21 38 21 39 22 41 22 42 23 44 23 45
REMARK H PARENT 24 47 24 48 25 50 25 51 26 54 30 60 91 62 31 64 90 65 89 75
REMARK H PARENT 83 77 85 79 88 81 82 82 50 91 53 93 86 96 51 97 87 99
REMARK Flexibility Score: inf
ROOT
ATOM      1  C   UNL A   1      45.621  19.118  35.763  1.00  0.00     0.017 C 
ATOM      2  H   UNL A   1      44.595  19.265  36.032  1.00  0.00     0.049 H 
ATOM      3  H   UNL A   1      45.781  18.180  35.276  1.00  0.00     0.049 H 
ENDROOT
BRANCH   1   4
ATOM      4  N   UNL A   1      46.419  19.114  36.975  1.00  0.00    -0.355 N 
ATOM      5  O   UNL A   1      44.919  17.932  38.249  1.00  0.00    -0.273 OA
ATOM      6  C   UNL A   1      46.013  18.477  38.127  1.00  0.00     0.239 C 
ATOM      7  H   UNL A   1      47.283  19.584  36.974  1.00  0.00     0.163 HD
BRANCH   6   8
ATOM      8  C   UNL A   1      46.993  18.556  39.309  1.00  0.00     0.097 C 
ATOM      9  H   UNL A   1      47.897  19.012  38.961  1.00  0.00     0.059 H 
ATOM     10  H   UNL A   1      47.132  17.552  39.652  1.00  0.00     0.059 H 
BRANCH   8  11
ATOM     11  N   UNL A   1      46.511  19.318  40.456  1.00  0.00    -0.346 N 
ATOM     12  C   UNL A   1      46.085  18.871  41.673  1.00  0.00     0.239 C 
ATOM     13  H   UNL A   1      46.490  20.295  40.333  1.00  0.00     0.164 HD
ATOM     14  O   UNL A   1      45.713  19.704  42.501  1.00  0.00    -0.273 OA
BRANCH  12  15
ATOM     15  C   UNL A   1      45.996  17.370  41.953  1.00  0.00     0.100 C 
ATOM     16  H   UNL A   1      46.933  16.900  41.740  1.00  0.00     0.060 H 
ATOM     17  H   UNL A   1      45.250  16.912  41.338  1.00  0.00     0.060 H 
BRANCH  15  18
ATOM     18  N   UNL A   1      45.672  17.219  43.357  1.00  0.00    -0.312 N 
ATOM     19  C   UNL A   1      44.725  16.404  43.887  1.00  0.00     0.407 C 
ATOM     20  H   UNL A   1      46.191  17.763  43.991  1.00  0.00     0.167 HD
ATOM     21  O   UNL A   1      44.301  16.613  45.016  1.00  0.00    -0.225 OA
BRANCH  19  22
ATOM     22  O   UNL A   1      44.316  15.418  43.059  1.00  0.00    -0.445 OA
BRANCH  22  23
ATOM     23  C   UNL A   1      42.921  15.078  43.154  1.00  0.00     0.118 C 
ATOM     24  H   UNL A   1      42.440  15.370  42.244  1.00  0.00     0.076 H 
ATOM     25  H   UNL A   1      42.530  15.594  44.005  1.00  0.00     0.076 H 
BRANCH  23  26
ATOM     26  C   UNL A   1      42.671  13.602  43.376  1.00  0.00    -0.011 A 
ATOM     27  C   UNL A   1      43.627  12.798  44.010  1.00  0.00    -0.056 A 
ATOM     28  C   UNL A   1      41.493  12.993  42.914  1.00  0.00    -0.056 A 
ATOM     29  C   UNL A   1      43.409  11.425  44.171  1.00  0.00    -0.062 A 
ATOM     30  H   UNL A   1      44.500  13.221  44.362  1.00  0.00     0.063 H 
ATOM     31  C   UNL A   1      41.265  11.630  43.093  1.00  0.00    -0.062 A 
ATOM     32  H   UNL A   1      40.782  13.567  42.432  1.00  0.00     0.063 H 
ATOM     33  C   UNL A   1      42.226  10.843  43.718  1.00  0.00    -0.062 A 
ATOM     34  H   UNL A   1      44.127  10.842  44.629  1.00  0.00     0.062 H 
ATOM     35  H   UNL A   1      40.385  11.204  42.763  1.00  0.00     0.062 H 
ATOM     36  H   UNL A   1      42.065   9.832  43.846  1.00  0.00     0.062 H 
ENDBRANCH  23  26
ENDBRANCH  22  23
ENDBRANCH  19  22
ENDBRANCH  15  18
ENDBRANCH  12  15
ENDBRANCH   8  11
ENDBRANCH   6   8
ENDBRANCH   1   4
BRANCH   1  37
ATOM     37  C   UNL A   1      46.024  20.213  34.774  1.00  0.00    -0.036 C 
ATOM     38  H   UNL A   1      45.755  19.888  33.791  1.00  0.00     0.028 H 
ATOM     39  H   UNL A   1      47.077  20.356  34.901  1.00  0.00     0.028 H 
BRANCH  37  40
ATOM     40  C   UNL A   1      45.375  21.581  35.018  1.00  0.00    -0.052 C 
ATOM     41  H   UNL A   1      45.206  21.678  36.070  1.00  0.00     0.027 H 
ATOM     42  H   UNL A   1      44.485  21.583  34.425  1.00  0.00     0.027 H 
BRANCH  40  43
ATOM     43  C   UNL A   1      46.172  22.803  34.560  1.00  0.00    -0.052 C 
ATOM     44  H   UNL A   1      45.680  23.675  34.936  1.00  0.00     0.027 H 
ATOM     45  H   UNL A   1      46.202  22.746  33.492  1.00  0.00     0.027 H 
BRANCH  43  46
ATOM     46  C   UNL A   1      47.631  22.855  35.012  1.00  0.00    -0.036 C 
ATOM     47  H   UNL A   1      48.218  22.329  34.289  1.00  0.00     0.028 H 
ATOM     48  H   UNL A   1      47.650  22.416  35.988  1.00  0.00     0.028 H 
BRANCH  46  49
ATOM     49  C   UNL A   1      48.224  24.253  35.171  1.00  0.00     0.018 C 
ATOM     50  H   UNL A   1      47.762  24.904  34.458  1.00  0.00     0.049 H 
ATOM     51  H   UNL A   1      49.279  24.173  35.015  1.00  0.00     0.049 H 
BRANCH  49  52
ATOM     52  N   UNL A   1      48.023  24.808  36.501  1.00  0.00    -0.352 N 
ATOM     53  C   UNL A   1      47.156  25.779  36.938  1.00  0.00     0.251 C 
ATOM     54  H   UNL A   1      48.601  24.424  37.201  1.00  0.00     0.163 HD
ATOM     55  O   UNL A   1      47.242  26.198  38.090  1.00  0.00    -0.269 OA
BRANCH  53  56
ATOM     56  C   UNL A   1      46.136  26.354  36.031  1.00  0.00     0.039 A 
ATOM     57  C   UNL A   1      44.879  25.743  35.968  1.00  0.00    -0.049 A 
ATOM     58  C   UNL A   1      46.408  27.463  35.225  1.00  0.00    -0.049 A 
ATOM     59  C   UNL A   1      43.879  26.283  35.156  1.00  0.00    -0.053 A 
ATOM     60  H   UNL A   1      44.691  24.892  36.521  1.00  0.00     0.063 H 
ATOM     61  C   UNL A   1      45.391  28.041  34.466  1.00  0.00    -0.053 A 
ATOM     62  H   UNL A   1      47.363  27.854  35.192  1.00  0.00     0.063 H 
ATOM     63  C   UNL A   1      44.114  27.460  34.428  1.00  0.00    -0.014 A 
ATOM     64  H   UNL A   1      42.962  25.815  35.092  1.00  0.00     0.063 H 
ATOM     65  H   UNL A   1      45.578  28.902  33.929  1.00  0.00     0.063 H 
BRANCH  63  66
ATOM     66  C   UNL A   1      43.022  28.104  33.653  1.00  0.00     0.031 A 
ATOM     67  C   UNL A   1      42.832  27.804  32.193  1.00  0.00     0.074 A 
ATOM     68  C   UNL A   1      42.228  29.007  34.260  1.00  0.00     0.049 A 
ATOM     69  N   UNL A   1      41.936  28.277  31.361  1.00  0.00    -0.248 NA
ATOM     70  C   UNL A   1      43.786  26.871  31.578  1.00  0.00    -0.034 C 
ATOM     71  C   UNL A   1      42.346  29.430  35.656  1.00  0.00    -0.036 A 
ATOM     72  N   UNL A   1      41.166  29.733  33.781  1.00  0.00    -0.354 N 
ATOM     73  C   UNL A   1      42.227  27.711  30.127  1.00  0.00     0.074 A 
ATOM     74  C   UNL A   1      43.409  26.895  30.308  1.00  0.00    -0.034 C 
ATOM     75  H   UNL A   1      44.551  26.336  32.020  1.00  0.00     0.065 H 
ATOM     76  C   UNL A   1      41.375  30.315  35.930  1.00  0.00    -0.036 A 
ATOM     77  H   UNL A   1      43.062  29.102  36.323  1.00  0.00     0.065 H 
ATOM     78  C   UNL A   1      40.584  30.543  34.724  1.00  0.00     0.049 A 
ATOM     79  H   UNL A   1      40.851  29.677  32.849  1.00  0.00     0.167 HD
ATOM     80  C   UNL A   1      41.558  27.843  28.957  1.00  0.00     0.037 A 
ATOM     81  H   UNL A   1      43.896  26.398  29.546  1.00  0.00     0.065 H 
ATOM     82  H   UNL A   1      41.214  30.763  36.845  1.00  0.00     0.065 H 
ATOM     83  C   UNL A   1      39.528  31.372  34.630  1.00  0.00     0.037 A 
ATOM     84  C   UNL A   1      40.365  28.632  28.784  1.00  0.00     0.049 A 
ATOM     85  C   UNL A   1      38.795  31.490  33.323  1.00  0.00     0.074 A 
ATOM     86  C   UNL A   1      39.567  28.756  27.660  1.00  0.00    -0.036 A 
ATOM     87  N   UNL A   1      39.804  29.438  29.763  1.00  0.00    -0.354 N 
ATOM     88  N   UNL A   1      39.027  30.881  32.188  1.00  0.00    -0.248 NA
ATOM     89  C   UNL A   1      37.648  32.408  33.291  1.00  0.00    -0.034 C 
ATOM     90  C   UNL A   1      38.546  29.671  27.945  1.00  0.00    -0.036 A 
ATOM     91  H   UNL A   1      39.701  28.259  26.765  1.00  0.00     0.065 H 
ATOM     92  C   UNL A   1      38.683  30.085  29.260  1.00  0.00     0.049 A 
ATOM     93  H   UNL A   1      40.148  29.536  30.680  1.00  0.00     0.167 HD
ATOM     94  C   UNL A   1      38.046  31.324  31.310  1.00  0.00     0.074 A 
ATOM     95  C   UNL A   1      37.206  32.241  32.053  1.00  0.00    -0.034 C 
ATOM     96  H   UNL A   1      37.284  33.023  34.036  1.00  0.00     0.065 H 
ATOM     97  H   UNL A   1      37.815  29.984  27.288  1.00  0.00     0.065 H 
ATOM     98  C   UNL A   1      37.861  31.001  30.007  1.00  0.00     0.037 A 
ATOM     99  H   UNL A   1      36.368  32.704  31.668  1.00  0.00     0.065 H 
BRANCH  80 100
ATOM    100  C   UNL A   1      42.104  27.115  27.763  1.00  0.00     0.064 A 
ATOM    101  C   UNL A   1      43.036  27.712  26.901  1.00  0.00     0.173 A 
ATOM    102  C   UNL A   1      41.715  25.794  27.495  1.00  0.00     0.173 A 
ATOM    103  F   UNL A   1      43.434  28.976  27.107  1.00  0.00    -0.203 F 
ATOM    104  C   UNL A   1      43.533  27.024  25.796  1.00  0.00     0.198 A 
ATOM    105  C   UNL A   1      42.234  25.100  26.406  1.00  0.00     0.198 A 
ATOM    106  F   UNL A   1      40.832  25.174  28.293  1.00  0.00    -0.203 F 
ATOM    107  F   UNL A   1      44.384  27.632  24.957  1.00  0.00    -0.200 F 
ATOM    108  C   UNL A   1      43.136  25.718  25.552  1.00  0.00     0.200 A 
ATOM    109  F   UNL A   1      41.859  23.834  26.178  1.00  0.00    -0.200 F 
ATOM    110  F   UNL A   1      43.617  25.058  24.490  1.00  0.00    -0.200 F 
ENDBRANCH  80 100
BRANCH  83 111
ATOM    111  C   UNL A   1      39.071  32.121  35.828  1.00  0.00     0.064 A 
ATOM    112  C   UNL A   1      38.231  31.513  36.772  1.00  0.00     0.173 A 
ATOM    113  C   UNL A   1      39.466  33.445  36.059  1.00  0.00     0.173 A 
ATOM    114  F   UNL A   1      37.810  30.254  36.581  1.00  0.00    -0.203 F 
ATOM    115  C   UNL A   1      37.795  32.208  37.898  1.00  0.00     0.198 A 
ATOM    116  C   UNL A   1      39.048  34.131  37.197  1.00  0.00     0.198 A 
ATOM    117  F   UNL A   1      40.271  34.068  35.186  1.00  0.00    -0.203 F 
ATOM    118  F   UNL A   1      36.964  31.616  38.768  1.00  0.00    -0.200 F 
ATOM    119  C   UNL A   1      38.208  33.514  38.112  1.00  0.00     0.200 A 
ATOM    120  F   UNL A   1      39.458  35.390  37.407  1.00  0.00    -0.200 F 
ATOM    121  F   UNL A   1      37.793  34.179  39.199  1.00  0.00    -0.200 F 
ENDBRANCH  83 111
BRANCH  98 122
ATOM    122  C   UNL A   1      36.695  31.635  29.308  1.00  0.00     0.064 A 
ATOM    123  C   UNL A   1      36.687  33.001  28.986  1.00  0.00     0.173 A 
ATOM    124  C   UNL A   1      35.578  30.868  28.945  1.00  0.00     0.173 A 
ATOM    125  F   UNL A   1      37.724  33.780  29.328  1.00  0.00    -0.203 F 
ATOM    126  C   UNL A   1      35.593  33.580  28.350  1.00  0.00     0.198 A 
ATOM    127  C   UNL A   1      34.496  31.445  28.286  1.00  0.00     0.198 A 
ATOM    128  F   UNL A   1      35.537  29.557  29.227  1.00  0.00    -0.203 F 
ATOM    129  F   UNL A   1      35.585  34.896  28.099  1.00  0.00    -0.200 F 
ATOM    130  C   UNL A   1      34.500  32.802  27.996  1.00  0.00     0.200 A 
ATOM    131  F   UNL A   1      33.446  30.690  27.935  1.00  0.00    -0.200 F 
ATOM    132  F   UNL A   1      33.446  33.362  27.386  1.00  0.00    -0.200 F 
ENDBRANCH  98 122
ENDBRANCH  63  66
ENDBRANCH  53  56
ENDBRANCH  49  52
ENDBRANCH  46  49
ENDBRANCH  43  46
ENDBRANCH  40  43
ENDBRANCH  37  40
ENDBRANCH   1  37
TORSDOF 19
ENDMDL
MODEL 3
REMARK VINA RESULT:     -10.5      5.416     10.314
REMARK SMILES O=C(CNC(=O)CNC(=O)OCc1ccccc1)NCCCCCCNC(=O)c1ccc(-c2c3nc(c(-c4c(F)c(F)c(F)c(F)c4F)c4ccc([nH]4)c(-c4c(F)c(F)c(F)c(F)c4F)c4nc(c(-c5c(F)c(F)c(F)c(F)c5F)c5ccc2[nH]5)C=C4)C=C3)cc1
REMARK SMILES IDX 20 1 19 4 1 5 2 6 3 8 4 11 5 12 6 14 7 15 8 18 9 19 10 21
REMARK SMILES IDX 11 22 12 23 13 26 14 27 18 28 15 29 17 31 16 33 21 37 22 40
REMARK SMILES IDX 23 43 24 46 25 49 26 52 27 53 28 55 29 56 30 57 91 58 31 59
REMARK SMILES IDX 90 61 32 63 33 66 34 67 84 68 35 69 89 70 83 71 85 72 36 73
REMARK SMILES IDX 88 74 82 76 81 78 37 80 69 83 49 84 68 85 50 86 53 87 67 88
REMARK SMILES IDX 86 89 51 90 52 92 66 94 87 95 54 98 38 100 39 101 47 102
REMARK SMILES IDX 40 103 41 104 45 105 48 106 42 107 43 108 46 109 44 110
REMARK SMILES IDX 70 111 71 112 79 113 72 114 73 115 77 116 80 117 74 118
REMARK SMILES IDX 75 119 78 120 76 121 55 122 56 123 64 124 57 125 58 126
REMARK SMILES IDX 62 127 65 128 59 129 60 130 63 131 61 132
REMARK H PARENT 20 2 20 3 19 7 3 9 3 10 4 13 7 16 7 17 8 20 12 24 12 25 14 30
REMARK H PARENT 18 32 15 34 17 35 16 36 21 38 21 39 22 41 22 42 23 44 23 45
REMARK H PARENT 24 47 24 48 25 50 25 51 26 54 30 60 91 62 31 64 90 65 89 75
REMARK H PARENT 83 77 85 79 88 81 82 82 50 91 53 93 86 96 51 97 87 99
REMARK Flexibility Score: inf
ROOT
ATOM      1  C   UNL A   1      34.215  22.701  26.112  1.00  0.00     0.017 C 
ATOM      2  H   UNL A   1      33.291  22.161  26.117  1.00  0.00     0.049 H 
ATOM      3  H   UNL A   1      34.253  23.445  26.879  1.00  0.00     0.049 H 
ENDROOT
BRANCH   1   4
ATOM      4  N   UNL A   1      34.338  23.389  24.840  1.00  0.00    -0.355 N 
ATOM      5  O   UNL A   1      32.438  24.657  25.065  1.00  0.00    -0.273 OA
ATOM      6  C   UNL A   1      33.446  24.356  24.431  1.00  0.00     0.239 C 
ATOM      7  H   UNL A   1      35.088  23.157  24.248  1.00  0.00     0.163 HD
BRANCH   6   8
ATOM      8  C   UNL A   1      33.742  24.996  23.065  1.00  0.00     0.097 C 
ATOM      9  H   UNL A   1      33.022  24.630  22.363  1.00  0.00     0.059 H 
ATOM     10  H   UNL A   1      34.748  24.726  22.818  1.00  0.00     0.059 H 
BRANCH   8  11
ATOM     11  N   UNL A   1      33.693  26.454  23.049  1.00  0.00    -0.346 N 
ATOM     12  C   UNL A   1      32.713  27.281  22.582  1.00  0.00     0.239 C 
ATOM     13  H   UNL A   1      34.482  26.906  23.429  1.00  0.00     0.164 HD
ATOM     14  O   UNL A   1      32.888  28.497  22.667  1.00  0.00    -0.273 OA
BRANCH  12  15
ATOM     15  C   UNL A   1      31.477  26.698  21.896  1.00  0.00     0.100 C 
ATOM     16  H   UNL A   1      31.764  25.917  21.224  1.00  0.00     0.060 H 
ATOM     17  H   UNL A   1      30.966  27.448  21.330  1.00  0.00     0.060 H 
BRANCH  15  18
ATOM     18  N   UNL A   1      30.622  26.167  22.939  1.00  0.00    -0.312 N 
ATOM     19  C   UNL A   1      29.935  26.881  23.865  1.00  0.00     0.407 C 
ATOM     20  H   UNL A   1      30.532  25.189  22.980  1.00  0.00     0.167 HD
ATOM     21  O   UNL A   1      29.544  26.338  24.890  1.00  0.00    -0.225 OA
BRANCH  19  22
ATOM     22  O   UNL A   1      29.772  28.186  23.550  1.00  0.00    -0.445 OA
BRANCH  22  23
ATOM     23  C   UNL A   1      28.441  28.559  23.153  1.00  0.00     0.118 C 
ATOM     24  H   UNL A   1      27.792  28.444  23.995  1.00  0.00     0.076 H 
ATOM     25  H   UNL A   1      28.167  27.922  22.338  1.00  0.00     0.076 H 
BRANCH  23  26
ATOM     26  C   UNL A   1      28.334  29.985  22.657  1.00  0.00    -0.011 A 
ATOM     27  C   UNL A   1      28.258  31.056  23.558  1.00  0.00    -0.056 A 
ATOM     28  C   UNL A   1      28.263  30.267  21.284  1.00  0.00    -0.056 A 
ATOM     29  C   UNL A   1      28.113  32.367  23.093  1.00  0.00    -0.062 A 
ATOM     30  H   UNL A   1      28.311  30.876  24.573  1.00  0.00     0.063 H 
ATOM     31  C   UNL A   1      28.140  31.575  20.819  1.00  0.00    -0.062 A 
ATOM     32  H   UNL A   1      28.304  29.490  20.605  1.00  0.00     0.063 H 
ATOM     33  C   UNL A   1      28.060  32.627  21.724  1.00  0.00    -0.062 A 
ATOM     34  H   UNL A   1      28.046  33.146  23.767  1.00  0.00     0.062 H 
ATOM     35  H   UNL A   1      28.109  31.764  19.805  1.00  0.00     0.062 H 
ATOM     36  H   UNL A   1      27.960  33.597  21.385  1.00  0.00     0.062 H 
ENDBRANCH  23  26
ENDBRANCH  22  23
ENDBRANCH  19  22
ENDBRANCH  15  18
ENDBRANCH  12  15
ENDBRANCH   8  11
ENDBRANCH   6   8
ENDBRANCH   1   4
BRANCH   1  37
ATOM     37  C   UNL A   1      35.354  21.716  26.382  1.00  0.00    -0.036 C 
ATOM     38  H   UNL A   1      35.114  21.168  27.270  1.00  0.00     0.028 H 
ATOM     39  H   UNL A   1      36.242  22.306  26.472  1.00  0.00     0.028 H 
BRANCH  37  40
ATOM     40  C   UNL A   1      35.622  20.708  25.258  1.00  0.00    -0.052 C 
ATOM     41  H   UNL A   1      34.899  20.879  24.488  1.00  0.00     0.027 H 
ATOM     42  H   UNL A   1      35.559  19.745  25.719  1.00  0.00     0.027 H 
BRANCH  40  43
ATOM     43  C   UNL A   1      37.008  20.762  24.614  1.00  0.00    -0.052 C 
ATOM     44  H   UNL A   1      37.449  21.704  24.862  1.00  0.00     0.027 H 
ATOM     45  H   UNL A   1      36.846  20.618  23.566  1.00  0.00     0.027 H 
BRANCH  43  46
ATOM     46  C   UNL A   1      37.982  19.663  25.037  1.00  0.00    -0.036 C 
ATOM     47  H   UNL A   1      38.368  19.206  24.150  1.00  0.00     0.028 H 
ATOM     48  H   UNL A   1      37.420  18.996  25.657  1.00  0.00     0.028 H 
BRANCH  46  49
ATOM     49  C   UNL A   1      39.168  20.119  25.883  1.00  0.00     0.018 C 
ATOM     50  H   UNL A   1      38.839  20.239  26.895  1.00  0.00     0.049 H 
ATOM     51  H   UNL A   1      39.525  21.038  25.467  1.00  0.00     0.049 H 
BRANCH  49  52
ATOM     52  N   UNL A   1      40.275  19.176  25.866  1.00  0.00    -0.352 N 
ATOM     53  C   UNL A   1      41.619  19.376  26.064  1.00  0.00     0.251 C 
ATOM     54  H   UNL A   1      40.019  18.242  25.684  1.00  0.00     0.163 HD
ATOM     55  O   UNL A   1      42.408  18.454  25.873  1.00  0.00    -0.269 OA
BRANCH  53  56
ATOM     56  C   UNL A   1      42.138  20.701  26.477  1.00  0.00     0.039 A 
ATOM     57  C   UNL A   1      42.512  21.610  25.482  1.00  0.00    -0.049 A 
ATOM     58  C   UNL A   1      42.290  21.046  27.823  1.00  0.00    -0.049 A 
ATOM     59  C   UNL A   1      42.965  22.884  25.833  1.00  0.00    -0.053 A 
ATOM     60  H   UNL A   1      42.451  21.340  24.487  1.00  0.00     0.063 H 
ATOM     61  C   UNL A   1      42.680  22.339  28.173  1.00  0.00    -0.053 A 
ATOM     62  H   UNL A   1      42.114  20.343  28.558  1.00  0.00     0.063 H 
ATOM     63  C   UNL A   1      43.017  23.273  27.181  1.00  0.00    -0.014 A 
ATOM     64  H   UNL A   1      43.264  23.543  25.098  1.00  0.00     0.063 H 
ATOM     65  H   UNL A   1      42.722  22.610  29.167  1.00  0.00     0.063 H 
BRANCH  63  66
ATOM     66  C   UNL A   1      43.389  24.661  27.557  1.00  0.00     0.031 A 
ATOM     67  C   UNL A   1      44.826  25.100  27.562  1.00  0.00     0.074 A 
ATOM     68  C   UNL A   1      42.426  25.518  27.948  1.00  0.00     0.049 A 
ATOM     69  N   UNL A   1      45.333  26.270  27.866  1.00  0.00    -0.248 NA
ATOM     70  C   UNL A   1      45.829  24.088  27.202  1.00  0.00    -0.034 C 
ATOM     71  C   UNL A   1      41.001  25.198  28.045  1.00  0.00    -0.036 A 
ATOM     72  N   UNL A   1      42.499  26.832  28.339  1.00  0.00    -0.354 N 
ATOM     73  C   UNL A   1      46.709  26.131  27.748  1.00  0.00     0.074 A 
ATOM     74  C   UNL A   1      46.962  24.752  27.387  1.00  0.00    -0.034 C 
ATOM     75  H   UNL A   1      45.688  23.116  26.886  1.00  0.00     0.065 H 
ATOM     76  C   UNL A   1      40.331  26.293  28.435  1.00  0.00    -0.036 A 
ATOM     77  H   UNL A   1      40.579  24.277  27.846  1.00  0.00     0.065 H 
ATOM     78  C   UNL A   1      41.279  27.384  28.643  1.00  0.00     0.049 A 
ATOM     79  H   UNL A   1      43.346  27.332  28.395  1.00  0.00     0.167 HD
ATOM     80  C   UNL A   1      47.671  27.072  27.904  1.00  0.00     0.037 A 
ATOM     81  H   UNL A   1      47.902  24.338  27.290  1.00  0.00     0.065 H 
ATOM     82  H   UNL A   1      39.309  26.355  28.568  1.00  0.00     0.065 H 
ATOM     83  C   UNL A   1      40.959  28.630  29.039  1.00  0.00     0.037 A 
ATOM     84  C   UNL A   1      47.418  28.451  28.233  1.00  0.00     0.049 A 
ATOM     85  C   UNL A   1      42.045  29.657  29.192  1.00  0.00     0.074 A 
ATOM     86  C   UNL A   1      48.319  29.496  28.325  1.00  0.00    -0.036 A 
ATOM     87  N   UNL A   1      46.168  28.973  28.532  1.00  0.00    -0.354 N 
ATOM     88  N   UNL A   1      43.333  29.536  28.990  1.00  0.00    -0.248 NA
ATOM     89  C   UNL A   1      41.627  30.999  29.622  1.00  0.00    -0.034 C 
ATOM     90  C   UNL A   1      47.622  30.644  28.723  1.00  0.00    -0.036 A 
ATOM     91  H   UNL A   1      49.332  29.441  28.134  1.00  0.00     0.065 H 
ATOM     92  C   UNL A   1      46.279  30.323  28.836  1.00  0.00     0.049 A 
ATOM     93  H   UNL A   1      45.326  28.463  28.528  1.00  0.00     0.167 HD
ATOM     94  C   UNL A   1      43.879  30.786  29.249  1.00  0.00     0.074 A 
ATOM     95  C   UNL A   1      42.777  31.657  29.604  1.00  0.00    -0.034 C 
ATOM     96  H   UNL A   1      40.685  31.340  29.873  1.00  0.00     0.065 H 
ATOM     97  H   UNL A   1      48.037  31.571  28.900  1.00  0.00     0.065 H 
ATOM     98  C   UNL A   1      45.176  31.176  29.197  1.00  0.00     0.037 A 
ATOM     99  H   UNL A   1      42.875  32.662  29.815  1.00  0.00     0.065 H 
BRANCH  80 100
ATOM    100  C   UNL A   1      49.097  26.638  27.721  1.00  0.00     0.064 A 
ATOM    101  C   UNL A   1      49.668  26.509  26.446  1.00  0.00     0.173 A 
ATOM    102  C   UNL A   1      49.911  26.378  28.834  1.00  0.00     0.173 A 
ATOM    103  F   UNL A   1      48.930  26.737  25.349  1.00  0.00    -0.203 F 
ATOM    104  C   UNL A   1      50.991  26.104  26.291  1.00  0.00     0.198 A 
ATOM    105  C   UNL A   1      51.241  25.999  28.676  1.00  0.00     0.198 A 
ATOM    106  F   UNL A   1      49.416  26.493  30.075  1.00  0.00    -0.203 F 
ATOM    107  F   UNL A   1      51.501  25.938  25.062  1.00  0.00    -0.200 F 
ATOM    108  C   UNL A   1      51.778  25.855  27.406  1.00  0.00     0.200 A 
ATOM    109  F   UNL A   1      52.004  25.771  29.754  1.00  0.00    -0.200 F 
ATOM    110  F   UNL A   1      53.052  25.467  27.254  1.00  0.00    -0.200 F 
ENDBRANCH  80 100
BRANCH  83 111
ATOM    111  C   UNL A   1      39.537  28.985  29.272  1.00  0.00     0.064 A 
ATOM    112  C   UNL A   1      38.969  28.859  30.548  1.00  0.00     0.173 A 
ATOM    113  C   UNL A   1      38.722  29.462  28.236  1.00  0.00     0.173 A 
ATOM    114  F   UNL A   1      39.706  28.385  31.563  1.00  0.00    -0.203 F 
ATOM    115  C   UNL A   1      37.635  29.187  30.776  1.00  0.00     0.198 A 
ATOM    116  C   UNL A   1      37.394  29.812  28.471  1.00  0.00     0.198 A 
ATOM    117  F   UNL A   1      39.221  29.603  27.000  1.00  0.00    -0.203 F 
ATOM    118  F   UNL A   1      37.107  29.025  31.997  1.00  0.00    -0.200 F 
ATOM    119  C   UNL A   1      36.851  29.669  29.739  1.00  0.00     0.200 A 
ATOM    120  F   UNL A   1      36.641  30.289  27.470  1.00  0.00    -0.200 F 
ATOM    121  F   UNL A   1      35.569  29.991  29.961  1.00  0.00    -0.200 F 
ENDBRANCH  83 111
BRANCH  98 122
ATOM    122  C   UNL A   1      45.469  32.611  29.520  1.00  0.00     0.064 A 
ATOM    123  C   UNL A   1      45.800  33.018  30.821  1.00  0.00     0.173 A 
ATOM    124  C   UNL A   1      45.431  33.591  28.515  1.00  0.00     0.173 A 
ATOM    125  F   UNL A   1      45.832  32.122  31.819  1.00  0.00    -0.203 F 
ATOM    126  C   UNL A   1      46.054  34.355  31.110  1.00  0.00     0.198 A 
ATOM    127  C   UNL A   1      45.712  34.923  28.803  1.00  0.00     0.198 A 
ATOM    128  F   UNL A   1      45.123  33.254  27.254  1.00  0.00    -0.203 F 
ATOM    129  F   UNL A   1      46.317  34.728  32.370  1.00  0.00    -0.200 F 
ATOM    130  C   UNL A   1      46.016  35.306  30.101  1.00  0.00     0.200 A 
ATOM    131  F   UNL A   1      45.683  35.839  27.825  1.00  0.00    -0.200 F 
ATOM    132  F   UNL A   1      46.259  36.594  30.382  1.00  0.00    -0.200 F 
ENDBRANCH  98 122
ENDBRANCH  63  66
ENDBRANCH  53  56
ENDBRANCH  49  52
ENDBRANCH  46  49
ENDBRANCH  43  46
ENDBRANCH  40  43
ENDBRANCH  37  40
ENDBRANCH   1  37
TORSDOF 19
ENDMDL
MODEL 4
REMARK VINA RESULT:     -10.4      5.478     11.398
REMARK SMILES O=C(CNC(=O)CNC(=O)OCc1ccccc1)NCCCCCCNC(=O)c1ccc(-c2c3nc(c(-c4c(F)c(F)c(F)c(F)c4F)c4ccc([nH]4)c(-c4c(F)c(F)c(F)c(F)c4F)c4nc(c(-c5c(F)c(F)c(F)c(F)c5F)c5ccc2[nH]5)C=C4)C=C3)cc1
REMARK SMILES IDX 20 1 19 4 1 5 2 6 3 8 4 11 5 12 6 14 7 15 8 18 9 19 10 21
REMARK SMILES IDX 11 22 12 23 13 26 14 27 18 28 15 29 17 31 16 33 21 37 22 40
REMARK SMILES IDX 23 43 24 46 25 49 26 52 27 53 28 55 29 56 30 57 91 58 31 59
REMARK SMILES IDX 90 61 32 63 33 66 34 67 84 68 35 69 89 70 83 71 85 72 36 73
REMARK SMILES IDX 88 74 82 76 81 78 37 80 69 83 49 84 68 85 50 86 53 87 67 88
REMARK SMILES IDX 86 89 51 90 52 92 66 94 87 95 54 98 38 100 39 101 47 102
REMARK SMILES IDX 40 103 41 104 45 105 48 106 42 107 43 108 46 109 44 110
REMARK SMILES IDX 70 111 71 112 79 113 72 114 73 115 77 116 80 117 74 118
REMARK SMILES IDX 75 119 78 120 76 121 55 122 56 123 64 124 57 125 58 126
REMARK SMILES IDX 62 127 65 128 59 129 60 130 63 131 61 132
REMARK H PARENT 20 2 20 3 19 7 3 9 3 10 4 13 7 16 7 17 8 20 12 24 12 25 14 30
REMARK H PARENT 18 32 15 34 17 35 16 36 21 38 21 39 22 41 22 42 23 44 23 45
REMARK H PARENT 24 47 24 48 25 50 25 51 26 54 30 60 91 62 31 64 90 65 89 75
REMARK H PARENT 83 77 85 79 88 81 82 82 50 91 53 93 86 96 51 97 87 99
REMARK Flexibility Score: inf
ROOT
ATOM      1  C   UNL A   1      34.281  22.727  26.162  1.00  0.00     0.017 C 
ATOM      2  H   UNL A   1      33.397  22.219  25.838  1.00  0.00     0.049 H 
ATOM      3  H   UNL A   1      34.167  23.155  27.135  1.00  0.00     0.049 H 
ENDROOT
BRANCH   1   4
ATOM      4  N   UNL A   1      34.549  23.816  25.243  1.00  0.00    -0.355 N 
ATOM      5  O   UNL A   1      32.405  24.634  25.201  1.00  0.00    -0.273 OA
ATOM      6  C   UNL A   1      33.582  24.720  24.861  1.00  0.00     0.239 C 
ATOM      7  H   UNL A   1      35.458  23.914  24.878  1.00  0.00     0.163 HD
BRANCH   6   8
ATOM      8  C   UNL A   1      34.048  25.823  23.897  1.00  0.00     0.097 C 
ATOM      9  H   UNL A   1      33.603  25.639  22.941  1.00  0.00     0.059 H 
ATOM     10  H   UNL A   1      35.117  25.777  23.881  1.00  0.00     0.059 H 
BRANCH   8  11
ATOM     11  N   UNL A   1      33.703  27.180  24.306  1.00  0.00    -0.346 N 
ATOM     12  C   UNL A   1      32.772  28.030  23.782  1.00  0.00     0.239 C 
ATOM     13  H   UNL A   1      34.215  27.533  25.070  1.00  0.00     0.164 HD
ATOM     14  O   UNL A   1      32.652  29.146  24.291  1.00  0.00    -0.273 OA
BRANCH  12  15
ATOM     15  C   UNL A   1      31.971  27.625  22.544  1.00  0.00     0.100 C 
ATOM     16  H   UNL A   1      32.625  27.232  21.795  1.00  0.00     0.060 H 
ATOM     17  H   UNL A   1      31.462  28.469  22.127  1.00  0.00     0.060 H 
BRANCH  15  18
ATOM     18  N   UNL A   1      31.026  26.609  22.962  1.00  0.00    -0.312 N 
ATOM     19  C   UNL A   1      29.939  26.789  23.753  1.00  0.00     0.407 C 
ATOM     20  H   UNL A   1      31.191  25.695  22.639  1.00  0.00     0.167 HD
ATOM     21  O   UNL A   1      29.430  25.831  24.321  1.00  0.00    -0.225 OA
BRANCH  19  22
ATOM     22  O   UNL A   1      29.534  28.075  23.854  1.00  0.00    -0.445 OA
BRANCH  22  23
ATOM     23  C   UNL A   1      28.343  28.402  23.116  1.00  0.00     0.118 C 
ATOM     24  H   UNL A   1      27.496  28.205  23.738  1.00  0.00     0.076 H 
ATOM     25  H   UNL A   1      28.347  27.799  22.232  1.00  0.00     0.076 H 
BRANCH  23  26
ATOM     26  C   UNL A   1      28.284  29.846  22.669  1.00  0.00    -0.011 A 
ATOM     27  C   UNL A   1      27.845  30.851  23.541  1.00  0.00    -0.056 A 
ATOM     28  C   UNL A   1      28.626  30.208  21.357  1.00  0.00    -0.056 A 
ATOM     29  C   UNL A   1      27.749  32.178  23.106  1.00  0.00    -0.062 A 
ATOM     30  H   UNL A   1      27.591  30.612  24.512  1.00  0.00     0.063 H 
ATOM     31  C   UNL A   1      28.551  31.533  20.929  1.00  0.00    -0.062 A 
ATOM     32  H   UNL A   1      28.938  29.480  20.695  1.00  0.00     0.063 H 
ATOM     33  C   UNL A   1      28.108  32.519  21.803  1.00  0.00    -0.062 A 
ATOM     34  H   UNL A   1      27.412  32.907  23.754  1.00  0.00     0.062 H 
ATOM     35  H   UNL A   1      28.825  31.783  19.966  1.00  0.00     0.062 H 
ATOM     36  H   UNL A   1      28.043  33.500  21.489  1.00  0.00     0.062 H 
ENDBRANCH  23  26
ENDBRANCH  22  23
ENDBRANCH  19  22
ENDBRANCH  15  18
ENDBRANCH  12  15
ENDBRANCH   8  11
ENDBRANCH   6   8
ENDBRANCH   1   4
BRANCH   1  37
ATOM     37  C   UNL A   1      35.420  21.710  26.249  1.00  0.00    -0.036 C 
ATOM     38  H   UNL A   1      35.187  21.015  27.028  1.00  0.00     0.028 H 
ATOM     39  H   UNL A   1      36.310  22.275  26.434  1.00  0.00     0.028 H 
BRANCH  37  40
ATOM     40  C   UNL A   1      35.680  20.914  24.964  1.00  0.00    -0.052 C 
ATOM     41  H   UNL A   1      35.051  21.318  24.198  1.00  0.00     0.027 H 
ATOM     42  H   UNL A   1      35.473  19.895  25.214  1.00  0.00     0.027 H 
BRANCH  40  43
ATOM     43  C   UNL A   1      37.116  20.922  24.438  1.00  0.00    -0.052 C 
ATOM     44  H   UNL A   1      37.574  21.837  24.749  1.00  0.00     0.027 H 
ATOM     45  H   UNL A   1      37.036  20.811  23.377  1.00  0.00     0.027 H 
BRANCH  43  46
ATOM     46  C   UNL A   1      38.004  19.770  24.908  1.00  0.00    -0.036 C 
ATOM     47  H   UNL A   1      38.458  19.332  24.044  1.00  0.00     0.028 H 
ATOM     48  H   UNL A   1      37.360  19.104  25.443  1.00  0.00     0.028 H 
BRANCH  46  49
ATOM     49  C   UNL A   1      39.117  20.148  25.882  1.00  0.00     0.018 C 
ATOM     50  H   UNL A   1      38.695  20.244  26.862  1.00  0.00     0.049 H 
ATOM     51  H   UNL A   1      39.545  21.066  25.540  1.00  0.00     0.049 H 
BRANCH  49  52
ATOM     52  N   UNL A   1      40.186  19.163  25.934  1.00  0.00    -0.352 N 
ATOM     53  C   UNL A   1      41.538  19.325  26.110  1.00  0.00     0.251 C 
ATOM     54  H   UNL A   1      39.892  18.229  25.825  1.00  0.00     0.163 HD
ATOM     55  O   UNL A   1      42.289  18.359  25.987  1.00  0.00    -0.269 OA
BRANCH  53  56
ATOM     56  C   UNL A   1      42.112  20.655  26.417  1.00  0.00     0.039 A 
ATOM     57  C   UNL A   1      42.346  21.540  25.359  1.00  0.00    -0.049 A 
ATOM     58  C   UNL A   1      42.449  21.029  27.720  1.00  0.00    -0.049 A 
ATOM     59  C   UNL A   1      42.846  22.819  25.615  1.00  0.00    -0.053 A 
ATOM     60  H   UNL A   1      42.148  21.249  24.389  1.00  0.00     0.063 H 
ATOM     61  C   UNL A   1      42.886  22.328  27.983  1.00  0.00    -0.053 A 
ATOM     62  H   UNL A   1      42.375  20.344  28.489  1.00  0.00     0.063 H 
ATOM     63  C   UNL A   1      43.084  23.238  26.934  1.00  0.00    -0.014 A 
ATOM     64  H   UNL A   1      43.041  23.460  24.830  1.00  0.00     0.063 H 
ATOM     65  H   UNL A   1      43.065  22.621  28.956  1.00  0.00     0.063 H 
BRANCH  63  66
ATOM     66  C   UNL A   1      43.508  24.633  27.223  1.00  0.00     0.031 A 
ATOM     67  C   UNL A   1      42.532  25.637  27.768  1.00  0.00     0.074 A 
ATOM     68  C   UNL A   1      44.770  25.009  26.943  1.00  0.00     0.049 A 
ATOM     69  N   UNL A   1      42.726  26.897  28.075  1.00  0.00    -0.248 NA
ATOM     70  C   UNL A   1      41.152  25.177  27.973  1.00  0.00    -0.034 C 
ATOM     71  C   UNL A   1      45.797  24.147  26.356  1.00  0.00    -0.036 A 
ATOM     72  N   UNL A   1      45.405  26.215  27.111  1.00  0.00    -0.354 N 
ATOM     73  C   UNL A   1      41.494  27.380  28.494  1.00  0.00     0.074 A 
ATOM     74  C   UNL A   1      40.549  26.292  28.361  1.00  0.00    -0.034 C 
ATOM     75  H   UNL A   1      40.755  24.232  27.849  1.00  0.00     0.065 H 
ATOM     76  C   UNL A   1      46.941  24.840  26.244  1.00  0.00    -0.036 A 
ATOM     77  H   UNL A   1      45.663  23.163  26.073  1.00  0.00     0.065 H 
ATOM     78  C   UNL A   1      46.722  26.201  26.724  1.00  0.00     0.049 A 
ATOM     79  H   UNL A   1      44.958  27.013  27.475  1.00  0.00     0.167 HD
ATOM     80  C   UNL A   1      41.185  28.611  28.967  1.00  0.00     0.037 A 
ATOM     81  H   UNL A   1      39.536  26.374  28.542  1.00  0.00     0.065 H 
ATOM     82  H   UNL A   1      47.831  24.470  25.877  1.00  0.00     0.065 H 
ATOM     83  C   UNL A   1      47.651  27.174  26.757  1.00  0.00     0.037 A 
ATOM     84  C   UNL A   1      42.131  29.685  29.127  1.00  0.00     0.049 A 
ATOM     85  C   UNL A   1      47.284  28.527  27.299  1.00  0.00     0.074 A 
ATOM     86  C   UNL A   1      41.931  30.938  29.680  1.00  0.00    -0.036 A 
ATOM     87  N   UNL A   1      43.458  29.633  28.726  1.00  0.00    -0.354 N 
ATOM     88  N   UNL A   1      46.138  28.945  27.775  1.00  0.00    -0.248 NA
ATOM     89  C   UNL A   1      48.348  29.542  27.312  1.00  0.00    -0.034 C 
ATOM     90  C   UNL A   1      43.125  31.660  29.574  1.00  0.00    -0.036 A 
ATOM     91  H   UNL A   1      41.052  31.280  30.099  1.00  0.00     0.065 H 
ATOM     92  C   UNL A   1      44.082  30.843  28.994  1.00  0.00     0.049 A 
ATOM     93  H   UNL A   1      43.893  28.853  28.312  1.00  0.00     0.167 HD
ATOM     94  C   UNL A   1      46.344  30.262  28.163  1.00  0.00     0.074 A 
ATOM     95  C   UNL A   1      47.732  30.568  27.883  1.00  0.00    -0.034 C 
ATOM     96  H   UNL A   1      49.318  29.475  26.966  1.00  0.00     0.065 H 
ATOM     97  H   UNL A   1      43.269  32.636  29.877  1.00  0.00     0.065 H 
ATOM     98  C   UNL A   1      45.461  31.138  28.702  1.00  0.00     0.037 A 
ATOM     99  H   UNL A   1      48.184  31.469  28.100  1.00  0.00     0.065 H 
BRANCH  80 100
ATOM    100  C   UNL A   1      39.754  28.866  29.346  1.00  0.00     0.064 A 
ATOM    101  C   UNL A   1      38.827  29.372  28.423  1.00  0.00     0.173 A 
ATOM    102  C   UNL A   1      39.298  28.571  30.640  1.00  0.00     0.173 A 
ATOM    103  F   UNL A   1      39.215  29.679  27.176  1.00  0.00    -0.203 F 
ATOM    104  C   UNL A   1      37.504  29.604  28.790  1.00  0.00     0.198 A 
ATOM    105  C   UNL A   1      37.968  28.779  30.996  1.00  0.00     0.198 A 
ATOM    106  F   UNL A   1      40.141  28.078  31.559  1.00  0.00    -0.203 F 
ATOM    107  F   UNL A   1      36.648  30.136  27.906  1.00  0.00    -0.200 F 
ATOM    108  C   UNL A   1      37.075  29.303  30.074  1.00  0.00     0.200 A 
ATOM    109  F   UNL A   1      37.551  28.476  32.233  1.00  0.00    -0.200 F 
ATOM    110  F   UNL A   1      35.800  29.525  30.424  1.00  0.00    -0.200 F 
ENDBRANCH  80 100
BRANCH  83 111
ATOM    111  C   UNL A   1      49.036  26.885  26.305  1.00  0.00     0.064 A 
ATOM    112  C   UNL A   1      49.430  27.167  24.990  1.00  0.00     0.173 A 
ATOM    113  C   UNL A   1      49.989  26.334  27.172  1.00  0.00     0.173 A 
ATOM    114  F   UNL A   1      48.544  27.674  24.120  1.00  0.00    -0.203 F 
ATOM    115  C   UNL A   1      50.725  26.897  24.555  1.00  0.00     0.198 A 
ATOM    116  C   UNL A   1      51.291  26.086  26.742  1.00  0.00     0.198 A 
ATOM    117  F   UNL A   1      49.660  26.050  28.440  1.00  0.00    -0.203 F 
ATOM    118  F   UNL A   1      51.068  27.143  23.282  1.00  0.00    -0.200 F 
ATOM    119  C   UNL A   1      51.656  26.363  25.433  1.00  0.00     0.200 A 
ATOM    120  F   UNL A   1      52.192  25.581  27.596  1.00  0.00    -0.200 F 
ATOM    121  F   UNL A   1      52.904  26.109  25.016  1.00  0.00    -0.200 F 
ENDBRANCH  83 111
BRANCH  98 122
ATOM    122  C   UNL A   1      45.978  32.506  29.035  1.00  0.00     0.064 A 
ATOM    123  C   UNL A   1      46.581  32.781  30.271  1.00  0.00     0.173 A 
ATOM    124  C   UNL A   1      45.881  33.552  28.104  1.00  0.00     0.173 A 
ATOM    125  F   UNL A   1      46.682  31.820  31.201  1.00  0.00    -0.203 F 
ATOM    126  C   UNL A   1      47.043  34.059  30.573  1.00  0.00     0.198 A 
ATOM    127  C   UNL A   1      46.367  34.822  28.399  1.00  0.00     0.198 A 
ATOM    128  F   UNL A   1      45.315  33.340  26.906  1.00  0.00    -0.203 F 
ATOM    129  F   UNL A   1      47.568  34.312  31.780  1.00  0.00    -0.200 F 
ATOM    130  C   UNL A   1      46.941  35.077  29.637  1.00  0.00     0.200 A 
ATOM    131  F   UNL A   1      46.277  35.802  27.490  1.00  0.00    -0.200 F 
ATOM    132  F   UNL A   1      47.384  36.307  29.931  1.00  0.00    -0.200 F 
ENDBRANCH  98 122
ENDBRANCH  63  66
ENDBRANCH  53  56
ENDBRANCH  49  52
ENDBRANCH  46  49
ENDBRANCH  43  46
ENDBRANCH  40  43
ENDBRANCH  37  40
ENDBRANCH   1  37
TORSDOF 19
ENDMDL
MODEL 5
REMARK VINA RESULT:     -10.1      2.813      8.300
REMARK SMILES O=C(CNC(=O)CNC(=O)OCc1ccccc1)NCCCCCCNC(=O)c1ccc(-c2c3nc(c(-c4c(F)c(F)c(F)c(F)c4F)c4ccc([nH]4)c(-c4c(F)c(F)c(F)c(F)c4F)c4nc(c(-c5c(F)c(F)c(F)c(F)c5F)c5ccc2[nH]5)C=C4)C=C3)cc1
REMARK SMILES IDX 20 1 19 4 1 5 2 6 3 8 4 11 5 12 6 14 7 15 8 18 9 19 10 21
REMARK SMILES IDX 11 22 12 23 13 26 14 27 18 28 15 29 17 31 16 33 21 37 22 40
REMARK SMILES IDX 23 43 24 46 25 49 26 52 27 53 28 55 29 56 30 57 91 58 31 59
REMARK SMILES IDX 90 61 32 63 33 66 34 67 84 68 35 69 89 70 83 71 85 72 36 73
REMARK SMILES IDX 88 74 82 76 81 78 37 80 69 83 49 84 68 85 50 86 53 87 67 88
REMARK SMILES IDX 86 89 51 90 52 92 66 94 87 95 54 98 38 100 39 101 47 102
REMARK SMILES IDX 40 103 41 104 45 105 48 106 42 107 43 108 46 109 44 110
REMARK SMILES IDX 70 111 71 112 79 113 72 114 73 115 77 116 80 117 74 118
REMARK SMILES IDX 75 119 78 120 76 121 55 122 56 123 64 124 57 125 58 126
REMARK SMILES IDX 62 127 65 128 59 129 60 130 63 131 61 132
REMARK H PARENT 20 2 20 3 19 7 3 9 3 10 4 13 7 16 7 17 8 20 12 24 12 25 14 30
REMARK H PARENT 18 32 15 34 17 35 16 36 21 38 21 39 22 41 22 42 23 44 23 45
REMARK H PARENT 24 47 24 48 25 50 25 51 26 54 30 60 91 62 31 64 90 65 89 75
REMARK H PARENT 83 77 85 79 88 81 82 82 50 91 53 93 86 96 51 97 87 99
REMARK Flexibility Score: inf
ROOT
ATOM      1  C   UNL A   1      31.400  28.807  22.534  1.00  0.00     0.017 C 
ATOM      2  H   UNL A   1      30.767  28.884  21.675  1.00  0.00     0.049 H 
ATOM      3  H   UNL A   1      32.221  29.491  22.493  1.00  0.00     0.049 H 
ENDROOT
BRANCH   1   4
ATOM      4  N   UNL A   1      31.958  27.468  22.577  1.00  0.00    -0.355 N 
ATOM      5  O   UNL A   1      34.036  28.046  21.792  1.00  0.00    -0.273 OA
ATOM      6  C   UNL A   1      33.265  27.199  22.233  1.00  0.00     0.239 C 
ATOM      7  H   UNL A   1      31.381  26.725  22.863  1.00  0.00     0.163 HD
BRANCH   6   8
ATOM      8  C   UNL A   1      33.693  25.727  22.359  1.00  0.00     0.097 C 
ATOM      9  H   UNL A   1      34.550  25.577  21.735  1.00  0.00     0.059 H 
ATOM     10  H   UNL A   1      32.847  25.142  22.063  1.00  0.00     0.059 H 
BRANCH   8  11
ATOM     11  N   UNL A   1      34.035  25.302  23.711  1.00  0.00    -0.346 N 
ATOM     12  C   UNL A   1      33.240  24.739  24.667  1.00  0.00     0.239 C 
ATOM     13  H   UNL A   1      34.975  25.441  23.972  1.00  0.00     0.164 HD
ATOM     14  O   UNL A   1      33.746  24.460  25.755  1.00  0.00    -0.273 OA
BRANCH  12  15
ATOM     15  C   UNL A   1      31.744  24.547  24.408  1.00  0.00     0.100 C 
ATOM     16  H   UNL A   1      31.594  24.061  23.468  1.00  0.00     0.060 H 
ATOM     17  H   UNL A   1      31.240  25.490  24.376  1.00  0.00     0.060 H 
BRANCH  15  18
ATOM     18  N   UNL A   1      31.230  23.723  25.483  1.00  0.00    -0.312 N 
ATOM     19  C   UNL A   1      31.083  22.375  25.472  1.00  0.00     0.407 C 
ATOM     20  H   UNL A   1      30.959  24.190  26.306  1.00  0.00     0.167 HD
ATOM     21  O   UNL A   1      30.328  21.835  26.269  1.00  0.00    -0.225 OA
BRANCH  19  22
ATOM     22  O   UNL A   1      31.802  21.747  24.515  1.00  0.00    -0.445 OA
BRANCH  22  23
ATOM     23  C   UNL A   1      32.956  21.028  24.987  1.00  0.00     0.118 C 
ATOM     24  H   UNL A   1      32.847  20.871  26.040  1.00  0.00     0.076 H 
ATOM     25  H   UNL A   1      33.814  21.621  24.750  1.00  0.00     0.076 H 
BRANCH  23  26
ATOM     26  C   UNL A   1      33.147  19.683  24.320  1.00  0.00    -0.011 A 
ATOM     27  C   UNL A   1      34.203  18.840  24.691  1.00  0.00    -0.056 A 
ATOM     28  C   UNL A   1      32.298  19.266  23.283  1.00  0.00    -0.056 A 
ATOM     29  C   UNL A   1      34.401  17.619  24.038  1.00  0.00    -0.062 A 
ATOM     30  H   UNL A   1      34.840  19.121  25.453  1.00  0.00     0.063 H 
ATOM     31  C   UNL A   1      32.481  18.040  22.646  1.00  0.00    -0.062 A 
ATOM     32  H   UNL A   1      31.522  19.880  22.986  1.00  0.00     0.063 H 
ATOM     33  C   UNL A   1      33.537  17.216  23.021  1.00  0.00    -0.062 A 
ATOM     34  H   UNL A   1      35.190  17.012  24.312  1.00  0.00     0.062 H 
ATOM     35  H   UNL A   1      31.835  17.742  21.899  1.00  0.00     0.062 H 
ATOM     36  H   UNL A   1      33.682  16.311  22.547  1.00  0.00     0.062 H 
ENDBRANCH  23  26
ENDBRANCH  22  23
ENDBRANCH  19  22
ENDBRANCH  15  18
ENDBRANCH  12  15
ENDBRANCH   8  11
ENDBRANCH   6   8
ENDBRANCH   1   4
BRANCH   1  37
ATOM     37  C   UNL A   1      30.579  29.163  23.775  1.00  0.00    -0.036 C 
ATOM     38  H   UNL A   1      30.129  28.265  24.143  1.00  0.00     0.028 H 
ATOM     39  H   UNL A   1      29.868  29.899  23.461  1.00  0.00     0.028 H 
BRANCH  37  40
ATOM     40  C   UNL A   1      31.375  29.800  24.920  1.00  0.00    -0.052 C 
ATOM     41  H   UNL A   1      30.784  30.595  25.325  1.00  0.00     0.027 H 
ATOM     42  H   UNL A   1      32.300  30.114  24.484  1.00  0.00     0.027 H 
BRANCH  40  43
ATOM     43  C   UNL A   1      31.763  28.875  26.075  1.00  0.00    -0.052 C 
ATOM     44  H   UNL A   1      31.011  28.118  26.156  1.00  0.00     0.027 H 
ATOM     45  H   UNL A   1      31.842  29.506  26.937  1.00  0.00     0.027 H 
BRANCH  43  46
ATOM     46  C   UNL A   1      33.117  28.179  25.946  1.00  0.00    -0.036 C 
ATOM     47  H   UNL A   1      33.280  27.967  24.910  1.00  0.00     0.028 H 
ATOM     48  H   UNL A   1      33.057  27.307  26.562  1.00  0.00     0.028 H 
BRANCH  46  49
ATOM     49  C   UNL A   1      34.318  28.970  26.458  1.00  0.00     0.018 C 
ATOM     50  H   UNL A   1      35.037  29.049  25.668  1.00  0.00     0.049 H 
ATOM     51  H   UNL A   1      34.710  28.446  27.304  1.00  0.00     0.049 H 
BRANCH  49  52
ATOM     52  N   UNL A   1      33.969  30.311  26.901  1.00  0.00    -0.352 N 
ATOM     53  C   UNL A   1      34.574  31.130  27.822  1.00  0.00     0.251 C 
ATOM     54  H   UNL A   1      33.170  30.694  26.470  1.00  0.00     0.163 HD
ATOM     55  O   UNL A   1      34.034  32.185  28.148  1.00  0.00    -0.269 OA
BRANCH  53  56
ATOM     56  C   UNL A   1      35.858  30.747  28.455  1.00  0.00     0.039 A 
ATOM     57  C   UNL A   1      35.841  29.773  29.459  1.00  0.00    -0.049 A 
ATOM     58  C   UNL A   1      37.065  31.352  28.096  1.00  0.00    -0.049 A 
ATOM     59  C   UNL A   1      37.037  29.356  30.048  1.00  0.00    -0.053 A 
ATOM     60  H   UNL A   1      34.945  29.362  29.764  1.00  0.00     0.063 H 
ATOM     61  C   UNL A   1      38.266  30.890  28.636  1.00  0.00    -0.053 A 
ATOM     62  H   UNL A   1      37.069  32.141  27.431  1.00  0.00     0.063 H 
ATOM     63  C   UNL A   1      38.264  29.883  29.614  1.00  0.00    -0.014 A 
ATOM     64  H   UNL A   1      37.019  28.656  30.805  1.00  0.00     0.063 H 
ATOM     65  H   UNL A   1      39.161  31.290  28.315  1.00  0.00     0.063 H 
BRANCH  63  66
ATOM     66  C   UNL A   1      39.548  29.364  30.154  1.00  0.00     0.031 A 
ATOM     67  C   UNL A   1      40.180  29.982  31.369  1.00  0.00     0.074 A 
ATOM     68  C   UNL A   1      40.173  28.359  29.512  1.00  0.00     0.049 A 
ATOM     69  N   UNL A   1      41.297  29.660  31.974  1.00  0.00    -0.248 NA
ATOM     70  C   UNL A   1      39.481  31.127  31.969  1.00  0.00    -0.034 C 
ATOM     71  C   UNL A   1      39.695  27.712  28.289  1.00  0.00    -0.036 A 
ATOM     72  N   UNL A   1      41.347  27.706  29.796  1.00  0.00    -0.354 N 
ATOM     73  C   UNL A   1      41.441  30.569  33.014  1.00  0.00     0.074 A 
ATOM     74  C   UNL A   1      40.320  31.482  32.932  1.00  0.00    -0.034 C 
ATOM     75  H   UNL A   1      38.573  31.545  31.710  1.00  0.00     0.065 H 
ATOM     76  C   UNL A   1      40.549  26.735  27.946  1.00  0.00    -0.036 A 
ATOM     77  H   UNL A   1      38.839  27.967  27.772  1.00  0.00     0.065 H 
ATOM     78  C   UNL A   1      41.647  26.703  28.907  1.00  0.00     0.049 A 
ATOM     79  H   UNL A   1      41.919  27.935  30.564  1.00  0.00     0.167 HD
ATOM     80  C   UNL A   1      42.406  30.623  33.963  1.00  0.00     0.037 A 
ATOM     81  H   UNL A   1      40.193  32.305  33.541  1.00  0.00     0.065 H 
ATOM     82  H   UNL A   1      40.445  26.107  27.134  1.00  0.00     0.065 H 
ATOM     83  C   UNL A   1      42.688  25.850  28.874  1.00  0.00     0.037 A 
ATOM     84  C   UNL A   1      43.504  29.696  34.063  1.00  0.00     0.049 A 
ATOM     85  C   UNL A   1      43.738  25.923  29.946  1.00  0.00     0.074 A 
ATOM     86  C   UNL A   1      44.481  29.616  35.040  1.00  0.00    -0.036 A 
ATOM     87  N   UNL A   1      43.774  28.691  33.145  1.00  0.00    -0.354 N 
ATOM     88  N   UNL A   1      43.814  26.729  30.975  1.00  0.00    -0.248 NA
ATOM     89  C   UNL A   1      44.843  24.959  29.853  1.00  0.00    -0.034 C 
ATOM     90  C   UNL A   1      45.368  28.591  34.691  1.00  0.00    -0.036 A 
ATOM     91  H   UNL A   1      44.544  30.211  35.882  1.00  0.00     0.065 H 
ATOM     92  C   UNL A   1      44.920  28.003  33.520  1.00  0.00     0.049 A 
ATOM     93  H   UNL A   1      43.233  28.495  32.347  1.00  0.00     0.167 HD
ATOM     94  C   UNL A   1      44.962  26.361  31.664  1.00  0.00     0.074 A 
ATOM     95  C   UNL A   1      45.540  25.244  30.944  1.00  0.00    -0.034 C 
ATOM     96  H   UNL A   1      45.029  24.248  29.128  1.00  0.00     0.065 H 
ATOM     97  H   UNL A   1      46.212  28.318  35.219  1.00  0.00     0.065 H 
ATOM     98  C   UNL A   1      45.490  26.900  32.790  1.00  0.00     0.037 A 
ATOM     99  H   UNL A   1      46.386  24.735  31.243  1.00  0.00     0.065 H 
BRANCH  80 100
ATOM    100  C   UNL A   1      42.318  31.728  34.976  1.00  0.00     0.064 A 
ATOM    101  C   UNL A   1      42.997  32.943  34.799  1.00  0.00     0.173 A 
ATOM    102  C   UNL A   1      41.520  31.582  36.121  1.00  0.00     0.173 A 
ATOM    103  F   UNL A   1      43.780  33.129  33.726  1.00  0.00    -0.203 F 
ATOM    104  C   UNL A   1      42.907  33.959  35.748  1.00  0.00     0.198 A 
ATOM    105  C   UNL A   1      41.411  32.610  37.054  1.00  0.00     0.198 A 
ATOM    106  F   UNL A   1      40.844  30.444  36.334  1.00  0.00    -0.203 F 
ATOM    107  F   UNL A   1      43.605  35.091  35.583  1.00  0.00    -0.200 F 
ATOM    108  C   UNL A   1      42.110  33.794  36.871  1.00  0.00     0.200 A 
ATOM    109  F   UNL A   1      40.631  32.454  38.132  1.00  0.00    -0.200 F 
ATOM    110  F   UNL A   1      42.023  34.773  37.781  1.00  0.00    -0.200 F 
ENDBRANCH  80 100
BRANCH  83 111
ATOM    111  C   UNL A   1      42.759  24.818  27.808  1.00  0.00     0.064 A 
ATOM    112  C   UNL A   1      42.224  23.539  28.016  1.00  0.00     0.173 A 
ATOM    113  C   UNL A   1      43.351  25.087  26.567  1.00  0.00     0.173 A 
ATOM    114  F   UNL A   1      41.668  23.231  29.197  1.00  0.00    -0.203 F 
ATOM    115  C   UNL A   1      42.289  22.564  27.025  1.00  0.00     0.198 A 
ATOM    116  C   UNL A   1      43.395  24.118  25.568  1.00  0.00     0.198 A 
ATOM    117  F   UNL A   1      43.874  26.297  26.320  1.00  0.00    -0.203 F 
ATOM    118  F   UNL A   1      41.801  21.338  27.261  1.00  0.00    -0.200 F 
ATOM    119  C   UNL A   1      42.869  22.856  25.799  1.00  0.00     0.200 A 
ATOM    120  F   UNL A   1      43.945  24.406  24.380  1.00  0.00    -0.200 F 
ATOM    121  F   UNL A   1      42.925  21.918  24.843  1.00  0.00    -0.200 F 
ENDBRANCH  83 111
BRANCH  98 122
ATOM    122  C   UNL A   1      46.748  26.277  33.318  1.00  0.00     0.064 A 
ATOM    123  C   UNL A   1      46.714  25.157  34.161  1.00  0.00     0.173 A 
ATOM    124  C   UNL A   1      48.003  26.798  32.968  1.00  0.00     0.173 A 
ATOM    125  F   UNL A   1      45.538  24.633  34.538  1.00  0.00    -0.203 F 
ATOM    126  C   UNL A   1      47.888  24.598  34.656  1.00  0.00     0.198 A 
ATOM    127  C   UNL A   1      49.177  26.221  33.444  1.00  0.00     0.198 A 
ATOM    128  F   UNL A   1      48.090  27.867  32.162  1.00  0.00    -0.203 F 
ATOM    129  F   UNL A   1      47.830  23.560  35.501  1.00  0.00    -0.200 F 
ATOM    130  C   UNL A   1      49.119  25.126  34.294  1.00  0.00     0.200 A 
ATOM    131  F   UNL A   1      50.364  26.727  33.085  1.00  0.00    -0.200 F 
ATOM    132  F   UNL A   1      50.248  24.588  34.773  1.00  0.00    -0.200 F 
ENDBRANCH  98 122
ENDBRANCH  63  66
ENDBRANCH  53  56
ENDBRANCH  49  52
ENDBRANCH  46  49
ENDBRANCH  43  46
ENDBRANCH  40  43
ENDBRANCH  37  40
ENDBRANCH   1  37
TORSDOF 19
ENDMDL
MODEL 6
REMARK VINA RESULT:     -10.1      6.360     10.996
REMARK SMILES O=C(CNC(=O)CNC(=O)OCc1ccccc1)NCCCCCCNC(=O)c1ccc(-c2c3nc(c(-c4c(F)c(F)c(F)c(F)c4F)c4ccc([nH]4)c(-c4c(F)c(F)c(F)c(F)c4F)c4nc(c(-c5c(F)c(F)c(F)c(F)c5F)c5ccc2[nH]5)C=C4)C=C3)cc1
REMARK SMILES IDX 20 1 19 4 1 5 2 6 3 8 4 11 5 12 6 14 7 15 8 18 9 19 10 21
REMARK SMILES IDX 11 22 12 23 13 26 14 27 18 28 15 29 17 31 16 33 21 37 22 40
REMARK SMILES IDX 23 43 24 46 25 49 26 52 27 53 28 55 29 56 30 57 91 58 31 59
REMARK SMILES IDX 90 61 32 63 33 66 34 67 84 68 35 69 89 70 83 71 85 72 36 73
REMARK SMILES IDX 88 74 82 76 81 78 37 80 69 83 49 84 68 85 50 86 53 87 67 88
REMARK SMILES IDX 86 89 51 90 52 92 66 94 87 95 54 98 38 100 39 101 47 102
REMARK SMILES IDX 40 103 41 104 45 105 48 106 42 107 43 108 46 109 44 110
REMARK SMILES IDX 70 111 71 112 79 113 72 114 73 115 77 116 80 117 74 118
REMARK SMILES IDX 75 119 78 120 76 121 55 122 56 123 64 124 57 125 58 126
REMARK SMILES IDX 62 127 65 128 59 129 60 130 63 131 61 132
REMARK H PARENT 20 2 20 3 19 7 3 9 3 10 4 13 7 16 7 17 8 20 12 24 12 25 14 30
REMARK H PARENT 18 32 15 34 17 35 16 36 21 38 21 39 22 41 22 42 23 44 23 45
REMARK H PARENT 24 47 24 48 25 50 25 51 26 54 30 60 91 62 31 64 90 65 89 75
REMARK H PARENT 83 77 85 79 88 81 82 82 50 91 53 93 86 96 51 97 87 99
REMARK Flexibility Score: inf
ROOT
ATOM      1  C   UNL A   1      37.049  32.881  35.010  1.00  0.00     0.017 C 
ATOM      2  H   UNL A   1      37.893  32.293  34.717  1.00  0.00     0.049 H 
ATOM      3  H   UNL A   1      36.199  32.278  35.248  1.00  0.00     0.049 H 
ENDROOT
BRANCH   1   4
ATOM      4  N   UNL A   1      36.672  33.734  33.898  1.00  0.00    -0.355 N 
ATOM      5  O   UNL A   1      34.413  33.364  34.062  1.00  0.00    -0.273 OA
ATOM      6  C   UNL A   1      35.360  33.940  33.532  1.00  0.00     0.239 C 
ATOM      7  H   UNL A   1      37.382  34.182  33.385  1.00  0.00     0.163 HD
BRANCH   6   8
ATOM      8  C   UNL A   1      35.144  34.891  32.344  1.00  0.00     0.097 C 
ATOM      9  H   UNL A   1      34.317  34.525  31.772  1.00  0.00     0.059 H 
ATOM     10  H   UNL A   1      36.064  34.902  31.797  1.00  0.00     0.059 H 
BRANCH   8  11
ATOM     11  N   UNL A   1      34.866  36.275  32.710  1.00  0.00    -0.346 N 
ATOM     12  C   UNL A   1      33.834  37.081  32.325  1.00  0.00     0.239 C 
ATOM     13  H   UNL A   1      35.518  36.688  33.323  1.00  0.00     0.164 HD
ATOM     14  O   UNL A   1      33.802  38.233  32.760  1.00  0.00    -0.273 OA
BRANCH  12  15
ATOM     15  C   UNL A   1      32.804  36.580  31.312  1.00  0.00     0.100 C 
ATOM     16  H   UNL A   1      31.839  36.982  31.540  1.00  0.00     0.060 H 
ATOM     17  H   UNL A   1      32.730  35.513  31.340  1.00  0.00     0.060 H 
BRANCH  15  18
ATOM     18  N   UNL A   1      33.236  37.033  30.006  1.00  0.00    -0.312 N 
ATOM     19  C   UNL A   1      33.561  36.254  28.944  1.00  0.00     0.407 C 
ATOM     20  H   UNL A   1      33.300  38.006  29.876  1.00  0.00     0.167 HD
ATOM     21  O   UNL A   1      34.237  36.713  28.032  1.00  0.00    -0.225 OA
BRANCH  19  22
ATOM     22  O   UNL A   1      33.102  34.985  29.027  1.00  0.00    -0.445 OA
BRANCH  22  23
ATOM     23  C   UNL A   1      34.009  33.973  28.552  1.00  0.00     0.118 C 
ATOM     24  H   UNL A   1      34.553  33.589  29.389  1.00  0.00     0.076 H 
ATOM     25  H   UNL A   1      34.647  34.438  27.830  1.00  0.00     0.076 H 
BRANCH  23  26
ATOM     26  C   UNL A   1      33.319  32.818  27.858  1.00  0.00    -0.011 A 
ATOM     27  C   UNL A   1      33.921  31.554  27.796  1.00  0.00    -0.056 A 
ATOM     28  C   UNL A   1      32.081  32.996  27.223  1.00  0.00    -0.056 A 
ATOM     29  C   UNL A   1      33.299  30.504  27.113  1.00  0.00    -0.062 A 
ATOM     30  H   UNL A   1      34.830  31.396  28.258  1.00  0.00     0.063 H 
ATOM     31  C   UNL A   1      31.450  31.944  26.560  1.00  0.00    -0.062 A 
ATOM     32  H   UNL A   1      31.628  33.924  27.246  1.00  0.00     0.063 H 
ATOM     33  C   UNL A   1      32.061  30.697  26.501  1.00  0.00    -0.062 A 
ATOM     34  H   UNL A   1      33.758  29.581  27.063  1.00  0.00     0.062 H 
ATOM     35  H   UNL A   1      30.530  32.089  26.115  1.00  0.00     0.062 H 
ATOM     36  H   UNL A   1      31.602  29.917  26.005  1.00  0.00     0.062 H 
ENDBRANCH  23  26
ENDBRANCH  22  23
ENDBRANCH  19  22
ENDBRANCH  15  18
ENDBRANCH  12  15
ENDBRANCH   8  11
ENDBRANCH   6   8
ENDBRANCH   1   4
BRANCH   1  37
ATOM     37  C   UNL A   1      37.416  33.660  36.275  1.00  0.00    -0.036 C 
ATOM     38  H   UNL A   1      36.607  34.323  36.502  1.00  0.00     0.028 H 
ATOM     39  H   UNL A   1      38.333  34.166  36.057  1.00  0.00     0.028 H 
BRANCH  37  40
ATOM     40  C   UNL A   1      37.687  32.798  37.513  1.00  0.00    -0.052 C 
ATOM     41  H   UNL A   1      38.681  33.011  37.847  1.00  0.00     0.027 H 
ATOM     42  H   UNL A   1      37.534  31.788  37.196  1.00  0.00     0.027 H 
BRANCH  40  43
ATOM     43  C   UNL A   1      36.744  32.999  38.701  1.00  0.00    -0.052 C 
ATOM     44  H   UNL A   1      35.792  32.589  38.437  1.00  0.00     0.027 H 
ATOM     45  H   UNL A   1      36.730  34.054  38.884  1.00  0.00     0.027 H 
BRANCH  43  46
ATOM     46  C   UNL A   1      37.182  32.357  40.016  1.00  0.00    -0.036 C 
ATOM     47  H   UNL A   1      37.026  31.302  39.935  1.00  0.00     0.028 H 
ATOM     48  H   UNL A   1      36.596  32.824  40.779  1.00  0.00     0.028 H 
BRANCH  46  49
ATOM     49  C   UNL A   1      38.640  32.586  40.411  1.00  0.00     0.018 C 
ATOM     50  H   UNL A   1      39.233  32.621  39.520  1.00  0.00     0.049 H 
ATOM     51  H   UNL A   1      38.928  31.782  41.053  1.00  0.00     0.049 H 
BRANCH  49  52
ATOM     52  N   UNL A   1      38.840  33.824  41.148  1.00  0.00    -0.352 N 
ATOM     53  C   UNL A   1      39.525  34.963  40.805  1.00  0.00     0.251 C 
ATOM     54  H   UNL A   1      38.416  33.849  42.037  1.00  0.00     0.163 HD
ATOM     55  O   UNL A   1      39.685  35.853  41.638  1.00  0.00    -0.269 OA
BRANCH  53  56
ATOM     56  C   UNL A   1      40.104  35.126  39.451  1.00  0.00     0.039 A 
ATOM     57  C   UNL A   1      39.489  36.018  38.566  1.00  0.00    -0.049 A 
ATOM     58  C   UNL A   1      41.220  34.394  39.034  1.00  0.00    -0.049 A 
ATOM     59  C   UNL A   1      40.033  36.229  37.296  1.00  0.00    -0.053 A 
ATOM     60  H   UNL A   1      38.635  36.521  38.850  1.00  0.00     0.063 H 
ATOM     61  C   UNL A   1      41.800  34.652  37.792  1.00  0.00    -0.053 A 
ATOM     62  H   UNL A   1      41.613  33.662  39.646  1.00  0.00     0.063 H 
ATOM     63  C   UNL A   1      41.216  35.576  36.912  1.00  0.00    -0.014 A 
ATOM     64  H   UNL A   1      39.563  36.867  36.637  1.00  0.00     0.063 H 
ATOM     65  H   UNL A   1      42.665  34.161  37.518  1.00  0.00     0.063 H 
BRANCH  63  66
ATOM     66  C   UNL A   1      41.862  35.880  35.609  1.00  0.00     0.031 A 
ATOM     67  C   UNL A   1      41.441  35.169  34.355  1.00  0.00     0.074 A 
ATOM     68  C   UNL A   1      42.873  36.769  35.568  1.00  0.00     0.049 A 
ATOM     69  N   UNL A   1      41.898  35.305  33.134  1.00  0.00    -0.248 NA
ATOM     70  C   UNL A   1      40.388  34.154  34.491  1.00  0.00    -0.034 C 
ATOM     71  C   UNL A   1      43.416  37.484  36.724  1.00  0.00    -0.036 A 
ATOM     72  N   UNL A   1      43.627  37.222  34.513  1.00  0.00    -0.354 N 
ATOM     73  C   UNL A   1      41.199  34.386  32.362  1.00  0.00     0.074 A 
ATOM     74  C   UNL A   1      40.319  33.667  33.259  1.00  0.00    -0.034 C 
ATOM     75  H   UNL A   1      39.842  33.889  35.326  1.00  0.00     0.065 H 
ATOM     76  C   UNL A   1      44.392  38.309  36.312  1.00  0.00    -0.036 A 
ATOM     77  H   UNL A   1      43.100  37.371  37.700  1.00  0.00     0.065 H 
ATOM     78  C   UNL A   1      44.562  38.162  34.870  1.00  0.00     0.049 A 
ATOM     79  H   UNL A   1      43.507  36.904  33.589  1.00  0.00     0.167 HD
ATOM     80  C   UNL A   1      41.270  34.177  31.026  1.00  0.00     0.037 A 
ATOM     81  H   UNL A   1      39.719  32.877  32.978  1.00  0.00     0.065 H 
ATOM     82  H   UNL A   1      44.934  38.944  36.918  1.00  0.00     0.065 H 
ATOM     83  C   UNL A   1      45.454  38.834  34.118  1.00  0.00     0.037 A 
ATOM     84  C   UNL A   1      42.123  34.912  30.129  1.00  0.00     0.049 A 
ATOM     85  C   UNL A   1      45.501  38.592  32.636  1.00  0.00     0.074 A 
ATOM     86  C   UNL A   1      42.199  34.833  28.749  1.00  0.00    -0.036 A 
ATOM     87  N   UNL A   1      43.057  35.858  30.526  1.00  0.00    -0.354 N 
ATOM     88  N   UNL A   1      44.773  37.785  31.906  1.00  0.00    -0.248 NA
ATOM     89  C   UNL A   1      46.494  39.363  31.874  1.00  0.00    -0.034 C 
ATOM     90  C   UNL A   1      43.209  35.699  28.315  1.00  0.00    -0.036 A 
ATOM     91  H   UNL A   1      41.613  34.237  28.144  1.00  0.00     0.065 H 
ATOM     92  C   UNL A   1      43.733  36.351  29.419  1.00  0.00     0.049 A 
ATOM     93  H   UNL A   1      43.215  36.139  31.456  1.00  0.00     0.167 HD
ATOM     94  C   UNL A   1      45.202  37.962  30.597  1.00  0.00     0.074 A 
ATOM     95  C   UNL A   1      46.244  38.969  30.633  1.00  0.00    -0.034 C 
ATOM     96  H   UNL A   1      47.201  40.034  32.215  1.00  0.00     0.065 H 
ATOM     97  H   UNL A   1      43.512  35.832  27.337  1.00  0.00     0.065 H 
ATOM     98  C   UNL A   1      44.774  37.346  29.469  1.00  0.00     0.037 A 
ATOM     99  H   UNL A   1      46.729  39.334  29.799  1.00  0.00     0.065 H 
BRANCH  80 100
ATOM    100  C   UNL A   1      40.394  33.101  30.448  1.00  0.00     0.064 A 
ATOM    101  C   UNL A   1      39.112  33.384  29.955  1.00  0.00     0.173 A 
ATOM    102  C   UNL A   1      40.856  31.779  30.360  1.00  0.00     0.173 A 
ATOM    103  F   UNL A   1      38.621  34.630  30.024  1.00  0.00    -0.203 F 
ATOM    104  C   UNL A   1      38.311  32.376  29.424  1.00  0.00     0.198 A 
ATOM    105  C   UNL A   1      40.063  30.779  29.804  1.00  0.00     0.198 A 
ATOM    106  F   UNL A   1      42.077  31.457  30.811  1.00  0.00    -0.203 F 
ATOM    107  F   UNL A   1      37.070  32.659  29.004  1.00  0.00    -0.200 F 
ATOM    108  C   UNL A   1      38.789  31.076  29.344  1.00  0.00     0.200 A 
ATOM    109  F   UNL A   1      40.530  29.526  29.716  1.00  0.00    -0.200 F 
ATOM    110  F   UNL A   1      38.017  30.108  28.830  1.00  0.00    -0.200 F 
ENDBRANCH  80 100
BRANCH  83 111
ATOM    111  C   UNL A   1      46.343  39.839  34.754  1.00  0.00     0.064 A 
ATOM    112  C   UNL A   1      45.943  41.178  34.862  1.00  0.00     0.173 A 
ATOM    113  C   UNL A   1      47.597  39.485  35.269  1.00  0.00     0.173 A 
ATOM    114  F   UNL A   1      44.760  41.566  34.363  1.00  0.00    -0.203 F 
ATOM    115  C   UNL A   1      46.771  42.129  35.454  1.00  0.00     0.198 A 
ATOM    116  C   UNL A   1      48.414  40.433  35.882  1.00  0.00     0.198 A 
ATOM    117  F   UNL A   1      48.022  38.216  35.191  1.00  0.00    -0.203 F 
ATOM    118  F   UNL A   1      46.380  43.410  35.514  1.00  0.00    -0.200 F 
ATOM    119  C   UNL A   1      48.003  41.755  35.969  1.00  0.00     0.200 A 
ATOM    120  F   UNL A   1      49.599  40.066  36.388  1.00  0.00    -0.200 F 
ATOM    121  F   UNL A   1      48.796  42.669  36.543  1.00  0.00    -0.200 F 
ENDBRANCH  83 111
BRANCH  98 122
ATOM    122  C   UNL A   1      45.422  37.756  28.181  1.00  0.00     0.064 A 
ATOM    123  C   UNL A   1      44.953  38.850  27.439  1.00  0.00     0.173 A 
ATOM    124  C   UNL A   1      46.533  37.055  27.687  1.00  0.00     0.173 A 
ATOM    125  F   UNL A   1      43.884  39.541  27.860  1.00  0.00    -0.203 F 
ATOM    126  C   UNL A   1      45.555  39.211  26.237  1.00  0.00     0.198 A 
ATOM    127  C   UNL A   1      47.149  37.434  26.498  1.00  0.00     0.198 A 
ATOM    128  F   UNL A   1      47.023  36.003  28.360  1.00  0.00    -0.203 F 
ATOM    129  F   UNL A   1      45.058  40.227  25.519  1.00  0.00    -0.200 F 
ATOM    130  C   UNL A   1      46.655  38.507  25.770  1.00  0.00     0.200 A 
ATOM    131  F   UNL A   1      48.218  36.759  26.053  1.00  0.00    -0.200 F 
ATOM    132  F   UNL A   1      47.232  38.854  24.611  1.00  0.00    -0.200 F 
ENDBRANCH  98 122
ENDBRANCH  63  66
ENDBRANCH  53  56
ENDBRANCH  49  52
ENDBRANCH  46  49
ENDBRANCH  43  46
ENDBRANCH  40  43
ENDBRANCH  37  40
ENDBRANCH   1  37
TORSDOF 19
ENDMDL
MODEL 7
REMARK VINA RESULT:      -9.9      5.990     10.677
REMARK SMILES O=C(CNC(=O)CNC(=O)OCc1ccccc1)NCCCCCCNC(=O)c1ccc(-c2c3nc(c(-c4c(F)c(F)c(F)c(F)c4F)c4ccc([nH]4)c(-c4c(F)c(F)c(F)c(F)c4F)c4nc(c(-c5c(F)c(F)c(F)c(F)c5F)c5ccc2[nH]5)C=C4)C=C3)cc1
REMARK SMILES IDX 20 1 19 4 1 5 2 6 3 8 4 11 5 12 6 14 7 15 8 18 9 19 10 21
REMARK SMILES IDX 11 22 12 23 13 26 14 27 18 28 15 29 17 31 16 33 21 37 22 40
REMARK SMILES IDX 23 43 24 46 25 49 26 52 27 53 28 55 29 56 30 57 91 58 31 59
REMARK SMILES IDX 90 61 32 63 33 66 34 67 84 68 35 69 89 70 83 71 85 72 36 73
REMARK SMILES IDX 88 74 82 76 81 78 37 80 69 83 49 84 68 85 50 86 53 87 67 88
REMARK SMILES IDX 86 89 51 90 52 92 66 94 87 95 54 98 38 100 39 101 47 102
REMARK SMILES IDX 40 103 41 104 45 105 48 106 42 107 43 108 46 109 44 110
REMARK SMILES IDX 70 111 71 112 79 113 72 114 73 115 77 116 80 117 74 118
REMARK SMILES IDX 75 119 78 120 76 121 55 122 56 123 64 124 57 125 58 126
REMARK SMILES IDX 62 127 65 128 59 129 60 130 63 131 61 132
REMARK H PARENT 20 2 20 3 19 7 3 9 3 10 4 13 7 16 7 17 8 20 12 24 12 25 14 30
REMARK H PARENT 18 32 15 34 17 35 16 36 21 38 21 39 22 41 22 42 23 44 23 45
REMARK H PARENT 24 47 24 48 25 50 25 51 26 54 30 60 91 62 31 64 90 65 89 75
REMARK H PARENT 83 77 85 79 88 81 82 82 50 91 53 93 86 96 51 97 87 99
REMARK Flexibility Score: inf
ROOT
ATOM      1  C   UNL A   1      37.971  28.900  29.922  1.00  0.00     0.017 C 
ATOM      2  H   UNL A   1      37.541  28.043  30.397  1.00  0.00     0.049 H 
ATOM      3  H   UNL A   1      38.889  29.200  30.381  1.00  0.00     0.049 H 
ENDROOT
BRANCH   1   4
ATOM      4  N   UNL A   1      37.045  30.009  30.048  1.00  0.00    -0.355 N 
ATOM      5  O   UNL A   1      36.648  29.740  32.293  1.00  0.00    -0.273 OA
ATOM      6  C   UNL A   1      36.479  30.369  31.252  1.00  0.00     0.239 C 
ATOM      7  H   UNL A   1      36.812  30.525  29.243  1.00  0.00     0.163 HD
BRANCH   6   8
ATOM      8  C   UNL A   1      35.537  31.583  31.206  1.00  0.00     0.097 C 
ATOM      9  H   UNL A   1      35.378  31.918  32.209  1.00  0.00     0.059 H 
ATOM     10  H   UNL A   1      34.641  31.250  30.724  1.00  0.00     0.059 H 
BRANCH   8  11
ATOM     11  N   UNL A   1      36.029  32.711  30.422  1.00  0.00    -0.346 N 
ATOM     12  C   UNL A   1      35.570  33.204  29.235  1.00  0.00     0.239 C 
ATOM     13  H   UNL A   1      36.804  33.184  30.805  1.00  0.00     0.164 HD
ATOM     14  O   UNL A   1      36.149  34.176  28.746  1.00  0.00    -0.273 OA
BRANCH  12  15
ATOM     15  C   UNL A   1      34.424  32.505  28.503  1.00  0.00     0.100 C 
ATOM     16  H   UNL A   1      33.892  33.208  27.898  1.00  0.00     0.060 H 
ATOM     17  H   UNL A   1      33.732  32.080  29.199  1.00  0.00     0.060 H 
BRANCH  15  18
ATOM     18  N   UNL A   1      35.015  31.478  27.670  1.00  0.00    -0.312 N 
ATOM     19  C   UNL A   1      34.442  30.307  27.297  1.00  0.00     0.407 C 
ATOM     20  H   UNL A   1      35.926  31.648  27.341  1.00  0.00     0.167 HD
ATOM     21  O   UNL A   1      35.140  29.382  26.904  1.00  0.00    -0.225 OA
BRANCH  19  22
ATOM     22  O   UNL A   1      33.097  30.280  27.434  1.00  0.00    -0.445 OA
BRANCH  22  23
ATOM     23  C   UNL A   1      32.355  30.315  26.202  1.00  0.00     0.118 C 
ATOM     24  H   UNL A   1      33.014  30.627  25.419  1.00  0.00     0.076 H 
ATOM     25  H   UNL A   1      31.542  30.996  26.345  1.00  0.00     0.076 H 
BRANCH  23  26
ATOM     26  C   UNL A   1      31.754  28.980  25.818  1.00  0.00    -0.011 A 
ATOM     27  C   UNL A   1      31.176  28.788  24.556  1.00  0.00    -0.056 A 
ATOM     28  C   UNL A   1      31.721  27.915  26.732  1.00  0.00    -0.056 A 
ATOM     29  C   UNL A   1      30.582  27.566  24.225  1.00  0.00    -0.062 A 
ATOM     30  H   UNL A   1      31.190  29.554  23.864  1.00  0.00     0.063 H 
ATOM     31  C   UNL A   1      31.148  26.690  26.395  1.00  0.00    -0.062 A 
ATOM     32  H   UNL A   1      32.130  28.042  27.672  1.00  0.00     0.063 H 
ATOM     33  C   UNL A   1      30.573  26.516  25.141  1.00  0.00    -0.062 A 
ATOM     34  H   UNL A   1      30.148  27.441  23.296  1.00  0.00     0.062 H 
ATOM     35  H   UNL A   1      31.150  25.913  27.074  1.00  0.00     0.062 H 
ATOM     36  H   UNL A   1      30.140  25.613  24.890  1.00  0.00     0.062 H 
ENDBRANCH  23  26
ENDBRANCH  22  23
ENDBRANCH  19  22
ENDBRANCH  15  18
ENDBRANCH  12  15
ENDBRANCH   8  11
ENDBRANCH   6   8
ENDBRANCH   1   4
BRANCH   1  37
ATOM     37  C   UNL A   1      38.291  28.539  28.470  1.00  0.00    -0.036 C 
ATOM     38  H   UNL A   1      38.409  29.449  27.920  1.00  0.00     0.028 H 
ATOM     39  H   UNL A   1      37.477  27.936  28.126  1.00  0.00     0.028 H 
BRANCH  37  40
ATOM     40  C   UNL A   1      39.558  27.697  28.273  1.00  0.00    -0.052 C 
ATOM     41  H   UNL A   1      40.380  28.244  28.686  1.00  0.00     0.027 H 
ATOM     42  H   UNL A   1      39.626  27.526  27.219  1.00  0.00     0.027 H 
BRANCH  40  43
ATOM     43  C   UNL A   1      39.556  26.307  28.912  1.00  0.00    -0.052 C 
ATOM     44  H   UNL A   1      38.565  26.108  29.261  1.00  0.00     0.027 H 
ATOM     45  H   UNL A   1      40.293  26.344  29.688  1.00  0.00     0.027 H 
BRANCH  43  46
ATOM     46  C   UNL A   1      39.974  25.154  28.001  1.00  0.00    -0.036 C 
ATOM     47  H   UNL A   1      39.329  24.325  28.203  1.00  0.00     0.028 H 
ATOM     48  H   UNL A   1      41.004  24.965  28.221  1.00  0.00     0.028 H 
BRANCH  46  49
ATOM     49  C   UNL A   1      39.913  25.441  26.502  1.00  0.00     0.018 C 
ATOM     50  H   UNL A   1      39.712  26.483  26.361  1.00  0.00     0.049 H 
ATOM     51  H   UNL A   1      39.142  24.826  26.089  1.00  0.00     0.049 H 
BRANCH  49  52
ATOM     52  N   UNL A   1      41.149  25.111  25.810  1.00  0.00    -0.352 N 
ATOM     53  C   UNL A   1      42.310  25.831  25.669  1.00  0.00     0.251 C 
ATOM     54  H   UNL A   1      41.155  24.228  25.372  1.00  0.00     0.163 HD
ATOM     55  O   UNL A   1      43.196  25.419  24.923  1.00  0.00    -0.269 OA
BRANCH  53  56
ATOM     56  C   UNL A   1      42.500  27.117  26.379  1.00  0.00     0.039 A 
ATOM     57  C   UNL A   1      43.140  27.103  27.623  1.00  0.00    -0.049 A 
ATOM     58  C   UNL A   1      42.032  28.324  25.854  1.00  0.00    -0.049 A 
ATOM     59  C   UNL A   1      43.375  28.301  28.302  1.00  0.00    -0.053 A 
ATOM     60  H   UNL A   1      43.440  26.208  28.039  1.00  0.00     0.063 H 
ATOM     61  C   UNL A   1      42.325  29.527  26.499  1.00  0.00    -0.053 A 
ATOM     62  H   UNL A   1      41.470  28.327  24.988  1.00  0.00     0.063 H 
ATOM     63  C   UNL A   1      43.003  29.528  27.727  1.00  0.00    -0.014 A 
ATOM     64  H   UNL A   1      43.824  28.285  29.230  1.00  0.00     0.063 H 
ATOM     65  H   UNL A   1      42.040  30.421  26.070  1.00  0.00     0.063 H 
BRANCH  63  66
ATOM     66  C   UNL A   1      43.351  30.812  28.388  1.00  0.00     0.031 A 
ATOM     67  C   UNL A   1      42.505  31.360  29.502  1.00  0.00     0.074 A 
ATOM     68  C   UNL A   1      44.410  31.515  27.944  1.00  0.00     0.049 A 
ATOM     69  N   UNL A   1      42.656  32.466  30.189  1.00  0.00    -0.248 NA
ATOM     70  C   UNL A   1      41.319  30.579  29.878  1.00  0.00    -0.034 C 
ATOM     71  C   UNL A   1      45.277  31.123  26.832  1.00  0.00    -0.036 A 
ATOM     72  N   UNL A   1      44.938  32.709  28.371  1.00  0.00    -0.354 N 
ATOM     73  C   UNL A   1      41.581  32.519  31.066  1.00  0.00     0.074 A 
ATOM     74  C   UNL A   1      40.761  31.357  30.795  1.00  0.00    -0.034 C 
ATOM     75  H   UNL A   1      41.003  29.662  29.524  1.00  0.00     0.065 H 
ATOM     76  C   UNL A   1      46.247  32.040  26.686  1.00  0.00    -0.036 A 
ATOM     77  H   UNL A   1      45.161  30.277  26.252  1.00  0.00     0.065 H 
ATOM     78  C   UNL A   1      46.055  33.097  27.674  1.00  0.00     0.049 A 
ATOM     79  H   UNL A   1      44.552  33.235  29.109  1.00  0.00     0.167 HD
ATOM     80  C   UNL A   1      41.315  33.440  32.023  1.00  0.00     0.037 A 
ATOM     81  H   UNL A   1      39.857  31.162  31.253  1.00  0.00     0.065 H 
ATOM     82  H   UNL A   1      47.005  32.003  25.988  1.00  0.00     0.065 H 
ATOM     83  C   UNL A   1      46.840  34.181  27.818  1.00  0.00     0.037 A 
ATOM     84  C   UNL A   1      42.147  34.579  32.313  1.00  0.00     0.049 A 
ATOM     85  C   UNL A   1      46.530  35.180  28.897  1.00  0.00     0.074 A 
ATOM     86  C   UNL A   1      42.007  35.517  33.321  1.00  0.00    -0.036 A 
ATOM     87  N   UNL A   1      43.272  34.939  31.586  1.00  0.00    -0.354 N 
ATOM     88  N   UNL A   1      45.561  35.172  29.778  1.00  0.00    -0.248 NA
ATOM     89  C   UNL A   1      47.430  36.337  29.003  1.00  0.00    -0.034 C 
ATOM     90  C   UNL A   1      43.023  36.470  33.178  1.00  0.00    -0.036 A 
ATOM     91  H   UNL A   1      41.279  35.514  34.052  1.00  0.00     0.065 H 
ATOM     92  C   UNL A   1      43.821  36.102  32.108  1.00  0.00     0.049 A 
ATOM     93  H   UNL A   1      43.629  34.442  30.815  1.00  0.00     0.167 HD
ATOM     94  C   UNL A   1      45.743  36.307  30.556  1.00  0.00     0.074 A 
ATOM     95  C   UNL A   1      46.928  36.972  30.053  1.00  0.00    -0.034 C 
ATOM     96  H   UNL A   1      48.240  36.590  28.413  1.00  0.00     0.065 H 
ATOM     97  H   UNL A   1      43.155  37.304  33.771  1.00  0.00     0.065 H 
ATOM     98  C   UNL A   1      44.996  36.758  31.592  1.00  0.00     0.037 A 
ATOM     99  H   UNL A   1      47.331  37.830  30.460  1.00  0.00     0.065 H 
BRANCH  80 100
ATOM    100  C   UNL A   1      40.064  33.252  32.833  1.00  0.00     0.064 A 
ATOM    101  C   UNL A   1      40.015  32.358  33.913  1.00  0.00     0.173 A 
ATOM    102  C   UNL A   1      38.911  33.997  32.544  1.00  0.00     0.173 A 
ATOM    103  F   UNL A   1      41.087  31.615  34.224  1.00  0.00    -0.203 F 
ATOM    104  C   UNL A   1      38.847  32.193  34.653  1.00  0.00     0.198 A 
ATOM    105  C   UNL A   1      37.754  33.850  33.304  1.00  0.00     0.198 A 
ATOM    106  F   UNL A   1      38.908  34.872  31.527  1.00  0.00    -0.203 F 
ATOM    107  F   UNL A   1      38.807  31.296  35.649  1.00  0.00    -0.200 F 
ATOM    108  C   UNL A   1      37.720  32.943  34.352  1.00  0.00     0.200 A 
ATOM    109  F   UNL A   1      36.669  34.584  33.019  1.00  0.00    -0.200 F 
ATOM    110  F   UNL A   1      36.598  32.784  35.068  1.00  0.00    -0.200 F 
ENDBRANCH  80 100
BRANCH  83 111
ATOM    111  C   UNL A   1      48.028  34.350  26.943  1.00  0.00     0.064 A 
ATOM    112  C   UNL A   1      49.199  33.617  27.180  1.00  0.00     0.173 A 
ATOM    113  C   UNL A   1      48.017  35.235  25.857  1.00  0.00     0.173 A 
ATOM    114  F   UNL A   1      49.262  32.775  28.223  1.00  0.00    -0.203 F 
ATOM    115  C   UNL A   1      50.320  33.771  26.368  1.00  0.00     0.198 A 
ATOM    116  C   UNL A   1      49.131  35.370  25.031  1.00  0.00     0.198 A 
ATOM    117  F   UNL A   1      46.919  35.956  25.588  1.00  0.00    -0.203 F 
ATOM    118  F   UNL A   1      51.439  33.083  26.637  1.00  0.00    -0.200 F 
ATOM    119  C   UNL A   1      50.282  34.643  25.290  1.00  0.00     0.200 A 
ATOM    120  F   UNL A   1      49.088  36.205  23.983  1.00  0.00    -0.200 F 
ATOM    121  F   UNL A   1      51.359  34.785  24.505  1.00  0.00    -0.200 F 
ENDBRANCH  83 111
BRANCH  98 122
ATOM    122  C   UNL A   1      45.448  38.024  32.258  1.00  0.00     0.064 A 
ATOM    123  C   UNL A   1      46.410  38.012  33.279  1.00  0.00     0.173 A 
ATOM    124  C   UNL A   1      44.924  39.264  31.863  1.00  0.00     0.173 A 
ATOM    125  F   UNL A   1      46.928  36.850  33.703  1.00  0.00    -0.203 F 
ATOM    126  C   UNL A   1      46.810  39.192  33.898  1.00  0.00     0.198 A 
ATOM    127  C   UNL A   1      45.346  40.445  32.467  1.00  0.00     0.198 A 
ATOM    128  F   UNL A   1      44.004  39.330  30.889  1.00  0.00    -0.203 F 
ATOM    129  F   UNL A   1      47.692  39.152  34.907  1.00  0.00    -0.200 F 
ATOM    130  C   UNL A   1      46.283  40.408  33.489  1.00  0.00     0.200 A 
ATOM    131  F   UNL A   1      44.842  41.620  32.064  1.00  0.00    -0.200 F 
ATOM    132  F   UNL A   1      46.667  41.543  34.089  1.00  0.00    -0.200 F 
ENDBRANCH  98 122
ENDBRANCH  63  66
ENDBRANCH  53  56
ENDBRANCH  49  52
ENDBRANCH  46  49
ENDBRANCH  43  46
ENDBRANCH  40  43
ENDBRANCH  37  40
ENDBRANCH   1  37
TORSDOF 19
ENDMDL
MODEL 8
REMARK VINA RESULT:      -9.9      3.593      8.525
REMARK SMILES O=C(CNC(=O)CNC(=O)OCc1ccccc1)NCCCCCCNC(=O)c1ccc(-c2c3nc(c(-c4c(F)c(F)c(F)c(F)c4F)c4ccc([nH]4)c(-c4c(F)c(F)c(F)c(F)c4F)c4nc(c(-c5c(F)c(F)c(F)c(F)c5F)c5ccc2[nH]5)C=C4)C=C3)cc1
REMARK SMILES IDX 20 1 19 4 1 5 2 6 3 8 4 11 5 12 6 14 7 15 8 18 9 19 10 21
REMARK SMILES IDX 11 22 12 23 13 26 14 27 18 28 15 29 17 31 16 33 21 37 22 40
REMARK SMILES IDX 23 43 24 46 25 49 26 52 27 53 28 55 29 56 30 57 91 58 31 59
REMARK SMILES IDX 90 61 32 63 33 66 34 67 84 68 35 69 89 70 83 71 85 72 36 73
REMARK SMILES IDX 88 74 82 76 81 78 37 80 69 83 49 84 68 85 50 86 53 87 67 88
REMARK SMILES IDX 86 89 51 90 52 92 66 94 87 95 54 98 38 100 39 101 47 102
REMARK SMILES IDX 40 103 41 104 45 105 48 106 42 107 43 108 46 109 44 110
REMARK SMILES IDX 70 111 71 112 79 113 72 114 73 115 77 116 80 117 74 118
REMARK SMILES IDX 75 119 78 120 76 121 55 122 56 123 64 124 57 125 58 126
REMARK SMILES IDX 62 127 65 128 59 129 60 130 63 131 61 132
REMARK H PARENT 20 2 20 3 19 7 3 9 3 10 4 13 7 16 7 17 8 20 12 24 12 25 14 30
REMARK H PARENT 18 32 15 34 17 35 16 36 21 38 21 39 22 41 22 42 23 44 23 45
REMARK H PARENT 24 47 24 48 25 50 25 51 26 54 30 60 91 62 31 64 90 65 89 75
REMARK H PARENT 83 77 85 79 88 81 82 82 50 91 53 93 86 96 51 97 87 99
REMARK Flexibility Score: inf
ROOT
ATOM      1  C   UNL A   1      41.744  24.429  26.494  1.00  0.00     0.017 C 
ATOM      2  H   UNL A   1      42.131  23.819  27.283  1.00  0.00     0.049 H 
ATOM      3  H   UNL A   1      41.665  25.457  26.779  1.00  0.00     0.049 H 
ENDROOT
BRANCH   1   4
ATOM      4  N   UNL A   1      40.405  23.970  26.171  1.00  0.00    -0.355 N 
ATOM      5  O   UNL A   1      39.317  25.310  27.684  1.00  0.00    -0.273 OA
ATOM      6  C   UNL A   1      39.279  24.485  26.775  1.00  0.00     0.239 C 
ATOM      7  H   UNL A   1      40.298  23.265  25.493  1.00  0.00     0.163 HD
BRANCH   6   8
ATOM      8  C   UNL A   1      37.942  23.897  26.295  1.00  0.00     0.097 C 
ATOM      9  H   UNL A   1      37.437  24.647  25.722  1.00  0.00     0.059 H 
ATOM     10  H   UNL A   1      37.407  23.608  27.176  1.00  0.00     0.059 H 
BRANCH   8  11
ATOM     11  N   UNL A   1      38.059  22.698  25.473  1.00  0.00    -0.346 N 
ATOM     12  C   UNL A   1      37.106  21.777  25.148  1.00  0.00     0.239 C 
ATOM     13  H   UNL A   1      38.954  22.529  25.099  1.00  0.00     0.164 HD
ATOM     14  O   UNL A   1      37.433  20.828  24.434  1.00  0.00    -0.273 OA
BRANCH  12  15
ATOM     15  C   UNL A   1      35.697  21.887  25.735  1.00  0.00     0.100 C 
ATOM     16  H   UNL A   1      35.710  22.507  26.607  1.00  0.00     0.060 H 
ATOM     17  H   UNL A   1      35.328  20.925  26.020  1.00  0.00     0.060 H 
BRANCH  15  18
ATOM     18  N   UNL A   1      34.858  22.481  24.715  1.00  0.00    -0.312 N 
ATOM     19  C   UNL A   1      33.753  21.931  24.151  1.00  0.00     0.407 C 
ATOM     20  H   UNL A   1      35.115  23.377  24.398  1.00  0.00     0.167 HD
ATOM     21  O   UNL A   1      33.340  22.350  23.078  1.00  0.00    -0.225 OA
BRANCH  19  22
ATOM     22  O   UNL A   1      33.220  20.911  24.860  1.00  0.00    -0.445 OA
BRANCH  22  23
ATOM     23  C   UNL A   1      32.463  19.959  24.091  1.00  0.00     0.118 C 
ATOM     24  H   UNL A   1      32.596  20.183  23.053  1.00  0.00     0.076 H 
ATOM     25  H   UNL A   1      31.442  20.049  24.399  1.00  0.00     0.076 H 
BRANCH  23  26
ATOM     26  C   UNL A   1      32.874  18.522  24.328  1.00  0.00    -0.011 A 
ATOM     27  C   UNL A   1      32.622  17.896  25.556  1.00  0.00    -0.056 A 
ATOM     28  C   UNL A   1      33.557  17.796  23.340  1.00  0.00    -0.056 A 
ATOM     29  C   UNL A   1      33.046  16.583  25.784  1.00  0.00    -0.062 A 
ATOM     30  H   UNL A   1      32.119  18.407  26.298  1.00  0.00     0.063 H 
ATOM     31  C   UNL A   1      33.961  16.480  23.559  1.00  0.00    -0.062 A 
ATOM     32  H   UNL A   1      33.764  18.245  22.434  1.00  0.00     0.063 H 
ATOM     33  C   UNL A   1      33.709  15.873  24.784  1.00  0.00    -0.062 A 
ATOM     34  H   UNL A   1      32.865  16.136  26.698  1.00  0.00     0.062 H 
ATOM     35  H   UNL A   1      34.445  15.955  22.814  1.00  0.00     0.062 H 
ATOM     36  H   UNL A   1      34.014  14.902  24.955  1.00  0.00     0.062 H 
ENDBRANCH  23  26
ENDBRANCH  22  23
ENDBRANCH  19  22
ENDBRANCH  15  18
ENDBRANCH  12  15
ENDBRANCH   8  11
ENDBRANCH   6   8
ENDBRANCH   1   4
BRANCH   1  37
ATOM     37  C   UNL A   1      42.711  24.362  25.310  1.00  0.00    -0.036 C 
ATOM     38  H   UNL A   1      43.472  25.098  25.463  1.00  0.00     0.028 H 
ATOM     39  H   UNL A   1      42.121  24.534  24.434  1.00  0.00     0.028 H 
BRANCH  37  40
ATOM     40  C   UNL A   1      43.395  23.005  25.105  1.00  0.00    -0.052 C 
ATOM     41  H   UNL A   1      42.898  22.509  24.297  1.00  0.00     0.027 H 
ATOM     42  H   UNL A   1      43.318  22.503  26.047  1.00  0.00     0.027 H 
BRANCH  40  43
ATOM     43  C   UNL A   1      44.889  23.039  24.783  1.00  0.00    -0.052 C 
ATOM     44  H   UNL A   1      45.091  23.949  24.257  1.00  0.00     0.027 H 
ATOM     45  H   UNL A   1      45.083  22.154  24.214  1.00  0.00     0.027 H 
BRANCH  43  46
ATOM     46  C   UNL A   1      45.832  22.973  25.983  1.00  0.00    -0.036 C 
ATOM     47  H   UNL A   1      46.698  22.418  25.691  1.00  0.00     0.028 H 
ATOM     48  H   UNL A   1      45.271  22.516  26.771  1.00  0.00     0.028 H 
BRANCH  46  49
ATOM     49  C   UNL A   1      46.300  24.319  26.531  1.00  0.00     0.018 C 
ATOM     50  H   UNL A   1      47.209  24.168  27.076  1.00  0.00     0.049 H 
ATOM     51  H   UNL A   1      45.519  24.701  27.154  1.00  0.00     0.049 H 
BRANCH  49  52
ATOM     52  N   UNL A   1      46.545  25.303  25.488  1.00  0.00    -0.352 N 
ATOM     53  C   UNL A   1      46.062  26.579  25.337  1.00  0.00     0.251 C 
ATOM     54  H   UNL A   1      47.157  25.006  24.775  1.00  0.00     0.163 HD
ATOM     55  O   UNL A   1      46.292  27.200  24.302  1.00  0.00    -0.269 OA
BRANCH  53  56
ATOM     56  C   UNL A   1      45.237  27.212  26.393  1.00  0.00     0.039 A 
ATOM     57  C   UNL A   1      44.606  26.386  27.330  1.00  0.00    -0.049 A 
ATOM     58  C   UNL A   1      45.055  28.596  26.455  1.00  0.00    -0.049 A 
ATOM     59  C   UNL A   1      43.856  26.949  28.365  1.00  0.00    -0.053 A 
ATOM     60  H   UNL A   1      44.695  25.360  27.257  1.00  0.00     0.063 H 
ATOM     61  C   UNL A   1      44.361  29.161  27.526  1.00  0.00    -0.053 A 
ATOM     62  H   UNL A   1      45.432  29.199  25.709  1.00  0.00     0.063 H 
ATOM     63  C   UNL A   1      43.759  28.344  28.494  1.00  0.00    -0.014 A 
ATOM     64  H   UNL A   1      43.371  26.337  29.039  1.00  0.00     0.063 H 
ATOM     65  H   UNL A   1      44.290  30.187  27.606  1.00  0.00     0.063 H 
BRANCH  63  66
ATOM     66  C   UNL A   1      43.059  28.952  29.656  1.00  0.00     0.031 A 
ATOM     67  C   UNL A   1      41.630  29.401  29.546  1.00  0.00     0.074 A 
ATOM     68  C   UNL A   1      43.737  29.147  30.804  1.00  0.00     0.049 A 
ATOM     69  N   UNL A   1      40.865  29.955  30.455  1.00  0.00    -0.248 NA
ATOM     70  C   UNL A   1      40.980  29.231  28.240  1.00  0.00    -0.034 C 
ATOM     71  C   UNL A   1      45.144  28.810  31.020  1.00  0.00    -0.036 A 
ATOM     72  N   UNL A   1      43.333  29.678  32.004  1.00  0.00    -0.354 N 
ATOM     73  C   UNL A   1      39.653  30.210  29.828  1.00  0.00     0.074 A 
ATOM     74  C   UNL A   1      39.798  29.792  28.449  1.00  0.00    -0.034 C 
ATOM     75  H   UNL A   1      41.348  28.788  27.382  1.00  0.00     0.065 H 
ATOM     76  C   UNL A   1      45.478  29.111  32.285  1.00  0.00    -0.036 A 
ATOM     77  H   UNL A   1      45.779  28.406  30.314  1.00  0.00     0.065 H 
ATOM     78  C   UNL A   1      44.319  29.688  32.960  1.00  0.00     0.049 A 
ATOM     79  H   UNL A   1      42.424  30.020  32.164  1.00  0.00     0.167 HD
ATOM     80  C   UNL A   1      38.518  30.726  30.358  1.00  0.00     0.037 A 
ATOM     81  H   UNL A   1      39.075  29.917  27.723  1.00  0.00     0.065 H 
ATOM     82  H   UNL A   1      46.405  28.960  32.712  1.00  0.00     0.065 H 
ATOM     83  C   UNL A   1      44.290  30.107  34.238  1.00  0.00     0.037 A 
ATOM     84  C   UNL A   1      38.364  31.114  31.736  1.00  0.00     0.049 A 
ATOM     85  C   UNL A   1      43.014  30.662  34.805  1.00  0.00     0.074 A 
ATOM     86  C   UNL A   1      37.228  31.562  32.386  1.00  0.00    -0.036 A 
ATOM     87  N   UNL A   1      39.385  31.107  32.676  1.00  0.00    -0.354 N 
ATOM     88  N   UNL A   1      41.850  30.815  34.226  1.00  0.00    -0.248 NA
ATOM     89  C   UNL A   1      43.050  31.097  36.209  1.00  0.00    -0.034 C 
ATOM     90  C   UNL A   1      37.570  31.868  33.709  1.00  0.00    -0.036 A 
ATOM     91  H   UNL A   1      36.289  31.656  31.967  1.00  0.00     0.065 H 
ATOM     92  C   UNL A   1      38.910  31.570  33.895  1.00  0.00     0.049 A 
ATOM     93  H   UNL A   1      40.309  30.816  32.503  1.00  0.00     0.167 HD
ATOM     94  C   UNL A   1      41.008  31.345  35.195  1.00  0.00     0.074 A 
ATOM     95  C   UNL A   1      41.793  31.469  36.406  1.00  0.00    -0.034 C 
ATOM     96  H   UNL A   1      43.846  31.111  36.867  1.00  0.00     0.065 H 
ATOM     97  H   UNL A   1      36.932  32.250  34.424  1.00  0.00     0.065 H 
ATOM     98  C   UNL A   1      39.704  31.697  35.090  1.00  0.00     0.037 A 
ATOM     99  H   UNL A   1      41.422  31.803  37.308  1.00  0.00     0.065 H 
BRANCH  80 100
ATOM    100  C   UNL A   1      37.344  30.902  29.438  1.00  0.00     0.064 A 
ATOM    101  C   UNL A   1      36.472  29.842  29.148  1.00  0.00     0.173 A 
ATOM    102  C   UNL A   1      37.071  32.152  28.863  1.00  0.00     0.173 A 
ATOM    103  F   UNL A   1      36.694  28.624  29.665  1.00  0.00    -0.203 F 
ATOM    104  C   UNL A   1      35.388  30.019  28.291  1.00  0.00     0.198 A 
ATOM    105  C   UNL A   1      35.971  32.333  28.029  1.00  0.00     0.198 A 
ATOM    106  F   UNL A   1      37.870  33.200  29.113  1.00  0.00    -0.203 F 
ATOM    107  F   UNL A   1      34.598  28.980  27.989  1.00  0.00    -0.200 F 
ATOM    108  C   UNL A   1      35.136  31.265  27.737  1.00  0.00     0.200 A 
ATOM    109  F   UNL A   1      35.722  33.540  27.503  1.00  0.00    -0.200 F 
ATOM    110  F   UNL A   1      34.091  31.434  26.915  1.00  0.00    -0.200 F 
ENDBRANCH  80 100
BRANCH  83 111
ATOM    111  C   UNL A   1      45.503  29.971  35.084  1.00  0.00     0.064 A 
ATOM    112  C   UNL A   1      45.733  28.799  35.819  1.00  0.00     0.173 A 
ATOM    113  C   UNL A   1      46.453  30.997  35.172  1.00  0.00     0.173 A 
ATOM    114  F   UNL A   1      44.839  27.801  35.782  1.00  0.00    -0.203 F 
ATOM    115  C   UNL A   1      46.865  28.663  36.618  1.00  0.00     0.198 A 
ATOM    116  C   UNL A   1      47.597  30.850  35.953  1.00  0.00     0.198 A 
ATOM    117  F   UNL A   1      46.278  32.136  34.486  1.00  0.00    -0.203 F 
ATOM    118  F   UNL A   1      47.045  27.546  37.337  1.00  0.00    -0.200 F 
ATOM    119  C   UNL A   1      47.799  29.686  36.680  1.00  0.00     0.200 A 
ATOM    120  F   UNL A   1      48.504  31.836  36.002  1.00  0.00    -0.200 F 
ATOM    121  F   UNL A   1      48.892  29.552  37.444  1.00  0.00    -0.200 F 
ENDBRANCH  83 111
BRANCH  98 122
ATOM    122  C   UNL A   1      39.043  32.237  36.324  1.00  0.00     0.064 A 
ATOM    123  C   UNL A   1      38.200  31.440  37.112  1.00  0.00     0.173 A 
ATOM    124  C   UNL A   1      39.264  33.561  36.730  1.00  0.00     0.173 A 
ATOM    125  F   UNL A   1      37.944  30.172  36.756  1.00  0.00    -0.203 F 
ATOM    126  C   UNL A   1      37.581  31.957  38.246  1.00  0.00     0.198 A 
ATOM    127  C   UNL A   1      38.664  34.068  37.879  1.00  0.00     0.198 A 
ATOM    128  F   UNL A   1      40.064  34.364  36.012  1.00  0.00    -0.203 F 
ATOM    129  F   UNL A   1      36.739  31.194  38.956  1.00  0.00    -0.200 F 
ATOM    130  C   UNL A   1      37.817  33.269  38.632  1.00  0.00     0.200 A 
ATOM    131  F   UNL A   1      38.901  35.332  38.256  1.00  0.00    -0.200 F 
ATOM    132  F   UNL A   1      37.218  33.766  39.723  1.00  0.00    -0.200 F 
ENDBRANCH  98 122
ENDBRANCH  63  66
ENDBRANCH  53  56
ENDBRANCH  49  52
ENDBRANCH  46  49
ENDBRANCH  43  46
ENDBRANCH  40  43
ENDBRANCH  37  40
ENDBRANCH   1  37
TORSDOF 19
ENDMDL
MODEL 9
REMARK VINA RESULT:      -9.9      6.771     10.948
REMARK SMILES O=C(CNC(=O)CNC(=O)OCc1ccccc1)NCCCCCCNC(=O)c1ccc(-c2c3nc(c(-c4c(F)c(F)c(F)c(F)c4F)c4ccc([nH]4)c(-c4c(F)c(F)c(F)c(F)c4F)c4nc(c(-c5c(F)c(F)c(F)c(F)c5F)c5ccc2[nH]5)C=C4)C=C3)cc1
REMARK SMILES IDX 20 1 19 4 1 5 2 6 3 8 4 11 5 12 6 14 7 15 8 18 9 19 10 21
REMARK SMILES IDX 11 22 12 23 13 26 14 27 18 28 15 29 17 31 16 33 21 37 22 40
REMARK SMILES IDX 23 43 24 46 25 49 26 52 27 53 28 55 29 56 30 57 91 58 31 59
REMARK SMILES IDX 90 61 32 63 33 66 34 67 84 68 35 69 89 70 83 71 85 72 36 73
REMARK SMILES IDX 88 74 82 76 81 78 37 80 69 83 49 84 68 85 50 86 53 87 67 88
REMARK SMILES IDX 86 89 51 90 52 92 66 94 87 95 54 98 38 100 39 101 47 102
REMARK SMILES IDX 40 103 41 104 45 105 48 106 42 107 43 108 46 109 44 110
REMARK SMILES IDX 70 111 71 112 79 113 72 114 73 115 77 116 80 117 74 118
REMARK SMILES IDX 75 119 78 120 76 121 55 122 56 123 64 124 57 125 58 126
REMARK SMILES IDX 62 127 65 128 59 129 60 130 63 131 61 132
REMARK H PARENT 20 2 20 3 19 7 3 9 3 10 4 13 7 16 7 17 8 20 12 24 12 25 14 30
REMARK H PARENT 18 32 15 34 17 35 16 36 21 38 21 39 22 41 22 42 23 44 23 45
REMARK H PARENT 24 47 24 48 25 50 25 51 26 54 30 60 91 62 31 64 90 65 89 75
REMARK H PARENT 83 77 85 79 88 81 82 82 50 91 53 93 86 96 51 97 87 99
REMARK Flexibility Score: inf
ROOT
ATOM      1  C   UNL A   1      33.170  36.591  31.709  1.00  0.00     0.017 C 
ATOM      2  H   UNL A   1      32.108  36.464  31.736  1.00  0.00     0.049 H 
ATOM      3  H   UNL A   1      33.451  37.569  31.379  1.00  0.00     0.049 H 
ENDROOT
BRANCH   1   4
ATOM      4  N   UNL A   1      33.723  35.642  30.761  1.00  0.00    -0.355 N 
ATOM      5  O   UNL A   1      32.432  36.296  28.980  1.00  0.00    -0.273 OA
ATOM      6  C   UNL A   1      33.330  35.597  29.442  1.00  0.00     0.239 C 
ATOM      7  H   UNL A   1      34.406  35.006  31.073  1.00  0.00     0.163 HD
BRANCH   6   8
ATOM      8  C   UNL A   1      34.037  34.543  28.574  1.00  0.00     0.097 C 
ATOM      9  H   UNL A   1      34.820  35.031  28.032  1.00  0.00     0.059 H 
ATOM     10  H   UNL A   1      33.284  34.121  27.941  1.00  0.00     0.059 H 
BRANCH   8  11
ATOM     11  N   UNL A   1      34.622  33.431  29.315  1.00  0.00    -0.346 N 
ATOM     12  C   UNL A   1      34.758  32.124  28.947  1.00  0.00     0.239 C 
ATOM     13  H   UNL A   1      34.967  33.656  30.210  1.00  0.00     0.164 HD
ATOM     14  O   UNL A   1      35.286  31.347  29.745  1.00  0.00    -0.273 OA
BRANCH  12  15
ATOM     15  C   UNL A   1      34.188  31.637  27.614  1.00  0.00     0.100 C 
ATOM     16  H   UNL A   1      34.968  31.558  26.888  1.00  0.00     0.060 H 
ATOM     17  H   UNL A   1      33.457  32.322  27.240  1.00  0.00     0.060 H 
BRANCH  15  18
ATOM     18  N   UNL A   1      33.599  30.335  27.855  1.00  0.00    -0.312 N 
ATOM     19  C   UNL A   1      32.644  29.726  27.108  1.00  0.00     0.407 C 
ATOM     20  H   UNL A   1      33.925  29.842  28.641  1.00  0.00     0.167 HD
ATOM     21  O   UNL A   1      31.980  28.816  27.586  1.00  0.00    -0.225 OA
BRANCH  19  22
ATOM     22  O   UNL A   1      32.506  30.236  25.863  1.00  0.00    -0.445 OA
BRANCH  22  23
ATOM     23  C   UNL A   1      31.522  29.585  25.040  1.00  0.00     0.118 C 
ATOM     24  H   UNL A   1      30.986  30.336  24.498  1.00  0.00     0.076 H 
ATOM     25  H   UNL A   1      30.887  29.025  25.694  1.00  0.00     0.076 H 
BRANCH  23  26
ATOM     26  C   UNL A   1      32.112  28.607  24.048  1.00  0.00    -0.011 A 
ATOM     27  C   UNL A   1      31.577  27.319  23.903  1.00  0.00    -0.056 A 
ATOM     28  C   UNL A   1      33.235  28.949  23.280  1.00  0.00    -0.056 A 
ATOM     29  C   UNL A   1      32.157  26.405  23.017  1.00  0.00    -0.062 A 
ATOM     30  H   UNL A   1      30.749  27.043  24.454  1.00  0.00     0.063 H 
ATOM     31  C   UNL A   1      33.800  28.045  22.381  1.00  0.00    -0.062 A 
ATOM     32  H   UNL A   1      33.652  29.888  23.382  1.00  0.00     0.063 H 
ATOM     33  C   UNL A   1      33.263  26.770  22.253  1.00  0.00    -0.062 A 
ATOM     34  H   UNL A   1      31.762  25.455  22.929  1.00  0.00     0.062 H 
ATOM     35  H   UNL A   1      34.615  28.322  21.811  1.00  0.00     0.062 H 
ATOM     36  H   UNL A   1      33.683  26.094  21.595  1.00  0.00     0.062 H 
ENDBRANCH  23  26
ENDBRANCH  22  23
ENDBRANCH  19  22
ENDBRANCH  15  18
ENDBRANCH  12  15
ENDBRANCH   8  11
ENDBRANCH   6   8
ENDBRANCH   1   4
BRANCH   1  37
ATOM     37  C   UNL A   1      33.715  36.421  33.128  1.00  0.00    -0.036 C 
ATOM     38  H   UNL A   1      32.992  35.875  33.698  1.00  0.00     0.028 H 
ATOM     39  H   UNL A   1      33.893  37.408  33.500  1.00  0.00     0.028 H 
BRANCH  37  40
ATOM     40  C   UNL A   1      35.055  35.680  33.225  1.00  0.00    -0.052 C 
ATOM     41  H   UNL A   1      35.704  36.262  33.847  1.00  0.00     0.027 H 
ATOM     42  H   UNL A   1      35.392  35.568  32.216  1.00  0.00     0.027 H 
BRANCH  40  43
ATOM     43  C   UNL A   1      35.008  34.263  33.799  1.00  0.00    -0.052 C 
ATOM     44  H   UNL A   1      34.078  34.149  34.315  1.00  0.00     0.027 H 
ATOM     45  H   UNL A   1      35.870  34.178  34.428  1.00  0.00     0.027 H 
BRANCH  43  46
ATOM     46  C   UNL A   1      35.124  33.129  32.783  1.00  0.00    -0.036 C 
ATOM     47  H   UNL A   1      34.832  33.512  31.827  1.00  0.00     0.028 H 
ATOM     48  H   UNL A   1      34.491  32.346  33.146  1.00  0.00     0.028 H 
BRANCH  46  49
ATOM     49  C   UNL A   1      36.512  32.510  32.636  1.00  0.00     0.018 C 
ATOM     50  H   UNL A   1      37.154  32.934  33.381  1.00  0.00     0.049 H 
ATOM     51  H   UNL A   1      36.854  32.722  31.645  1.00  0.00     0.049 H 
BRANCH  49  52
ATOM     52  N   UNL A   1      36.510  31.064  32.796  1.00  0.00    -0.352 N 
ATOM     53  C   UNL A   1      37.443  30.127  32.429  1.00  0.00     0.251 C 
ATOM     54  H   UNL A   1      35.709  30.699  33.239  1.00  0.00     0.163 HD
ATOM     55  O   UNL A   1      37.182  28.931  32.538  1.00  0.00    -0.269 OA
BRANCH  53  56
ATOM     56  C   UNL A   1      38.754  30.534  31.873  1.00  0.00     0.039 A 
ATOM     57  C   UNL A   1      38.956  30.422  30.493  1.00  0.00    -0.049 A 
ATOM     58  C   UNL A   1      39.790  30.995  32.689  1.00  0.00    -0.049 A 
ATOM     59  C   UNL A   1      40.164  30.838  29.927  1.00  0.00    -0.053 A 
ATOM     60  H   UNL A   1      38.213  30.034  29.892  1.00  0.00     0.063 H 
ATOM     61  C   UNL A   1      40.971  31.470  32.118  1.00  0.00    -0.053 A 
ATOM     62  H   UNL A   1      39.682  30.982  33.716  1.00  0.00     0.063 H 
ATOM     63  C   UNL A   1      41.168  31.401  30.731  1.00  0.00    -0.014 A 
ATOM     64  H   UNL A   1      40.320  30.730  28.913  1.00  0.00     0.063 H 
ATOM     65  H   UNL A   1      41.705  31.875  32.720  1.00  0.00     0.063 H 
BRANCH  63  66
ATOM     66  C   UNL A   1      42.409  31.949  30.124  1.00  0.00     0.031 A 
ATOM     67  C   UNL A   1      42.490  33.389  29.701  1.00  0.00     0.074 A 
ATOM     68  C   UNL A   1      43.453  31.127  29.905  1.00  0.00     0.049 A 
ATOM     69  N   UNL A   1      43.489  34.035  29.152  1.00  0.00    -0.248 NA
ATOM     70  C   UNL A   1      41.284  34.205  29.896  1.00  0.00    -0.034 C 
ATOM     71  C   UNL A   1      43.480  29.697  30.215  1.00  0.00    -0.036 A 
ATOM     72  N   UNL A   1      44.692  31.375  29.368  1.00  0.00    -0.354 N 
ATOM     73  C   UNL A   1      43.029  35.325  28.924  1.00  0.00     0.074 A 
ATOM     74  C   UNL A   1      41.647  35.359  29.354  1.00  0.00    -0.034 C 
ATOM     75  H   UNL A   1      40.388  33.948  30.341  1.00  0.00     0.065 H 
ATOM     76  C   UNL A   1      44.686  29.202  29.894  1.00  0.00    -0.036 A 
ATOM     77  H   UNL A   1      42.698  29.156  30.614  1.00  0.00     0.065 H 
ATOM     78  C   UNL A   1      45.506  30.270  29.332  1.00  0.00     0.049 A 
ATOM     79  H   UNL A   1      44.971  32.262  29.042  1.00  0.00     0.167 HD
ATOM     80  C   UNL A   1      43.703  36.388  28.424  1.00  0.00     0.037 A 
ATOM     81  H   UNL A   1      41.024  36.175  29.249  1.00  0.00     0.065 H 
ATOM     82  H   UNL A   1      44.985  28.223  30.025  1.00  0.00     0.065 H 
ATOM     83  C   UNL A   1      46.774  30.134  28.900  1.00  0.00     0.037 A 
ATOM     84  C   UNL A   1      45.087  36.361  28.024  1.00  0.00     0.049 A 
ATOM     85  C   UNL A   1      47.503  31.333  28.362  1.00  0.00     0.074 A 
ATOM     86  C   UNL A   1      45.880  37.408  27.590  1.00  0.00    -0.036 A 
ATOM     87  N   UNL A   1      45.880  35.224  28.004  1.00  0.00    -0.354 N 
ATOM     88  N   UNL A   1      47.085  32.568  28.235  1.00  0.00    -0.248 NA
ATOM     89  C   UNL A   1      48.886  31.116  27.912  1.00  0.00    -0.034 C 
ATOM     90  C   UNL A   1      47.142  36.897  27.264  1.00  0.00    -0.036 A 
ATOM     91  H   UNL A   1      45.592  38.397  27.518  1.00  0.00     0.065 H 
ATOM     92  C   UNL A   1      47.148  35.539  27.537  1.00  0.00     0.049 A 
ATOM     93  H   UNL A   1      45.587  34.326  28.280  1.00  0.00     0.167 HD
ATOM     94  C   UNL A   1      48.155  33.280  27.711  1.00  0.00     0.074 A 
ATOM     95  C   UNL A   1      49.248  32.342  27.561  1.00  0.00    -0.034 C 
ATOM     96  H   UNL A   1      49.431  30.240  27.877  1.00  0.00     0.065 H 
ATOM     97  H   UNL A   1      47.934  37.440  26.887  1.00  0.00     0.065 H 
ATOM     98  C   UNL A   1      48.225  34.593  27.384  1.00  0.00     0.037 A 
ATOM     99  H   UNL A   1      50.190  32.595  27.224  1.00  0.00     0.065 H 
BRANCH  80 100
ATOM    100  C   UNL A   1      42.948  37.678  28.279  1.00  0.00     0.064 A 
ATOM    101  C   UNL A   1      42.974  38.661  29.279  1.00  0.00     0.173 A 
ATOM    102  C   UNL A   1      42.216  37.947  27.112  1.00  0.00     0.173 A 
ATOM    103  F   UNL A   1      43.652  38.449  30.417  1.00  0.00    -0.203 F 
ATOM    104  C   UNL A   1      42.268  39.852  29.131  1.00  0.00     0.198 A 
ATOM    105  C   UNL A   1      41.533  39.150  26.956  1.00  0.00     0.198 A 
ATOM    106  F   UNL A   1      42.165  37.043  26.122  1.00  0.00    -0.203 F 
ATOM    107  F   UNL A   1      42.265  40.756  30.121  1.00  0.00    -0.200 F 
ATOM    108  C   UNL A   1      41.553  40.098  27.968  1.00  0.00     0.200 A 
ATOM    109  F   UNL A   1      40.853  39.391  25.827  1.00  0.00    -0.200 F 
ATOM    110  F   UNL A   1      40.876  41.246  27.827  1.00  0.00    -0.200 F 
ENDBRANCH  80 100
BRANCH  83 111
ATOM    111  C   UNL A   1      47.450  28.817  29.006  1.00  0.00     0.064 A 
ATOM    112  C   UNL A   1      47.425  27.914  27.933  1.00  0.00     0.173 A 
ATOM    113  C   UNL A   1      48.136  28.436  30.167  1.00  0.00     0.173 A 
ATOM    114  F   UNL A   1      46.761  28.227  26.811  1.00  0.00    -0.203 F 
ATOM    115  C   UNL A   1      48.053  26.674  28.023  1.00  0.00     0.198 A 
ATOM    116  C   UNL A   1      48.784  27.206  30.246  1.00  0.00     0.198 A 
ATOM    117  F   UNL A   1      48.190  29.267  31.218  1.00  0.00    -0.203 F 
ATOM    118  F   UNL A   1      47.985  25.815  26.996  1.00  0.00    -0.200 F 
ATOM    119  C   UNL A   1      48.737  26.324  29.177  1.00  0.00     0.200 A 
ATOM    120  F   UNL A   1      49.454  26.874  31.359  1.00  0.00    -0.200 F 
ATOM    121  F   UNL A   1      49.347  25.133  29.260  1.00  0.00    -0.200 F 
ENDBRANCH  83 111
BRANCH  98 122
ATOM    122  C   UNL A   1      49.532  35.092  26.843  1.00  0.00     0.064 A 
ATOM    123  C   UNL A   1      50.638  35.306  27.679  1.00  0.00     0.173 A 
ATOM    124  C   UNL A   1      49.686  35.348  25.472  1.00  0.00     0.173 A 
ATOM    125  F   UNL A   1      50.535  35.093  29.000  1.00  0.00    -0.203 F 
ATOM    126  C   UNL A   1      51.840  35.783  27.167  1.00  0.00     0.198 A 
ATOM    127  C   UNL A   1      50.898  35.800  24.959  1.00  0.00     0.198 A 
ATOM    128  F   UNL A   1      48.660  35.157  24.629  1.00  0.00    -0.203 F 
ATOM    129  F   UNL A   1      52.867  36.030  27.992  1.00  0.00    -0.200 F 
ATOM    130  C   UNL A   1      51.972  36.025  25.808  1.00  0.00     0.200 A 
ATOM    131  F   UNL A   1      51.027  36.024  23.644  1.00  0.00    -0.200 F 
ATOM    132  F   UNL A   1      53.131  36.487  25.317  1.00  0.00    -0.200 F 
ENDBRANCH  98 122
ENDBRANCH  63  66
ENDBRANCH  53  56
ENDBRANCH  49  52
ENDBRANCH  46  49
ENDBRANCH  43  46
ENDBRANCH  40  43
ENDBRANCH  37  40
ENDBRANCH   1  37
TORSDOF 19
ENDMDL
MODEL 10
REMARK VINA RESULT:      -9.9      6.436     10.208
REMARK SMILES O=C(CNC(=O)CNC(=O)OCc1ccccc1)NCCCCCCNC(=O)c1ccc(-c2c3nc(c(-c4c(F)c(F)c(F)c(F)c4F)c4ccc([nH]4)c(-c4c(F)c(F)c(F)c(F)c4F)c4nc(c(-c5c(F)c(F)c(F)c(F)c5F)c5ccc2[nH]5)C=C4)C=C3)cc1
REMARK SMILES IDX 20 1 19 4 1 5 2 6 3 8 4 11 5 12 6 14 7 15 8 18 9 19 10 21
REMARK SMILES IDX 11 22 12 23 13 26 14 27 18 28 15 29 17 31 16 33 21 37 22 40
REMARK SMILES IDX 23 43 24 46 25 49 26 52 27 53 28 55 29 56 30 57 91 58 31 59
REMARK SMILES IDX 90 61 32 63 33 66 34 67 84 68 35 69 89 70 83 71 85 72 36 73
REMARK SMILES IDX 88 74 82 76 81 78 37 80 69 83 49 84 68 85 50 86 53 87 67 88
REMARK SMILES IDX 86 89 51 90 52 92 66 94 87 95 54 98 38 100 39 101 47 102
REMARK SMILES IDX 40 103 41 104 45 105 48 106 42 107 43 108 46 109 44 110
REMARK SMILES IDX 70 111 71 112 79 113 72 114 73 115 77 116 80 117 74 118
REMARK SMILES IDX 75 119 78 120 76 121 55 122 56 123 64 124 57 125 58 126
REMARK SMILES IDX 62 127 65 128 59 129 60 130 63 131 61 132
REMARK H PARENT 20 2 20 3 19 7 3 9 3 10 4 13 7 16 7 17 8 20 12 24 12 25 14 30
REMARK H PARENT 18 32 15 34 17 35 16 36 21 38 21 39 22 41 22 42 23 44 23 45
REMARK H PARENT 24 47 24 48 25 50 25 51 26 54 30 60 91 62 31 64 90 65 89 75
REMARK H PARENT 83 77 85 79 88 81 82 82 50 91 53 93 86 96 51 97 87 99
REMARK Flexibility Score: inf
ROOT
ATOM      1  C   UNL A   1      46.511  35.230  25.403  1.00  0.00     0.017 C 
ATOM      2  H   UNL A   1      45.699  35.763  25.853  1.00  0.00     0.049 H 
ATOM      3  H   UNL A   1      46.446  35.218  24.336  1.00  0.00     0.049 H 
ENDROOT
BRANCH   1   4
ATOM      4  N   UNL A   1      46.462  33.851  25.852  1.00  0.00    -0.355 N 
ATOM      5  O   UNL A   1      44.172  33.692  25.897  1.00  0.00    -0.273 OA
ATOM      6  C   UNL A   1      45.277  33.171  26.028  1.00  0.00     0.239 C 
ATOM      7  H   UNL A   1      47.308  33.383  26.037  1.00  0.00     0.163 HD
BRANCH   6   8
ATOM      8  C   UNL A   1      45.412  31.710  26.486  1.00  0.00     0.097 C 
ATOM      9  H   UNL A   1      46.246  31.647  27.154  1.00  0.00     0.059 H 
ATOM     10  H   UNL A   1      45.539  31.127  25.597  1.00  0.00     0.059 H 
BRANCH   8  11
ATOM     11  N   UNL A   1      44.241  31.170  27.168  1.00  0.00    -0.346 N 
ATOM     12  C   UNL A   1      44.077  29.959  27.775  1.00  0.00     0.239 C 
ATOM     13  H   UNL A   1      43.456  31.765  27.193  1.00  0.00     0.164 HD
ATOM     14  O   UNL A   1      42.985  29.710  28.291  1.00  0.00    -0.273 OA
BRANCH  12  15
ATOM     15  C   UNL A   1      45.196  28.918  27.732  1.00  0.00     0.100 C 
ATOM     16  H   UNL A   1      45.002  28.140  28.440  1.00  0.00     0.060 H 
ATOM     17  H   UNL A   1      46.137  29.361  27.979  1.00  0.00     0.060 H 
BRANCH  15  18
ATOM     18  N   UNL A   1      45.218  28.374  26.390  1.00  0.00    -0.312 N 
ATOM     19  C   UNL A   1      44.690  27.191  25.985  1.00  0.00     0.407 C 
ATOM     20  H   UNL A   1      45.662  28.918  25.700  1.00  0.00     0.167 HD
ATOM     21  O   UNL A   1      45.068  26.678  24.939  1.00  0.00    -0.225 OA
BRANCH  19  22
ATOM     22  O   UNL A   1      43.780  26.671  26.837  1.00  0.00    -0.445 OA
BRANCH  22  23
ATOM     23  C   UNL A   1      42.504  26.352  26.252  1.00  0.00     0.118 C 
ATOM     24  H   UNL A   1      42.387  25.289  26.258  1.00  0.00     0.076 H 
ATOM     25  H   UNL A   1      42.504  26.756  25.262  1.00  0.00     0.076 H 
BRANCH  23  26
ATOM     26  C   UNL A   1      41.331  26.969  26.983  1.00  0.00    -0.011 A 
ATOM     27  C   UNL A   1      40.750  28.162  26.533  1.00  0.00    -0.056 A 
ATOM     28  C   UNL A   1      40.824  26.383  28.153  1.00  0.00    -0.056 A 
ATOM     29  C   UNL A   1      39.696  28.750  27.240  1.00  0.00    -0.062 A 
ATOM     30  H   UNL A   1      41.103  28.611  25.673  1.00  0.00     0.063 H 
ATOM     31  C   UNL A   1      39.758  26.957  28.846  1.00  0.00    -0.062 A 
ATOM     32  H   UNL A   1      41.247  25.511  28.508  1.00  0.00     0.063 H 
ATOM     33  C   UNL A   1      39.197  28.145  28.392  1.00  0.00    -0.062 A 
ATOM     34  H   UNL A   1      39.285  29.636  26.905  1.00  0.00     0.062 H 
ATOM     35  H   UNL A   1      39.387  26.502  29.695  1.00  0.00     0.062 H 
ATOM     36  H   UNL A   1      38.414  28.578  28.906  1.00  0.00     0.062 H 
ENDBRANCH  23  26
ENDBRANCH  22  23
ENDBRANCH  19  22
ENDBRANCH  15  18
ENDBRANCH  12  15
ENDBRANCH   8  11
ENDBRANCH   6   8
ENDBRANCH   1   4
BRANCH   1  37
ATOM     37  C   UNL A   1      47.816  35.940  25.767  1.00  0.00    -0.036 C 
ATOM     38  H   UNL A   1      48.555  35.669  25.041  1.00  0.00     0.028 H 
ATOM     39  H   UNL A   1      48.060  35.626  26.761  1.00  0.00     0.028 H 
BRANCH  37  40
ATOM     40  C   UNL A   1      47.733  37.471  25.812  1.00  0.00    -0.052 C 
ATOM     41  H   UNL A   1      47.910  37.836  24.822  1.00  0.00     0.027 H 
ATOM     42  H   UNL A   1      48.464  37.775  26.533  1.00  0.00     0.027 H 
BRANCH  40  43
ATOM     43  C   UNL A   1      46.411  38.066  26.298  1.00  0.00    -0.052 C 
ATOM     44  H   UNL A   1      46.454  38.135  27.365  1.00  0.00     0.027 H 
ATOM     45  H   UNL A   1      45.647  37.410  25.933  1.00  0.00     0.027 H 
BRANCH  43  46
ATOM     46  C   UNL A   1      46.062  39.449  25.752  1.00  0.00    -0.036 C 
ATOM     47  H   UNL A   1      45.233  39.341  25.086  1.00  0.00     0.028 H 
ATOM     48  H   UNL A   1      46.952  39.810  25.281  1.00  0.00     0.028 H 
BRANCH  46  49
ATOM     49  C   UNL A   1      45.689  40.498  26.798  1.00  0.00     0.018 C 
ATOM     50  H   UNL A   1      46.351  41.334  26.694  1.00  0.00     0.049 H 
ATOM     51  H   UNL A   1      45.775  40.037  27.759  1.00  0.00     0.049 H 
BRANCH  49  52
ATOM     52  N   UNL A   1      44.321  40.972  26.664  1.00  0.00    -0.352 N 
ATOM     53  C   UNL A   1      43.130  40.342  26.927  1.00  0.00     0.251 C 
ATOM     54  H   UNL A   1      44.234  41.896  26.330  1.00  0.00     0.163 HD
ATOM     55  O   UNL A   1      42.072  40.883  26.615  1.00  0.00    -0.269 OA
BRANCH  53  56
ATOM     56  C   UNL A   1      43.101  39.001  27.557  1.00  0.00     0.039 A 
ATOM     57  C   UNL A   1      42.809  37.894  26.753  1.00  0.00    -0.049 A 
ATOM     58  C   UNL A   1      43.327  38.824  28.924  1.00  0.00    -0.049 A 
ATOM     59  C   UNL A   1      42.816  36.610  27.302  1.00  0.00    -0.053 A 
ATOM     60  H   UNL A   1      42.589  38.025  25.753  1.00  0.00     0.063 H 
ATOM     61  C   UNL A   1      43.398  37.537  29.460  1.00  0.00    -0.053 A 
ATOM     62  H   UNL A   1      43.441  39.646  29.538  1.00  0.00     0.063 H 
ATOM     63  C   UNL A   1      43.148  36.417  28.653  1.00  0.00    -0.014 A 
ATOM     64  H   UNL A   1      42.575  35.798  26.713  1.00  0.00     0.063 H 
ATOM     65  H   UNL A   1      43.637  37.409  30.455  1.00  0.00     0.063 H 
BRANCH  63  66
ATOM     66  C   UNL A   1      43.269  35.048  29.217  1.00  0.00     0.031 A 
ATOM     67  C   UNL A   1      42.050  34.280  29.647  1.00  0.00     0.074 A 
ATOM     68  C   UNL A   1      44.493  34.513  29.392  1.00  0.00     0.049 A 
ATOM     69  N   UNL A   1      41.969  33.078  30.163  1.00  0.00    -0.248 NA
ATOM     70  C   UNL A   1      40.755  34.959  29.502  1.00  0.00    -0.034 C 
ATOM     71  C   UNL A   1      45.757  35.177  29.071  1.00  0.00    -0.036 A 
ATOM     72  N   UNL A   1      44.875  33.289  29.883  1.00  0.00    -0.354 N 
ATOM     73  C   UNL A   1      40.621  32.864  30.416  1.00  0.00     0.074 A 
ATOM     74  C   UNL A   1      39.925  34.076  30.038  1.00  0.00    -0.034 C 
ATOM     75  H   UNL A   1      40.546  35.882  29.089  1.00  0.00     0.065 H 
ATOM     76  C   UNL A   1      46.772  34.342  29.343  1.00  0.00    -0.036 A 
ATOM     77  H   UNL A   1      45.853  36.134  28.697  1.00  0.00     0.065 H 
ATOM     78  C   UNL A   1      46.235  33.097  29.882  1.00  0.00     0.049 A 
ATOM     79  H   UNL A   1      44.235  32.614  30.205  1.00  0.00     0.167 HD
ATOM     80  C   UNL A   1      40.017  31.751  30.898  1.00  0.00     0.037 A 
ATOM     81  H   UNL A   1      38.914  34.233  30.172  1.00  0.00     0.065 H 
ATOM     82  H   UNL A   1      47.772  34.548  29.195  1.00  0.00     0.065 H 
ATOM     83  C   UNL A   1      46.966  32.034  30.265  1.00  0.00     0.037 A 
ATOM     84  C   UNL A   1      40.706  30.535  31.246  1.00  0.00     0.049 A 
ATOM     85  C   UNL A   1      46.269  30.807  30.784  1.00  0.00     0.074 A 
ATOM     86  C   UNL A   1      40.171  29.327  31.657  1.00  0.00    -0.036 A 
ATOM     87  N   UNL A   1      42.084  30.377  31.229  1.00  0.00    -0.354 N 
ATOM     88  N   UNL A   1      44.988  30.585  30.934  1.00  0.00    -0.248 NA
ATOM     89  C   UNL A   1      47.127  29.681  31.181  1.00  0.00    -0.034 C 
ATOM     90  C   UNL A   1      41.228  28.450  31.932  1.00  0.00    -0.036 A 
ATOM     91  H   UNL A   1      39.167  29.109  31.747  1.00  0.00     0.065 H 
ATOM     92  C   UNL A   1      42.419  29.098  31.650  1.00  0.00     0.049 A 
ATOM     93  H   UNL A   1      42.729  31.069  30.957  1.00  0.00     0.167 HD
ATOM     94  C   UNL A   1      44.880  29.290  31.423  1.00  0.00     0.074 A 
ATOM     95  C   UNL A   1      46.228  28.770  31.526  1.00  0.00    -0.034 C 
ATOM     96  H   UNL A   1      48.157  29.617  31.189  1.00  0.00     0.065 H 
ATOM     97  H   UNL A   1      41.135  27.485  32.284  1.00  0.00     0.065 H 
ATOM     98  C   UNL A   1      43.765  28.596  31.757  1.00  0.00     0.037 A 
ATOM     99  H   UNL A   1      46.460  27.811  31.830  1.00  0.00     0.065 H 
BRANCH  80 100
ATOM    100  C   UNL A   1      38.527  31.798  31.080  1.00  0.00     0.064 A 
ATOM    101  C   UNL A   1      37.948  32.098  32.322  1.00  0.00     0.173 A 
ATOM    102  C   UNL A   1      37.670  31.569  29.993  1.00  0.00     0.173 A 
ATOM    103  F   UNL A   1      38.723  32.315  33.394  1.00  0.00    -0.203 F 
ATOM    104  C   UNL A   1      36.564  32.136  32.476  1.00  0.00     0.198 A 
ATOM    105  C   UNL A   1      36.288  31.635  30.145  1.00  0.00     0.198 A 
ATOM    106  F   UNL A   1      38.173  31.286  28.783  1.00  0.00    -0.203 F 
ATOM    107  F   UNL A   1      36.032  32.376  33.683  1.00  0.00    -0.200 F 
ATOM    108  C   UNL A   1      35.735  31.910  31.387  1.00  0.00     0.200 A 
ATOM    109  F   UNL A   1      35.488  31.428  29.089  1.00  0.00    -0.200 F 
ATOM    110  F   UNL A   1      34.404  31.950  31.537  1.00  0.00    -0.200 F 
ENDBRANCH  80 100
BRANCH  83 111
ATOM    111  C   UNL A   1      48.443  32.068  30.126  1.00  0.00     0.064 A 
ATOM    112  C   UNL A   1      49.061  31.604  28.956  1.00  0.00     0.173 A 
ATOM    113  C   UNL A   1      49.264  32.568  31.146  1.00  0.00     0.173 A 
ATOM    114  F   UNL A   1      48.316  31.096  27.963  1.00  0.00    -0.203 F 
ATOM    115  C   UNL A   1      50.446  31.629  28.816  1.00  0.00     0.198 A 
ATOM    116  C   UNL A   1      50.648  32.614  30.995  1.00  0.00     0.198 A 
ATOM    117  F   UNL A   1      48.719  33.026  32.282  1.00  0.00    -0.203 F 
ATOM    118  F   UNL A   1      51.014  31.147  27.702  1.00  0.00    -0.200 F 
ATOM    119  C   UNL A   1      51.238  32.139  29.834  1.00  0.00     0.200 A 
ATOM    120  F   UNL A   1      51.410  33.119  31.976  1.00  0.00    -0.200 F 
ATOM    121  F   UNL A   1      52.571  32.169  29.696  1.00  0.00    -0.200 F 
ENDBRANCH  83 111
BRANCH  98 122
ATOM    122  C   UNL A   1      43.959  27.193  32.252  1.00  0.00     0.064 A 
ATOM    123  C   UNL A   1      43.939  26.889  33.621  1.00  0.00     0.173 A 
ATOM    124  C   UNL A   1      44.155  26.138  31.348  1.00  0.00     0.173 A 
ATOM    125  F   UNL A   1      43.772  27.865  34.526  1.00  0.00    -0.203 F 
ATOM    126  C   UNL A   1      44.135  25.586  34.068  1.00  0.00     0.198 A 
ATOM    127  C   UNL A   1      44.325  24.832  31.797  1.00  0.00     0.198 A 
ATOM    128  F   UNL A   1      44.180  26.375  30.027  1.00  0.00    -0.203 F 
ATOM    129  F   UNL A   1      44.164  25.327  35.383  1.00  0.00    -0.200 F 
ATOM    130  C   UNL A   1      44.323  24.557  33.157  1.00  0.00     0.200 A 
ATOM    131  F   UNL A   1      44.496  23.838  30.914  1.00  0.00    -0.200 F 
ATOM    132  F   UNL A   1      44.514  23.303  33.589  1.00  0.00    -0.200 F 
ENDBRANCH  98 122
ENDBRANCH  63  66
ENDBRANCH  53  56
ENDBRANCH  49  52
ENDBRANCH  46  49
ENDBRANCH  43  46
ENDBRANCH  40  43
ENDBRANCH  37  40
ENDBRANCH   1  37
TORSDOF 19
ENDMDL
