MODEL 1
REMARK VINA RESULT:     -12.1      0.000      0.000
REMARK SMILES Cc1cccc(Nc2ccccc2C(=O)NCCCCCCNC(=O)c2ccc(-c3c4nc(c(-c5c(F)c(F)c(F)c(F)c5F)c5ccc([nH]5)c(-c5c(F)c(F)c(F)c(F)c5F)c5nc(c(-c6c(F)c(F)c(F)c(F)c6F)c6ccc3[nH]6)C=C5)C=C4)cc2)c1C
REMARK SMILES IDX 19 1 18 4 17 7 16 10 14 11 15 12 13 14 8 15 9 16 10 17 12 19
REMARK SMILES IDX 11 20 7 24 6 26 2 27 3 28 89 29 4 30 5 32 1 35 90 39 20 43
REMARK SMILES IDX 21 46 22 49 23 52 24 53 25 55 26 56 27 57 88 58 28 59 87 61
REMARK SMILES IDX 29 63 30 66 31 67 81 68 32 69 86 70 80 71 82 72 33 73 85 74
REMARK SMILES IDX 79 76 78 78 34 80 66 83 46 84 65 85 47 86 50 87 64 88 83 89
REMARK SMILES IDX 48 90 49 92 63 94 84 95 51 98 35 100 36 101 44 102 37 103
REMARK SMILES IDX 38 104 42 105 45 106 39 107 40 108 43 109 41 110 67 111
REMARK SMILES IDX 68 112 76 113 69 114 70 115 74 116 77 117 71 118 72 119
REMARK SMILES IDX 75 120 73 121 52 122 53 123 61 124 54 125 55 126 59 127
REMARK SMILES IDX 62 128 56 129 57 130 60 131 58 132
REMARK H PARENT 19 2 19 3 18 5 18 6 17 8 17 9 16 13 9 18 10 21 12 22 11 23
REMARK H PARENT 7 25 3 31 4 33 5 34 1 36 1 37 1 38 90 40 90 41 90 42 20 44
REMARK H PARENT 20 45 21 47 21 48 22 50 22 51 23 54 27 60 88 62 28 64 87 65
REMARK H PARENT 86 75 80 77 82 79 85 81 79 82 47 91 50 93 83 96 48 97 84 99
REMARK Flexibility Score: inf
ROOT
ATOM      1  C   UNL A   1      32.340  29.929  26.697  1.00  0.00    -0.052 C 
ATOM      2  H   UNL A   1      33.117  29.668  26.009  1.00  0.00     0.027 H 
ATOM      3  H   UNL A   1      32.655  30.476  27.561  1.00  0.00     0.027 H 
ENDROOT
BRANCH   1   4
ATOM      4  C   UNL A   1      31.765  28.619  27.256  1.00  0.00    -0.036 C 
ATOM      5  H   UNL A   1      31.910  28.625  28.315  1.00  0.00     0.028 H 
ATOM      6  H   UNL A   1      30.740  28.606  26.946  1.00  0.00     0.028 H 
BRANCH   4   7
ATOM      7  C   UNL A   1      32.364  27.323  26.715  1.00  0.00     0.018 C 
ATOM      8  H   UNL A   1      32.502  27.433  25.660  1.00  0.00     0.049 H 
ATOM      9  H   UNL A   1      33.282  27.169  27.244  1.00  0.00     0.049 H 
BRANCH   7  10
ATOM     10  N   UNL A   1      31.559  26.150  26.944  1.00  0.00    -0.352 N 
ATOM     11  C   UNL A   1      31.795  24.836  26.619  1.00  0.00     0.253 C 
ATOM     12  O   UNL A   1      30.980  24.006  27.032  1.00  0.00    -0.269 OA
ATOM     13  H   UNL A   1      30.705  26.316  27.404  1.00  0.00     0.163 HD
BRANCH  11  14
ATOM     14  C   UNL A   1      32.886  24.368  25.706  1.00  0.00     0.063 A 
ATOM     15  C   UNL A   1      32.961  24.457  24.302  1.00  0.00     0.051 A 
ATOM     16  C   UNL A   1      34.088  23.884  23.657  1.00  0.00    -0.038 A 
ATOM     17  C   UNL A   1      35.143  23.310  24.364  1.00  0.00    -0.060 A 
ATOM     18  H   UNL A   1      34.128  23.893  22.627  1.00  0.00     0.064 H 
ATOM     19  C   UNL A   1      33.980  23.797  26.406  1.00  0.00    -0.047 A 
ATOM     20  C   UNL A   1      35.099  23.286  25.748  1.00  0.00    -0.061 A 
ATOM     21  H   UNL A   1      35.950  22.908  23.862  1.00  0.00     0.062 H 
ATOM     22  H   UNL A   1      33.946  23.758  27.437  1.00  0.00     0.063 H 
ATOM     23  H   UNL A   1      35.886  22.893  26.287  1.00  0.00     0.062 H 
BRANCH  15  24
ATOM     24  N   UNL A   1      32.108  25.174  23.437  1.00  0.00    -0.355 N 
ATOM     25  H   UNL A   1      31.677  24.599  22.763  1.00  0.00     0.167 HD
BRANCH  24  26
ATOM     26  C   UNL A   1      31.732  26.528  23.321  1.00  0.00     0.042 A 
ATOM     27  C   UNL A   1      30.153  28.360  23.012  1.00  0.00    -0.046 A 
ATOM     28  C   UNL A   1      31.207  29.209  22.644  1.00  0.00    -0.059 A 
ATOM     29  C   UNL A   1      30.419  27.027  23.422  1.00  0.00    -0.025 A 
ATOM     30  C   UNL A   1      32.516  28.752  22.664  1.00  0.00    -0.060 A 
ATOM     31  H   UNL A   1      31.008  30.179  22.356  1.00  0.00     0.063 H 
ATOM     32  C   UNL A   1      32.770  27.424  22.989  1.00  0.00    -0.038 A 
ATOM     33  H   UNL A   1      33.295  29.391  22.439  1.00  0.00     0.062 H 
ATOM     34  H   UNL A   1      33.745  27.085  22.986  1.00  0.00     0.064 H 
BRANCH  27  35
ATOM     35  C   UNL A   1      28.750  28.908  22.982  1.00  0.00    -0.039 C 
ATOM     36  H   UNL A   1      28.687  29.761  23.623  1.00  0.00     0.028 H 
ATOM     37  H   UNL A   1      28.068  28.156  23.319  1.00  0.00     0.028 H 
ATOM     38  H   UNL A   1      28.500  29.194  21.982  1.00  0.00     0.028 H 
ENDBRANCH  27  35
BRANCH  29  39
ATOM     39  C   UNL A   1      29.294  26.214  24.013  1.00  0.00    -0.037 C 
ATOM     40  H   UNL A   1      29.451  25.178  23.799  1.00  0.00     0.028 H 
ATOM     41  H   UNL A   1      28.364  26.530  23.588  1.00  0.00     0.028 H 
ATOM     42  H   UNL A   1      29.270  26.359  25.073  1.00  0.00     0.028 H 
ENDBRANCH  29  39
ENDBRANCH  24  26
ENDBRANCH  15  24
ENDBRANCH  11  14
ENDBRANCH   7  10
ENDBRANCH   4   7
ENDBRANCH   1   4
BRANCH   1  43
ATOM     43  C   UNL A   1      31.379  30.876  25.967  1.00  0.00    -0.052 C 
ATOM     44  H   UNL A   1      30.408  30.428  25.986  1.00  0.00     0.027 H 
ATOM     45  H   UNL A   1      31.801  31.000  24.991  1.00  0.00     0.027 H 
BRANCH  43  46
ATOM     46  C   UNL A   1      31.245  32.293  26.526  1.00  0.00    -0.036 C 
ATOM     47  H   UNL A   1      30.458  32.283  27.250  1.00  0.00     0.028 H 
ATOM     48  H   UNL A   1      31.058  32.917  25.676  1.00  0.00     0.028 H 
BRANCH  46  49
ATOM     49  C   UNL A   1      32.482  32.879  27.193  1.00  0.00     0.018 C 
ATOM     50  H   UNL A   1      33.292  32.849  26.494  1.00  0.00     0.049 H 
ATOM     51  H   UNL A   1      32.683  32.291  28.063  1.00  0.00     0.049 H 
BRANCH  49  52
ATOM     52  N   UNL A   1      32.300  34.251  27.630  1.00  0.00    -0.352 N 
ATOM     53  C   UNL A   1      32.974  34.977  28.582  1.00  0.00     0.251 C 
ATOM     54  H   UNL A   1      31.578  34.740  27.172  1.00  0.00     0.163 HD
ATOM     55  O   UNL A   1      32.571  36.094  28.894  1.00  0.00    -0.269 OA
BRANCH  53  56
ATOM     56  C   UNL A   1      34.170  34.423  29.261  1.00  0.00     0.039 A 
ATOM     57  C   UNL A   1      34.000  33.745  30.475  1.00  0.00    -0.049 A 
ATOM     58  C   UNL A   1      35.455  34.597  28.744  1.00  0.00    -0.049 A 
ATOM     59  C   UNL A   1      35.104  33.193  31.133  1.00  0.00    -0.053 A 
ATOM     60  H   UNL A   1      33.056  33.652  30.884  1.00  0.00     0.063 H 
ATOM     61  C   UNL A   1      36.545  33.982  29.360  1.00  0.00    -0.053 A 
ATOM     62  H   UNL A   1      35.599  35.181  27.906  1.00  0.00     0.063 H 
ATOM     63  C   UNL A   1      36.383  33.280  30.565  1.00  0.00    -0.014 A 
ATOM     64  H   UNL A   1      34.976  32.719  32.041  1.00  0.00     0.063 H 
ATOM     65  H   UNL A   1      37.479  34.042  28.925  1.00  0.00     0.063 H 
BRANCH  63  66
ATOM     66  C   UNL A   1      37.571  32.673  31.219  1.00  0.00     0.031 A 
ATOM     67  C   UNL A   1      38.301  31.542  30.546  1.00  0.00     0.074 A 
ATOM     68  C   UNL A   1      37.942  33.072  32.450  1.00  0.00     0.049 A 
ATOM     69  N   UNL A   1      39.268  30.787  31.004  1.00  0.00    -0.248 NA
ATOM     70  C   UNL A   1      37.861  31.191  29.187  1.00  0.00    -0.034 C 
ATOM     71  C   UNL A   1      37.295  34.131  33.226  1.00  0.00    -0.036 A 
ATOM     72  N   UNL A   1      38.944  32.620  33.274  1.00  0.00    -0.354 N 
ATOM     73  C   UNL A   1      39.525  29.856  30.007  1.00  0.00     0.074 A 
ATOM     74  C   UNL A   1      38.586  30.113  28.936  1.00  0.00    -0.034 C 
ATOM     75  H   UNL A   1      37.167  31.664  28.586  1.00  0.00     0.065 H 
ATOM     76  C   UNL A   1      37.918  34.250  34.410  1.00  0.00    -0.036 A 
ATOM     77  H   UNL A   1      36.490  34.693  32.914  1.00  0.00     0.065 H 
ATOM     78  C   UNL A   1      38.982  33.253  34.493  1.00  0.00     0.049 A 
ATOM     79  H   UNL A   1      39.574  31.908  33.017  1.00  0.00     0.167 HD
ATOM     80  C   UNL A   1      40.469  28.885  29.979  1.00  0.00     0.037 A 
ATOM     81  H   UNL A   1      38.494  29.531  28.088  1.00  0.00     0.065 H 
ATOM     82  H   UNL A   1      37.683  34.938  35.143  1.00  0.00     0.065 H 
ATOM     83  C   UNL A   1      39.774  33.043  35.563  1.00  0.00     0.037 A 
ATOM     84  C   UNL A   1      41.432  28.662  31.025  1.00  0.00     0.049 A 
ATOM     85  C   UNL A   1      40.828  31.972  35.501  1.00  0.00     0.074 A 
ATOM     86  C   UNL A   1      42.481  27.760  31.055  1.00  0.00    -0.036 A 
ATOM     87  N   UNL A   1      41.463  29.353  32.227  1.00  0.00    -0.354 N 
ATOM     88  N   UNL A   1      41.102  31.137  34.530  1.00  0.00    -0.248 NA
ATOM     89  C   UNL A   1      41.686  31.815  36.685  1.00  0.00    -0.034 C 
ATOM     90  C   UNL A   1      43.121  27.875  32.293  1.00  0.00    -0.036 A 
ATOM     91  H   UNL A   1      42.745  27.114  30.294  1.00  0.00     0.065 H 
ATOM     92  C   UNL A   1      42.501  28.882  33.016  1.00  0.00     0.049 A 
ATOM     93  H   UNL A   1      40.841  30.072  32.482  1.00  0.00     0.167 HD
ATOM     94  C   UNL A   1      42.176  30.377  34.969  1.00  0.00     0.074 A 
ATOM     95  C   UNL A   1      42.511  30.853  36.294  1.00  0.00    -0.034 C 
ATOM     96  H   UNL A   1      41.654  32.321  37.584  1.00  0.00     0.065 H 
ATOM     97  H   UNL A   1      43.921  27.307  32.613  1.00  0.00     0.065 H 
ATOM     98  C   UNL A   1      42.827  29.374  34.329  1.00  0.00     0.037 A 
ATOM     99  H   UNL A   1      43.292  30.489  36.864  1.00  0.00     0.065 H 
BRANCH  80 100
ATOM    100  C   UNL A   1      40.506  27.985  28.778  1.00  0.00     0.064 A 
ATOM    101  C   UNL A   1      41.264  28.301  27.640  1.00  0.00     0.173 A 
ATOM    102  C   UNL A   1      39.792  26.777  28.774  1.00  0.00     0.173 A 
ATOM    103  F   UNL A   1      41.956  29.448  27.589  1.00  0.00    -0.203 F 
ATOM    104  C   UNL A   1      41.280  27.457  26.532  1.00  0.00     0.198 A 
ATOM    105  C   UNL A   1      39.835  25.920  27.677  1.00  0.00     0.198 A 
ATOM    106  F   UNL A   1      39.056  26.422  29.838  1.00  0.00    -0.203 F 
ATOM    107  F   UNL A   1      41.968  27.808  25.436  1.00  0.00    -0.200 F 
ATOM    108  C   UNL A   1      40.570  26.267  26.552  1.00  0.00     0.200 A 
ATOM    109  F   UNL A   1      39.158  24.764  27.704  1.00  0.00    -0.200 F 
ATOM    110  F   UNL A   1      40.588  25.455  25.487  1.00  0.00    -0.200 F 
ENDBRANCH  80 100
BRANCH  83 111
ATOM    111  C   UNL A   1      39.606  33.884  36.777  1.00  0.00     0.064 A 
ATOM    112  C   UNL A   1      40.231  35.134  36.876  1.00  0.00     0.173 A 
ATOM    113  C   UNL A   1      38.810  33.464  37.851  1.00  0.00     0.173 A 
ATOM    114  F   UNL A   1      41.020  35.569  35.884  1.00  0.00    -0.203 F 
ATOM    115  C   UNL A   1      40.073  35.928  38.010  1.00  0.00     0.198 A 
ATOM    116  C   UNL A   1      38.631  34.270  38.973  1.00  0.00     0.198 A 
ATOM    117  F   UNL A   1      38.187  32.276  37.802  1.00  0.00    -0.203 F 
ATOM    118  F   UNL A   1      40.709  37.105  38.095  1.00  0.00    -0.200 F 
ATOM    119  C   UNL A   1      39.267  35.500  39.055  1.00  0.00     0.200 A 
ATOM    120  F   UNL A   1      37.841  33.857  39.974  1.00  0.00    -0.200 F 
ATOM    121  F   UNL A   1      39.108  36.268  40.140  1.00  0.00    -0.200 F 
ENDBRANCH  83 111
BRANCH  98 122
ATOM    122  C   UNL A   1      43.992  28.743  35.035  1.00  0.00     0.064 A 
ATOM    123  C   UNL A   1      43.831  27.614  35.850  1.00  0.00     0.173 A 
ATOM    124  C   UNL A   1      45.291  29.235  34.836  1.00  0.00     0.173 A 
ATOM    125  F   UNL A   1      42.608  27.116  36.081  1.00  0.00    -0.203 F 
ATOM    126  C   UNL A   1      44.930  27.008  36.452  1.00  0.00     0.198 A 
ATOM    127  C   UNL A   1      46.389  28.611  35.419  1.00  0.00     0.198 A 
ATOM    128  F   UNL A   1      45.495  30.309  34.060  1.00  0.00    -0.203 F 
ATOM    129  F   UNL A   1      44.753  25.948  37.254  1.00  0.00    -0.200 F 
ATOM    130  C   UNL A   1      46.209  27.500  36.229  1.00  0.00     0.200 A 
ATOM    131  F   UNL A   1      47.623  29.079  35.191  1.00  0.00    -0.200 F 
ATOM    132  F   UNL A   1      47.266  26.905  36.797  1.00  0.00    -0.200 F 
ENDBRANCH  98 122
ENDBRANCH  63  66
ENDBRANCH  53  56
ENDBRANCH  49  52
ENDBRANCH  46  49
ENDBRANCH  43  46
ENDBRANCH   1  43
TORSDOF 17
ENDMDL
MODEL 2
REMARK VINA RESULT:     -12.0      0.141      1.589
REMARK SMILES Cc1cccc(Nc2ccccc2C(=O)NCCCCCCNC(=O)c2ccc(-c3c4nc(c(-c5c(F)c(F)c(F)c(F)c5F)c5ccc([nH]5)c(-c5c(F)c(F)c(F)c(F)c5F)c5nc(c(-c6c(F)c(F)c(F)c(F)c6F)c6ccc3[nH]6)C=C5)C=C4)cc2)c1C
REMARK SMILES IDX 19 1 18 4 17 7 16 10 14 11 15 12 13 14 8 15 9 16 10 17 12 19
REMARK SMILES IDX 11 20 7 24 6 26 2 27 3 28 89 29 4 30 5 32 1 35 90 39 20 43
REMARK SMILES IDX 21 46 22 49 23 52 24 53 25 55 26 56 27 57 88 58 28 59 87 61
REMARK SMILES IDX 29 63 30 66 31 67 81 68 32 69 86 70 80 71 82 72 33 73 85 74
REMARK SMILES IDX 79 76 78 78 34 80 66 83 46 84 65 85 47 86 50 87 64 88 83 89
REMARK SMILES IDX 48 90 49 92 63 94 84 95 51 98 35 100 36 101 44 102 37 103
REMARK SMILES IDX 38 104 42 105 45 106 39 107 40 108 43 109 41 110 67 111
REMARK SMILES IDX 68 112 76 113 69 114 70 115 74 116 77 117 71 118 72 119
REMARK SMILES IDX 75 120 73 121 52 122 53 123 61 124 54 125 55 126 59 127
REMARK SMILES IDX 62 128 56 129 57 130 60 131 58 132
REMARK H PARENT 19 2 19 3 18 5 18 6 17 8 17 9 16 13 9 18 10 21 12 22 11 23
REMARK H PARENT 7 25 3 31 4 33 5 34 1 36 1 37 1 38 90 40 90 41 90 42 20 44
REMARK H PARENT 20 45 21 47 21 48 22 50 22 51 23 54 27 60 88 62 28 64 87 65
REMARK H PARENT 86 75 80 77 82 79 85 81 79 82 47 91 50 93 83 96 48 97 84 99
REMARK Flexibility Score: inf
ROOT
ATOM      1  C   UNL A   1      32.395  29.940  26.469  1.00  0.00    -0.052 C 
ATOM      2  H   UNL A   1      33.036  29.591  25.686  1.00  0.00     0.027 H 
ATOM      3  H   UNL A   1      32.875  30.511  27.237  1.00  0.00     0.027 H 
ENDROOT
BRANCH   1   4
ATOM      4  C   UNL A   1      31.842  28.704  27.192  1.00  0.00    -0.036 C 
ATOM      5  H   UNL A   1      32.053  28.814  28.235  1.00  0.00     0.028 H 
ATOM      6  H   UNL A   1      30.799  28.678  26.950  1.00  0.00     0.028 H 
BRANCH   4   7
ATOM      7  C   UNL A   1      32.389  27.350  26.749  1.00  0.00     0.018 C 
ATOM      8  H   UNL A   1      32.603  27.402  25.702  1.00  0.00     0.049 H 
ATOM      9  H   UNL A   1      33.258  27.164  27.347  1.00  0.00     0.049 H 
BRANCH   7  10
ATOM     10  N   UNL A   1      31.496  26.241  26.973  1.00  0.00    -0.352 N 
ATOM     11  C   UNL A   1      31.617  24.920  26.615  1.00  0.00     0.253 C 
ATOM     12  O   UNL A   1      30.746  24.149  27.029  1.00  0.00    -0.269 OA
ATOM     13  H   UNL A   1      30.669  26.465  27.456  1.00  0.00     0.163 HD
BRANCH  11  14
ATOM     14  C   UNL A   1      32.647  24.386  25.667  1.00  0.00     0.063 A 
ATOM     15  C   UNL A   1      32.663  24.441  24.259  1.00  0.00     0.051 A 
ATOM     16  C   UNL A   1      33.736  23.806  23.580  1.00  0.00    -0.038 A 
ATOM     17  C   UNL A   1      34.796  23.203  24.255  1.00  0.00    -0.060 A 
ATOM     18  H   UNL A   1      33.731  23.791  22.549  1.00  0.00     0.064 H 
ATOM     19  C   UNL A   1      33.745  23.785  26.332  1.00  0.00    -0.047 A 
ATOM     20  C   UNL A   1      34.812  23.212  25.639  1.00  0.00    -0.061 A 
ATOM     21  H   UNL A   1      35.563  22.756  23.728  1.00  0.00     0.062 H 
ATOM     22  H   UNL A   1      33.756  23.769  27.364  1.00  0.00     0.063 H 
ATOM     23  H   UNL A   1      35.605  22.797  26.153  1.00  0.00     0.062 H 
BRANCH  15  24
ATOM     24  N   UNL A   1      31.803  25.174  23.414  1.00  0.00    -0.355 N 
ATOM     25  H   UNL A   1      31.338  24.606  22.757  1.00  0.00     0.167 HD
BRANCH  24  26
ATOM     26  C   UNL A   1      31.458  26.536  23.302  1.00  0.00     0.042 A 
ATOM     27  C   UNL A   1      29.923  28.403  22.980  1.00  0.00    -0.046 A 
ATOM     28  C   UNL A   1      31.000  29.232  22.633  1.00  0.00    -0.059 A 
ATOM     29  C   UNL A   1      30.154  27.063  23.386  1.00  0.00    -0.025 A 
ATOM     30  C   UNL A   1      32.299  28.747  22.669  1.00  0.00    -0.060 A 
ATOM     31  H   UNL A   1      30.826  30.208  22.348  1.00  0.00     0.063 H 
ATOM     32  C   UNL A   1      32.519  27.412  22.989  1.00  0.00    -0.038 A 
ATOM     33  H   UNL A   1      33.094  29.371  22.459  1.00  0.00     0.062 H 
ATOM     34  H   UNL A   1      33.487  27.052  22.999  1.00  0.00     0.064 H 
BRANCH  27  35
ATOM     35  C   UNL A   1      28.532  28.981  22.934  1.00  0.00    -0.039 C 
ATOM     36  H   UNL A   1      27.817  28.187  22.894  1.00  0.00     0.028 H 
ATOM     37  H   UNL A   1      28.432  29.598  22.066  1.00  0.00     0.028 H 
ATOM     38  H   UNL A   1      28.362  29.571  23.812  1.00  0.00     0.028 H 
ENDBRANCH  27  35
BRANCH  29  39
ATOM     39  C   UNL A   1      29.004  26.271  23.956  1.00  0.00    -0.037 C 
ATOM     40  H   UNL A   1      28.081  26.750  23.705  1.00  0.00     0.028 H 
ATOM     41  H   UNL A   1      29.100  26.217  25.021  1.00  0.00     0.028 H 
ATOM     42  H   UNL A   1      29.016  25.282  23.547  1.00  0.00     0.028 H 
ENDBRANCH  29  39
ENDBRANCH  24  26
ENDBRANCH  15  24
ENDBRANCH  11  14
ENDBRANCH   7  10
ENDBRANCH   4   7
ENDBRANCH   1   4
BRANCH   1  43
ATOM     43  C   UNL A   1      31.387  30.909  25.839  1.00  0.00    -0.052 C 
ATOM     44  H   UNL A   1      30.433  30.425  25.834  1.00  0.00     0.027 H 
ATOM     45  H   UNL A   1      31.785  31.134  24.871  1.00  0.00     0.027 H 
BRANCH  43  46
ATOM     46  C   UNL A   1      31.211  32.267  26.520  1.00  0.00    -0.036 C 
ATOM     47  H   UNL A   1      30.438  32.165  27.253  1.00  0.00     0.028 H 
ATOM     48  H   UNL A   1      30.987  32.954  25.731  1.00  0.00     0.028 H 
BRANCH  46  49
ATOM     49  C   UNL A   1      32.438  32.839  27.218  1.00  0.00     0.018 C 
ATOM     50  H   UNL A   1      33.270  32.776  26.548  1.00  0.00     0.049 H 
ATOM     51  H   UNL A   1      32.594  32.267  28.107  1.00  0.00     0.049 H 
BRANCH  49  52
ATOM     52  N   UNL A   1      32.272  34.225  27.619  1.00  0.00    -0.352 N 
ATOM     53  C   UNL A   1      32.959  34.968  28.549  1.00  0.00     0.251 C 
ATOM     54  H   UNL A   1      31.554  34.709  27.151  1.00  0.00     0.163 HD
ATOM     55  O   UNL A   1      32.570  36.097  28.832  1.00  0.00    -0.269 OA
BRANCH  53  56
ATOM     56  C   UNL A   1      34.152  34.419  29.237  1.00  0.00     0.039 A 
ATOM     57  C   UNL A   1      33.978  33.764  30.463  1.00  0.00    -0.049 A 
ATOM     58  C   UNL A   1      35.438  34.576  28.717  1.00  0.00    -0.049 A 
ATOM     59  C   UNL A   1      35.079  33.218  31.131  1.00  0.00    -0.053 A 
ATOM     60  H   UNL A   1      33.034  33.685  30.874  1.00  0.00     0.063 H 
ATOM     61  C   UNL A   1      36.524  33.966  29.343  1.00  0.00    -0.053 A 
ATOM     62  H   UNL A   1      35.585  35.144  27.868  1.00  0.00     0.063 H 
ATOM     63  C   UNL A   1      36.358  33.286  30.561  1.00  0.00    -0.014 A 
ATOM     64  H   UNL A   1      34.949  32.760  32.047  1.00  0.00     0.063 H 
ATOM     65  H   UNL A   1      37.458  34.012  28.907  1.00  0.00     0.063 H 
BRANCH  63  66
ATOM     66  C   UNL A   1      37.543  32.684  31.224  1.00  0.00     0.031 A 
ATOM     67  C   UNL A   1      38.280  31.553  30.560  1.00  0.00     0.074 A 
ATOM     68  C   UNL A   1      37.904  33.087  32.457  1.00  0.00     0.049 A 
ATOM     69  N   UNL A   1      39.246  30.801  31.028  1.00  0.00    -0.248 NA
ATOM     70  C   UNL A   1      37.851  31.198  29.199  1.00  0.00    -0.034 C 
ATOM     71  C   UNL A   1      37.249  34.146  33.226  1.00  0.00    -0.036 A 
ATOM     72  N   UNL A   1      38.901  32.640  33.290  1.00  0.00    -0.354 N 
ATOM     73  C   UNL A   1      39.512  29.868  30.035  1.00  0.00     0.074 A 
ATOM     74  C   UNL A   1      38.581  30.120  28.956  1.00  0.00    -0.034 C 
ATOM     75  H   UNL A   1      37.160  31.666  28.592  1.00  0.00     0.065 H 
ATOM     76  C   UNL A   1      37.863  34.271  34.414  1.00  0.00    -0.036 A 
ATOM     77  H   UNL A   1      36.445  34.706  32.907  1.00  0.00     0.065 H 
ATOM     78  C   UNL A   1      38.929  33.276  34.508  1.00  0.00     0.049 A 
ATOM     79  H   UNL A   1      39.534  31.929  33.040  1.00  0.00     0.167 HD
ATOM     80  C   UNL A   1      40.459  28.899  30.016  1.00  0.00     0.037 A 
ATOM     81  H   UNL A   1      38.497  29.536  28.110  1.00  0.00     0.065 H 
ATOM     82  H   UNL A   1      37.621  34.959  35.144  1.00  0.00     0.065 H 
ATOM     83  C   UNL A   1      39.713  33.071  35.583  1.00  0.00     0.037 A 
ATOM     84  C   UNL A   1      41.414  28.682  31.070  1.00  0.00     0.049 A 
ATOM     85  C   UNL A   1      40.771  32.003  35.533  1.00  0.00     0.074 A 
ATOM     86  C   UNL A   1      42.466  27.782  31.110  1.00  0.00    -0.036 A 
ATOM     87  N   UNL A   1      41.436  29.376  32.270  1.00  0.00    -0.354 N 
ATOM     88  N   UNL A   1      41.053  31.165  34.565  1.00  0.00    -0.248 NA
ATOM     89  C   UNL A   1      41.620  31.850  36.723  1.00  0.00    -0.034 C 
ATOM     90  C   UNL A   1      43.097  27.902  32.353  1.00  0.00    -0.036 A 
ATOM     91  H   UNL A   1      42.737  27.135  30.353  1.00  0.00     0.065 H 
ATOM     92  C   UNL A   1      42.468  28.909  33.068  1.00  0.00     0.049 A 
ATOM     93  H   UNL A   1      40.810  30.094  32.519  1.00  0.00     0.167 HD
ATOM     94  C   UNL A   1      42.126  30.409  35.015  1.00  0.00     0.074 A 
ATOM     95  C   UNL A   1      42.450  30.889  36.341  1.00  0.00    -0.034 C 
ATOM     96  H   UNL A   1      41.580  32.359  37.620  1.00  0.00     0.065 H 
ATOM     97  H   UNL A   1      43.895  27.337  32.680  1.00  0.00     0.065 H 
ATOM     98  C   UNL A   1      42.784  29.406  34.383  1.00  0.00     0.037 A 
ATOM     99  H   UNL A   1      43.228  30.529  36.917  1.00  0.00     0.065 H 
BRANCH  80 100
ATOM    100  C   UNL A   1      40.507  27.996  28.818  1.00  0.00     0.064 A 
ATOM    101  C   UNL A   1      39.789  26.791  28.771  1.00  0.00     0.173 A 
ATOM    102  C   UNL A   1      41.260  28.353  27.690  1.00  0.00     0.173 A 
ATOM    103  F   UNL A   1      39.061  26.399  29.826  1.00  0.00    -0.203 F 
ATOM    104  C   UNL A   1      39.853  25.962  27.654  1.00  0.00     0.198 A 
ATOM    105  C   UNL A   1      41.297  27.537  26.562  1.00  0.00     0.198 A 
ATOM    106  F   UNL A   1      41.960  29.498  27.678  1.00  0.00    -0.203 F 
ATOM    107  F   UNL A   1      39.203  24.789  27.655  1.00  0.00    -0.200 F 
ATOM    108  C   UNL A   1      40.601  26.337  26.549  1.00  0.00     0.200 A 
ATOM    109  F   UNL A   1      42.011  27.908  25.490  1.00  0.00    -0.200 F 
ATOM    110  F   UNL A   1      40.659  25.540  25.474  1.00  0.00    -0.200 F 
ENDBRANCH  80 100
BRANCH  83 111
ATOM    111  C   UNL A   1      39.535  33.914  36.794  1.00  0.00     0.064 A 
ATOM    112  C   UNL A   1      38.769  33.463  37.877  1.00  0.00     0.173 A 
ATOM    113  C   UNL A   1      40.136  35.176  36.900  1.00  0.00     0.173 A 
ATOM    114  F   UNL A   1      38.156  32.272  37.813  1.00  0.00    -0.203 F 
ATOM    115  C   UNL A   1      38.604  34.247  39.017  1.00  0.00     0.198 A 
ATOM    116  C   UNL A   1      39.992  35.948  38.051  1.00  0.00     0.198 A 
ATOM    117  F   UNL A   1      40.883  35.651  35.892  1.00  0.00    -0.203 F 
ATOM    118  F   UNL A   1      37.837  33.806  40.025  1.00  0.00    -0.200 F 
ATOM    119  C   UNL A   1      39.221  35.485  39.107  1.00  0.00     0.200 A 
ATOM    120  F   UNL A   1      40.601  37.138  38.138  1.00  0.00    -0.200 F 
ATOM    121  F   UNL A   1      39.069  36.234  40.207  1.00  0.00    -0.200 F 
ENDBRANCH  83 111
BRANCH  98 122
ATOM    122  C   UNL A   1      43.945  28.779  35.098  1.00  0.00     0.064 A 
ATOM    123  C   UNL A   1      43.777  27.669  35.936  1.00  0.00     0.173 A 
ATOM    124  C   UNL A   1      45.247  29.257  34.887  1.00  0.00     0.173 A 
ATOM    125  F   UNL A   1      42.550  27.185  36.180  1.00  0.00    -0.203 F 
ATOM    126  C   UNL A   1      44.872  27.065  36.548  1.00  0.00     0.198 A 
ATOM    127  C   UNL A   1      46.341  28.635  35.480  1.00  0.00     0.198 A 
ATOM    128  F   UNL A   1      45.459  30.314  34.090  1.00  0.00    -0.203 F 
ATOM    129  F   UNL A   1      44.688  26.023  37.371  1.00  0.00    -0.200 F 
ATOM    130  C   UNL A   1      46.154  27.542  36.313  1.00  0.00     0.200 A 
ATOM    131  F   UNL A   1      47.579  29.089  35.241  1.00  0.00    -0.200 F 
ATOM    132  F   UNL A   1      47.207  26.950  36.890  1.00  0.00    -0.200 F 
ENDBRANCH  98 122
ENDBRANCH  63  66
ENDBRANCH  53  56
ENDBRANCH  49  52
ENDBRANCH  46  49
ENDBRANCH  43  46
ENDBRANCH   1  43
TORSDOF 17
ENDMDL
MODEL 3
REMARK VINA RESULT:     -11.8      0.704      3.031
REMARK SMILES Cc1cccc(Nc2ccccc2C(=O)NCCCCCCNC(=O)c2ccc(-c3c4nc(c(-c5c(F)c(F)c(F)c(F)c5F)c5ccc([nH]5)c(-c5c(F)c(F)c(F)c(F)c5F)c5nc(c(-c6c(F)c(F)c(F)c(F)c6F)c6ccc3[nH]6)C=C5)C=C4)cc2)c1C
REMARK SMILES IDX 19 1 18 4 17 7 16 10 14 11 15 12 13 14 8 15 9 16 10 17 12 19
REMARK SMILES IDX 11 20 7 24 6 26 2 27 3 28 89 29 4 30 5 32 1 35 90 39 20 43
REMARK SMILES IDX 21 46 22 49 23 52 24 53 25 55 26 56 27 57 88 58 28 59 87 61
REMARK SMILES IDX 29 63 30 66 31 67 81 68 32 69 86 70 80 71 82 72 33 73 85 74
REMARK SMILES IDX 79 76 78 78 34 80 66 83 46 84 65 85 47 86 50 87 64 88 83 89
REMARK SMILES IDX 48 90 49 92 63 94 84 95 51 98 35 100 36 101 44 102 37 103
REMARK SMILES IDX 38 104 42 105 45 106 39 107 40 108 43 109 41 110 67 111
REMARK SMILES IDX 68 112 76 113 69 114 70 115 74 116 77 117 71 118 72 119
REMARK SMILES IDX 75 120 73 121 52 122 53 123 61 124 54 125 55 126 59 127
REMARK SMILES IDX 62 128 56 129 57 130 60 131 58 132
REMARK H PARENT 19 2 19 3 18 5 18 6 17 8 17 9 16 13 9 18 10 21 12 22 11 23
REMARK H PARENT 7 25 3 31 4 33 5 34 1 36 1 37 1 38 90 40 90 41 90 42 20 44
REMARK H PARENT 20 45 21 47 21 48 22 50 22 51 23 54 27 60 88 62 28 64 87 65
REMARK H PARENT 86 75 80 77 82 79 85 81 79 82 47 91 50 93 83 96 48 97 84 99
REMARK Flexibility Score: inf
ROOT
ATOM      1  C   UNL A   1      32.365  29.918  26.477  1.00  0.00    -0.052 C 
ATOM      2  H   UNL A   1      32.842  29.355  25.702  1.00  0.00     0.027 H 
ATOM      3  H   UNL A   1      33.014  30.536  27.063  1.00  0.00     0.027 H 
ENDROOT
BRANCH   1   4
ATOM      4  C   UNL A   1      31.778  28.912  27.478  1.00  0.00    -0.036 C 
ATOM      5  H   UNL A   1      32.083  29.211  28.458  1.00  0.00     0.028 H 
ATOM      6  H   UNL A   1      30.720  28.935  27.314  1.00  0.00     0.028 H 
BRANCH   4   7
ATOM      7  C   UNL A   1      32.180  27.451  27.294  1.00  0.00     0.018 C 
ATOM      8  H   UNL A   1      33.005  27.414  26.615  1.00  0.00     0.049 H 
ATOM      9  H   UNL A   1      32.420  27.077  28.268  1.00  0.00     0.049 H 
BRANCH   7  10
ATOM     10  N   UNL A   1      31.134  26.603  26.779  1.00  0.00    -0.352 N 
ATOM     11  C   UNL A   1      30.657  26.464  25.498  1.00  0.00     0.253 C 
ATOM     12  O   UNL A   1      29.818  25.578  25.310  1.00  0.00    -0.269 OA
ATOM     13  H   UNL A   1      30.692  26.035  27.450  1.00  0.00     0.163 HD
BRANCH  11  14
ATOM     14  C   UNL A   1      30.985  27.384  24.363  1.00  0.00     0.063 A 
ATOM     15  C   UNL A   1      32.227  27.601  23.733  1.00  0.00     0.051 A 
ATOM     16  C   UNL A   1      32.291  28.577  22.704  1.00  0.00    -0.038 A 
ATOM     17  C   UNL A   1      31.165  29.264  22.254  1.00  0.00    -0.060 A 
ATOM     18  H   UNL A   1      33.204  28.784  22.273  1.00  0.00     0.064 H 
ATOM     19  C   UNL A   1      29.850  28.081  23.876  1.00  0.00    -0.047 A 
ATOM     20  C   UNL A   1      29.934  28.999  22.828  1.00  0.00    -0.061 A 
ATOM     21  H   UNL A   1      31.248  29.963  21.499  1.00  0.00     0.062 H 
ATOM     22  H   UNL A   1      28.931  27.904  24.311  1.00  0.00     0.063 H 
ATOM     23  H   UNL A   1      29.086  29.477  22.485  1.00  0.00     0.062 H 
BRANCH  15  24
ATOM     24  N   UNL A   1      33.419  26.866  23.901  1.00  0.00    -0.355 N 
ATOM     25  H   UNL A   1      34.226  27.425  23.828  1.00  0.00     0.167 HD
BRANCH  24  26
ATOM     26  C   UNL A   1      33.715  25.511  24.153  1.00  0.00     0.042 A 
ATOM     27  C   UNL A   1      33.435  23.104  23.876  1.00  0.00    -0.046 A 
ATOM     28  C   UNL A   1      34.086  22.886  25.099  1.00  0.00    -0.059 A 
ATOM     29  C   UNL A   1      33.306  24.420  23.360  1.00  0.00    -0.025 A 
ATOM     30  C   UNL A   1      34.599  23.953  25.822  1.00  0.00    -0.060 A 
ATOM     31  H   UNL A   1      34.185  21.926  25.464  1.00  0.00     0.063 H 
ATOM     32  C   UNL A   1      34.403  25.248  25.356  1.00  0.00    -0.038 A 
ATOM     33  H   UNL A   1      35.119  23.787  26.697  1.00  0.00     0.062 H 
ATOM     34  H   UNL A   1      34.772  26.039  25.906  1.00  0.00     0.064 H 
BRANCH  27  35
ATOM     35  C   UNL A   1      32.906  21.910  23.125  1.00  0.00    -0.039 C 
ATOM     36  H   UNL A   1      33.687  21.191  23.001  1.00  0.00     0.028 H 
ATOM     37  H   UNL A   1      32.550  22.222  22.166  1.00  0.00     0.028 H 
ATOM     38  H   UNL A   1      32.101  21.470  23.678  1.00  0.00     0.028 H 
ENDBRANCH  27  35
BRANCH  29  39
ATOM     39  C   UNL A   1      32.797  24.598  21.952  1.00  0.00    -0.037 C 
ATOM     40  H   UNL A   1      31.738  24.743  21.970  1.00  0.00     0.028 H 
ATOM     41  H   UNL A   1      33.028  23.725  21.376  1.00  0.00     0.028 H 
ATOM     42  H   UNL A   1      33.267  25.452  21.509  1.00  0.00     0.028 H 
ENDBRANCH  29  39
ENDBRANCH  24  26
ENDBRANCH  15  24
ENDBRANCH  11  14
ENDBRANCH   7  10
ENDBRANCH   4   7
ENDBRANCH   1   4
BRANCH   1  43
ATOM     43  C   UNL A   1      31.399  30.900  25.803  1.00  0.00    -0.052 C 
ATOM     44  H   UNL A   1      30.439  30.431  25.760  1.00  0.00     0.027 H 
ATOM     45  H   UNL A   1      31.840  31.115  24.851  1.00  0.00     0.027 H 
BRANCH  43  46
ATOM     46  C   UNL A   1      31.217  32.263  26.472  1.00  0.00    -0.036 C 
ATOM     47  H   UNL A   1      30.411  32.177  27.171  1.00  0.00     0.028 H 
ATOM     48  H   UNL A   1      31.038  32.951  25.672  1.00  0.00     0.028 H 
BRANCH  46  49
ATOM     49  C   UNL A   1      32.422  32.817  27.221  1.00  0.00     0.018 C 
ATOM     50  H   UNL A   1      33.279  32.751  26.583  1.00  0.00     0.049 H 
ATOM     51  H   UNL A   1      32.538  32.237  28.111  1.00  0.00     0.049 H 
BRANCH  49  52
ATOM     52  N   UNL A   1      32.255  34.202  27.626  1.00  0.00    -0.352 N 
ATOM     53  C   UNL A   1      32.932  34.939  28.568  1.00  0.00     0.251 C 
ATOM     54  H   UNL A   1      31.544  34.690  27.151  1.00  0.00     0.163 HD
ATOM     55  O   UNL A   1      32.543  36.068  28.851  1.00  0.00    -0.269 OA
BRANCH  53  56
ATOM     56  C   UNL A   1      34.115  34.383  29.268  1.00  0.00     0.039 A 
ATOM     57  C   UNL A   1      33.923  33.713  30.482  1.00  0.00    -0.049 A 
ATOM     58  C   UNL A   1      35.409  34.549  28.770  1.00  0.00    -0.049 A 
ATOM     59  C   UNL A   1      35.014  33.160  31.161  1.00  0.00    -0.053 A 
ATOM     60  H   UNL A   1      32.973  33.627  30.878  1.00  0.00     0.063 H 
ATOM     61  C   UNL A   1      36.487  33.933  29.405  1.00  0.00    -0.053 A 
ATOM     62  H   UNL A   1      35.568  35.128  27.931  1.00  0.00     0.063 H 
ATOM     63  C   UNL A   1      36.302  33.238  30.612  1.00  0.00    -0.014 A 
ATOM     64  H   UNL A   1      34.871  32.692  32.070  1.00  0.00     0.063 H 
ATOM     65  H   UNL A   1      37.427  33.986  28.985  1.00  0.00     0.063 H 
BRANCH  63  66
ATOM     66  C   UNL A   1      37.478  32.630  31.287  1.00  0.00     0.031 A 
ATOM     67  C   UNL A   1      38.205  31.483  30.638  1.00  0.00     0.074 A 
ATOM     68  C   UNL A   1      37.839  33.043  32.517  1.00  0.00     0.049 A 
ATOM     69  N   UNL A   1      39.160  30.726  31.118  1.00  0.00    -0.248 NA
ATOM     70  C   UNL A   1      37.777  31.118  29.279  1.00  0.00    -0.034 C 
ATOM     71  C   UNL A   1      37.193  34.117  33.271  1.00  0.00    -0.036 A 
ATOM     72  N   UNL A   1      38.827  32.593  33.359  1.00  0.00    -0.354 N 
ATOM     73  C   UNL A   1      39.419  29.779  30.136  1.00  0.00     0.074 A 
ATOM     74  C   UNL A   1      38.495  30.029  29.051  1.00  0.00    -0.034 C 
ATOM     75  H   UNL A   1      37.094  31.588  28.664  1.00  0.00     0.065 H 
ATOM     76  C   UNL A   1      37.804  34.248  34.460  1.00  0.00    -0.036 A 
ATOM     77  H   UNL A   1      36.396  34.683  32.943  1.00  0.00     0.065 H 
ATOM     78  C   UNL A   1      38.858  33.242  34.569  1.00  0.00     0.049 A 
ATOM     79  H   UNL A   1      39.454  31.872  33.118  1.00  0.00     0.167 HD
ATOM     80  C   UNL A   1      40.355  28.799  30.131  1.00  0.00     0.037 A 
ATOM     81  H   UNL A   1      38.407  29.437  28.211  1.00  0.00     0.065 H 
ATOM     82  H   UNL A   1      37.567  34.947  35.181  1.00  0.00     0.065 H 
ATOM     83  C   UNL A   1      39.636  33.040  35.650  1.00  0.00     0.037 A 
ATOM     84  C   UNL A   1      41.304  28.583  31.191  1.00  0.00     0.049 A 
ATOM     85  C   UNL A   1      40.681  31.959  35.615  1.00  0.00     0.074 A 
ATOM     86  C   UNL A   1      42.345  27.672  31.246  1.00  0.00    -0.036 A 
ATOM     87  N   UNL A   1      41.329  29.289  32.384  1.00  0.00    -0.354 N 
ATOM     88  N   UNL A   1      40.958  31.108  34.658  1.00  0.00    -0.248 NA
ATOM     89  C   UNL A   1      41.524  31.810  36.810  1.00  0.00    -0.034 C 
ATOM     90  C   UNL A   1      42.973  27.798  32.489  1.00  0.00    -0.036 A 
ATOM     91  H   UNL A   1      42.612  27.013  30.497  1.00  0.00     0.065 H 
ATOM     92  C   UNL A   1      42.353  28.820  33.191  1.00  0.00     0.049 A 
ATOM     93  H   UNL A   1      40.710  30.018  32.623  1.00  0.00     0.167 HD
ATOM     94  C   UNL A   1      42.021  30.344  35.120  1.00  0.00     0.074 A 
ATOM     95  C   UNL A   1      42.344  30.836  36.442  1.00  0.00    -0.034 C 
ATOM     96  H   UNL A   1      41.487  32.329  37.702  1.00  0.00     0.065 H 
ATOM     97  H   UNL A   1      43.763  27.227  32.826  1.00  0.00     0.065 H 
ATOM     98  C   UNL A   1      42.669  29.327  34.501  1.00  0.00     0.037 A 
ATOM     99  H   UNL A   1      43.116  30.473  37.025  1.00  0.00     0.065 H 
BRANCH  80 100
ATOM    100  C   UNL A   1      40.397  27.883  28.943  1.00  0.00     0.064 A 
ATOM    101  C   UNL A   1      39.653  26.693  28.900  1.00  0.00     0.173 A 
ATOM    102  C   UNL A   1      41.172  28.211  27.821  1.00  0.00     0.173 A 
ATOM    103  F   UNL A   1      38.904  26.329  29.951  1.00  0.00    -0.203 F 
ATOM    104  C   UNL A   1      39.712  25.851  27.793  1.00  0.00     0.198 A 
ATOM    105  C   UNL A   1      41.204  27.382  26.702  1.00  0.00     0.198 A 
ATOM    106  F   UNL A   1      41.898  29.340  27.806  1.00  0.00    -0.203 F 
ATOM    107  F   UNL A   1      39.036  24.693  27.798  1.00  0.00    -0.200 F 
ATOM    108  C   UNL A   1      40.482  26.198  26.694  1.00  0.00     0.200 A 
ATOM    109  F   UNL A   1      41.939  27.725  25.636  1.00  0.00    -0.200 F 
ATOM    110  F   UNL A   1      40.535  25.388  25.628  1.00  0.00    -0.200 F 
ENDBRANCH  80 100
BRANCH  83 111
ATOM    111  C   UNL A   1      39.462  33.899  36.851  1.00  0.00     0.064 A 
ATOM    112  C   UNL A   1      38.699  33.462  37.942  1.00  0.00     0.173 A 
ATOM    113  C   UNL A   1      40.067  35.160  36.939  1.00  0.00     0.173 A 
ATOM    114  F   UNL A   1      38.084  32.271  37.894  1.00  0.00    -0.203 F 
ATOM    115  C   UNL A   1      38.538  34.260  39.072  1.00  0.00     0.198 A 
ATOM    116  C   UNL A   1      39.927  35.947  38.081  1.00  0.00     0.198 A 
ATOM    117  F   UNL A   1      40.812  35.622  35.923  1.00  0.00    -0.203 F 
ATOM    118  F   UNL A   1      37.774  33.833  40.088  1.00  0.00    -0.200 F 
ATOM    119  C   UNL A   1      39.158  35.499  39.145  1.00  0.00     0.200 A 
ATOM    120  F   UNL A   1      40.539  37.137  38.152  1.00  0.00    -0.200 F 
ATOM    121  F   UNL A   1      39.011  36.261  40.236  1.00  0.00    -0.200 F 
ENDBRANCH  83 111
BRANCH  98 122
ATOM    122  C   UNL A   1      43.820  28.696  35.228  1.00  0.00     0.064 A 
ATOM    123  C   UNL A   1      45.128  29.180  35.092  1.00  0.00     0.173 A 
ATOM    124  C   UNL A   1      43.598  27.637  36.121  1.00  0.00     0.173 A 
ATOM    125  F   UNL A   1      45.393  30.181  34.240  1.00  0.00    -0.203 F 
ATOM    126  C   UNL A   1      46.176  28.618  35.817  1.00  0.00     0.198 A 
ATOM    127  C   UNL A   1      44.643  27.095  36.862  1.00  0.00     0.198 A 
ATOM    128  F   UNL A   1      42.363  27.142  36.289  1.00  0.00    -0.203 F 
ATOM    129  F   UNL A   1      47.425  29.075  35.650  1.00  0.00    -0.200 F 
ATOM    130  C   UNL A   1      45.932  27.583  36.708  1.00  0.00     0.200 A 
ATOM    131  F   UNL A   1      44.403  26.104  37.732  1.00  0.00    -0.200 F 
ATOM    132  F   UNL A   1      46.939  27.054  37.416  1.00  0.00    -0.200 F 
ENDBRANCH  98 122
ENDBRANCH  63  66
ENDBRANCH  53  56
ENDBRANCH  49  52
ENDBRANCH  46  49
ENDBRANCH  43  46
ENDBRANCH   1  43
TORSDOF 17
ENDMDL
MODEL 4
REMARK VINA RESULT:     -11.7      2.334      4.271
REMARK SMILES Cc1cccc(Nc2ccccc2C(=O)NCCCCCCNC(=O)c2ccc(-c3c4nc(c(-c5c(F)c(F)c(F)c(F)c5F)c5ccc([nH]5)c(-c5c(F)c(F)c(F)c(F)c5F)c5nc(c(-c6c(F)c(F)c(F)c(F)c6F)c6ccc3[nH]6)C=C5)C=C4)cc2)c1C
REMARK SMILES IDX 19 1 18 4 17 7 16 10 14 11 15 12 13 14 8 15 9 16 10 17 12 19
REMARK SMILES IDX 11 20 7 24 6 26 2 27 3 28 89 29 4 30 5 32 1 35 90 39 20 43
REMARK SMILES IDX 21 46 22 49 23 52 24 53 25 55 26 56 27 57 88 58 28 59 87 61
REMARK SMILES IDX 29 63 30 66 31 67 81 68 32 69 86 70 80 71 82 72 33 73 85 74
REMARK SMILES IDX 79 76 78 78 34 80 66 83 46 84 65 85 47 86 50 87 64 88 83 89
REMARK SMILES IDX 48 90 49 92 63 94 84 95 51 98 35 100 36 101 44 102 37 103
REMARK SMILES IDX 38 104 42 105 45 106 39 107 40 108 43 109 41 110 67 111
REMARK SMILES IDX 68 112 76 113 69 114 70 115 74 116 77 117 71 118 72 119
REMARK SMILES IDX 75 120 73 121 52 122 53 123 61 124 54 125 55 126 59 127
REMARK SMILES IDX 62 128 56 129 57 130 60 131 58 132
REMARK H PARENT 19 2 19 3 18 5 18 6 17 8 17 9 16 13 9 18 10 21 12 22 11 23
REMARK H PARENT 7 25 3 31 4 33 5 34 1 36 1 37 1 38 90 40 90 41 90 42 20 44
REMARK H PARENT 20 45 21 47 21 48 22 50 22 51 23 54 27 60 88 62 28 64 87 65
REMARK H PARENT 86 75 80 77 82 79 85 81 79 82 47 91 50 93 83 96 48 97 84 99
REMARK Flexibility Score: inf
ROOT
ATOM      1  C   UNL A   1      31.184  27.607  22.882  1.00  0.00    -0.052 C 
ATOM      2  H   UNL A   1      30.499  27.752  22.073  1.00  0.00     0.027 H 
ATOM      3  H   UNL A   1      31.985  26.923  22.691  1.00  0.00     0.027 H 
ENDROOT
BRANCH   1   4
ATOM      4  C   UNL A   1      30.398  26.971  24.039  1.00  0.00    -0.036 C 
ATOM      5  H   UNL A   1      30.915  27.197  24.947  1.00  0.00     0.028 H 
ATOM      6  H   UNL A   1      29.413  27.386  23.972  1.00  0.00     0.028 H 
BRANCH   4   7
ATOM      7  C   UNL A   1      30.202  25.459  23.982  1.00  0.00     0.018 C 
ATOM      8  H   UNL A   1      29.394  25.251  23.312  1.00  0.00     0.049 H 
ATOM      9  H   UNL A   1      31.133  25.044  23.657  1.00  0.00     0.049 H 
BRANCH   7  10
ATOM     10  N   UNL A   1      29.903  24.846  25.252  1.00  0.00    -0.352 N 
ATOM     11  C   UNL A   1      30.742  24.285  26.184  1.00  0.00     0.253 C 
ATOM     12  O   UNL A   1      30.230  23.924  27.248  1.00  0.00    -0.269 OA
ATOM     13  H   UNL A   1      28.948  24.826  25.488  1.00  0.00     0.163 HD
BRANCH  11  14
ATOM     14  C   UNL A   1      32.187  23.971  25.948  1.00  0.00     0.063 A 
ATOM     15  C   UNL A   1      32.806  22.712  25.809  1.00  0.00     0.051 A 
ATOM     16  C   UNL A   1      34.215  22.677  25.644  1.00  0.00    -0.038 A 
ATOM     17  C   UNL A   1      34.986  23.835  25.543  1.00  0.00    -0.060 A 
ATOM     18  H   UNL A   1      34.687  21.761  25.597  1.00  0.00     0.064 H 
ATOM     19  C   UNL A   1      32.988  25.134  25.822  1.00  0.00    -0.047 A 
ATOM     20  C   UNL A   1      34.366  25.070  25.611  1.00  0.00    -0.061 A 
ATOM     21  H   UNL A   1      36.008  23.771  25.418  1.00  0.00     0.062 H 
ATOM     22  H   UNL A   1      32.537  26.060  25.891  1.00  0.00     0.063 H 
ATOM     23  H   UNL A   1      34.918  25.936  25.506  1.00  0.00     0.062 H 
BRANCH  15  24
ATOM     24  N   UNL A   1      32.181  21.454  25.676  1.00  0.00    -0.355 N 
ATOM     25  H   UNL A   1      31.336  21.393  26.177  1.00  0.00     0.167 HD
BRANCH  24  26
ATOM     26  C   UNL A   1      32.495  20.266  24.985  1.00  0.00     0.042 A 
ATOM     27  C   UNL A   1      32.440  18.740  23.084  1.00  0.00    -0.046 A 
ATOM     28  C   UNL A   1      32.800  17.677  23.924  1.00  0.00    -0.059 A 
ATOM     29  C   UNL A   1      32.352  20.060  23.599  1.00  0.00    -0.025 A 
ATOM     30  C   UNL A   1      33.062  17.901  25.267  1.00  0.00    -0.060 A 
ATOM     31  H   UNL A   1      32.872  16.722  23.541  1.00  0.00     0.063 H 
ATOM     32  C   UNL A   1      32.899  19.180  25.789  1.00  0.00    -0.038 A 
ATOM     33  H   UNL A   1      33.374  17.127  25.874  1.00  0.00     0.062 H 
ATOM     34  H   UNL A   1      33.079  19.338  26.793  1.00  0.00     0.064 H 
BRANCH  27  35
ATOM     35  C   UNL A   1      32.176  18.445  21.630  1.00  0.00    -0.039 C 
ATOM     36  H   UNL A   1      31.141  18.610  21.415  1.00  0.00     0.028 H 
ATOM     37  H   UNL A   1      32.426  17.426  21.423  1.00  0.00     0.028 H 
ATOM     38  H   UNL A   1      32.774  19.091  21.021  1.00  0.00     0.028 H 
ENDBRANCH  27  35
BRANCH  29  39
ATOM     39  C   UNL A   1      32.175  21.204  22.632  1.00  0.00    -0.037 C 
ATOM     40  H   UNL A   1      31.161  21.545  22.663  1.00  0.00     0.028 H 
ATOM     41  H   UNL A   1      32.410  20.873  21.641  1.00  0.00     0.028 H 
ATOM     42  H   UNL A   1      32.829  22.006  22.905  1.00  0.00     0.028 H 
ENDBRANCH  29  39
ENDBRANCH  24  26
ENDBRANCH  15  24
ENDBRANCH  11  14
ENDBRANCH   7  10
ENDBRANCH   4   7
ENDBRANCH   1   4
BRANCH   1  43
ATOM     43  C   UNL A   1      31.876  28.951  23.144  1.00  0.00    -0.052 C 
ATOM     44  H   UNL A   1      31.237  29.524  23.782  1.00  0.00     0.027 H 
ATOM     45  H   UNL A   1      32.041  29.372  22.173  1.00  0.00     0.027 H 
BRANCH  43  46
ATOM     46  C   UNL A   1      33.258  28.904  23.796  1.00  0.00    -0.036 C 
ATOM     47  H   UNL A   1      33.834  29.712  23.397  1.00  0.00     0.028 H 
ATOM     48  H   UNL A   1      33.645  27.931  23.573  1.00  0.00     0.028 H 
BRANCH  46  49
ATOM     49  C   UNL A   1      33.295  29.015  25.315  1.00  0.00     0.018 C 
ATOM     50  H   UNL A   1      34.314  28.951  25.636  1.00  0.00     0.049 H 
ATOM     51  H   UNL A   1      32.701  28.217  25.707  1.00  0.00     0.049 H 
BRANCH  49  52
ATOM     52  N   UNL A   1      32.732  30.258  25.810  1.00  0.00    -0.352 N 
ATOM     53  C   UNL A   1      33.141  31.071  26.840  1.00  0.00     0.251 C 
ATOM     54  H   UNL A   1      31.929  30.569  25.332  1.00  0.00     0.163 HD
ATOM     55  O   UNL A   1      32.440  32.018  27.183  1.00  0.00    -0.269 OA
BRANCH  53  56
ATOM     56  C   UNL A   1      34.408  30.807  27.564  1.00  0.00     0.039 A 
ATOM     57  C   UNL A   1      35.350  31.838  27.667  1.00  0.00    -0.049 A 
ATOM     58  C   UNL A   1      34.698  29.553  28.105  1.00  0.00    -0.049 A 
ATOM     59  C   UNL A   1      36.547  31.630  28.360  1.00  0.00    -0.053 A 
ATOM     60  H   UNL A   1      35.159  32.755  27.231  1.00  0.00     0.063 H 
ATOM     61  C   UNL A   1      35.856  29.368  28.860  1.00  0.00    -0.053 A 
ATOM     62  H   UNL A   1      34.056  28.761  27.945  1.00  0.00     0.063 H 
ATOM     63  C   UNL A   1      36.797  30.403  28.989  1.00  0.00    -0.014 A 
ATOM     64  H   UNL A   1      37.250  32.385  28.409  1.00  0.00     0.063 H 
ATOM     65  H   UNL A   1      36.023  28.464  29.329  1.00  0.00     0.063 H 
BRANCH  63  66
ATOM     66  C   UNL A   1      38.042  30.160  29.764  1.00  0.00     0.031 A 
ATOM     67  C   UNL A   1      39.103  29.248  29.213  1.00  0.00     0.074 A 
ATOM     68  C   UNL A   1      38.182  30.684  30.997  1.00  0.00     0.049 A 
ATOM     69  N   UNL A   1      40.191  28.796  29.785  1.00  0.00    -0.248 NA
ATOM     70  C   UNL A   1      38.895  28.748  27.845  1.00  0.00    -0.034 C 
ATOM     71  C   UNL A   1      37.210  31.552  31.662  1.00  0.00    -0.036 A 
ATOM     72  N   UNL A   1      39.190  30.545  31.920  1.00  0.00    -0.354 N 
ATOM     73  C   UNL A   1      40.775  27.938  28.863  1.00  0.00     0.074 A 
ATOM     74  C   UNL A   1      39.901  27.898  27.710  1.00  0.00    -0.034 C 
ATOM     75  H   UNL A   1      38.156  28.996  27.168  1.00  0.00     0.065 H 
ATOM     76  C   UNL A   1      37.670  31.873  32.883  1.00  0.00    -0.036 A 
ATOM     77  H   UNL A   1      36.315  31.866  31.259  1.00  0.00     0.065 H 
ATOM     78  C   UNL A   1      38.949  31.204  33.102  1.00  0.00     0.049 A 
ATOM     79  H   UNL A   1      40.007  30.022  31.751  1.00  0.00     0.167 HD
ATOM     80  C   UNL A   1      41.942  27.258  28.960  1.00  0.00     0.037 A 
ATOM     81  H   UNL A   1      40.043  27.287  26.891  1.00  0.00     0.065 H 
ATOM     82  H   UNL A   1      37.196  32.494  33.557  1.00  0.00     0.065 H 
ATOM     83  C   UNL A   1      39.670  31.250  34.239  1.00  0.00     0.037 A 
ATOM     84  C   UNL A   1      42.832  27.337  30.088  1.00  0.00     0.049 A 
ATOM     85  C   UNL A   1      40.973  30.502  34.318  1.00  0.00     0.074 A 
ATOM     86  C   UNL A   1      44.077  26.753  30.248  1.00  0.00    -0.036 A 
ATOM     87  N   UNL A   1      42.572  28.048  31.250  1.00  0.00    -0.354 N 
ATOM     88  N   UNL A   1      41.545  29.741  33.417  1.00  0.00    -0.248 NA
ATOM     89  C   UNL A   1      41.733  30.620  35.571  1.00  0.00    -0.034 C 
ATOM     90  C   UNL A   1      44.551  27.077  31.524  1.00  0.00    -0.036 A 
ATOM     91  H   UNL A   1      44.571  26.179  29.547  1.00  0.00     0.065 H 
ATOM     92  C   UNL A   1      43.623  27.900  32.141  1.00  0.00     0.049 A 
ATOM     93  H   UNL A   1      41.760  28.581  31.417  1.00  0.00     0.167 HD
ATOM     94  C   UNL A   1      42.739  29.313  33.979  1.00  0.00     0.074 A 
ATOM     95  C   UNL A   1      42.815  29.904  35.298  1.00  0.00    -0.034 C 
ATOM     96  H   UNL A   1      41.487  31.127  36.435  1.00  0.00     0.065 H 
ATOM     97  H   UNL A   1      45.441  26.756  31.935  1.00  0.00     0.065 H 
ATOM     98  C   UNL A   1      43.688  28.504  33.447  1.00  0.00     0.037 A 
ATOM     99  H   UNL A   1      43.612  29.784  35.945  1.00  0.00     0.065 H 
BRANCH  80 100
ATOM    100  C   UNL A   1      42.324  26.364  27.817  1.00  0.00     0.064 A 
ATOM    101  C   UNL A   1      41.792  25.073  27.678  1.00  0.00     0.173 A 
ATOM    102  C   UNL A   1      43.215  26.814  26.831  1.00  0.00     0.173 A 
ATOM    103  F   UNL A   1      40.944  24.591  28.598  1.00  0.00    -0.203 F 
ATOM    104  C   UNL A   1      42.165  24.254  26.614  1.00  0.00     0.198 A 
ATOM    105  C   UNL A   1      43.562  26.005  25.752  1.00  0.00     0.198 A 
ATOM    106  F   UNL A   1      43.749  28.043  26.911  1.00  0.00    -0.203 F 
ATOM    107  F   UNL A   1      41.686  23.005  26.534  1.00  0.00    -0.200 F 
ATOM    108  C   UNL A   1      43.045  24.722  25.651  1.00  0.00     0.200 A 
ATOM    109  F   UNL A   1      44.402  26.463  24.814  1.00  0.00    -0.200 F 
ATOM    110  F   UNL A   1      43.400  23.934  24.627  1.00  0.00    -0.200 F 
ENDBRANCH  80 100
BRANCH  83 111
ATOM    111  C   UNL A   1      39.178  32.052  35.389  1.00  0.00     0.064 A 
ATOM    112  C   UNL A   1      38.419  31.457  36.407  1.00  0.00     0.173 A 
ATOM    113  C   UNL A   1      39.467  33.418  35.503  1.00  0.00     0.173 A 
ATOM    114  F   UNL A   1      38.100  30.157  36.330  1.00  0.00    -0.203 F 
ATOM    115  C   UNL A   1      37.960  32.203  37.490  1.00  0.00     0.198 A 
ATOM    116  C   UNL A   1      39.029  34.158  36.600  1.00  0.00     0.198 A 
ATOM    117  F   UNL A   1      40.193  34.033  34.556  1.00  0.00    -0.203 F 
ATOM    118  F   UNL A   1      37.208  31.618  38.433  1.00  0.00    -0.200 F 
ATOM    119  C   UNL A   1      38.271  33.551  37.590  1.00  0.00     0.200 A 
ATOM    120  F   UNL A   1      39.343  35.457  36.698  1.00  0.00    -0.200 F 
ATOM    121  F   UNL A   1      37.837  34.265  38.637  1.00  0.00    -0.200 F 
ENDBRANCH  83 111
BRANCH  98 122
ATOM    122  C   UNL A   1      44.911  28.233  34.273  1.00  0.00     0.064 A 
ATOM    123  C   UNL A   1      46.023  29.086  34.239  1.00  0.00     0.173 A 
ATOM    124  C   UNL A   1      44.941  27.145  35.158  1.00  0.00     0.173 A 
ATOM    125  F   UNL A   1      46.047  30.131  33.399  1.00  0.00    -0.203 F 
ATOM    126  C   UNL A   1      47.127  28.852  35.054  1.00  0.00     0.198 A 
ATOM    127  C   UNL A   1      46.035  26.929  35.989  1.00  0.00     0.198 A 
ATOM    128  F   UNL A   1      43.899  26.304  35.231  1.00  0.00    -0.203 F 
ATOM    129  F   UNL A   1      48.193  29.660  34.984  1.00  0.00    -0.200 F 
ATOM    130  C   UNL A   1      47.129  27.779  35.935  1.00  0.00     0.200 A 
ATOM    131  F   UNL A   1      46.030  25.901  36.849  1.00  0.00    -0.200 F 
ATOM    132  F   UNL A   1      48.186  27.565  36.729  1.00  0.00    -0.200 F 
ENDBRANCH  98 122
ENDBRANCH  63  66
ENDBRANCH  53  56
ENDBRANCH  49  52
ENDBRANCH  46  49
ENDBRANCH  43  46
ENDBRANCH   1  43
TORSDOF 17
ENDMDL
MODEL 5
REMARK VINA RESULT:     -11.7      5.550     11.133
REMARK SMILES Cc1cccc(Nc2ccccc2C(=O)NCCCCCCNC(=O)c2ccc(-c3c4nc(c(-c5c(F)c(F)c(F)c(F)c5F)c5ccc([nH]5)c(-c5c(F)c(F)c(F)c(F)c5F)c5nc(c(-c6c(F)c(F)c(F)c(F)c6F)c6ccc3[nH]6)C=C5)C=C4)cc2)c1C
REMARK SMILES IDX 19 1 18 4 17 7 16 10 14 11 15 12 13 14 8 15 9 16 10 17 12 19
REMARK SMILES IDX 11 20 7 24 6 26 2 27 3 28 89 29 4 30 5 32 1 35 90 39 20 43
REMARK SMILES IDX 21 46 22 49 23 52 24 53 25 55 26 56 27 57 88 58 28 59 87 61
REMARK SMILES IDX 29 63 30 66 31 67 81 68 32 69 86 70 80 71 82 72 33 73 85 74
REMARK SMILES IDX 79 76 78 78 34 80 66 83 46 84 65 85 47 86 50 87 64 88 83 89
REMARK SMILES IDX 48 90 49 92 63 94 84 95 51 98 35 100 36 101 44 102 37 103
REMARK SMILES IDX 38 104 42 105 45 106 39 107 40 108 43 109 41 110 67 111
REMARK SMILES IDX 68 112 76 113 69 114 70 115 74 116 77 117 71 118 72 119
REMARK SMILES IDX 75 120 73 121 52 122 53 123 61 124 54 125 55 126 59 127
REMARK SMILES IDX 62 128 56 129 57 130 60 131 58 132
REMARK H PARENT 19 2 19 3 18 5 18 6 17 8 17 9 16 13 9 18 10 21 12 22 11 23
REMARK H PARENT 7 25 3 31 4 33 5 34 1 36 1 37 1 38 90 40 90 41 90 42 20 44
REMARK H PARENT 20 45 21 47 21 48 22 50 22 51 23 54 27 60 88 62 28 64 87 65
REMARK H PARENT 86 75 80 77 82 79 85 81 79 82 47 91 50 93 83 96 48 97 84 99
REMARK Flexibility Score: inf
ROOT
ATOM      1  C   UNL A   1      36.999  21.964  24.832  1.00  0.00    -0.052 C 
ATOM      2  H   UNL A   1      36.649  22.382  25.753  1.00  0.00     0.027 H 
ATOM      3  H   UNL A   1      38.055  22.027  24.669  1.00  0.00     0.027 H 
ENDROOT
BRANCH   1   4
ATOM      4  C   UNL A   1      36.380  22.787  23.692  1.00  0.00    -0.036 C 
ATOM      5  H   UNL A   1      37.178  23.136  23.072  1.00  0.00     0.028 H 
ATOM      6  H   UNL A   1      35.695  22.123  23.205  1.00  0.00     0.028 H 
BRANCH   4   7
ATOM      7  C   UNL A   1      35.545  23.998  24.098  1.00  0.00     0.018 C 
ATOM      8  H   UNL A   1      35.007  23.750  24.989  1.00  0.00     0.049 H 
ATOM      9  H   UNL A   1      36.232  24.808  24.234  1.00  0.00     0.049 H 
BRANCH   7  10
ATOM     10  N   UNL A   1      34.596  24.431  23.103  1.00  0.00    -0.352 N 
ATOM     11  C   UNL A   1      33.679  25.454  23.141  1.00  0.00     0.253 C 
ATOM     12  O   UNL A   1      33.055  25.680  22.099  1.00  0.00    -0.269 OA
ATOM     13  H   UNL A   1      34.605  23.913  22.268  1.00  0.00     0.163 HD
BRANCH  11  14
ATOM     14  C   UNL A   1      33.300  26.214  24.374  1.00  0.00     0.063 A 
ATOM     15  C   UNL A   1      32.506  25.795  25.461  1.00  0.00     0.051 A 
ATOM     16  C   UNL A   1      32.247  26.731  26.496  1.00  0.00    -0.038 A 
ATOM     17  C   UNL A   1      32.806  28.008  26.508  1.00  0.00    -0.060 A 
ATOM     18  H   UNL A   1      31.622  26.456  27.269  1.00  0.00     0.064 H 
ATOM     19  C   UNL A   1      33.874  27.510  24.417  1.00  0.00    -0.047 A 
ATOM     20  C   UNL A   1      33.641  28.392  25.473  1.00  0.00    -0.061 A 
ATOM     21  H   UNL A   1      32.599  28.660  27.280  1.00  0.00     0.062 H 
ATOM     22  H   UNL A   1      34.482  27.812  23.640  1.00  0.00     0.063 H 
ATOM     23  H   UNL A   1      34.087  29.323  25.482  1.00  0.00     0.062 H 
BRANCH  15  24
ATOM     24  N   UNL A   1      32.030  24.495  25.730  1.00  0.00    -0.355 N 
ATOM     25  H   UNL A   1      31.054  24.465  25.858  1.00  0.00     0.167 HD
BRANCH  24  26
ATOM     26  C   UNL A   1      32.637  23.229  25.854  1.00  0.00     0.042 A 
ATOM     27  C   UNL A   1      32.879  20.845  25.401  1.00  0.00    -0.046 A 
ATOM     28  C   UNL A   1      33.652  20.700  26.562  1.00  0.00    -0.059 A 
ATOM     29  C   UNL A   1      32.423  22.128  25.000  1.00  0.00    -0.025 A 
ATOM     30  C   UNL A   1      33.967  21.806  27.338  1.00  0.00    -0.060 A 
ATOM     31  H   UNL A   1      33.988  19.766  26.842  1.00  0.00     0.063 H 
ATOM     32  C   UNL A   1      33.454  23.051  26.990  1.00  0.00    -0.038 A 
ATOM     33  H   UNL A   1      34.575  21.705  28.165  1.00  0.00     0.062 H 
ATOM     34  H   UNL A   1      33.678  23.868  27.580  1.00  0.00     0.064 H 
BRANCH  27  35
ATOM     35  C   UNL A   1      32.573  19.614  24.588  1.00  0.00    -0.039 C 
ATOM     36  H   UNL A   1      32.444  18.778  25.241  1.00  0.00     0.028 H 
ATOM     37  H   UNL A   1      33.383  19.421  23.916  1.00  0.00     0.028 H 
ATOM     38  H   UNL A   1      31.675  19.771  24.027  1.00  0.00     0.028 H 
ENDBRANCH  27  35
BRANCH  29  39
ATOM     39  C   UNL A   1      31.784  22.278  23.643  1.00  0.00    -0.037 C 
ATOM     40  H   UNL A   1      31.538  23.305  23.475  1.00  0.00     0.028 H 
ATOM     41  H   UNL A   1      30.893  21.686  23.601  1.00  0.00     0.028 H 
ATOM     42  H   UNL A   1      32.468  21.947  22.889  1.00  0.00     0.028 H 
ENDBRANCH  29  39
ENDBRANCH  24  26
ENDBRANCH  15  24
ENDBRANCH  11  14
ENDBRANCH   7  10
ENDBRANCH   4   7
ENDBRANCH   1   4
BRANCH   1  43
ATOM     43  C   UNL A   1      36.701  20.460  24.869  1.00  0.00    -0.052 C 
ATOM     44  H   UNL A   1      36.151  20.217  23.984  1.00  0.00     0.027 H 
ATOM     45  H   UNL A   1      36.173  20.304  25.787  1.00  0.00     0.027 H 
BRANCH  43  46
ATOM     46  C   UNL A   1      37.904  19.517  24.938  1.00  0.00    -0.036 C 
ATOM     47  H   UNL A   1      38.241  19.347  23.938  1.00  0.00     0.028 H 
ATOM     48  H   UNL A   1      37.550  18.642  25.442  1.00  0.00     0.028 H 
BRANCH  46  49
ATOM     49  C   UNL A   1      39.096  19.998  25.754  1.00  0.00     0.018 C 
ATOM     50  H   UNL A   1      38.767  20.198  26.753  1.00  0.00     0.049 H 
ATOM     51  H   UNL A   1      39.477  20.875  25.274  1.00  0.00     0.049 H 
BRANCH  49  52
ATOM     52  N   UNL A   1      40.178  19.031  25.810  1.00  0.00    -0.352 N 
ATOM     53  C   UNL A   1      41.526  19.216  26.001  1.00  0.00     0.251 C 
ATOM     54  H   UNL A   1      39.902  18.093  25.692  1.00  0.00     0.163 HD
ATOM     55  O   UNL A   1      42.293  18.266  25.882  1.00  0.00    -0.269 OA
BRANCH  53  56
ATOM     56  C   UNL A   1      42.075  20.554  26.327  1.00  0.00     0.039 A 
ATOM     57  C   UNL A   1      42.416  21.414  25.276  1.00  0.00    -0.049 A 
ATOM     58  C   UNL A   1      42.298  20.956  27.645  1.00  0.00    -0.049 A 
ATOM     59  C   UNL A   1      42.920  22.691  25.546  1.00  0.00    -0.053 A 
ATOM     60  H   UNL A   1      42.295  21.105  24.298  1.00  0.00     0.063 H 
ATOM     61  C   UNL A   1      42.727  22.255  27.917  1.00  0.00    -0.053 A 
ATOM     62  H   UNL A   1      42.146  20.291  28.420  1.00  0.00     0.063 H 
ATOM     63  C   UNL A   1      43.050  23.134  26.870  1.00  0.00    -0.014 A 
ATOM     64  H   UNL A   1      43.196  23.310  24.768  1.00  0.00     0.063 H 
ATOM     65  H   UNL A   1      42.807  22.574  28.895  1.00  0.00     0.063 H 
BRANCH  63  66
ATOM     66  C   UNL A   1      43.546  24.497  27.193  1.00  0.00     0.031 A 
ATOM     67  C   UNL A   1      42.595  25.534  27.727  1.00  0.00     0.074 A 
ATOM     68  C   UNL A   1      44.823  24.832  26.925  1.00  0.00     0.049 A 
ATOM     69  N   UNL A   1      42.792  26.811  27.940  1.00  0.00    -0.248 NA
ATOM     70  C   UNL A   1      41.230  25.080  28.031  1.00  0.00    -0.034 C 
ATOM     71  C   UNL A   1      45.834  23.932  26.371  1.00  0.00    -0.036 A 
ATOM     72  N   UNL A   1      45.483  26.029  27.065  1.00  0.00    -0.354 N 
ATOM     73  C   UNL A   1      41.571  27.315  28.368  1.00  0.00     0.074 A 
ATOM     74  C   UNL A   1      40.628  26.216  28.345  1.00  0.00    -0.034 C 
ATOM     75  H   UNL A   1      40.842  24.123  28.005  1.00  0.00     0.065 H 
ATOM     76  C   UNL A   1      46.987  24.606  26.222  1.00  0.00    -0.036 A 
ATOM     77  H   UNL A   1      45.685  22.941  26.131  1.00  0.00     0.065 H 
ATOM     78  C   UNL A   1      46.787  25.992  26.634  1.00  0.00     0.049 A 
ATOM     79  H   UNL A   1      45.061  26.837  27.438  1.00  0.00     0.167 HD
ATOM     80  C   UNL A   1      41.265  28.575  28.760  1.00  0.00     0.037 A 
ATOM     81  H   UNL A   1      39.621  26.308  28.547  1.00  0.00     0.065 H 
ATOM     82  H   UNL A   1      47.873  24.206  25.874  1.00  0.00     0.065 H 
ATOM     83  C   UNL A   1      47.712  26.969  26.563  1.00  0.00     0.037 A 
ATOM     84  C   UNL A   1      42.216  29.653  28.827  1.00  0.00     0.049 A 
ATOM     85  C   UNL A   1      47.356  28.357  27.022  1.00  0.00     0.074 A 
ATOM     86  C   UNL A   1      42.026  30.944  29.290  1.00  0.00    -0.036 A 
ATOM     87  N   UNL A   1      43.538  29.565  28.420  1.00  0.00    -0.354 N 
ATOM     88  N   UNL A   1      46.215  28.808  27.481  1.00  0.00    -0.248 NA
ATOM     89  C   UNL A   1      48.417  29.372  26.956  1.00  0.00    -0.034 C 
ATOM     90  C   UNL A   1      43.223  31.649  29.123  1.00  0.00    -0.036 A 
ATOM     91  H   UNL A   1      41.152  31.321  29.690  1.00  0.00     0.065 H 
ATOM     92  C   UNL A   1      44.171  30.785  28.600  1.00  0.00     0.049 A 
ATOM     93  H   UNL A   1      43.965  28.756  28.057  1.00  0.00     0.167 HD
ATOM     94  C   UNL A   1      46.425  30.146  27.784  1.00  0.00     0.074 A 
ATOM     95  C   UNL A   1      47.807  30.434  27.463  1.00  0.00    -0.034 C 
ATOM     96  H   UNL A   1      49.384  29.281  26.606  1.00  0.00     0.065 H 
ATOM     97  H   UNL A   1      43.373  32.644  29.351  1.00  0.00     0.065 H 
ATOM     98  C   UNL A   1      45.551  31.053  28.285  1.00  0.00     0.037 A 
ATOM     99  H   UNL A   1      48.260  31.351  27.610  1.00  0.00     0.065 H 
BRANCH  80 100
ATOM    100  C   UNL A   1      39.843  28.858  29.146  1.00  0.00     0.064 A 
ATOM    101  C   UNL A   1      39.402  28.754  30.474  1.00  0.00     0.173 A 
ATOM    102  C   UNL A   1      38.913  29.265  28.178  1.00  0.00     0.173 A 
ATOM    103  F   UNL A   1      40.248  28.359  31.436  1.00  0.00    -0.203 F 
ATOM    104  C   UNL A   1      38.075  29.012  30.812  1.00  0.00     0.198 A 
ATOM    105  C   UNL A   1      37.595  29.554  28.523  1.00  0.00     0.198 A 
ATOM    106  F   UNL A   1      39.282  29.388  26.894  1.00  0.00    -0.203 F 
ATOM    107  F   UNL A   1      37.666  28.852  32.078  1.00  0.00    -0.200 F 
ATOM    108  C   UNL A   1      37.175  29.417  29.839  1.00  0.00     0.200 A 
ATOM    109  F   UNL A   1      36.729  29.957  27.584  1.00  0.00    -0.200 F 
ATOM    110  F   UNL A   1      35.900  29.668  30.165  1.00  0.00    -0.200 F 
ENDBRANCH  80 100
BRANCH  83 111
ATOM    111  C   UNL A   1      49.071  26.658  26.051  1.00  0.00     0.064 A 
ATOM    112  C   UNL A   1      49.417  26.930  24.720  1.00  0.00     0.173 A 
ATOM    113  C   UNL A   1      50.054  26.100  26.880  1.00  0.00     0.173 A 
ATOM    114  F   UNL A   1      48.504  27.443  23.883  1.00  0.00    -0.203 F 
ATOM    115  C   UNL A   1      50.692  26.645  24.236  1.00  0.00     0.198 A 
ATOM    116  C   UNL A   1      51.337  25.840  26.403  1.00  0.00     0.198 A 
ATOM    117  F   UNL A   1      49.773  25.826  28.164  1.00  0.00    -0.203 F 
ATOM    118  F   UNL A   1      50.987  26.883  22.950  1.00  0.00    -0.200 F 
ATOM    119  C   UNL A   1      51.654  26.108  25.079  1.00  0.00     0.200 A 
ATOM    120  F   UNL A   1      52.266  25.333  27.224  1.00  0.00    -0.200 F 
ATOM    121  F   UNL A   1      52.882  25.843  24.616  1.00  0.00    -0.200 F 
ENDBRANCH  83 111
BRANCH  98 122
ATOM    122  C   UNL A   1      46.065  32.437  28.553  1.00  0.00     0.064 A 
ATOM    123  C   UNL A   1      45.982  33.449  27.587  1.00  0.00     0.173 A 
ATOM    124  C   UNL A   1      46.585  32.767  29.813  1.00  0.00     0.173 A 
ATOM    125  F   UNL A   1      45.506  33.179  26.363  1.00  0.00    -0.203 F 
ATOM    126  C   UNL A   1      46.412  34.742  27.871  1.00  0.00     0.198 A 
ATOM    127  C   UNL A   1      46.990  34.067  30.101  1.00  0.00     0.198 A 
ATOM    128  F   UNL A   1      46.680  31.834  30.771  1.00  0.00    -0.203 F 
ATOM    129  F   UNL A   1      46.354  35.690  26.925  1.00  0.00    -0.200 F 
ATOM    130  C   UNL A   1      46.907  35.053  29.130  1.00  0.00     0.200 A 
ATOM    131  F   UNL A   1      47.455  34.367  31.322  1.00  0.00    -0.200 F 
ATOM    132  F   UNL A   1      47.307  36.301  29.406  1.00  0.00    -0.200 F 
ENDBRANCH  98 122
ENDBRANCH  63  66
ENDBRANCH  53  56
ENDBRANCH  49  52
ENDBRANCH  46  49
ENDBRANCH  43  46
ENDBRANCH   1  43
TORSDOF 17
ENDMDL
MODEL 6
REMARK VINA RESULT:     -11.7      4.838      9.774
REMARK SMILES Cc1cccc(Nc2ccccc2C(=O)NCCCCCCNC(=O)c2ccc(-c3c4nc(c(-c5c(F)c(F)c(F)c(F)c5F)c5ccc([nH]5)c(-c5c(F)c(F)c(F)c(F)c5F)c5nc(c(-c6c(F)c(F)c(F)c(F)c6F)c6ccc3[nH]6)C=C5)C=C4)cc2)c1C
REMARK SMILES IDX 19 1 18 4 17 7 16 10 14 11 15 12 13 14 8 15 9 16 10 17 12 19
REMARK SMILES IDX 11 20 7 24 6 26 2 27 3 28 89 29 4 30 5 32 1 35 90 39 20 43
REMARK SMILES IDX 21 46 22 49 23 52 24 53 25 55 26 56 27 57 88 58 28 59 87 61
REMARK SMILES IDX 29 63 30 66 31 67 81 68 32 69 86 70 80 71 82 72 33 73 85 74
REMARK SMILES IDX 79 76 78 78 34 80 66 83 46 84 65 85 47 86 50 87 64 88 83 89
REMARK SMILES IDX 48 90 49 92 63 94 84 95 51 98 35 100 36 101 44 102 37 103
REMARK SMILES IDX 38 104 42 105 45 106 39 107 40 108 43 109 41 110 67 111
REMARK SMILES IDX 68 112 76 113 69 114 70 115 74 116 77 117 71 118 72 119
REMARK SMILES IDX 75 120 73 121 52 122 53 123 61 124 54 125 55 126 59 127
REMARK SMILES IDX 62 128 56 129 57 130 60 131 58 132
REMARK H PARENT 19 2 19 3 18 5 18 6 17 8 17 9 16 13 9 18 10 21 12 22 11 23
REMARK H PARENT 7 25 3 31 4 33 5 34 1 36 1 37 1 38 90 40 90 41 90 42 20 44
REMARK H PARENT 20 45 21 47 21 48 22 50 22 51 23 54 27 60 88 62 28 64 87 65
REMARK H PARENT 86 75 80 77 82 79 85 81 79 82 47 91 50 93 83 96 48 97 84 99
REMARK Flexibility Score: inf
ROOT
ATOM      1  C   UNL A   1      34.813  24.887  25.055  1.00  0.00    -0.052 C 
ATOM      2  H   UNL A   1      35.636  24.683  25.709  1.00  0.00     0.027 H 
ATOM      3  H   UNL A   1      34.892  25.789  24.484  1.00  0.00     0.027 H 
ENDROOT
BRANCH   1   4
ATOM      4  C   UNL A   1      33.570  25.091  25.933  1.00  0.00    -0.036 C 
ATOM      5  H   UNL A   1      33.730  25.966  26.526  1.00  0.00     0.028 H 
ATOM      6  H   UNL A   1      32.749  25.159  25.249  1.00  0.00     0.028 H 
BRANCH   4   7
ATOM      7  C   UNL A   1      33.208  23.950  26.881  1.00  0.00     0.018 C 
ATOM      8  H   UNL A   1      33.716  23.068  26.552  1.00  0.00     0.049 H 
ATOM      9  H   UNL A   1      33.504  24.264  27.861  1.00  0.00     0.049 H 
BRANCH   7  10
ATOM     10  N   UNL A   1      31.798  23.658  26.954  1.00  0.00    -0.352 N 
ATOM     11  C   UNL A   1      31.029  22.813  26.191  1.00  0.00     0.253 C 
ATOM     12  O   UNL A   1      29.853  22.666  26.539  1.00  0.00    -0.269 OA
ATOM     13  H   UNL A   1      31.311  24.139  27.660  1.00  0.00     0.163 HD
BRANCH  11  14
ATOM     14  C   UNL A   1      31.478  22.172  24.915  1.00  0.00     0.063 A 
ATOM     15  C   UNL A   1      31.237  22.583  23.588  1.00  0.00     0.051 A 
ATOM     16  C   UNL A   1      31.730  21.765  22.538  1.00  0.00    -0.038 A 
ATOM     17  C   UNL A   1      32.497  20.625  22.774  1.00  0.00    -0.060 A 
ATOM     18  H   UNL A   1      31.514  22.024  21.563  1.00  0.00     0.064 H 
ATOM     19  C   UNL A   1      32.276  21.020  25.131  1.00  0.00    -0.047 A 
ATOM     20  C   UNL A   1      32.790  20.263  24.078  1.00  0.00    -0.061 A 
ATOM     21  H   UNL A   1      32.844  20.058  21.985  1.00  0.00     0.062 H 
ATOM     22  H   UNL A   1      32.483  20.732  26.100  1.00  0.00     0.063 H 
ATOM     23  H   UNL A   1      33.383  19.440  24.268  1.00  0.00     0.062 H 
BRANCH  15  24
ATOM     24  N   UNL A   1      30.670  23.798  23.151  1.00  0.00    -0.355 N 
ATOM     25  H   UNL A   1      29.848  23.668  22.625  1.00  0.00     0.167 HD
BRANCH  24  26
ATOM     26  C   UNL A   1      31.015  25.157  23.300  1.00  0.00     0.042 A 
ATOM     27  C   UNL A   1      32.457  27.107  23.049  1.00  0.00    -0.046 A 
ATOM     28  C   UNL A   1      31.765  27.755  24.083  1.00  0.00    -0.059 A 
ATOM     29  C   UNL A   1      32.040  25.826  22.603  1.00  0.00    -0.025 A 
ATOM     30  C   UNL A   1      30.676  27.146  24.687  1.00  0.00    -0.060 A 
ATOM     31  H   UNL A   1      32.067  28.690  24.395  1.00  0.00     0.063 H 
ATOM     32  C   UNL A   1      30.316  25.858  24.305  1.00  0.00    -0.038 A 
ATOM     33  H   UNL A   1      30.138  27.643  25.414  1.00  0.00     0.062 H 
ATOM     34  H   UNL A   1      29.515  25.403  24.770  1.00  0.00     0.064 H 
BRANCH  27  35
ATOM     35  C   UNL A   1      33.627  27.816  22.418  1.00  0.00    -0.039 C 
ATOM     36  H   UNL A   1      33.842  27.375  21.468  1.00  0.00     0.028 H 
ATOM     37  H   UNL A   1      34.482  27.727  23.055  1.00  0.00     0.028 H 
ATOM     38  H   UNL A   1      33.388  28.851  22.286  1.00  0.00     0.028 H 
ENDBRANCH  27  35
BRANCH  29  39
ATOM     39  C   UNL A   1      32.666  25.255  21.355  1.00  0.00    -0.037 C 
ATOM     40  H   UNL A   1      32.110  25.573  20.498  1.00  0.00     0.028 H 
ATOM     41  H   UNL A   1      32.659  24.186  21.408  1.00  0.00     0.028 H 
ATOM     42  H   UNL A   1      33.676  25.602  21.273  1.00  0.00     0.028 H 
ENDBRANCH  29  39
ENDBRANCH  24  26
ENDBRANCH  15  24
ENDBRANCH  11  14
ENDBRANCH   7  10
ENDBRANCH   4   7
ENDBRANCH   1   4
BRANCH   1  43
ATOM     43  C   UNL A   1      34.772  23.767  24.007  1.00  0.00    -0.052 C 
ATOM     44  H   UNL A   1      35.087  24.186  23.075  1.00  0.00     0.027 H 
ATOM     45  H   UNL A   1      33.764  23.408  24.025  1.00  0.00     0.027 H 
BRANCH  43  46
ATOM     46  C   UNL A   1      35.637  22.535  24.276  1.00  0.00    -0.036 C 
ATOM     47  H   UNL A   1      36.364  22.472  23.494  1.00  0.00     0.028 H 
ATOM     48  H   UNL A   1      34.954  21.711  24.314  1.00  0.00     0.028 H 
BRANCH  46  49
ATOM     49  C   UNL A   1      36.380  22.505  25.605  1.00  0.00     0.018 C 
ATOM     50  H   UNL A   1      35.662  22.423  26.394  1.00  0.00     0.049 H 
ATOM     51  H   UNL A   1      36.949  23.407  25.672  1.00  0.00     0.049 H 
BRANCH  49  52
ATOM     52  N   UNL A   1      37.312  21.396  25.713  1.00  0.00    -0.352 N 
ATOM     53  C   UNL A   1      38.648  21.388  26.035  1.00  0.00     0.251 C 
ATOM     54  H   UNL A   1      36.926  20.510  25.526  1.00  0.00     0.163 HD
ATOM     55  O   UNL A   1      39.289  20.346  25.941  1.00  0.00    -0.269 OA
BRANCH  53  56
ATOM     56  C   UNL A   1      39.337  22.626  26.472  1.00  0.00     0.039 A 
ATOM     57  C   UNL A   1      40.371  22.523  27.410  1.00  0.00    -0.049 A 
ATOM     58  C   UNL A   1      38.954  23.884  26.004  1.00  0.00    -0.049 A 
ATOM     59  C   UNL A   1      41.055  23.669  27.831  1.00  0.00    -0.053 A 
ATOM     60  H   UNL A   1      40.629  21.600  27.793  1.00  0.00     0.063 H 
ATOM     61  C   UNL A   1      39.684  25.016  26.364  1.00  0.00    -0.053 A 
ATOM     62  H   UNL A   1      38.128  23.977  25.392  1.00  0.00     0.063 H 
ATOM     63  C   UNL A   1      40.739  24.922  27.287  1.00  0.00    -0.014 A 
ATOM     64  H   UNL A   1      41.798  23.591  28.544  1.00  0.00     0.063 H 
ATOM     65  H   UNL A   1      39.450  25.931  25.948  1.00  0.00     0.063 H 
BRANCH  63  66
ATOM     66  C   UNL A   1      41.470  26.153  27.683  1.00  0.00     0.031 A 
ATOM     67  C   UNL A   1      40.753  27.243  28.432  1.00  0.00     0.074 A 
ATOM     68  C   UNL A   1      42.747  26.334  27.295  1.00  0.00     0.049 A 
ATOM     69  N   UNL A   1      41.166  28.446  28.748  1.00  0.00    -0.248 NA
ATOM     70  C   UNL A   1      39.375  26.954  28.854  1.00  0.00    -0.034 C 
ATOM     71  C   UNL A   1      43.543  25.372  26.532  1.00  0.00    -0.036 A 
ATOM     72  N   UNL A   1      43.595  27.400  27.474  1.00  0.00    -0.354 N 
ATOM     73  C   UNL A   1      40.090  29.063  29.371  1.00  0.00     0.074 A 
ATOM     74  C   UNL A   1      38.992  28.119  29.354  1.00  0.00    -0.034 C 
ATOM     75  H   UNL A   1      38.843  26.072  28.780  1.00  0.00     0.065 H 
ATOM     76  C   UNL A   1      44.764  25.888  26.312  1.00  0.00    -0.036 A 
ATOM     77  H   UNL A   1      43.219  24.447  26.214  1.00  0.00     0.065 H 
ATOM     78  C   UNL A   1      44.825  27.231  26.884  1.00  0.00     0.049 A 
ATOM     79  H   UNL A   1      43.345  28.210  27.975  1.00  0.00     0.167 HD
ATOM     80  C   UNL A   1      40.026  30.298  29.923  1.00  0.00     0.037 A 
ATOM     81  H   UNL A   1      38.038  28.327  29.686  1.00  0.00     0.065 H 
ATOM     82  H   UNL A   1      45.535  25.412  25.819  1.00  0.00     0.065 H 
ATOM     83  C   UNL A   1      45.876  28.068  26.799  1.00  0.00     0.037 A 
ATOM     84  C   UNL A   1      41.133  31.215  29.982  1.00  0.00     0.049 A 
ATOM     85  C   UNL A   1      45.790  29.428  27.437  1.00  0.00     0.074 A 
ATOM     86  C   UNL A   1      41.195  32.456  30.593  1.00  0.00    -0.036 A 
ATOM     87  N   UNL A   1      42.375  30.990  29.408  1.00  0.00    -0.354 N 
ATOM     88  N   UNL A   1      44.787  29.979  28.076  1.00  0.00    -0.248 NA
ATOM     89  C   UNL A   1      46.982  30.284  27.343  1.00  0.00    -0.034 C 
ATOM     90  C   UNL A   1      42.461  32.999  30.352  1.00  0.00    -0.036 A 
ATOM     91  H   UNL A   1      40.437  32.902  31.133  1.00  0.00     0.065 H 
ATOM     92  C   UNL A   1      43.204  32.078  29.632  1.00  0.00     0.049 A 
ATOM     93  H   UNL A   1      42.631  30.177  28.915  1.00  0.00     0.167 HD
ATOM     94  C   UNL A   1      45.232  31.228  28.484  1.00  0.00     0.074 A 
ATOM     95  C   UNL A   1      46.600  31.354  28.026  1.00  0.00    -0.034 C 
ATOM     96  H   UNL A   1      47.880  30.099  26.869  1.00  0.00     0.065 H 
ATOM     97  H   UNL A   1      42.786  33.929  30.660  1.00  0.00     0.065 H 
ATOM     98  C   UNL A   1      44.567  32.183  29.178  1.00  0.00     0.037 A 
ATOM     99  H   UNL A   1      47.202  32.174  28.208  1.00  0.00     0.065 H 
BRANCH  80 100
ATOM    100  C   UNL A   1      38.713  30.732  30.508  1.00  0.00     0.064 A 
ATOM    101  C   UNL A   1      37.685  31.256  29.709  1.00  0.00     0.173 A 
ATOM    102  C   UNL A   1      38.470  30.598  31.883  1.00  0.00     0.173 A 
ATOM    103  F   UNL A   1      37.870  31.414  28.391  1.00  0.00    -0.203 F 
ATOM    104  C   UNL A   1      36.477  31.662  30.271  1.00  0.00     0.198 A 
ATOM    105  C   UNL A   1      37.249  30.975  32.437  1.00  0.00     0.198 A 
ATOM    106  F   UNL A   1      39.415  30.096  32.692  1.00  0.00    -0.203 F 
ATOM    107  F   UNL A   1      35.532  32.211  29.495  1.00  0.00    -0.200 F 
ATOM    108  C   UNL A   1      36.258  31.517  31.632  1.00  0.00     0.200 A 
ATOM    109  F   UNL A   1      37.034  30.822  33.751  1.00  0.00    -0.200 F 
ATOM    110  F   UNL A   1      35.094  31.904  32.170  1.00  0.00    -0.200 F 
ENDBRANCH  80 100
BRANCH  83 111
ATOM    111  C   UNL A   1      47.109  27.631  26.094  1.00  0.00     0.064 A 
ATOM    112  C   UNL A   1      48.201  27.119  26.809  1.00  0.00     0.173 A 
ATOM    113  C   UNL A   1      47.216  27.699  24.698  1.00  0.00     0.173 A 
ATOM    114  F   UNL A   1      48.154  27.055  28.147  1.00  0.00    -0.203 F 
ATOM    115  C   UNL A   1      49.357  26.702  26.152  1.00  0.00     0.198 A 
ATOM    116  C   UNL A   1      48.362  27.258  24.041  1.00  0.00     0.198 A 
ATOM    117  F   UNL A   1      46.196  28.178  23.969  1.00  0.00    -0.203 F 
ATOM    118  F   UNL A   1      50.401  26.249  26.862  1.00  0.00    -0.200 F 
ATOM    119  C   UNL A   1      49.435  26.765  24.769  1.00  0.00     0.200 A 
ATOM    120  F   UNL A   1      48.427  27.307  22.704  1.00  0.00    -0.200 F 
ATOM    121  F   UNL A   1      50.543  26.354  24.139  1.00  0.00    -0.200 F 
ENDBRANCH  83 111
BRANCH  98 122
ATOM    122  C   UNL A   1      45.314  33.440  29.519  1.00  0.00     0.064 A 
ATOM    123  C   UNL A   1      46.090  33.538  30.681  1.00  0.00     0.173 A 
ATOM    124  C   UNL A   1      45.304  34.531  28.637  1.00  0.00     0.173 A 
ATOM    125  F   UNL A   1      46.120  32.527  31.562  1.00  0.00    -0.203 F 
ATOM    126  C   UNL A   1      46.822  34.691  30.954  1.00  0.00     0.198 A 
ATOM    127  C   UNL A   1      46.056  35.671  28.901  1.00  0.00     0.198 A 
ATOM    128  F   UNL A   1      44.580  34.482  27.509  1.00  0.00    -0.203 F 
ATOM    129  F   UNL A   1      47.534  34.779  32.087  1.00  0.00    -0.200 F 
ATOM    130  C   UNL A   1      46.812  35.752  30.060  1.00  0.00     0.200 A 
ATOM    131  F   UNL A   1      46.055  36.689  28.029  1.00  0.00    -0.200 F 
ATOM    132  F   UNL A   1      47.529  36.854  30.318  1.00  0.00    -0.200 F 
ENDBRANCH  98 122
ENDBRANCH  63  66
ENDBRANCH  53  56
ENDBRANCH  49  52
ENDBRANCH  46  49
ENDBRANCH  43  46
ENDBRANCH   1  43
TORSDOF 17
ENDMDL
MODEL 7
REMARK VINA RESULT:     -11.7      5.499     10.973
REMARK SMILES Cc1cccc(Nc2ccccc2C(=O)NCCCCCCNC(=O)c2ccc(-c3c4nc(c(-c5c(F)c(F)c(F)c(F)c5F)c5ccc([nH]5)c(-c5c(F)c(F)c(F)c(F)c5F)c5nc(c(-c6c(F)c(F)c(F)c(F)c6F)c6ccc3[nH]6)C=C5)C=C4)cc2)c1C
REMARK SMILES IDX 19 1 18 4 17 7 16 10 14 11 15 12 13 14 8 15 9 16 10 17 12 19
REMARK SMILES IDX 11 20 7 24 6 26 2 27 3 28 89 29 4 30 5 32 1 35 90 39 20 43
REMARK SMILES IDX 21 46 22 49 23 52 24 53 25 55 26 56 27 57 88 58 28 59 87 61
REMARK SMILES IDX 29 63 30 66 31 67 81 68 32 69 86 70 80 71 82 72 33 73 85 74
REMARK SMILES IDX 79 76 78 78 34 80 66 83 46 84 65 85 47 86 50 87 64 88 83 89
REMARK SMILES IDX 48 90 49 92 63 94 84 95 51 98 35 100 36 101 44 102 37 103
REMARK SMILES IDX 38 104 42 105 45 106 39 107 40 108 43 109 41 110 67 111
REMARK SMILES IDX 68 112 76 113 69 114 70 115 74 116 77 117 71 118 72 119
REMARK SMILES IDX 75 120 73 121 52 122 53 123 61 124 54 125 55 126 59 127
REMARK SMILES IDX 62 128 56 129 57 130 60 131 58 132
REMARK H PARENT 19 2 19 3 18 5 18 6 17 8 17 9 16 13 9 18 10 21 12 22 11 23
REMARK H PARENT 7 25 3 31 4 33 5 34 1 36 1 37 1 38 90 40 90 41 90 42 20 44
REMARK H PARENT 20 45 21 47 21 48 22 50 22 51 23 54 27 60 88 62 28 64 87 65
REMARK H PARENT 86 75 80 77 82 79 85 81 79 82 47 91 50 93 83 96 48 97 84 99
REMARK Flexibility Score: inf
ROOT
ATOM      1  C   UNL A   1      36.676  21.969  24.763  1.00  0.00    -0.052 C 
ATOM      2  H   UNL A   1      36.591  22.460  25.710  1.00  0.00     0.027 H 
ATOM      3  H   UNL A   1      37.632  22.045  24.288  1.00  0.00     0.027 H 
ENDROOT
BRANCH   1   4
ATOM      4  C   UNL A   1      35.707  22.668  23.798  1.00  0.00    -0.036 C 
ATOM      5  H   UNL A   1      36.241  22.879  22.895  1.00  0.00     0.028 H 
ATOM      6  H   UNL A   1      34.886  21.990  23.682  1.00  0.00     0.028 H 
BRANCH   4   7
ATOM      7  C   UNL A   1      35.083  23.974  24.282  1.00  0.00     0.018 C 
ATOM      8  H   UNL A   1      34.297  23.736  24.968  1.00  0.00     0.049 H 
ATOM      9  H   UNL A   1      35.873  24.541  24.729  1.00  0.00     0.049 H 
BRANCH   7  10
ATOM     10  N   UNL A   1      34.532  24.799  23.235  1.00  0.00    -0.352 N 
ATOM     11  C   UNL A   1      33.704  25.892  23.313  1.00  0.00     0.253 C 
ATOM     12  O   UNL A   1      33.466  26.486  22.256  1.00  0.00    -0.269 OA
ATOM     13  H   UNL A   1      34.788  24.536  22.322  1.00  0.00     0.163 HD
BRANCH  11  14
ATOM     14  C   UNL A   1      32.982  26.327  24.550  1.00  0.00     0.063 A 
ATOM     15  C   UNL A   1      31.790  25.817  25.102  1.00  0.00     0.051 A 
ATOM     16  C   UNL A   1      31.274  26.444  26.267  1.00  0.00    -0.038 A 
ATOM     17  C   UNL A   1      31.938  27.485  26.914  1.00  0.00    -0.060 A 
ATOM     18  H   UNL A   1      30.373  26.117  26.649  1.00  0.00     0.064 H 
ATOM     19  C   UNL A   1      33.650  27.373  25.236  1.00  0.00    -0.047 A 
ATOM     20  C   UNL A   1      33.144  27.937  26.408  1.00  0.00    -0.061 A 
ATOM     21  H   UNL A   1      31.535  27.913  27.762  1.00  0.00     0.062 H 
ATOM     22  H   UNL A   1      34.541  27.730  24.855  1.00  0.00     0.063 H 
ATOM     23  H   UNL A   1      33.664  28.686  26.893  1.00  0.00     0.062 H 
BRANCH  15  24
ATOM     24  N   UNL A   1      31.091  24.653  24.720  1.00  0.00    -0.355 N 
ATOM     25  H   UNL A   1      30.128  24.812  24.590  1.00  0.00     0.167 HD
BRANCH  24  26
ATOM     26  C   UNL A   1      31.463  23.315  24.479  1.00  0.00     0.042 A 
ATOM     27  C   UNL A   1      32.511  21.183  25.029  1.00  0.00    -0.046 A 
ATOM     28  C   UNL A   1      32.529  20.839  23.670  1.00  0.00    -0.059 A 
ATOM     29  C   UNL A   1      31.912  22.399  25.451  1.00  0.00    -0.025 A 
ATOM     30  C   UNL A   1      31.975  21.687  22.723  1.00  0.00    -0.060 A 
ATOM     31  H   UNL A   1      32.958  19.949  23.372  1.00  0.00     0.063 H 
ATOM     32  C   UNL A   1      31.459  22.914  23.126  1.00  0.00    -0.038 A 
ATOM     33  H   UNL A   1      31.946  21.410  21.729  1.00  0.00     0.062 H 
ATOM     34  H   UNL A   1      31.062  23.548  22.415  1.00  0.00     0.064 H 
BRANCH  27  35
ATOM     35  C   UNL A   1      33.118  20.223  26.019  1.00  0.00    -0.039 C 
ATOM     36  H   UNL A   1      33.065  19.229  25.629  1.00  0.00     0.028 H 
ATOM     37  H   UNL A   1      32.579  20.275  26.941  1.00  0.00     0.028 H 
ATOM     38  H   UNL A   1      34.141  20.486  26.189  1.00  0.00     0.028 H 
ENDBRANCH  27  35
BRANCH  29  39
ATOM     39  C   UNL A   1      31.718  22.637  26.927  1.00  0.00    -0.037 C 
ATOM     40  H   UNL A   1      32.422  23.366  27.267  1.00  0.00     0.028 H 
ATOM     41  H   UNL A   1      31.867  21.720  27.459  1.00  0.00     0.028 H 
ATOM     42  H   UNL A   1      30.723  22.993  27.102  1.00  0.00     0.028 H 
ENDBRANCH  29  39
ENDBRANCH  24  26
ENDBRANCH  15  24
ENDBRANCH  11  14
ENDBRANCH   7  10
ENDBRANCH   4   7
ENDBRANCH   1   4
BRANCH   1  43
ATOM     43  C   UNL A   1      36.482  20.467  25.005  1.00  0.00    -0.052 C 
ATOM     44  H   UNL A   1      35.810  20.103  24.256  1.00  0.00     0.027 H 
ATOM     45  H   UNL A   1      36.121  20.392  26.010  1.00  0.00     0.027 H 
BRANCH  43  46
ATOM     46  C   UNL A   1      37.735  19.591  24.966  1.00  0.00    -0.036 C 
ATOM     47  H   UNL A   1      37.981  19.422  23.939  1.00  0.00     0.028 H 
ATOM     48  H   UNL A   1      37.480  18.707  25.513  1.00  0.00     0.028 H 
BRANCH  46  49
ATOM     49  C   UNL A   1      38.973  20.149  25.654  1.00  0.00     0.018 C 
ATOM     50  H   UNL A   1      38.691  20.515  26.619  1.00  0.00     0.049 H 
ATOM     51  H   UNL A   1      39.363  20.925  25.029  1.00  0.00     0.049 H 
BRANCH  49  52
ATOM     52  N   UNL A   1      40.025  19.163  25.825  1.00  0.00    -0.352 N 
ATOM     53  C   UNL A   1      41.359  19.327  26.112  1.00  0.00     0.251 C 
ATOM     54  H   UNL A   1      39.737  18.227  25.718  1.00  0.00     0.163 HD
ATOM     55  O   UNL A   1      42.111  18.358  26.084  1.00  0.00    -0.269 OA
BRANCH  53  56
ATOM     56  C   UNL A   1      41.913  20.665  26.433  1.00  0.00     0.039 A 
ATOM     57  C   UNL A   1      42.142  21.565  25.386  1.00  0.00    -0.049 A 
ATOM     58  C   UNL A   1      42.247  21.028  27.739  1.00  0.00    -0.049 A 
ATOM     59  C   UNL A   1      42.646  22.842  25.654  1.00  0.00    -0.053 A 
ATOM     60  H   UNL A   1      41.939  21.286  24.413  1.00  0.00     0.063 H 
ATOM     61  C   UNL A   1      42.677  22.325  28.016  1.00  0.00    -0.053 A 
ATOM     62  H   UNL A   1      42.177  20.335  28.501  1.00  0.00     0.063 H 
ATOM     63  C   UNL A   1      42.889  23.245  26.975  1.00  0.00    -0.014 A 
ATOM     64  H   UNL A   1      42.840  23.492  24.876  1.00  0.00     0.063 H 
ATOM     65  H   UNL A   1      42.839  22.613  28.993  1.00  0.00     0.063 H 
BRANCH  63  66
ATOM     66  C   UNL A   1      43.388  24.606  27.299  1.00  0.00     0.031 A 
ATOM     67  C   UNL A   1      42.445  25.639  27.852  1.00  0.00     0.074 A 
ATOM     68  C   UNL A   1      44.661  24.943  27.016  1.00  0.00     0.049 A 
ATOM     69  N   UNL A   1      42.644  26.916  28.069  1.00  0.00    -0.248 NA
ATOM     70  C   UNL A   1      41.084  25.183  28.171  1.00  0.00    -0.034 C 
ATOM     71  C   UNL A   1      45.666  24.046  26.443  1.00  0.00    -0.036 A 
ATOM     72  N   UNL A   1      45.323  26.139  27.154  1.00  0.00    -0.354 N 
ATOM     73  C   UNL A   1      41.428  27.416  28.516  1.00  0.00     0.074 A 
ATOM     74  C   UNL A   1      40.486  26.318  28.500  1.00  0.00    -0.034 C 
ATOM     75  H   UNL A   1      40.696  24.227  28.146  1.00  0.00     0.065 H 
ATOM     76  C   UNL A   1      46.816  24.721  26.283  1.00  0.00    -0.036 A 
ATOM     77  H   UNL A   1      45.514  23.056  26.200  1.00  0.00     0.065 H 
ATOM     78  C   UNL A   1      46.621  26.105  26.705  1.00  0.00     0.049 A 
ATOM     79  H   UNL A   1      44.906  26.945  27.536  1.00  0.00     0.167 HD
ATOM     80  C   UNL A   1      41.128  28.674  28.920  1.00  0.00     0.037 A 
ATOM     81  H   UNL A   1      39.481  26.408  28.716  1.00  0.00     0.065 H 
ATOM     82  H   UNL A   1      47.697  24.324  25.920  1.00  0.00     0.065 H 
ATOM     83  C   UNL A   1      47.545  27.083  26.627  1.00  0.00     0.037 A 
ATOM     84  C   UNL A   1      42.079  29.752  28.980  1.00  0.00     0.049 A 
ATOM     85  C   UNL A   1      47.195  28.468  27.099  1.00  0.00     0.074 A 
ATOM     86  C   UNL A   1      41.895  31.041  29.452  1.00  0.00    -0.036 A 
ATOM     87  N   UNL A   1      43.396  29.667  28.554  1.00  0.00    -0.354 N 
ATOM     88  N   UNL A   1      46.059  28.916  27.576  1.00  0.00    -0.248 NA
ATOM     89  C   UNL A   1      48.255  29.484  27.024  1.00  0.00    -0.034 C 
ATOM     90  C   UNL A   1      43.090  31.747  29.273  1.00  0.00    -0.036 A 
ATOM     91  H   UNL A   1      41.027  31.414  29.866  1.00  0.00     0.065 H 
ATOM     92  C   UNL A   1      44.031  30.886  28.733  1.00  0.00     0.049 A 
ATOM     93  H   UNL A   1      43.818  28.859  28.181  1.00  0.00     0.167 HD
ATOM     94  C   UNL A   1      46.274  30.252  27.883  1.00  0.00     0.074 A 
ATOM     95  C   UNL A   1      47.651  30.542  27.545  1.00  0.00    -0.034 C 
ATOM     96  H   UNL A   1      49.217  29.394  26.660  1.00  0.00     0.065 H 
ATOM     97  H   UNL A   1      43.242  32.740  29.505  1.00  0.00     0.065 H 
ATOM     98  C   UNL A   1      45.406  31.156  28.400  1.00  0.00     0.037 A 
ATOM     99  H   UNL A   1      48.106  31.459  27.690  1.00  0.00     0.065 H 
BRANCH  80 100
ATOM    100  C   UNL A   1      39.711  28.955  29.326  1.00  0.00     0.064 A 
ATOM    101  C   UNL A   1      38.761  29.437  28.412  1.00  0.00     0.173 A 
ATOM    102  C   UNL A   1      39.289  28.714  30.643  1.00  0.00     0.173 A 
ATOM    103  F   UNL A   1      39.115  29.693  27.145  1.00  0.00    -0.203 F 
ATOM    104  C   UNL A   1      37.452  29.700  28.810  1.00  0.00     0.198 A 
ATOM    105  C   UNL A   1      37.972  28.948  31.030  1.00  0.00     0.198 A 
ATOM    106  F   UNL A   1      40.154  28.246  31.556  1.00  0.00    -0.203 F 
ATOM    107  F   UNL A   1      36.578  30.213  27.932  1.00  0.00    -0.200 F 
ATOM    108  C   UNL A   1      37.057  29.451  30.115  1.00  0.00     0.200 A 
ATOM    109  F   UNL A   1      37.589  28.694  32.288  1.00  0.00    -0.200 F 
ATOM    110  F   UNL A   1      35.798  29.702  30.496  1.00  0.00    -0.200 F 
ENDBRANCH  80 100
BRANCH  83 111
ATOM    111  C   UNL A   1      48.897  26.775  26.095  1.00  0.00     0.064 A 
ATOM    112  C   UNL A   1      49.881  26.207  26.917  1.00  0.00     0.173 A 
ATOM    113  C   UNL A   1      49.229  27.024  24.756  1.00  0.00     0.173 A 
ATOM    114  F   UNL A   1      49.616  25.971  28.210  1.00  0.00    -0.203 F 
ATOM    115  C   UNL A   1      51.148  25.911  26.421  1.00  0.00     0.198 A 
ATOM    116  C   UNL A   1      50.489  26.704  24.255  1.00  0.00     0.198 A 
ATOM    117  F   UNL A   1      48.321  27.563  23.927  1.00  0.00    -0.203 F 
ATOM    118  F   UNL A   1      52.082  25.401  27.237  1.00  0.00    -0.200 F 
ATOM    119  C   UNL A   1      51.450  26.153  25.089  1.00  0.00     0.200 A 
ATOM    120  F   UNL A   1      50.771  26.926  22.964  1.00  0.00    -0.200 F 
ATOM    121  F   UNL A   1      52.667  25.859  24.612  1.00  0.00    -0.200 F 
ENDBRANCH  83 111
BRANCH  98 122
ATOM    122  C   UNL A   1      45.924  32.539  28.669  1.00  0.00     0.064 A 
ATOM    123  C   UNL A   1      46.576  32.858  29.867  1.00  0.00     0.173 A 
ATOM    124  C   UNL A   1      45.823  33.535  27.686  1.00  0.00     0.173 A 
ATOM    125  F   UNL A   1      46.685  31.943  30.842  1.00  0.00    -0.203 F 
ATOM    126  C   UNL A   1      47.100  34.130  30.077  1.00  0.00     0.198 A 
ATOM    127  C   UNL A   1      46.369  34.798  27.890  1.00  0.00     0.198 A 
ATOM    128  F   UNL A   1      45.211  33.276  26.521  1.00  0.00    -0.203 F 
ATOM    129  F   UNL A   1      47.693  34.426  31.242  1.00  0.00    -0.200 F 
ATOM    130  C   UNL A   1      47.005  35.097  29.086  1.00  0.00     0.200 A 
ATOM    131  F   UNL A   1      46.288  35.725  26.926  1.00  0.00    -0.200 F 
ATOM    132  F   UNL A   1      47.523  36.316  29.284  1.00  0.00    -0.200 F 
ENDBRANCH  98 122
ENDBRANCH  63  66
ENDBRANCH  53  56
ENDBRANCH  49  52
ENDBRANCH  46  49
ENDBRANCH  43  46
ENDBRANCH   1  43
TORSDOF 17
ENDMDL
MODEL 8
REMARK VINA RESULT:     -11.7      3.714      8.610
REMARK SMILES Cc1cccc(Nc2ccccc2C(=O)NCCCCCCNC(=O)c2ccc(-c3c4nc(c(-c5c(F)c(F)c(F)c(F)c5F)c5ccc([nH]5)c(-c5c(F)c(F)c(F)c(F)c5F)c5nc(c(-c6c(F)c(F)c(F)c(F)c6F)c6ccc3[nH]6)C=C5)C=C4)cc2)c1C
REMARK SMILES IDX 19 1 18 4 17 7 16 10 14 11 15 12 13 14 8 15 9 16 10 17 12 19
REMARK SMILES IDX 11 20 7 24 6 26 2 27 3 28 89 29 4 30 5 32 1 35 90 39 20 43
REMARK SMILES IDX 21 46 22 49 23 52 24 53 25 55 26 56 27 57 88 58 28 59 87 61
REMARK SMILES IDX 29 63 30 66 31 67 81 68 32 69 86 70 80 71 82 72 33 73 85 74
REMARK SMILES IDX 79 76 78 78 34 80 66 83 46 84 65 85 47 86 50 87 64 88 83 89
REMARK SMILES IDX 48 90 49 92 63 94 84 95 51 98 35 100 36 101 44 102 37 103
REMARK SMILES IDX 38 104 42 105 45 106 39 107 40 108 43 109 41 110 67 111
REMARK SMILES IDX 68 112 76 113 69 114 70 115 74 116 77 117 71 118 72 119
REMARK SMILES IDX 75 120 73 121 52 122 53 123 61 124 54 125 55 126 59 127
REMARK SMILES IDX 62 128 56 129 57 130 60 131 58 132
REMARK H PARENT 19 2 19 3 18 5 18 6 17 8 17 9 16 13 9 18 10 21 12 22 11 23
REMARK H PARENT 7 25 3 31 4 33 5 34 1 36 1 37 1 38 90 40 90 41 90 42 20 44
REMARK H PARENT 20 45 21 47 21 48 22 50 22 51 23 54 27 60 88 62 28 64 87 65
REMARK H PARENT 86 75 80 77 82 79 85 81 79 82 47 91 50 93 83 96 48 97 84 99
REMARK Flexibility Score: inf
ROOT
ATOM      1  C   UNL A   1      33.839  25.908  25.764  1.00  0.00    -0.052 C 
ATOM      2  H   UNL A   1      33.850  26.009  24.698  1.00  0.00     0.027 H 
ATOM      3  H   UNL A   1      34.624  26.418  26.282  1.00  0.00     0.027 H 
ENDROOT
BRANCH   1   4
ATOM      4  C   UNL A   1      34.060  24.423  26.086  1.00  0.00    -0.036 C 
ATOM      5  H   UNL A   1      33.618  24.227  27.040  1.00  0.00     0.028 H 
ATOM      6  H   UNL A   1      33.615  23.888  25.271  1.00  0.00     0.028 H 
BRANCH   4   7
ATOM      7  C   UNL A   1      35.507  23.942  26.138  1.00  0.00     0.018 C 
ATOM      8  H   UNL A   1      36.086  24.679  26.655  1.00  0.00     0.049 H 
ATOM      9  H   UNL A   1      35.495  22.995  26.636  1.00  0.00     0.049 H 
BRANCH   7  10
ATOM     10  N   UNL A   1      36.111  23.718  24.848  1.00  0.00    -0.352 N 
ATOM     11  C   UNL A   1      35.637  23.030  23.757  1.00  0.00     0.253 C 
ATOM     12  O   UNL A   1      36.317  23.084  22.728  1.00  0.00    -0.269 OA
ATOM     13  H   UNL A   1      37.001  24.120  24.731  1.00  0.00     0.163 HD
BRANCH  11  14
ATOM     14  C   UNL A   1      34.440  22.131  23.772  1.00  0.00     0.063 A 
ATOM     15  C   UNL A   1      33.160  22.357  23.228  1.00  0.00     0.051 A 
ATOM     16  C   UNL A   1      32.168  21.360  23.423  1.00  0.00    -0.038 A 
ATOM     17  C   UNL A   1      32.437  20.151  24.063  1.00  0.00    -0.060 A 
ATOM     18  H   UNL A   1      31.212  21.537  23.079  1.00  0.00     0.064 H 
ATOM     19  C   UNL A   1      34.697  20.886  24.401  1.00  0.00    -0.047 A 
ATOM     20  C   UNL A   1      33.715  19.904  24.535  1.00  0.00    -0.061 A 
ATOM     21  H   UNL A   1      31.693  19.447  24.182  1.00  0.00     0.062 H 
ATOM     22  H   UNL A   1      35.642  20.701  24.773  1.00  0.00     0.063 H 
ATOM     23  H   UNL A   1      33.939  19.001  24.983  1.00  0.00     0.062 H 
BRANCH  15  24
ATOM     24  N   UNL A   1      32.756  23.409  22.380  1.00  0.00    -0.355 N 
ATOM     25  H   UNL A   1      32.596  23.113  21.454  1.00  0.00     0.167 HD
BRANCH  24  26
ATOM     26  C   UNL A   1      32.529  24.788  22.560  1.00  0.00     0.042 A 
ATOM     27  C   UNL A   1      31.148  26.774  22.873  1.00  0.00    -0.046 A 
ATOM     28  C   UNL A   1      32.209  27.582  22.438  1.00  0.00    -0.059 A 
ATOM     29  C   UNL A   1      31.326  25.371  23.003  1.00  0.00    -0.025 A 
ATOM     30  C   UNL A   1      33.435  27.020  22.118  1.00  0.00    -0.060 A 
ATOM     31  H   UNL A   1      32.076  28.602  22.355  1.00  0.00     0.063 H 
ATOM     32  C   UNL A   1      33.585  25.638  22.169  1.00  0.00    -0.038 A 
ATOM     33  H   UNL A   1      34.228  27.620  21.844  1.00  0.00     0.062 H 
ATOM     34  H   UNL A   1      34.495  25.223  21.914  1.00  0.00     0.064 H 
BRANCH  27  35
ATOM     35  C   UNL A   1      29.839  27.435  23.217  1.00  0.00    -0.039 C 
ATOM     36  H   UNL A   1      29.437  26.991  24.103  1.00  0.00     0.028 H 
ATOM     37  H   UNL A   1      29.152  27.306  22.408  1.00  0.00     0.028 H 
ATOM     38  H   UNL A   1      30.001  28.480  23.384  1.00  0.00     0.028 H 
ENDBRANCH  27  35
BRANCH  29  39
ATOM     39  C   UNL A   1      30.243  24.565  23.674  1.00  0.00    -0.037 C 
ATOM     40  H   UNL A   1      29.680  24.035  22.934  1.00  0.00     0.028 H 
ATOM     41  H   UNL A   1      29.592  25.220  24.215  1.00  0.00     0.028 H 
ATOM     42  H   UNL A   1      30.688  23.865  24.352  1.00  0.00     0.028 H 
ENDBRANCH  29  39
ENDBRANCH  24  26
ENDBRANCH  15  24
ENDBRANCH  11  14
ENDBRANCH   7  10
ENDBRANCH   4   7
ENDBRANCH   1   4
BRANCH   1  43
ATOM     43  C   UNL A   1      32.549  26.565  26.272  1.00  0.00    -0.052 C 
ATOM     44  H   UNL A   1      32.275  26.075  27.183  1.00  0.00     0.027 H 
ATOM     45  H   UNL A   1      31.847  26.455  25.471  1.00  0.00     0.027 H 
BRANCH  43  46
ATOM     46  C   UNL A   1      32.600  28.068  26.553  1.00  0.00    -0.036 C 
ATOM     47  H   UNL A   1      31.836  28.291  27.267  1.00  0.00     0.028 H 
ATOM     48  H   UNL A   1      32.470  28.539  25.601  1.00  0.00     0.028 H 
BRANCH  46  49
ATOM     49  C   UNL A   1      33.915  28.611  27.096  1.00  0.00     0.018 C 
ATOM     50  H   UNL A   1      34.647  28.573  26.317  1.00  0.00     0.049 H 
ATOM     51  H   UNL A   1      34.189  28.005  27.933  1.00  0.00     0.049 H 
BRANCH  49  52
ATOM     52  N   UNL A   1      33.815  29.980  27.569  1.00  0.00    -0.352 N 
ATOM     53  C   UNL A   1      34.704  30.737  28.293  1.00  0.00     0.251 C 
ATOM     54  H   UNL A   1      32.977  30.440  27.332  1.00  0.00     0.163 HD
ATOM     55  O   UNL A   1      34.367  31.842  28.707  1.00  0.00    -0.269 OA
BRANCH  53  56
ATOM     56  C   UNL A   1      36.062  30.229  28.608  1.00  0.00     0.039 A 
ATOM     57  C   UNL A   1      37.064  30.347  27.638  1.00  0.00    -0.049 A 
ATOM     58  C   UNL A   1      36.349  29.604  29.823  1.00  0.00    -0.049 A 
ATOM     59  C   UNL A   1      38.361  29.896  27.908  1.00  0.00    -0.053 A 
ATOM     60  H   UNL A   1      36.846  30.768  26.721  1.00  0.00     0.063 H 
ATOM     61  C   UNL A   1      37.657  29.224  30.121  1.00  0.00    -0.053 A 
ATOM     62  H   UNL A   1      35.592  29.422  30.501  1.00  0.00     0.063 H 
ATOM     63  C   UNL A   1      38.676  29.359  29.164  1.00  0.00    -0.014 A 
ATOM     64  H   UNL A   1      39.089  29.959  27.179  1.00  0.00     0.063 H 
ATOM     65  H   UNL A   1      37.879  28.842  31.054  1.00  0.00     0.063 H 
BRANCH  63  66
ATOM     66  C   UNL A   1      40.051  28.904  29.497  1.00  0.00     0.031 A 
ATOM     67  C   UNL A   1      40.968  29.802  30.283  1.00  0.00     0.074 A 
ATOM     68  C   UNL A   1      40.508  27.730  29.022  1.00  0.00     0.049 A 
ATOM     69  N   UNL A   1      42.240  29.657  30.558  1.00  0.00    -0.248 NA
ATOM     70  C   UNL A   1      40.383  31.049  30.800  1.00  0.00    -0.034 C 
ATOM     71  C   UNL A   1      39.733  26.785  28.216  1.00  0.00    -0.036 A 
ATOM     72  N   UNL A   1      41.743  27.139  29.132  1.00  0.00    -0.354 N 
ATOM     73  C   UNL A   1      42.611  30.804  31.247  1.00  0.00     0.074 A 
ATOM     74  C   UNL A   1      41.442  31.655  31.313  1.00  0.00    -0.034 C 
ATOM     75  H   UNL A   1      39.401  31.368  30.770  1.00  0.00     0.065 H 
ATOM     76  C   UNL A   1      40.508  25.732  27.909  1.00  0.00    -0.036 A 
ATOM     77  H   UNL A   1      38.751  26.909  27.930  1.00  0.00     0.065 H 
ATOM     78  C   UNL A   1      41.843  25.943  28.462  1.00  0.00     0.049 A 
ATOM     79  H   UNL A   1      42.487  27.535  29.642  1.00  0.00     0.167 HD
ATOM     80  C   UNL A   1      43.812  31.113  31.790  1.00  0.00     0.037 A 
ATOM     81  H   UNL A   1      41.436  32.608  31.707  1.00  0.00     0.065 H 
ATOM     82  H   UNL A   1      40.207  24.905  27.369  1.00  0.00     0.065 H 
ATOM     83  C   UNL A   1      42.896  25.119  28.298  1.00  0.00     0.037 A 
ATOM     84  C   UNL A   1      44.959  30.244  31.765  1.00  0.00     0.049 A 
ATOM     85  C   UNL A   1      44.216  25.473  28.927  1.00  0.00     0.074 A 
ATOM     86  C   UNL A   1      46.196  30.428  32.358  1.00  0.00    -0.036 A 
ATOM     87  N   UNL A   1      45.008  29.022  31.111  1.00  0.00    -0.354 N 
ATOM     88  N   UNL A   1      44.539  26.533  29.627  1.00  0.00    -0.248 NA
ATOM     89  C   UNL A   1      45.317  24.517  28.745  1.00  0.00    -0.034 C 
ATOM     90  C   UNL A   1      47.007  29.337  32.027  1.00  0.00    -0.036 A 
ATOM     91  H   UNL A   1      46.472  31.232  32.944  1.00  0.00     0.065 H 
ATOM     92  C   UNL A   1      46.261  28.451  31.267  1.00  0.00     0.049 A 
ATOM     93  H   UNL A   1      44.262  28.619  30.609  1.00  0.00     0.167 HD
ATOM     94  C   UNL A   1      45.867  26.359  29.993  1.00  0.00     0.074 A 
ATOM     95  C   UNL A   1      46.289  25.089  29.442  1.00  0.00    -0.034 C 
ATOM     96  H   UNL A   1      45.330  23.632  28.213  1.00  0.00     0.065 H 
ATOM     97  H   UNL A   1      47.994  29.215  32.303  1.00  0.00     0.065 H 
ATOM     98  C   UNL A   1      46.663  27.180  30.721  1.00  0.00     0.037 A 
ATOM     99  H   UNL A   1      47.229  24.680  29.575  1.00  0.00     0.065 H 
BRANCH  80 100
ATOM    100  C   UNL A   1      43.951  32.450  32.458  1.00  0.00     0.064 A 
ATOM    101  C   UNL A   1      44.377  33.587  31.755  1.00  0.00     0.173 A 
ATOM    102  C   UNL A   1      43.628  32.602  33.815  1.00  0.00     0.173 A 
ATOM    103  F   UNL A   1      44.707  33.493  30.459  1.00  0.00    -0.203 F 
ATOM    104  C   UNL A   1      44.508  34.818  32.394  1.00  0.00     0.198 A 
ATOM    105  C   UNL A   1      43.730  33.841  34.444  1.00  0.00     0.198 A 
ATOM    106  F   UNL A   1      43.209  31.549  34.534  1.00  0.00    -0.203 F 
ATOM    107  F   UNL A   1      44.969  35.877  31.714  1.00  0.00    -0.200 F 
ATOM    108  C   UNL A   1      44.180  34.945  33.735  1.00  0.00     0.200 A 
ATOM    109  F   UNL A   1      43.400  33.965  35.736  1.00  0.00    -0.200 F 
ATOM    110  F   UNL A   1      44.303  36.130  34.347  1.00  0.00    -0.200 F 
ENDBRANCH  80 100
BRANCH  83 111
ATOM    111  C   UNL A   1      42.733  23.866  27.516  1.00  0.00     0.064 A 
ATOM    112  C   UNL A   1      43.055  23.824  26.152  1.00  0.00     0.173 A 
ATOM    113  C   UNL A   1      42.269  22.687  28.115  1.00  0.00     0.173 A 
ATOM    114  F   UNL A   1      43.482  24.932  25.531  1.00  0.00    -0.203 F 
ATOM    115  C   UNL A   1      42.910  22.650  25.416  1.00  0.00     0.198 A 
ATOM    116  C   UNL A   1      42.149  21.507  27.384  1.00  0.00     0.198 A 
ATOM    117  F   UNL A   1      41.951  22.675  29.419  1.00  0.00    -0.203 F 
ATOM    118  F   UNL A   1      43.193  22.645  24.106  1.00  0.00    -0.200 F 
ATOM    119  C   UNL A   1      42.464  21.490  26.033  1.00  0.00     0.200 A 
ATOM    120  F   UNL A   1      41.731  20.386  27.987  1.00  0.00    -0.200 F 
ATOM    121  F   UNL A   1      42.334  20.360  25.326  1.00  0.00    -0.200 F 
ENDBRANCH  83 111
BRANCH  98 122
ATOM    122  C   UNL A   1      48.064  26.720  30.998  1.00  0.00     0.064 A 
ATOM    123  C   UNL A   1      48.355  25.859  32.065  1.00  0.00     0.173 A 
ATOM    124  C   UNL A   1      49.114  27.094  30.145  1.00  0.00     0.173 A 
ATOM    125  F   UNL A   1      47.388  25.486  32.915  1.00  0.00    -0.203 F 
ATOM    126  C   UNL A   1      49.652  25.397  32.274  1.00  0.00     0.198 A 
ATOM    127  C   UNL A   1      50.403  26.609  30.343  1.00  0.00     0.198 A 
ATOM    128  F   UNL A   1      48.883  27.911  29.108  1.00  0.00    -0.203 F 
ATOM    129  F   UNL A   1      49.917  24.600  33.319  1.00  0.00    -0.200 F 
ATOM    130  C   UNL A   1      50.672  25.765  31.409  1.00  0.00     0.200 A 
ATOM    131  F   UNL A   1      51.384  26.955  29.498  1.00  0.00    -0.200 F 
ATOM    132  F   UNL A   1      51.916  25.306  31.604  1.00  0.00    -0.200 F 
ENDBRANCH  98 122
ENDBRANCH  63  66
ENDBRANCH  53  56
ENDBRANCH  49  52
ENDBRANCH  46  49
ENDBRANCH  43  46
ENDBRANCH   1  43
TORSDOF 17
ENDMDL
MODEL 9
REMARK VINA RESULT:     -11.5      3.780      7.983
REMARK SMILES Cc1cccc(Nc2ccccc2C(=O)NCCCCCCNC(=O)c2ccc(-c3c4nc(c(-c5c(F)c(F)c(F)c(F)c5F)c5ccc([nH]5)c(-c5c(F)c(F)c(F)c(F)c5F)c5nc(c(-c6c(F)c(F)c(F)c(F)c6F)c6ccc3[nH]6)C=C5)C=C4)cc2)c1C
REMARK SMILES IDX 19 1 18 4 17 7 16 10 14 11 15 12 13 14 8 15 9 16 10 17 12 19
REMARK SMILES IDX 11 20 7 24 6 26 2 27 3 28 89 29 4 30 5 32 1 35 90 39 20 43
REMARK SMILES IDX 21 46 22 49 23 52 24 53 25 55 26 56 27 57 88 58 28 59 87 61
REMARK SMILES IDX 29 63 30 66 31 67 81 68 32 69 86 70 80 71 82 72 33 73 85 74
REMARK SMILES IDX 79 76 78 78 34 80 66 83 46 84 65 85 47 86 50 87 64 88 83 89
REMARK SMILES IDX 48 90 49 92 63 94 84 95 51 98 35 100 36 101 44 102 37 103
REMARK SMILES IDX 38 104 42 105 45 106 39 107 40 108 43 109 41 110 67 111
REMARK SMILES IDX 68 112 76 113 69 114 70 115 74 116 77 117 71 118 72 119
REMARK SMILES IDX 75 120 73 121 52 122 53 123 61 124 54 125 55 126 59 127
REMARK SMILES IDX 62 128 56 129 57 130 60 131 58 132
REMARK H PARENT 19 2 19 3 18 5 18 6 17 8 17 9 16 13 9 18 10 21 12 22 11 23
REMARK H PARENT 7 25 3 31 4 33 5 34 1 36 1 37 1 38 90 40 90 41 90 42 20 44
REMARK H PARENT 20 45 21 47 21 48 22 50 22 51 23 54 27 60 88 62 28 64 87 65
REMARK H PARENT 86 75 80 77 82 79 85 81 79 82 47 91 50 93 83 96 48 97 84 99
REMARK Flexibility Score: inf
ROOT
ATOM      1  C   UNL A   1      34.467  25.187  24.716  1.00  0.00    -0.052 C 
ATOM      2  H   UNL A   1      33.707  24.820  25.375  1.00  0.00     0.027 H 
ATOM      3  H   UNL A   1      35.289  25.681  25.191  1.00  0.00     0.027 H 
ENDROOT
BRANCH   1   4
ATOM      4  C   UNL A   1      33.824  26.265  23.831  1.00  0.00    -0.036 C 
ATOM      5  H   UNL A   1      34.280  26.209  22.865  1.00  0.00     0.028 H 
ATOM      6  H   UNL A   1      32.775  26.051  23.842  1.00  0.00     0.028 H 
BRANCH   4   7
ATOM      7  C   UNL A   1      33.944  27.708  24.316  1.00  0.00     0.018 C 
ATOM      8  H   UNL A   1      34.983  27.945  24.408  1.00  0.00     0.049 H 
ATOM      9  H   UNL A   1      33.438  28.314  23.592  1.00  0.00     0.049 H 
BRANCH   7  10
ATOM     10  N   UNL A   1      33.308  27.968  25.583  1.00  0.00    -0.352 N 
ATOM     11  C   UNL A   1      31.979  27.927  25.931  1.00  0.00     0.253 C 
ATOM     12  O   UNL A   1      31.713  28.090  27.126  1.00  0.00    -0.269 OA
ATOM     13  H   UNL A   1      33.920  28.216  26.311  1.00  0.00     0.163 HD
BRANCH  11  14
ATOM     14  C   UNL A   1      30.846  27.826  24.958  1.00  0.00     0.063 A 
ATOM     15  C   UNL A   1      30.044  26.709  24.649  1.00  0.00     0.051 A 
ATOM     16  C   UNL A   1      29.058  26.857  23.639  1.00  0.00    -0.038 A 
ATOM     17  C   UNL A   1      28.813  28.073  23.003  1.00  0.00    -0.060 A 
ATOM     18  H   UNL A   1      28.501  26.033  23.364  1.00  0.00     0.064 H 
ATOM     19  C   UNL A   1      30.567  29.057  24.312  1.00  0.00    -0.047 A 
ATOM     20  C   UNL A   1      29.557  29.185  23.358  1.00  0.00    -0.061 A 
ATOM     21  H   UNL A   1      28.084  28.144  22.277  1.00  0.00     0.062 H 
ATOM     22  H   UNL A   1      31.130  29.887  24.557  1.00  0.00     0.063 H 
ATOM     23  H   UNL A   1      29.367  30.100  22.919  1.00  0.00     0.062 H 
BRANCH  15  24
ATOM     24  N   UNL A   1      29.998  25.469  25.319  1.00  0.00    -0.355 N 
ATOM     25  H   UNL A   1      29.131  25.303  25.756  1.00  0.00     0.167 HD
BRANCH  24  26
ATOM     26  C   UNL A   1      30.913  24.412  25.500  1.00  0.00     0.042 A 
ATOM     27  C   UNL A   1      31.955  22.277  24.949  1.00  0.00    -0.046 A 
ATOM     28  C   UNL A   1      32.454  22.181  26.256  1.00  0.00    -0.059 A 
ATOM     29  C   UNL A   1      31.236  23.432  24.542  1.00  0.00    -0.025 A 
ATOM     30  C   UNL A   1      32.241  23.206  27.166  1.00  0.00    -0.060 A 
ATOM     31  H   UNL A   1      32.984  21.344  26.543  1.00  0.00     0.063 H 
ATOM     32  C   UNL A   1      31.470  24.301  26.792  1.00  0.00    -0.038 A 
ATOM     33  H   UNL A   1      32.650  23.155  28.112  1.00  0.00     0.062 H 
ATOM     34  H   UNL A   1      31.300  25.052  27.479  1.00  0.00     0.064 H 
BRANCH  27  35
ATOM     35  C   UNL A   1      32.222  21.141  23.996  1.00  0.00    -0.039 C 
ATOM     36  H   UNL A   1      31.336  20.928  23.438  1.00  0.00     0.028 H 
ATOM     37  H   UNL A   1      32.513  20.274  24.550  1.00  0.00     0.028 H 
ATOM     38  H   UNL A   1      33.010  21.417  23.326  1.00  0.00     0.028 H 
ENDBRANCH  27  35
BRANCH  29  39
ATOM     39  C   UNL A   1      30.902  23.597  23.081  1.00  0.00    -0.037 C 
ATOM     40  H   UNL A   1      31.489  24.390  22.667  1.00  0.00     0.028 H 
ATOM     41  H   UNL A   1      29.862  23.830  22.976  1.00  0.00     0.028 H 
ATOM     42  H   UNL A   1      31.117  22.686  22.561  1.00  0.00     0.028 H 
ENDBRANCH  29  39
ENDBRANCH  24  26
ENDBRANCH  15  24
ENDBRANCH  11  14
ENDBRANCH   7  10
ENDBRANCH   4   7
ENDBRANCH   1   4
BRANCH   1  43
ATOM     43  C   UNL A   1      35.094  23.973  24.020  1.00  0.00    -0.052 C 
ATOM     44  H   UNL A   1      35.870  24.334  23.377  1.00  0.00     0.027 H 
ATOM     45  H   UNL A   1      34.281  23.489  23.519  1.00  0.00     0.027 H 
BRANCH  43  46
ATOM     46  C   UNL A   1      35.704  22.896  24.919  1.00  0.00    -0.036 C 
ATOM     47  H   UNL A   1      36.180  22.177  24.287  1.00  0.00     0.028 H 
ATOM     48  H   UNL A   1      34.887  22.510  25.493  1.00  0.00     0.028 H 
BRANCH  46  49
ATOM     49  C   UNL A   1      36.729  23.368  25.941  1.00  0.00     0.018 C 
ATOM     50  H   UNL A   1      36.266  23.385  26.905  1.00  0.00     0.049 H 
ATOM     51  H   UNL A   1      37.059  24.338  25.637  1.00  0.00     0.049 H 
BRANCH  49  52
ATOM     52  N   UNL A   1      37.903  22.514  26.008  1.00  0.00    -0.352 N 
ATOM     53  C   UNL A   1      39.195  22.809  26.370  1.00  0.00     0.251 C 
ATOM     54  H   UNL A   1      37.747  21.576  25.754  1.00  0.00     0.163 HD
ATOM     55  O   UNL A   1      40.073  21.962  26.230  1.00  0.00    -0.269 OA
BRANCH  53  56
ATOM     56  C   UNL A   1      39.554  24.144  26.904  1.00  0.00     0.039 A 
ATOM     57  C   UNL A   1      39.266  24.431  28.244  1.00  0.00    -0.049 A 
ATOM     58  C   UNL A   1      40.130  25.128  26.098  1.00  0.00    -0.049 A 
ATOM     59  C   UNL A   1      39.608  25.675  28.786  1.00  0.00    -0.053 A 
ATOM     60  H   UNL A   1      38.800  23.723  28.833  1.00  0.00     0.063 H 
ATOM     61  C   UNL A   1      40.540  26.338  26.656  1.00  0.00    -0.053 A 
ATOM     62  H   UNL A   1      40.251  24.960  25.087  1.00  0.00     0.063 H 
ATOM     63  C   UNL A   1      40.277  26.628  28.005  1.00  0.00    -0.014 A 
ATOM     64  H   UNL A   1      39.369  25.891  29.767  1.00  0.00     0.063 H 
ATOM     65  H   UNL A   1      41.043  27.026  26.074  1.00  0.00     0.063 H 
BRANCH  63  66
ATOM     66  C   UNL A   1      40.689  27.944  28.559  1.00  0.00     0.031 A 
ATOM     67  C   UNL A   1      42.111  28.160  29.000  1.00  0.00     0.074 A 
ATOM     68  C   UNL A   1      39.773  28.912  28.750  1.00  0.00     0.049 A 
ATOM     69  N   UNL A   1      42.640  29.177  29.634  1.00  0.00    -0.248 NA
ATOM     70  C   UNL A   1      43.059  27.070  28.721  1.00  0.00    -0.034 C 
ATOM     71  C   UNL A   1      38.355  28.815  28.402  1.00  0.00    -0.036 A 
ATOM     72  N   UNL A   1      39.895  30.164  29.304  1.00  0.00    -0.354 N 
ATOM     73  C   UNL A   1      43.967  28.834  29.857  1.00  0.00     0.074 A 
ATOM     74  C   UNL A   1      44.154  27.500  29.329  1.00  0.00    -0.034 C 
ATOM     75  H   UNL A   1      42.909  26.198  28.190  1.00  0.00     0.065 H 
ATOM     76  C   UNL A   1      37.739  29.959  28.744  1.00  0.00    -0.036 A 
ATOM     77  H   UNL A   1      37.901  27.999  27.965  1.00  0.00     0.065 H 
ATOM     78  C   UNL A   1      38.708  30.854  29.371  1.00  0.00     0.049 A 
ATOM     79  H   UNL A   1      40.750  30.531  29.624  1.00  0.00     0.167 HD
ATOM     80  C   UNL A   1      44.946  29.572  30.433  1.00  0.00     0.037 A 
ATOM     81  H   UNL A   1      45.026  26.955  29.415  1.00  0.00     0.065 H 
ATOM     82  H   UNL A   1      36.741  30.171  28.589  1.00  0.00     0.065 H 
ATOM     83  C   UNL A   1      38.430  32.064  29.892  1.00  0.00     0.037 A 
ATOM     84  C   UNL A   1      44.768  30.916  30.914  1.00  0.00     0.049 A 
ATOM     85  C   UNL A   1      39.537  32.874  30.511  1.00  0.00     0.074 A 
ATOM     86  C   UNL A   1      45.716  31.778  31.438  1.00  0.00    -0.036 A 
ATOM     87  N   UNL A   1      43.560  31.597  30.926  1.00  0.00    -0.354 N 
ATOM     88  N   UNL A   1      40.801  32.564  30.663  1.00  0.00    -0.248 NA
ATOM     89  C   UNL A   1      39.180  34.202  31.030  1.00  0.00    -0.034 C 
ATOM     90  C   UNL A   1      45.073  32.964  31.807  1.00  0.00    -0.036 A 
ATOM     91  H   UNL A   1      46.724  31.580  31.538  1.00  0.00     0.065 H 
ATOM     92  C   UNL A   1      43.733  32.860  31.470  1.00  0.00     0.049 A 
ATOM     93  H   UNL A   1      42.705  31.236  30.597  1.00  0.00     0.167 HD
ATOM     94  C   UNL A   1      41.395  33.664  31.266  1.00  0.00     0.074 A 
ATOM     95  C   UNL A   1      40.354  34.653  31.447  1.00  0.00    -0.034 C 
ATOM     96  H   UNL A   1      38.256  34.662  31.061  1.00  0.00     0.065 H 
ATOM     97  H   UNL A   1      45.521  33.779  32.255  1.00  0.00     0.065 H 
ATOM     98  C   UNL A   1      42.688  33.837  31.634  1.00  0.00     0.037 A 
ATOM     99  H   UNL A   1      40.507  35.592  31.852  1.00  0.00     0.065 H 
BRANCH  80 100
ATOM    100  C   UNL A   1      46.299  28.939  30.581  1.00  0.00     0.064 A 
ATOM    101  C   UNL A   1      46.657  28.218  31.730  1.00  0.00     0.173 A 
ATOM    102  C   UNL A   1      47.242  29.032  29.546  1.00  0.00     0.173 A 
ATOM    103  F   UNL A   1      45.795  28.107  32.752  1.00  0.00    -0.203 F 
ATOM    104  C   UNL A   1      47.920  27.644  31.853  1.00  0.00     0.198 A 
ATOM    105  C   UNL A   1      48.494  28.431  29.659  1.00  0.00     0.198 A 
ATOM    106  F   UNL A   1      46.950  29.704  28.422  1.00  0.00    -0.203 F 
ATOM    107  F   UNL A   1      48.258  27.008  32.983  1.00  0.00    -0.200 F 
ATOM    108  C   UNL A   1      48.835  27.747  30.816  1.00  0.00     0.200 A 
ATOM    109  F   UNL A   1      49.372  28.520  28.651  1.00  0.00    -0.200 F 
ATOM    110  F   UNL A   1      50.049  27.193  30.934  1.00  0.00    -0.200 F 
ENDBRANCH  80 100
BRANCH  83 111
ATOM    111  C   UNL A   1      37.041  32.589  29.832  1.00  0.00     0.064 A 
ATOM    112  C   UNL A   1      36.585  33.285  28.705  1.00  0.00     0.173 A 
ATOM    113  C   UNL A   1      36.140  32.391  30.887  1.00  0.00     0.173 A 
ATOM    114  F   UNL A   1      37.416  33.517  27.679  1.00  0.00    -0.203 F 
ATOM    115  C   UNL A   1      35.281  33.773  28.641  1.00  0.00     0.198 A 
ATOM    116  C   UNL A   1      34.829  32.858  30.812  1.00  0.00     0.198 A 
ATOM    117  F   UNL A   1      36.528  31.726  31.987  1.00  0.00    -0.203 F 
ATOM    118  F   UNL A   1      34.880  34.467  27.566  1.00  0.00    -0.200 F 
ATOM    119  C   UNL A   1      34.402  33.553  29.690  1.00  0.00     0.200 A 
ATOM    120  F   UNL A   1      33.979  32.630  31.822  1.00  0.00    -0.200 F 
ATOM    121  F   UNL A   1      33.146  34.015  29.624  1.00  0.00    -0.200 F 
ENDBRANCH  83 111
BRANCH  98 122
ATOM    122  C   UNL A   1      43.066  35.157  32.240  1.00  0.00     0.064 A 
ATOM    123  C   UNL A   1      42.946  35.393  33.616  1.00  0.00     0.173 A 
ATOM    124  C   UNL A   1      43.615  36.171  31.441  1.00  0.00     0.173 A 
ATOM    125  F   UNL A   1      42.414  34.460  34.418  1.00  0.00    -0.203 F 
ATOM    126  C   UNL A   1      43.354  36.604  34.170  1.00  0.00     0.198 A 
ATOM    127  C   UNL A   1      44.044  37.370  32.002  1.00  0.00     0.198 A 
ATOM    128  F   UNL A   1      43.754  35.990  30.120  1.00  0.00    -0.203 F 
ATOM    129  F   UNL A   1      43.203  36.823  35.484  1.00  0.00    -0.200 F 
ATOM    130  C   UNL A   1      43.911  37.588  33.365  1.00  0.00     0.200 A 
ATOM    131  F   UNL A   1      44.594  38.313  31.224  1.00  0.00    -0.200 F 
ATOM    132  F   UNL A   1      44.316  38.746  33.902  1.00  0.00    -0.200 F 
ENDBRANCH  98 122
ENDBRANCH  63  66
ENDBRANCH  53  56
ENDBRANCH  49  52
ENDBRANCH  46  49
ENDBRANCH  43  46
ENDBRANCH   1  43
TORSDOF 17
ENDMDL
MODEL 10
REMARK VINA RESULT:     -11.5      1.487      7.924
REMARK SMILES Cc1cccc(Nc2ccccc2C(=O)NCCCCCCNC(=O)c2ccc(-c3c4nc(c(-c5c(F)c(F)c(F)c(F)c5F)c5ccc([nH]5)c(-c5c(F)c(F)c(F)c(F)c5F)c5nc(c(-c6c(F)c(F)c(F)c(F)c6F)c6ccc3[nH]6)C=C5)C=C4)cc2)c1C
REMARK SMILES IDX 19 1 18 4 17 7 16 10 14 11 15 12 13 14 8 15 9 16 10 17 12 19
REMARK SMILES IDX 11 20 7 24 6 26 2 27 3 28 89 29 4 30 5 32 1 35 90 39 20 43
REMARK SMILES IDX 21 46 22 49 23 52 24 53 25 55 26 56 27 57 88 58 28 59 87 61
REMARK SMILES IDX 29 63 30 66 31 67 81 68 32 69 86 70 80 71 82 72 33 73 85 74
REMARK SMILES IDX 79 76 78 78 34 80 66 83 46 84 65 85 47 86 50 87 64 88 83 89
REMARK SMILES IDX 48 90 49 92 63 94 84 95 51 98 35 100 36 101 44 102 37 103
REMARK SMILES IDX 38 104 42 105 45 106 39 107 40 108 43 109 41 110 67 111
REMARK SMILES IDX 68 112 76 113 69 114 70 115 74 116 77 117 71 118 72 119
REMARK SMILES IDX 75 120 73 121 52 122 53 123 61 124 54 125 55 126 59 127
REMARK SMILES IDX 62 128 56 129 57 130 60 131 58 132
REMARK H PARENT 19 2 19 3 18 5 18 6 17 8 17 9 16 13 9 18 10 21 12 22 11 23
REMARK H PARENT 7 25 3 31 4 33 5 34 1 36 1 37 1 38 90 40 90 41 90 42 20 44
REMARK H PARENT 20 45 21 47 21 48 22 50 22 51 23 54 27 60 88 62 28 64 87 65
REMARK H PARENT 86 75 80 77 82 79 85 81 79 82 47 91 50 93 83 96 48 97 84 99
REMARK Flexibility Score: inf
ROOT
ATOM      1  C   UNL A   1      34.396  32.180  28.741  1.00  0.00    -0.052 C 
ATOM      2  H   UNL A   1      35.101  32.139  29.545  1.00  0.00     0.027 H 
ATOM      3  H   UNL A   1      33.379  31.982  29.009  1.00  0.00     0.027 H 
ENDROOT
BRANCH   1   4
ATOM      4  C   UNL A   1      34.762  31.061  27.754  1.00  0.00    -0.036 C 
ATOM      5  H   UNL A   1      35.482  31.455  27.067  1.00  0.00     0.028 H 
ATOM      6  H   UNL A   1      35.121  30.256  28.362  1.00  0.00     0.028 H 
BRANCH   4   7
ATOM      7  C   UNL A   1      33.618  30.468  26.937  1.00  0.00     0.018 C 
ATOM      8  H   UNL A   1      33.011  31.273  26.578  1.00  0.00     0.049 H 
ATOM      9  H   UNL A   1      34.069  29.900  26.150  1.00  0.00     0.049 H 
BRANCH   7  10
ATOM     10  N   UNL A   1      32.772  29.556  27.666  1.00  0.00    -0.352 N 
ATOM     11  C   UNL A   1      31.967  28.540  27.211  1.00  0.00     0.253 C 
ATOM     12  O   UNL A   1      31.426  27.834  28.067  1.00  0.00    -0.269 OA
ATOM     13  H   UNL A   1      32.770  29.682  28.641  1.00  0.00     0.163 HD
BRANCH  11  14
ATOM     14  C   UNL A   1      31.609  28.316  25.774  1.00  0.00     0.063 A 
ATOM     15  C   UNL A   1      31.584  27.108  25.048  1.00  0.00     0.051 A 
ATOM     16  C   UNL A   1      31.258  27.168  23.668  1.00  0.00    -0.038 A 
ATOM     17  C   UNL A   1      30.896  28.356  23.034  1.00  0.00    -0.060 A 
ATOM     18  H   UNL A   1      31.290  26.300  23.112  1.00  0.00     0.064 H 
ATOM     19  C   UNL A   1      31.218  29.509  25.114  1.00  0.00    -0.047 A 
ATOM     20  C   UNL A   1      30.854  29.530  23.767  1.00  0.00    -0.061 A 
ATOM     21  H   UNL A   1      30.659  28.360  22.030  1.00  0.00     0.062 H 
ATOM     22  H   UNL A   1      31.203  30.392  25.649  1.00  0.00     0.063 H 
ATOM     23  H   UNL A   1      30.558  30.412  23.321  1.00  0.00     0.062 H 
BRANCH  15  24
ATOM     24  N   UNL A   1      31.713  25.797  25.551  1.00  0.00    -0.355 N 
ATOM     25  H   UNL A   1      30.860  25.424  25.870  1.00  0.00     0.167 HD
BRANCH  24  26
ATOM     26  C   UNL A   1      32.790  24.899  25.696  1.00  0.00     0.042 A 
ATOM     27  C   UNL A   1      33.991  23.042  26.724  1.00  0.00    -0.046 A 
ATOM     28  C   UNL A   1      35.190  23.503  26.161  1.00  0.00    -0.059 A 
ATOM     29  C   UNL A   1      32.767  23.701  26.437  1.00  0.00    -0.025 A 
ATOM     30  C   UNL A   1      35.194  24.613  25.329  1.00  0.00    -0.060 A 
ATOM     31  H   UNL A   1      36.075  23.014  26.366  1.00  0.00     0.063 H 
ATOM     32  C   UNL A   1      34.008  25.305  25.111  1.00  0.00    -0.038 A 
ATOM     33  H   UNL A   1      36.069  24.922  24.877  1.00  0.00     0.062 H 
ATOM     34  H   UNL A   1      34.020  26.140  24.504  1.00  0.00     0.064 H 
BRANCH  27  35
ATOM     35  C   UNL A   1      34.039  21.827  27.613  1.00  0.00    -0.039 C 
ATOM     36  H   UNL A   1      33.561  22.046  28.544  1.00  0.00     0.028 H 
ATOM     37  H   UNL A   1      35.059  21.555  27.789  1.00  0.00     0.028 H 
ATOM     38  H   UNL A   1      33.532  21.015  27.134  1.00  0.00     0.028 H 
ENDBRANCH  27  35
BRANCH  29  39
ATOM     39  C   UNL A   1      31.477  23.057  26.880  1.00  0.00    -0.037 C 
ATOM     40  H   UNL A   1      31.531  22.001  26.718  1.00  0.00     0.028 H 
ATOM     41  H   UNL A   1      30.663  23.464  26.318  1.00  0.00     0.028 H 
ATOM     42  H   UNL A   1      31.323  23.250  27.922  1.00  0.00     0.028 H 
ENDBRANCH  29  39
ENDBRANCH  24  26
ENDBRANCH  15  24
ENDBRANCH  11  14
ENDBRANCH   7  10
ENDBRANCH   4   7
ENDBRANCH   1   4
BRANCH   1  43
ATOM     43  C   UNL A   1      34.386  33.621  28.214  1.00  0.00    -0.052 C 
ATOM     44  H   UNL A   1      34.518  33.578  27.153  1.00  0.00     0.027 H 
ATOM     45  H   UNL A   1      35.169  34.117  28.748  1.00  0.00     0.027 H 
BRANCH  43  46
ATOM     46  C   UNL A   1      33.130  34.450  28.489  1.00  0.00    -0.036 C 
ATOM     47  H   UNL A   1      32.532  33.910  29.193  1.00  0.00     0.028 H 
ATOM     48  H   UNL A   1      32.669  34.593  27.534  1.00  0.00     0.028 H 
BRANCH  46  49
ATOM     49  C   UNL A   1      33.351  35.850  29.045  1.00  0.00     0.018 C 
ATOM     50  H   UNL A   1      33.061  36.562  28.300  1.00  0.00     0.049 H 
ATOM     51  H   UNL A   1      34.387  35.933  29.297  1.00  0.00     0.049 H 
BRANCH  49  52
ATOM     52  N   UNL A   1      32.590  36.111  30.254  1.00  0.00    -0.352 N 
ATOM     53  C   UNL A   1      32.763  35.638  31.532  1.00  0.00     0.251 C 
ATOM     54  H   UNL A   1      31.829  36.725  30.140  1.00  0.00     0.163 HD
ATOM     55  O   UNL A   1      31.921  35.881  32.391  1.00  0.00    -0.269 OA
BRANCH  53  56
ATOM     56  C   UNL A   1      33.943  34.812  31.888  1.00  0.00     0.039 A 
ATOM     57  C   UNL A   1      35.220  35.306  31.599  1.00  0.00    -0.049 A 
ATOM     58  C   UNL A   1      33.807  33.546  32.463  1.00  0.00    -0.049 A 
ATOM     59  C   UNL A   1      36.356  34.562  31.938  1.00  0.00    -0.053 A 
ATOM     60  H   UNL A   1      35.325  36.221  31.133  1.00  0.00     0.063 H 
ATOM     61  C   UNL A   1      34.938  32.839  32.870  1.00  0.00    -0.053 A 
ATOM     62  H   UNL A   1      32.869  33.134  32.585  1.00  0.00     0.063 H 
ATOM     63  C   UNL A   1      36.225  33.336  32.605  1.00  0.00    -0.014 A 
ATOM     64  H   UNL A   1      37.294  34.918  31.697  1.00  0.00     0.063 H 
ATOM     65  H   UNL A   1      34.829  31.944  33.372  1.00  0.00     0.063 H 
BRANCH  63  66
ATOM     66  C   UNL A   1      37.410  32.537  33.014  1.00  0.00     0.031 A 
ATOM     67  C   UNL A   1      38.110  32.844  34.310  1.00  0.00     0.074 A 
ATOM     68  C   UNL A   1      37.911  31.601  32.186  1.00  0.00     0.049 A 
ATOM     69  N   UNL A   1      39.233  32.364  34.782  1.00  0.00    -0.248 NA
ATOM     70  C   UNL A   1      37.478  33.850  35.176  1.00  0.00    -0.034 C 
ATOM     71  C   UNL A   1      37.351  31.236  30.885  1.00  0.00    -0.036 A 
ATOM     72  N   UNL A   1      39.020  30.799  32.307  1.00  0.00    -0.354 N 
ATOM     73  C   UNL A   1      39.456  33.033  35.978  1.00  0.00     0.074 A 
ATOM     74  C   UNL A   1      38.376  33.982  36.141  1.00  0.00    -0.034 C 
ATOM     75  H   UNL A   1      36.571  34.329  35.062  1.00  0.00     0.065 H 
ATOM     76  C   UNL A   1      38.114  30.279  30.331  1.00  0.00    -0.036 A 
ATOM     77  H   UNL A   1      36.506  31.647  30.461  1.00  0.00     0.065 H 
ATOM     78  C   UNL A   1      39.238  29.991  31.217  1.00  0.00     0.049 A 
ATOM     79  H   UNL A   1      39.605  30.804  33.100  1.00  0.00     0.167 HD
ATOM     80  C   UNL A   1      40.462  32.861  36.869  1.00  0.00     0.037 A 
ATOM     81  H   UNL A   1      38.314  34.670  36.906  1.00  0.00     0.065 H 
ATOM     82  H   UNL A   1      37.934  29.821  29.423  1.00  0.00     0.065 H 
ATOM     83  C   UNL A   1      40.238  29.128  30.955  1.00  0.00     0.037 A 
ATOM     84  C   UNL A   1      41.509  31.884  36.728  1.00  0.00     0.049 A 
ATOM     85  C   UNL A   1      41.334  28.939  31.968  1.00  0.00     0.074 A 
ATOM     86  C   UNL A   1      42.526  31.573  37.615  1.00  0.00    -0.036 A 
ATOM     87  N   UNL A   1      41.671  31.055  35.628  1.00  0.00    -0.354 N 
ATOM     88  N   UNL A   1      41.504  29.535  33.123  1.00  0.00    -0.248 NA
ATOM     89  C   UNL A   1      42.379  27.957  31.642  1.00  0.00    -0.034 C 
ATOM     90  C   UNL A   1      43.328  30.587  37.032  1.00  0.00    -0.036 A 
ATOM     91  H   UNL A   1      42.666  31.997  38.546  1.00  0.00     0.065 H 
ATOM     92  C   UNL A   1      42.784  30.249  35.803  1.00  0.00     0.049 A 
ATOM     93  H   UNL A   1      41.082  31.041  34.839  1.00  0.00     0.167 HD
ATOM     94  C   UNL A   1      42.652  28.983  33.674  1.00  0.00     0.074 A 
ATOM     95  C   UNL A   1      43.137  27.999  32.729  1.00  0.00    -0.034 C 
ATOM     96  H   UNL A   1      42.491  27.386  30.790  1.00  0.00     0.065 H 
ATOM     97  H   UNL A   1      44.180  30.180  37.448  1.00  0.00     0.065 H 
ATOM     98  C   UNL A   1      43.248  29.267  34.857  1.00  0.00     0.037 A 
ATOM     99  H   UNL A   1      43.968  27.405  32.882  1.00  0.00     0.065 H 
BRANCH  80 100
ATOM    100  C   UNL A   1      40.481  33.752  38.077  1.00  0.00     0.064 A 
ATOM    101  C   UNL A   1      39.731  33.457  39.226  1.00  0.00     0.173 A 
ATOM    102  C   UNL A   1      41.282  34.904  38.096  1.00  0.00     0.173 A 
ATOM    103  F   UNL A   1      38.942  32.373  39.255  1.00  0.00    -0.203 F 
ATOM    104  C   UNL A   1      39.755  34.300  40.334  1.00  0.00     0.198 A 
ATOM    105  C   UNL A   1      41.328  35.729  39.218  1.00  0.00     0.198 A 
ATOM    106  F   UNL A   1      42.025  35.230  37.027  1.00  0.00    -0.203 F 
ATOM    107  F   UNL A   1      38.987  34.026  41.398  1.00  0.00    -0.200 F 
ATOM    108  C   UNL A   1      40.557  35.431  40.331  1.00  0.00     0.200 A 
ATOM    109  F   UNL A   1      42.114  36.814  39.218  1.00  0.00    -0.200 F 
ATOM    110  F   UNL A   1      40.581  36.240  41.399  1.00  0.00    -0.200 F 
ENDBRANCH  80 100
BRANCH  83 111
ATOM    111  C   UNL A   1      40.234  28.364  29.681  1.00  0.00     0.064 A 
ATOM    112  C   UNL A   1      40.940  28.829  28.562  1.00  0.00     0.173 A 
ATOM    113  C   UNL A   1      39.542  27.152  29.559  1.00  0.00     0.173 A 
ATOM    114  F   UNL A   1      41.599  29.994  28.624  1.00  0.00    -0.203 F 
ATOM    115  C   UNL A   1      40.944  28.113  27.367  1.00  0.00     0.198 A 
ATOM    116  C   UNL A   1      39.568  26.424  28.371  1.00  0.00     0.198 A 
ATOM    117  F   UNL A   1      38.854  26.662  30.602  1.00  0.00    -0.203 F 
ATOM    118  F   UNL A   1      41.599  28.597  26.302  1.00  0.00    -0.200 F 
ATOM    119  C   UNL A   1      40.265  26.908  27.274  1.00  0.00     0.200 A 
ATOM    120  F   UNL A   1      38.921  25.253  28.290  1.00  0.00    -0.200 F 
ATOM    121  F   UNL A   1      40.277  26.216  26.127  1.00  0.00    -0.200 F 
ENDBRANCH  83 111
BRANCH  98 122
ATOM    122  C   UNL A   1      44.475  28.481  35.221  1.00  0.00     0.064 A 
ATOM    123  C   UNL A   1      45.760  28.943  34.908  1.00  0.00     0.173 A 
ATOM    124  C   UNL A   1      44.360  27.288  35.950  1.00  0.00     0.173 A 
ATOM    125  F   UNL A   1      45.920  30.071  34.201  1.00  0.00    -0.203 F 
ATOM    126  C   UNL A   1      46.889  28.230  35.303  1.00  0.00     0.198 A 
ATOM    127  C   UNL A   1      45.491  26.592  36.364  1.00  0.00     0.198 A 
ATOM    128  F   UNL A   1      43.151  26.809  36.277  1.00  0.00    -0.203 F 
ATOM    129  F   UNL A   1      48.110  28.670  34.967  1.00  0.00    -0.200 F 
ATOM    130  C   UNL A   1      46.755  27.060  36.038  1.00  0.00     0.200 A 
ATOM    131  F   UNL A   1      45.359  25.470  37.085  1.00  0.00    -0.200 F 
ATOM    132  F   UNL A   1      47.843  26.384  36.430  1.00  0.00    -0.200 F 
ENDBRANCH  98 122
ENDBRANCH  63  66
ENDBRANCH  53  56
ENDBRANCH  49  52
ENDBRANCH  46  49
ENDBRANCH  43  46
ENDBRANCH   1  43
TORSDOF 17
ENDMDL
