MODEL 1
REMARK VINA RESULT:     -12.3      0.000      0.000
REMARK SMILES O=C(NCCCCCCNC(=O)c1ccc(-n2cc(CSc3nc4ccccc4c(=O)n3-c3ccccc3)nn2)cc1)c1ccc(-c2c3nc(c(-c4c(F)c(F)c(F)c(F)c4F)c4ccc([nH]4)c(-c4c(F)c(F)c(F)c(F)c4F)c4nc(c(-c5c(F)c(F)c(F)c(F)c5F)c5ccc2[nH]5)C=C4)C=C3)cc1
REMARK SMILES IDX 8 1 7 4 6 7 5 10 4 13 3 16 1 17 2 18 43 20 44 21 105 22
REMARK SMILES IDX 45 23 104 25 46 27 47 30 48 31 98 32 49 33 103 34 97 35
REMARK SMILES IDX 99 36 50 37 102 38 96 40 95 42 51 44 83 47 63 48 82 49 64 50
REMARK SMILES IDX 67 51 81 52 100 53 65 54 66 56 80 58 101 59 68 62 52 64
REMARK SMILES IDX 53 65 61 66 54 67 55 68 59 69 62 70 56 71 57 72 60 73 58 74
REMARK SMILES IDX 84 75 85 76 93 77 86 78 87 79 91 80 94 81 88 82 89 83 92 84
REMARK SMILES IDX 90 85 69 86 70 87 78 88 71 89 72 90 76 91 79 92 73 93 74 94
REMARK SMILES IDX 77 95 75 96 9 97 10 100 11 101 12 103 13 104 14 105 42 106
REMARK SMILES IDX 15 107 41 109 16 111 17 114 18 115 40 116 19 117 39 119
REMARK SMILES IDX 20 120 21 123 22 124 23 125 32 126 24 127 30 128 25 129
REMARK SMILES IDX 29 130 31 131 26 132 28 134 27 135 33 139 34 140 38 141
REMARK SMILES IDX 35 142 37 144 36 146
REMARK H PARENT 8 2 8 3 7 5 7 6 6 8 6 9 5 11 5 12 4 14 4 15 3 19 44 24 105 26
REMARK H PARENT 45 28 104 29 103 39 97 41 99 43 102 45 96 46 64 55 67 57
REMARK H PARENT 100 60 65 61 101 63 9 98 9 99 10 102 14 108 42 110 15 112
REMARK H PARENT 41 113 18 118 20 121 20 122 25 133 26 136 28 137 27 138 34 143
REMARK H PARENT 38 145 35 147 37 148 36 149
REMARK Flexibility Score: inf
ROOT
ATOM      1  C   UNL A   1      37.759  29.957  27.890  1.00  0.00    -0.036 C 
ATOM      2  H   UNL A   1      38.391  29.182  27.511  1.00  0.00     0.028 H 
ATOM      3  H   UNL A   1      37.762  30.839  27.284  1.00  0.00     0.028 H 
ENDROOT
BRANCH   1   4
ATOM      4  C   UNL A   1      38.292  30.376  29.262  1.00  0.00    -0.052 C 
ATOM      5  H   UNL A   1      37.535  30.165  29.989  1.00  0.00     0.027 H 
ATOM      6  H   UNL A   1      39.196  29.823  29.409  1.00  0.00     0.027 H 
BRANCH   4   7
ATOM      7  C   UNL A   1      38.676  31.853  29.397  1.00  0.00    -0.052 C 
ATOM      8  H   UNL A   1      39.372  31.939  30.205  1.00  0.00     0.027 H 
ATOM      9  H   UNL A   1      39.074  32.137  28.446  1.00  0.00     0.027 H 
BRANCH   7  10
ATOM     10  C   UNL A   1      37.519  32.822  29.670  1.00  0.00    -0.036 C 
ATOM     11  H   UNL A   1      37.451  33.498  28.843  1.00  0.00     0.028 H 
ATOM     12  H   UNL A   1      36.646  32.217  29.798  1.00  0.00     0.028 H 
BRANCH  10  13
ATOM     13  C   UNL A   1      37.656  33.650  30.949  1.00  0.00     0.018 C 
ATOM     14  H   UNL A   1      38.698  33.751  31.173  1.00  0.00     0.049 H 
ATOM     15  H   UNL A   1      37.181  34.590  30.760  1.00  0.00     0.049 H 
BRANCH  13  16
ATOM     16  N   UNL A   1      36.997  33.072  32.099  1.00  0.00    -0.352 N 
ATOM     17  O   UNL A   1      36.567  32.034  33.997  1.00  0.00    -0.269 OA
ATOM     18  C   UNL A   1      37.342  32.148  33.042  1.00  0.00     0.251 C 
ATOM     19  H   UNL A   1      36.089  33.428  32.232  1.00  0.00     0.163 HD
BRANCH  18  20
ATOM     20  C   UNL A   1      38.511  31.233  32.964  1.00  0.00     0.039 A 
ATOM     21  C   UNL A   1      39.855  31.608  32.988  1.00  0.00    -0.049 A 
ATOM     22  C   UNL A   1      38.198  29.872  32.775  1.00  0.00    -0.049 A 
ATOM     23  C   UNL A   1      40.852  30.676  32.715  1.00  0.00    -0.053 A 
ATOM     24  H   UNL A   1      40.111  32.583  33.209  1.00  0.00     0.063 H 
ATOM     25  C   UNL A   1      39.187  28.934  32.511  1.00  0.00    -0.053 A 
ATOM     26  H   UNL A   1      37.214  29.567  32.832  1.00  0.00     0.063 H 
ATOM     27  C   UNL A   1      40.510  29.351  32.432  1.00  0.00    -0.014 A 
ATOM     28  H   UNL A   1      41.843  30.962  32.722  1.00  0.00     0.063 H 
ATOM     29  H   UNL A   1      38.942  27.941  32.376  1.00  0.00     0.063 H 
BRANCH  27  30
ATOM     30  C   UNL A   1      41.581  28.390  32.195  1.00  0.00     0.031 A 
ATOM     31  C   UNL A   1      42.142  27.782  33.435  1.00  0.00     0.074 A 
ATOM     32  C   UNL A   1      41.933  27.974  30.961  1.00  0.00     0.049 A 
ATOM     33  N   UNL A   1      43.361  27.818  33.866  1.00  0.00    -0.248 NA
ATOM     34  C   UNL A   1      41.198  27.151  34.374  1.00  0.00    -0.034 C 
ATOM     35  C   UNL A   1      41.275  28.273  29.686  1.00  0.00    -0.036 A 
ATOM     36  N   UNL A   1      42.915  27.101  30.594  1.00  0.00    -0.354 N 
ATOM     37  C   UNL A   1      43.377  27.067  35.042  1.00  0.00     0.074 A 
ATOM     38  C   UNL A   1      42.003  26.812  35.380  1.00  0.00    -0.034 C 
ATOM     39  H   UNL A   1      40.180  27.007  34.277  1.00  0.00     0.065 H 
ATOM     40  C   UNL A   1      41.727  27.421  28.737  1.00  0.00    -0.036 A 
ATOM     41  H   UNL A   1      40.576  29.017  29.536  1.00  0.00     0.065 H 
ATOM     42  C   UNL A   1      42.793  26.609  29.299  1.00  0.00     0.049 A 
ATOM     43  H   UNL A   1      43.649  26.842  31.196  1.00  0.00     0.167 HD
ATOM     44  C   UNL A   1      44.533  26.518  35.512  1.00  0.00     0.037 A 
ATOM     45  H   UNL A   1      41.685  26.421  36.281  1.00  0.00     0.065 H 
ATOM     46  H   UNL A   1      41.372  27.359  27.770  1.00  0.00     0.065 H 
ATOM     47  C   UNL A   1      43.474  25.567  28.759  1.00  0.00     0.037 A 
ATOM     48  C   UNL A   1      45.683  27.194  34.967  1.00  0.00     0.049 A 
ATOM     49  C   UNL A   1      44.678  25.335  29.596  1.00  0.00     0.074 A 
ATOM     50  C   UNL A   1      46.173  28.484  35.018  1.00  0.00    -0.036 A 
ATOM     51  N   UNL A   1      46.364  26.585  33.944  1.00  0.00    -0.354 N 
ATOM     52  N   UNL A   1      45.681  26.163  29.668  1.00  0.00    -0.248 NA
ATOM     53  C   UNL A   1      44.552  24.403  30.706  1.00  0.00    -0.034 C 
ATOM     54  C   UNL A   1      46.736  28.716  33.727  1.00  0.00    -0.036 A 
ATOM     55  H   UNL A   1      46.142  29.138  35.816  1.00  0.00     0.065 H 
ATOM     56  C   UNL A   1      46.607  27.539  32.992  1.00  0.00     0.049 A 
ATOM     57  H   UNL A   1      46.630  25.637  33.901  1.00  0.00     0.167 HD
ATOM     58  C   UNL A   1      46.040  26.160  31.006  1.00  0.00     0.074 A 
ATOM     59  C   UNL A   1      45.363  25.000  31.583  1.00  0.00    -0.034 C 
ATOM     60  H   UNL A   1      44.000  23.534  30.791  1.00  0.00     0.065 H 
ATOM     61  H   UNL A   1      47.160  29.597  33.398  1.00  0.00     0.065 H 
ATOM     62  C   UNL A   1      46.615  27.257  31.579  1.00  0.00     0.037 A 
ATOM     63  H   UNL A   1      45.496  24.680  32.554  1.00  0.00     0.065 H 
BRANCH  44  64
ATOM     64  C   UNL A   1      44.633  25.128  36.110  1.00  0.00     0.064 A 
ATOM     65  C   UNL A   1      45.355  24.963  37.313  1.00  0.00     0.173 A 
ATOM     66  C   UNL A   1      44.368  23.937  35.402  1.00  0.00     0.173 A 
ATOM     67  F   UNL A   1      45.652  26.021  38.084  1.00  0.00    -0.203 F 
ATOM     68  C   UNL A   1      45.889  23.729  37.693  1.00  0.00     0.198 A 
ATOM     69  C   UNL A   1      44.862  22.698  35.811  1.00  0.00     0.198 A 
ATOM     70  F   UNL A   1      43.721  23.923  34.232  1.00  0.00    -0.203 F 
ATOM     71  F   UNL A   1      46.699  23.656  38.758  1.00  0.00    -0.200 F 
ATOM     72  C   UNL A   1      45.658  22.601  36.931  1.00  0.00     0.200 A 
ATOM     73  F   UNL A   1      44.630  21.617  35.054  1.00  0.00    -0.200 F 
ATOM     74  F   UNL A   1      46.236  21.436  37.245  1.00  0.00    -0.200 F 
ENDBRANCH  44  64
BRANCH  47  75
ATOM     75  C   UNL A   1      42.987  24.549  27.793  1.00  0.00     0.064 A 
ATOM     76  C   UNL A   1      43.428  24.539  26.458  1.00  0.00     0.173 A 
ATOM     77  C   UNL A   1      42.306  23.398  28.232  1.00  0.00     0.173 A 
ATOM     78  F   UNL A   1      44.133  25.572  25.972  1.00  0.00    -0.203 F 
ATOM     79  C   UNL A   1      43.216  23.435  25.622  1.00  0.00     0.198 A 
ATOM     80  C   UNL A   1      42.090  22.301  27.397  1.00  0.00     0.198 A 
ATOM     81  F   UNL A   1      41.923  23.273  29.510  1.00  0.00    -0.203 F 
ATOM     82  F   UNL A   1      43.705  23.437  24.374  1.00  0.00    -0.200 F 
ATOM     83  C   UNL A   1      42.557  22.313  26.096  1.00  0.00     0.200 A 
ATOM     84  F   UNL A   1      41.487  21.206  27.881  1.00  0.00    -0.200 F 
ATOM     85  F   UNL A   1      42.408  21.232  25.317  1.00  0.00    -0.200 F 
ENDBRANCH  47  75
BRANCH  62  86
ATOM     86  C   UNL A   1      47.081  28.357  30.671  1.00  0.00     0.064 A 
ATOM     87  C   UNL A   1      48.331  28.369  30.028  1.00  0.00     0.173 A 
ATOM     88  C   UNL A   1      46.170  29.364  30.329  1.00  0.00     0.173 A 
ATOM     89  F   UNL A   1      49.218  27.385  30.223  1.00  0.00    -0.203 F 
ATOM     90  C   UNL A   1      48.666  29.371  29.119  1.00  0.00     0.198 A 
ATOM     91  C   UNL A   1      46.492  30.342  29.393  1.00  0.00     0.198 A 
ATOM     92  F   UNL A   1      44.940  29.369  30.867  1.00  0.00    -0.203 F 
ATOM     93  F   UNL A   1      49.869  29.366  28.525  1.00  0.00    -0.200 F 
ATOM     94  C   UNL A   1      47.743  30.351  28.797  1.00  0.00     0.200 A 
ATOM     95  F   UNL A   1      45.577  31.256  29.045  1.00  0.00    -0.200 F 
ATOM     96  F   UNL A   1      48.047  31.290  27.889  1.00  0.00    -0.200 F 
ENDBRANCH  62  86
ENDBRANCH  27  30
ENDBRANCH  18  20
ENDBRANCH  13  16
ENDBRANCH  10  13
ENDBRANCH   7  10
ENDBRANCH   4   7
ENDBRANCH   1   4
BRANCH   1  97
ATOM     97  C   UNL A   1      36.323  29.440  27.890  1.00  0.00     0.018 C 
ATOM     98  H   UNL A   1      36.183  28.816  28.748  1.00  0.00     0.049 H 
ATOM     99  H   UNL A   1      36.173  28.897  26.980  1.00  0.00     0.049 H 
BRANCH  97 100
ATOM    100  N   UNL A   1      35.347  30.517  27.932  1.00  0.00    -0.352 N 
ATOM    101  C   UNL A   1      34.038  30.510  27.526  1.00  0.00     0.251 C 
ATOM    102  H   UNL A   1      35.671  31.369  28.303  1.00  0.00     0.163 HD
ATOM    103  O   UNL A   1      33.380  31.553  27.508  1.00  0.00    -0.269 OA
BRANCH 101 104
ATOM    104  C   UNL A   1      33.421  29.249  27.076  1.00  0.00     0.039 A 
ATOM    105  C   UNL A   1      34.190  28.357  26.320  1.00  0.00    -0.047 A 
ATOM    106  C   UNL A   1      32.095  28.948  27.410  1.00  0.00    -0.047 A 
ATOM    107  C   UNL A   1      33.672  27.107  25.978  1.00  0.00    -0.036 A 
ATOM    108  H   UNL A   1      35.138  28.624  26.014  1.00  0.00     0.063 H 
ATOM    109  C   UNL A   1      31.561  27.719  27.035  1.00  0.00    -0.036 A 
ATOM    110  H   UNL A   1      31.521  29.630  27.928  1.00  0.00     0.063 H 
ATOM    111  C   UNL A   1      32.362  26.795  26.342  1.00  0.00     0.066 A 
ATOM    112  H   UNL A   1      34.251  26.423  25.465  1.00  0.00     0.065 H 
ATOM    113  H   UNL A   1      30.581  27.487  27.266  1.00  0.00     0.065 H 
BRANCH 111 114
ATOM    114  N   UNL A   1      31.790  25.596  25.886  1.00  0.00    -0.220 N 
ATOM    115  C   UNL A   1      32.005  24.371  26.444  1.00  0.00     0.055 A 
ATOM    116  N   UNL A   1      30.975  25.474  24.822  1.00  0.00    -0.062 NA
ATOM    117  C   UNL A   1      31.316  23.470  25.677  1.00  0.00     0.093 A 
ATOM    118  H   UNL A   1      32.575  24.164  27.279  1.00  0.00     0.086 H 
ATOM    119  N   UNL A   1      30.735  24.173  24.644  1.00  0.00    -0.134 NA
BRANCH 117 120
ATOM    120  C   UNL A   1      31.378  21.988  25.685  1.00  0.00     0.047 C 
ATOM    121  H   UNL A   1      30.373  21.657  25.524  1.00  0.00     0.045 H 
ATOM    122  H   UNL A   1      31.878  21.816  26.615  1.00  0.00     0.045 H 
BRANCH 120 123
ATOM    123  S   UNL A   1      32.391  21.005  24.579  1.00  0.00    -0.081 SA
BRANCH 123 124
ATOM    124  C   UNL A   1      34.069  21.469  24.523  1.00  0.00     0.176 A 
ATOM    125  N   UNL A   1      34.866  20.492  24.857  1.00  0.00    -0.223 NA
ATOM    126  N   UNL A   1      34.572  22.711  24.178  1.00  0.00    -0.255 N 
ATOM    127  C   UNL A   1      36.234  20.766  24.991  1.00  0.00     0.079 A 
ATOM    128  C   UNL A   1      35.657  23.110  24.967  1.00  0.00     0.266 A 
ATOM    129  C   UNL A   1      37.190  19.751  24.990  1.00  0.00    -0.035 A 
ATOM    130  C   UNL A   1      36.651  22.066  25.239  1.00  0.00     0.066 A 
ATOM    131  O   UNL A   1      35.831  24.229  25.443  1.00  0.00    -0.268 OA
ATOM    132  C   UNL A   1      38.525  20.042  25.301  1.00  0.00    -0.060 A 
ATOM    133  H   UNL A   1      36.913  18.785  24.760  1.00  0.00     0.065 H 
ATOM    134  C   UNL A   1      37.962  22.366  25.616  1.00  0.00    -0.047 A 
ATOM    135  C   UNL A   1      38.903  21.341  25.654  1.00  0.00    -0.061 A 
ATOM    136  H   UNL A   1      39.234  19.293  25.271  1.00  0.00     0.062 H 
ATOM    137  H   UNL A   1      38.229  23.333  25.862  1.00  0.00     0.063 H 
ATOM    138  H   UNL A   1      39.874  21.538  25.941  1.00  0.00     0.062 H 
BRANCH 126 139
ATOM    139  C   UNL A   1      34.086  23.628  23.169  1.00  0.00     0.051 A 
ATOM    140  C   UNL A   1      34.291  25.015  23.335  1.00  0.00    -0.038 A 
ATOM    141  C   UNL A   1      33.362  23.250  22.033  1.00  0.00    -0.038 A 
ATOM    142  C   UNL A   1      33.600  25.964  22.579  1.00  0.00    -0.060 A 
ATOM    143  H   UNL A   1      34.973  25.339  24.039  1.00  0.00     0.064 H 
ATOM    144  C   UNL A   1      32.610  24.191  21.314  1.00  0.00    -0.060 A 
ATOM    145  H   UNL A   1      33.381  22.266  21.721  1.00  0.00     0.064 H 
ATOM    146  C   UNL A   1      32.700  25.546  21.612  1.00  0.00    -0.062 A 
ATOM    147  H   UNL A   1      33.758  26.971  22.739  1.00  0.00     0.062 H 
ATOM    148  H   UNL A   1      31.985  23.875  20.556  1.00  0.00     0.062 H 
ATOM    149  H   UNL A   1      32.105  26.231  21.121  1.00  0.00     0.062 H 
ENDBRANCH 126 139
ENDBRANCH 123 124
ENDBRANCH 120 123
ENDBRANCH 117 120
ENDBRANCH 111 114
ENDBRANCH 101 104
ENDBRANCH  97 100
ENDBRANCH   1  97
TORSDOF 18
ENDMDL
MODEL 2
REMARK VINA RESULT:     -12.3      2.426      3.190
REMARK SMILES O=C(NCCCCCCNC(=O)c1ccc(-n2cc(CSc3nc4ccccc4c(=O)n3-c3ccccc3)nn2)cc1)c1ccc(-c2c3nc(c(-c4c(F)c(F)c(F)c(F)c4F)c4ccc([nH]4)c(-c4c(F)c(F)c(F)c(F)c4F)c4nc(c(-c5c(F)c(F)c(F)c(F)c5F)c5ccc2[nH]5)C=C4)C=C3)cc1
REMARK SMILES IDX 8 1 7 4 6 7 5 10 4 13 3 16 1 17 2 18 43 20 44 21 105 22
REMARK SMILES IDX 45 23 104 25 46 27 47 30 48 31 98 32 49 33 103 34 97 35
REMARK SMILES IDX 99 36 50 37 102 38 96 40 95 42 51 44 83 47 63 48 82 49 64 50
REMARK SMILES IDX 67 51 81 52 100 53 65 54 66 56 80 58 101 59 68 62 52 64
REMARK SMILES IDX 53 65 61 66 54 67 55 68 59 69 62 70 56 71 57 72 60 73 58 74
REMARK SMILES IDX 84 75 85 76 93 77 86 78 87 79 91 80 94 81 88 82 89 83 92 84
REMARK SMILES IDX 90 85 69 86 70 87 78 88 71 89 72 90 76 91 79 92 73 93 74 94
REMARK SMILES IDX 77 95 75 96 9 97 10 100 11 101 12 103 13 104 14 105 42 106
REMARK SMILES IDX 15 107 41 109 16 111 17 114 18 115 40 116 19 117 39 119
REMARK SMILES IDX 20 120 21 123 22 124 23 125 32 126 24 127 30 128 25 129
REMARK SMILES IDX 29 130 31 131 26 132 28 134 27 135 33 139 34 140 38 141
REMARK SMILES IDX 35 142 37 144 36 146
REMARK H PARENT 8 2 8 3 7 5 7 6 6 8 6 9 5 11 5 12 4 14 4 15 3 19 44 24 105 26
REMARK H PARENT 45 28 104 29 103 39 97 41 99 43 102 45 96 46 64 55 67 57
REMARK H PARENT 100 60 65 61 101 63 9 98 9 99 10 102 14 108 42 110 15 112
REMARK H PARENT 41 113 18 118 20 121 20 122 25 133 26 136 28 137 27 138 34 143
REMARK H PARENT 38 145 35 147 37 148 36 149
REMARK Flexibility Score: inf
ROOT
ATOM      1  C   UNL A   1      36.411  30.627  28.762  1.00  0.00    -0.036 C 
ATOM      2  H   UNL A   1      37.418  30.465  28.442  1.00  0.00     0.028 H 
ATOM      3  H   UNL A   1      36.180  31.660  28.925  1.00  0.00     0.028 H 
ENDROOT
BRANCH   1   4
ATOM      4  C   UNL A   1      36.222  29.927  30.110  1.00  0.00    -0.052 C 
ATOM      5  H   UNL A   1      35.294  29.396  30.079  1.00  0.00     0.027 H 
ATOM      6  H   UNL A   1      37.076  29.296  30.237  1.00  0.00     0.027 H 
BRANCH   4   7
ATOM      7  C   UNL A   1      36.195  30.849  31.333  1.00  0.00    -0.052 C 
ATOM      8  H   UNL A   1      35.248  30.728  31.816  1.00  0.00     0.027 H 
ATOM      9  H   UNL A   1      37.031  30.557  31.934  1.00  0.00     0.027 H 
BRANCH   7  10
ATOM     10  C   UNL A   1      36.389  32.343  31.049  1.00  0.00    -0.036 C 
ATOM     11  H   UNL A   1      36.530  32.465  29.995  1.00  0.00     0.028 H 
ATOM     12  H   UNL A   1      35.513  32.834  31.419  1.00  0.00     0.028 H 
BRANCH  10  13
ATOM     13  C   UNL A   1      37.576  32.990  31.763  1.00  0.00     0.018 C 
ATOM     14  H   UNL A   1      37.197  33.675  32.492  1.00  0.00     0.049 H 
ATOM     15  H   UNL A   1      38.143  32.194  32.200  1.00  0.00     0.049 H 
BRANCH  13  16
ATOM     16  N   UNL A   1      38.473  33.708  30.885  1.00  0.00    -0.352 N 
ATOM     17  O   UNL A   1      39.983  34.235  29.366  1.00  0.00    -0.269 OA
ATOM     18  C   UNL A   1      39.572  33.373  30.149  1.00  0.00     0.251 C 
ATOM     19  H   UNL A   1      38.236  34.660  30.800  1.00  0.00     0.163 HD
BRANCH  18  20
ATOM     20  C   UNL A   1      40.341  32.107  30.278  1.00  0.00     0.039 A 
ATOM     21  C   UNL A   1      41.712  31.995  30.516  1.00  0.00    -0.049 A 
ATOM     22  C   UNL A   1      39.600  30.928  30.063  1.00  0.00    -0.049 A 
ATOM     23  C   UNL A   1      42.344  30.759  30.426  1.00  0.00    -0.053 A 
ATOM     24  H   UNL A   1      42.260  32.835  30.759  1.00  0.00     0.063 H 
ATOM     25  C   UNL A   1      40.221  29.690  29.981  1.00  0.00    -0.053 A 
ATOM     26  H   UNL A   1      38.575  30.987  29.964  1.00  0.00     0.063 H 
ATOM     27  C   UNL A   1      41.602  29.617  30.113  1.00  0.00    -0.014 A 
ATOM     28  H   UNL A   1      43.360  30.684  30.589  1.00  0.00     0.063 H 
ATOM     29  H   UNL A   1      39.665  28.835  29.825  1.00  0.00     0.063 H 
BRANCH  27  30
ATOM     30  C   UNL A   1      42.288  28.330  30.071  1.00  0.00     0.031 A 
ATOM     31  C   UNL A   1      42.819  27.877  31.388  1.00  0.00     0.074 A 
ATOM     32  C   UNL A   1      42.311  27.547  28.972  1.00  0.00     0.049 A 
ATOM     33  N   UNL A   1      44.043  27.610  31.711  1.00  0.00    -0.248 NA
ATOM     34  C   UNL A   1      41.880  27.827  32.522  1.00  0.00    -0.034 C 
ATOM     35  C   UNL A   1      41.591  27.740  27.711  1.00  0.00    -0.036 A 
ATOM     36  N   UNL A   1      42.920  26.340  28.788  1.00  0.00    -0.354 N 
ATOM     37  C   UNL A   1      44.008  27.190  33.041  1.00  0.00     0.074 A 
ATOM     38  C   UNL A   1      42.688  27.487  33.527  1.00  0.00    -0.034 C 
ATOM     39  H   UNL A   1      40.863  28.007  32.535  1.00  0.00     0.065 H 
ATOM     40  C   UNL A   1      41.619  26.592  26.996  1.00  0.00    -0.036 A 
ATOM     41  H   UNL A   1      41.133  28.617  27.415  1.00  0.00     0.065 H 
ATOM     42  C   UNL A   1      42.464  25.630  27.683  1.00  0.00     0.049 A 
ATOM     43  H   UNL A   1      43.623  26.001  29.387  1.00  0.00     0.167 HD
ATOM     44  C   UNL A   1      45.002  26.418  33.562  1.00  0.00     0.037 A 
ATOM     45  H   UNL A   1      42.404  27.443  34.518  1.00  0.00     0.065 H 
ATOM     46  H   UNL A   1      41.122  26.426  26.108  1.00  0.00     0.065 H 
ATOM     47  C   UNL A   1      42.713  24.325  27.398  1.00  0.00     0.037 A 
ATOM     48  C   UNL A   1      46.208  26.533  32.781  1.00  0.00     0.049 A 
ATOM     49  C   UNL A   1      43.902  23.913  28.184  1.00  0.00     0.074 A 
ATOM     50  C   UNL A   1      47.064  27.565  32.452  1.00  0.00    -0.036 A 
ATOM     51  N   UNL A   1      46.514  25.514  31.915  1.00  0.00    -0.354 N 
ATOM     52  N   UNL A   1      45.107  24.358  27.964  1.00  0.00    -0.248 NA
ATOM     53  C   UNL A   1      43.670  23.358  29.509  1.00  0.00    -0.034 C 
ATOM     54  C   UNL A   1      47.471  27.293  31.111  1.00  0.00    -0.036 A 
ATOM     55  H   UNL A   1      47.349  28.359  33.046  1.00  0.00     0.065 H 
ATOM     56  C   UNL A   1      46.887  26.086  30.729  1.00  0.00     0.049 A 
ATOM     57  H   UNL A   1      46.474  24.549  32.110  1.00  0.00     0.167 HD
ATOM     58  C   UNL A   1      45.643  24.548  29.227  1.00  0.00     0.074 A 
ATOM     59  C   UNL A   1      44.743  23.843  30.137  1.00  0.00    -0.034 C 
ATOM     60  H   UNL A   1      42.902  22.764  29.860  1.00  0.00     0.065 H 
ATOM     61  H   UNL A   1      48.086  27.883  30.530  1.00  0.00     0.065 H 
ATOM     62  C   UNL A   1      46.599  25.497  29.446  1.00  0.00     0.037 A 
ATOM     63  H   UNL A   1      44.917  23.732  31.148  1.00  0.00     0.065 H 
BRANCH  44  64
ATOM     64  C   UNL A   1      44.769  25.251  34.504  1.00  0.00     0.064 A 
ATOM     65  C   UNL A   1      45.461  25.231  35.735  1.00  0.00     0.173 A 
ATOM     66  C   UNL A   1      44.195  24.021  34.117  1.00  0.00     0.173 A 
ATOM     67  F   UNL A   1      46.035  26.344  36.217  1.00  0.00    -0.203 F 
ATOM     68  C   UNL A   1      45.680  24.045  36.441  1.00  0.00     0.198 A 
ATOM     69  C   UNL A   1      44.375  22.849  34.851  1.00  0.00     0.198 A 
ATOM     70  F   UNL A   1      43.531  23.866  32.966  1.00  0.00    -0.203 F 
ATOM     71  F   UNL A   1      46.477  24.052  37.519  1.00  0.00    -0.200 F 
ATOM     72  C   UNL A   1      45.153  22.852  35.988  1.00  0.00     0.200 A 
ATOM     73  F   UNL A   1      43.859  21.701  34.391  1.00  0.00    -0.200 F 
ATOM     74  F   UNL A   1      45.431  21.702  36.614  1.00  0.00    -0.200 F 
ENDBRANCH  44  64
BRANCH  47  75
ATOM     75  C   UNL A   1      41.805  23.329  26.774  1.00  0.00     0.064 A 
ATOM     76  C   UNL A   1      42.297  22.128  26.236  1.00  0.00     0.173 A 
ATOM     77  C   UNL A   1      40.410  23.406  26.953  1.00  0.00     0.173 A 
ATOM     78  F   UNL A   1      43.617  21.948  26.082  1.00  0.00    -0.203 F 
ATOM     79  C   UNL A   1      41.446  21.062  25.915  1.00  0.00     0.198 A 
ATOM     80  C   UNL A   1      39.562  22.346  26.628  1.00  0.00     0.198 A 
ATOM     81  F   UNL A   1      39.851  24.474  27.539  1.00  0.00    -0.203 F 
ATOM     82  F   UNL A   1      41.958  19.909  25.463  1.00  0.00    -0.200 F 
ATOM     83  C   UNL A   1      40.080  21.169  26.122  1.00  0.00     0.200 A 
ATOM     84  F   UNL A   1      38.248  22.449  26.871  1.00  0.00    -0.200 F 
ATOM     85  F   UNL A   1      39.272  20.129  25.875  1.00  0.00    -0.200 F 
ENDBRANCH  47  75
BRANCH  62  86
ATOM     86  C   UNL A   1      47.233  26.141  28.246  1.00  0.00     0.064 A 
ATOM     87  C   UNL A   1      48.324  25.596  27.547  1.00  0.00     0.173 A 
ATOM     88  C   UNL A   1      46.621  27.277  27.705  1.00  0.00     0.173 A 
ATOM     89  F   UNL A   1      48.898  24.454  27.944  1.00  0.00    -0.203 F 
ATOM     90  C   UNL A   1      48.805  26.191  26.382  1.00  0.00     0.198 A 
ATOM     91  C   UNL A   1      47.079  27.848  26.521  1.00  0.00     0.198 A 
ATOM     92  F   UNL A   1      45.539  27.806  28.298  1.00  0.00    -0.203 F 
ATOM     93  F   UNL A   1      49.852  25.658  25.737  1.00  0.00    -0.200 F 
ATOM     94  C   UNL A   1      48.176  27.312  25.867  1.00  0.00     0.200 A 
ATOM     95  F   UNL A   1      46.435  28.900  25.998  1.00  0.00    -0.200 F 
ATOM     96  F   UNL A   1      48.609  27.860  24.722  1.00  0.00    -0.200 F 
ENDBRANCH  62  86
ENDBRANCH  27  30
ENDBRANCH  18  20
ENDBRANCH  13  16
ENDBRANCH  10  13
ENDBRANCH   7  10
ENDBRANCH   4   7
ENDBRANCH   1   4
BRANCH   1  97
ATOM     97  C   UNL A   1      35.477  30.148  27.655  1.00  0.00     0.018 C 
ATOM     98  H   UNL A   1      35.444  29.079  27.672  1.00  0.00     0.049 H 
ATOM     99  H   UNL A   1      35.860  30.514  26.725  1.00  0.00     0.049 H 
BRANCH  97 100
ATOM    100  N   UNL A   1      34.125  30.660  27.810  1.00  0.00    -0.352 N 
ATOM    101  C   UNL A   1      33.006  30.380  27.069  1.00  0.00     0.251 C 
ATOM    102  H   UNL A   1      33.994  31.295  28.550  1.00  0.00     0.163 HD
ATOM    103  O   UNL A   1      31.959  31.005  27.252  1.00  0.00    -0.269 OA
BRANCH 101 104
ATOM    104  C   UNL A   1      33.067  29.345  26.021  1.00  0.00     0.039 A 
ATOM    105  C   UNL A   1      33.136  28.001  26.406  1.00  0.00    -0.047 A 
ATOM    106  C   UNL A   1      33.044  29.702  24.667  1.00  0.00    -0.047 A 
ATOM    107  C   UNL A   1      33.078  26.995  25.440  1.00  0.00    -0.036 A 
ATOM    108  H   UNL A   1      33.231  27.754  27.403  1.00  0.00     0.063 H 
ATOM    109  C   UNL A   1      33.028  28.703  23.699  1.00  0.00    -0.036 A 
ATOM    110  H   UNL A   1      33.039  30.696  24.391  1.00  0.00     0.063 H 
ATOM    111  C   UNL A   1      33.021  27.353  24.093  1.00  0.00     0.066 A 
ATOM    112  H   UNL A   1      33.077  26.001  25.719  1.00  0.00     0.065 H 
ATOM    113  H   UNL A   1      33.022  28.952  22.697  1.00  0.00     0.065 H 
BRANCH 111 114
ATOM    114  N   UNL A   1      33.099  26.351  23.112  1.00  0.00    -0.220 N 
ATOM    115  C   UNL A   1      32.648  25.074  23.268  1.00  0.00     0.055 A 
ATOM    116  N   UNL A   1      33.652  26.493  21.894  1.00  0.00    -0.062 NA
ATOM    117  C   UNL A   1      32.961  24.409  22.112  1.00  0.00     0.093 A 
ATOM    118  H   UNL A   1      32.167  24.686  24.094  1.00  0.00     0.086 H 
ATOM    119  N   UNL A   1      33.635  25.296  21.302  1.00  0.00    -0.134 NA
BRANCH 117 120
ATOM    120  C   UNL A   1      32.912  22.956  21.822  1.00  0.00     0.047 C 
ATOM    121  H   UNL A   1      33.907  22.596  21.983  1.00  0.00     0.045 H 
ATOM    122  H   UNL A   1      32.474  22.964  20.846  1.00  0.00     0.045 H 
BRANCH 120 123
ATOM    123  S   UNL A   1      31.838  21.786  22.656  1.00  0.00    -0.081 SA
BRANCH 123 124
ATOM    124  C   UNL A   1      32.670  20.531  23.532  1.00  0.00     0.176 A 
ATOM    125  N   UNL A   1      32.438  19.345  23.041  1.00  0.00    -0.223 NA
ATOM    126  N   UNL A   1      33.494  20.698  24.631  1.00  0.00    -0.255 N 
ATOM    127  C   UNL A   1      32.932  18.231  23.733  1.00  0.00     0.079 A 
ATOM    128  C   UNL A   1      33.330  19.704  25.604  1.00  0.00     0.266 A 
ATOM    129  C   UNL A   1      33.050  16.981  23.126  1.00  0.00    -0.035 A 
ATOM    130  C   UNL A   1      33.214  18.336  25.088  1.00  0.00     0.066 A 
ATOM    131  O   UNL A   1      33.269  19.884  26.817  1.00  0.00    -0.268 OA
ATOM    132  C   UNL A   1      33.378  15.855  23.892  1.00  0.00    -0.060 A 
ATOM    133  H   UNL A   1      32.894  16.887  22.110  1.00  0.00     0.065 H 
ATOM    134  C   UNL A   1      33.478  17.216  25.880  1.00  0.00    -0.047 A 
ATOM    135  C   UNL A   1      33.552  15.965  25.275  1.00  0.00    -0.061 A 
ATOM    136  H   UNL A   1      33.492  14.937  23.433  1.00  0.00     0.062 H 
ATOM    137  H   UNL A   1      33.616  17.315  26.899  1.00  0.00     0.063 H 
ATOM    138  H   UNL A   1      33.734  15.123  25.842  1.00  0.00     0.062 H 
BRANCH 126 139
ATOM    139  C   UNL A   1      34.428  21.771  24.900  1.00  0.00     0.051 A 
ATOM    140  C   UNL A   1      34.086  22.770  25.837  1.00  0.00    -0.038 A 
ATOM    141  C   UNL A   1      35.656  21.937  24.251  1.00  0.00    -0.038 A 
ATOM    142  C   UNL A   1      34.783  23.976  25.924  1.00  0.00    -0.060 A 
ATOM    143  H   UNL A   1      33.295  22.603  26.479  1.00  0.00     0.064 H 
ATOM    144  C   UNL A   1      36.323  23.170  24.279  1.00  0.00    -0.060 A 
ATOM    145  H   UNL A   1      36.076  21.141  23.746  1.00  0.00     0.064 H 
ATOM    146  C   UNL A   1      35.864  24.204  25.088  1.00  0.00    -0.062 A 
ATOM    147  H   UNL A   1      34.496  24.695  26.607  1.00  0.00     0.062 H 
ATOM    148  H   UNL A   1      37.162  23.312  23.696  1.00  0.00     0.062 H 
ATOM    149  H   UNL A   1      36.321  25.129  25.065  1.00  0.00     0.062 H 
ENDBRANCH 126 139
ENDBRANCH 123 124
ENDBRANCH 120 123
ENDBRANCH 117 120
ENDBRANCH 111 114
ENDBRANCH 101 104
ENDBRANCH  97 100
ENDBRANCH   1  97
TORSDOF 18
ENDMDL
MODEL 3
REMARK VINA RESULT:     -12.3      5.443     12.789
REMARK SMILES O=C(NCCCCCCNC(=O)c1ccc(-n2cc(CSc3nc4ccccc4c(=O)n3-c3ccccc3)nn2)cc1)c1ccc(-c2c3nc(c(-c4c(F)c(F)c(F)c(F)c4F)c4ccc([nH]4)c(-c4c(F)c(F)c(F)c(F)c4F)c4nc(c(-c5c(F)c(F)c(F)c(F)c5F)c5ccc2[nH]5)C=C4)C=C3)cc1
REMARK SMILES IDX 8 1 7 4 6 7 5 10 4 13 3 16 1 17 2 18 43 20 44 21 105 22
REMARK SMILES IDX 45 23 104 25 46 27 47 30 48 31 98 32 49 33 103 34 97 35
REMARK SMILES IDX 99 36 50 37 102 38 96 40 95 42 51 44 83 47 63 48 82 49 64 50
REMARK SMILES IDX 67 51 81 52 100 53 65 54 66 56 80 58 101 59 68 62 52 64
REMARK SMILES IDX 53 65 61 66 54 67 55 68 59 69 62 70 56 71 57 72 60 73 58 74
REMARK SMILES IDX 84 75 85 76 93 77 86 78 87 79 91 80 94 81 88 82 89 83 92 84
REMARK SMILES IDX 90 85 69 86 70 87 78 88 71 89 72 90 76 91 79 92 73 93 74 94
REMARK SMILES IDX 77 95 75 96 9 97 10 100 11 101 12 103 13 104 14 105 42 106
REMARK SMILES IDX 15 107 41 109 16 111 17 114 18 115 40 116 19 117 39 119
REMARK SMILES IDX 20 120 21 123 22 124 23 125 32 126 24 127 30 128 25 129
REMARK SMILES IDX 29 130 31 131 26 132 28 134 27 135 33 139 34 140 38 141
REMARK SMILES IDX 35 142 37 144 36 146
REMARK H PARENT 8 2 8 3 7 5 7 6 6 8 6 9 5 11 5 12 4 14 4 15 3 19 44 24 105 26
REMARK H PARENT 45 28 104 29 103 39 97 41 99 43 102 45 96 46 64 55 67 57
REMARK H PARENT 100 60 65 61 101 63 9 98 9 99 10 102 14 108 42 110 15 112
REMARK H PARENT 41 113 18 118 20 121 20 122 25 133 26 136 28 137 27 138 34 143
REMARK H PARENT 38 145 35 147 37 148 36 149
REMARK Flexibility Score: inf
ROOT
ATOM      1  C   UNL A   1      47.292  24.446  26.768  1.00  0.00    -0.036 C 
ATOM      2  H   UNL A   1      47.260  23.405  27.014  1.00  0.00     0.028 H 
ATOM      3  H   UNL A   1      46.465  24.999  27.162  1.00  0.00     0.028 H 
ENDROOT
BRANCH   1   4
ATOM      4  C   UNL A   1      47.210  24.578  25.245  1.00  0.00    -0.052 C 
ATOM      5  H   UNL A   1      46.957  25.592  25.015  1.00  0.00     0.027 H 
ATOM      6  H   UNL A   1      48.166  24.277  24.872  1.00  0.00     0.027 H 
BRANCH   4   7
ATOM      7  C   UNL A   1      46.185  23.670  24.559  1.00  0.00    -0.052 C 
ATOM      8  H   UNL A   1      46.161  23.927  23.521  1.00  0.00     0.027 H 
ATOM      9  H   UNL A   1      46.509  22.669  24.752  1.00  0.00     0.027 H 
BRANCH   7  10
ATOM     10  C   UNL A   1      44.751  23.754  25.097  1.00  0.00    -0.036 C 
ATOM     11  H   UNL A   1      44.754  23.398  26.106  1.00  0.00     0.028 H 
ATOM     12  H   UNL A   1      44.459  24.779  25.009  1.00  0.00     0.028 H 
BRANCH  10  13
ATOM     13  C   UNL A   1      43.718  22.946  24.312  1.00  0.00     0.018 C 
ATOM     14  H   UNL A   1      43.097  23.629  23.771  1.00  0.00     0.049 H 
ATOM     15  H   UNL A   1      44.264  22.287  23.670  1.00  0.00     0.049 H 
BRANCH  13  16
ATOM     16  N   UNL A   1      42.868  22.115  25.137  1.00  0.00    -0.352 N 
ATOM     17  O   UNL A   1      41.263  21.374  26.456  1.00  0.00    -0.269 OA
ATOM     18  C   UNL A   1      41.915  22.354  26.084  1.00  0.00     0.251 C 
ATOM     19  H   UNL A   1      43.012  21.154  24.978  1.00  0.00     0.163 HD
BRANCH  18  20
ATOM     20  C   UNL A   1      41.668  23.664  26.744  1.00  0.00     0.039 A 
ATOM     21  C   UNL A   1      40.880  24.703  26.246  1.00  0.00    -0.049 A 
ATOM     22  C   UNL A   1      42.366  23.870  27.951  1.00  0.00    -0.049 A 
ATOM     23  C   UNL A   1      40.882  25.948  26.867  1.00  0.00    -0.053 A 
ATOM     24  H   UNL A   1      40.294  24.546  25.411  1.00  0.00     0.063 H 
ATOM     25  C   UNL A   1      42.365  25.106  28.582  1.00  0.00    -0.053 A 
ATOM     26  H   UNL A   1      42.889  23.088  28.373  1.00  0.00     0.063 H 
ATOM     27  C   UNL A   1      41.661  26.158  28.008  1.00  0.00    -0.014 A 
ATOM     28  H   UNL A   1      40.308  26.716  26.486  1.00  0.00     0.063 H 
ATOM     29  H   UNL A   1      42.880  25.242  29.465  1.00  0.00     0.063 H 
BRANCH  27  30
ATOM     30  C   UNL A   1      41.605  27.461  28.660  1.00  0.00     0.031 A 
ATOM     31  C   UNL A   1      42.747  28.360  28.326  1.00  0.00     0.074 A 
ATOM     32  C   UNL A   1      40.543  27.876  29.380  1.00  0.00     0.049 A 
ATOM     33  N   UNL A   1      43.610  28.893  29.129  1.00  0.00    -0.248 NA
ATOM     34  C   UNL A   1      43.031  28.604  26.901  1.00  0.00    -0.034 C 
ATOM     35  C   UNL A   1      39.249  27.210  29.544  1.00  0.00    -0.036 A 
ATOM     36  N   UNL A   1      40.363  29.050  30.051  1.00  0.00    -0.354 N 
ATOM     37  C   UNL A   1      44.444  29.679  28.333  1.00  0.00     0.074 A 
ATOM     38  C   UNL A   1      44.137  29.345  26.969  1.00  0.00    -0.034 C 
ATOM     39  H   UNL A   1      42.510  28.285  26.069  1.00  0.00     0.065 H 
ATOM     40  C   UNL A   1      38.355  28.084  30.063  1.00  0.00    -0.036 A 
ATOM     41  H   UNL A   1      39.049  26.226  29.302  1.00  0.00     0.065 H 
ATOM     42  C   UNL A   1      39.042  29.323  30.387  1.00  0.00     0.049 A 
ATOM     43  H   UNL A   1      41.106  29.654  30.277  1.00  0.00     0.167 HD
ATOM     44  C   UNL A   1      45.156  30.713  28.865  1.00  0.00     0.037 A 
ATOM     45  H   UNL A   1      44.697  29.639  26.154  1.00  0.00     0.065 H 
ATOM     46  H   UNL A   1      37.350  27.901  30.205  1.00  0.00     0.065 H 
ATOM     47  C   UNL A   1      38.545  30.505  30.836  1.00  0.00     0.037 A 
ATOM     48  C   UNL A   1      45.310  30.554  30.288  1.00  0.00     0.049 A 
ATOM     49  C   UNL A   1      39.686  31.307  31.343  1.00  0.00     0.074 A 
ATOM     50  C   UNL A   1      45.900  29.612  31.108  1.00  0.00    -0.036 A 
ATOM     51  N   UNL A   1      44.508  31.303  31.112  1.00  0.00    -0.354 N 
ATOM     52  N   UNL A   1      40.367  31.003  32.412  1.00  0.00    -0.248 NA
ATOM     53  C   UNL A   1      40.357  32.189  30.401  1.00  0.00    -0.034 C 
ATOM     54  C   UNL A   1      45.048  29.531  32.250  1.00  0.00    -0.036 A 
ATOM     55  H   UNL A   1      46.769  29.083  30.934  1.00  0.00     0.065 H 
ATOM     56  C   UNL A   1      44.028  30.466  32.083  1.00  0.00     0.049 A 
ATOM     57  H   UNL A   1      44.313  32.264  31.022  1.00  0.00     0.167 HD
ATOM     58  C   UNL A   1      41.682  31.281  32.077  1.00  0.00     0.074 A 
ATOM     59  C   UNL A   1      41.607  32.081  30.856  1.00  0.00    -0.034 C 
ATOM     60  H   UNL A   1      39.978  32.738  29.613  1.00  0.00     0.065 H 
ATOM     61  H   UNL A   1      45.166  28.894  33.053  1.00  0.00     0.065 H 
ATOM     62  C   UNL A   1      42.711  30.596  32.654  1.00  0.00     0.037 A 
ATOM     63  H   UNL A   1      42.425  32.513  30.399  1.00  0.00     0.065 H 
BRANCH  44  64
ATOM     64  C   UNL A   1      45.339  32.058  28.187  1.00  0.00     0.064 A 
ATOM     65  C   UNL A   1      44.189  32.806  27.855  1.00  0.00     0.173 A 
ATOM     66  C   UNL A   1      46.529  32.471  27.552  1.00  0.00     0.173 A 
ATOM     67  F   UNL A   1      43.001  32.520  28.409  1.00  0.00    -0.203 F 
ATOM     68  C   UNL A   1      44.207  33.788  26.860  1.00  0.00     0.198 A 
ATOM     69  C   UNL A   1      46.552  33.485  26.595  1.00  0.00     0.198 A 
ATOM     70  F   UNL A   1      47.699  31.849  27.737  1.00  0.00    -0.203 F 
ATOM     71  F   UNL A   1      43.059  34.358  26.469  1.00  0.00    -0.200 F 
ATOM     72  C   UNL A   1      45.385  34.113  26.218  1.00  0.00     0.200 A 
ATOM     73  F   UNL A   1      47.704  33.781  25.979  1.00  0.00    -0.200 F 
ATOM     74  F   UNL A   1      45.391  34.991  25.207  1.00  0.00    -0.200 F 
ENDBRANCH  44  64
BRANCH  47  75
ATOM     75  C   UNL A   1      37.226  31.121  30.541  1.00  0.00     0.064 A 
ATOM     76  C   UNL A   1      36.328  31.453  31.570  1.00  0.00     0.173 A 
ATOM     77  C   UNL A   1      36.944  31.660  29.271  1.00  0.00     0.173 A 
ATOM     78  F   UNL A   1      36.551  31.029  32.823  1.00  0.00    -0.203 F 
ATOM     79  C   UNL A   1      35.227  32.289  31.344  1.00  0.00     0.198 A 
ATOM     80  C   UNL A   1      35.844  32.487  29.045  1.00  0.00     0.198 A 
ATOM     81  F   UNL A   1      37.786  31.474  28.244  1.00  0.00    -0.203 F 
ATOM     82  F   UNL A   1      34.428  32.634  32.364  1.00  0.00    -0.200 F 
ATOM     83  C   UNL A   1      34.992  32.814  30.084  1.00  0.00     0.200 A 
ATOM     84  F   UNL A   1      35.652  33.021  27.830  1.00  0.00    -0.200 F 
ATOM     85  F   UNL A   1      33.976  33.663  29.880  1.00  0.00    -0.200 F 
ENDBRANCH  47  75
BRANCH  62  86
ATOM     86  C   UNL A   1      42.397  29.728  33.838  1.00  0.00     0.064 A 
ATOM     87  C   UNL A   1      41.900  28.417  33.742  1.00  0.00     0.173 A 
ATOM     88  C   UNL A   1      42.747  30.194  35.111  1.00  0.00     0.173 A 
ATOM     89  F   UNL A   1      41.639  27.863  32.551  1.00  0.00    -0.203 F 
ATOM     90  C   UNL A   1      41.720  27.627  34.876  1.00  0.00     0.198 A 
ATOM     91  C   UNL A   1      42.603  29.390  36.238  1.00  0.00     0.198 A 
ATOM     92  F   UNL A   1      43.282  31.417  35.256  1.00  0.00    -0.203 F 
ATOM     93  F   UNL A   1      41.236  26.382  34.760  1.00  0.00    -0.200 F 
ATOM     94  C   UNL A   1      42.080  28.113  36.122  1.00  0.00     0.200 A 
ATOM     95  F   UNL A   1      43.002  29.845  37.434  1.00  0.00    -0.200 F 
ATOM     96  F   UNL A   1      41.951  27.339  37.209  1.00  0.00    -0.200 F 
ENDBRANCH  62  86
ENDBRANCH  27  30
ENDBRANCH  18  20
ENDBRANCH  13  16
ENDBRANCH  10  13
ENDBRANCH   7  10
ENDBRANCH   4   7
ENDBRANCH   1   4
BRANCH   1  97
ATOM     97  C   UNL A   1      48.547  25.044  27.397  1.00  0.00     0.018 C 
ATOM     98  H   UNL A   1      49.398  24.729  26.830  1.00  0.00     0.049 H 
ATOM     99  H   UNL A   1      48.600  24.701  28.409  1.00  0.00     0.049 H 
BRANCH  97 100
ATOM    100  N   UNL A   1      48.516  26.498  27.422  1.00  0.00    -0.352 N 
ATOM    101  C   UNL A   1      47.892  27.332  28.313  1.00  0.00     0.251 C 
ATOM    102  H   UNL A   1      49.012  26.945  26.699  1.00  0.00     0.163 HD
ATOM    103  O   UNL A   1      47.854  28.548  28.114  1.00  0.00    -0.269 OA
BRANCH 101 104
ATOM    104  C   UNL A   1      47.232  26.764  29.502  1.00  0.00     0.039 A 
ATOM    105  C   UNL A   1      47.982  26.598  30.673  1.00  0.00    -0.047 A 
ATOM    106  C   UNL A   1      45.878  26.410  29.463  1.00  0.00    -0.047 A 
ATOM    107  C   UNL A   1      47.358  26.172  31.846  1.00  0.00    -0.036 A 
ATOM    108  H   UNL A   1      48.996  26.788  30.668  1.00  0.00     0.063 H 
ATOM    109  C   UNL A   1      45.261  25.945  30.620  1.00  0.00    -0.036 A 
ATOM    110  H   UNL A   1      45.344  26.493  28.584  1.00  0.00     0.063 H 
ATOM    111  C   UNL A   1      46.001  25.852  31.813  1.00  0.00     0.066 A 
ATOM    112  H   UNL A   1      47.893  26.095  32.726  1.00  0.00     0.065 H 
ATOM    113  H   UNL A   1      44.266  25.671  30.603  1.00  0.00     0.065 H 
BRANCH 111 114
ATOM    114  N   UNL A   1      45.398  25.295  32.953  1.00  0.00    -0.220 N 
ATOM    115  C   UNL A   1      46.019  24.456  33.829  1.00  0.00     0.055 A 
ATOM    116  N   UNL A   1      44.119  25.483  33.330  1.00  0.00    -0.062 NA
ATOM    117  C   UNL A   1      45.077  24.101  34.758  1.00  0.00     0.093 A 
ATOM    118  H   UNL A   1      47.003  24.149  33.798  1.00  0.00     0.086 H 
ATOM    119  N   UNL A   1      43.894  24.704  34.391  1.00  0.00    -0.134 NA
BRANCH 117 120
ATOM    120  C   UNL A   1      45.134  23.044  35.797  1.00  0.00     0.047 C 
ATOM    121  H   UNL A   1      44.208  23.112  36.328  1.00  0.00     0.045 H 
ATOM    122  H   UNL A   1      46.066  23.280  36.267  1.00  0.00     0.045 H 
BRANCH 120 123
ATOM    123  S   UNL A   1      45.368  21.297  35.460  1.00  0.00    -0.081 SA
BRANCH 123 124
ATOM    124  C   UNL A   1      46.496  20.497  36.520  1.00  0.00     0.176 A 
ATOM    125  N   UNL A   1      45.905  19.679  37.347  1.00  0.00    -0.223 NA
ATOM    126  N   UNL A   1      47.869  20.662  36.541  1.00  0.00    -0.255 N 
ATOM    127  C   UNL A   1      46.678  19.074  38.349  1.00  0.00     0.079 A 
ATOM    128  C   UNL A   1      48.407  20.679  37.834  1.00  0.00     0.266 A 
ATOM    129  C   UNL A   1      46.236  17.944  39.035  1.00  0.00    -0.035 A 
ATOM    130  C   UNL A   1      47.866  19.668  38.749  1.00  0.00     0.066 A 
ATOM    131  O   UNL A   1      49.263  21.454  38.250  1.00  0.00    -0.268 OA
ATOM    132  C   UNL A   1      46.949  17.472  40.145  1.00  0.00    -0.060 A 
ATOM    133  H   UNL A   1      45.382  17.455  38.725  1.00  0.00     0.065 H 
ATOM    134  C   UNL A   1      48.555  19.253  39.892  1.00  0.00    -0.047 A 
ATOM    135  C   UNL A   1      48.084  18.150  40.598  1.00  0.00    -0.061 A 
ATOM    136  H   UNL A   1      46.633  16.618  40.632  1.00  0.00     0.062 H 
ATOM    137  H   UNL A   1      49.399  19.757  40.207  1.00  0.00     0.063 H 
ATOM    138  H   UNL A   1      48.571  17.834  41.451  1.00  0.00     0.062 H 
BRANCH 126 139
ATOM    139  C   UNL A   1      48.767  20.866  35.424  1.00  0.00     0.051 A 
ATOM    140  C   UNL A   1      49.612  19.813  35.010  1.00  0.00    -0.038 A 
ATOM    141  C   UNL A   1      48.912  22.072  34.731  1.00  0.00    -0.038 A 
ATOM    142  C   UNL A   1      50.698  20.023  34.160  1.00  0.00    -0.060 A 
ATOM    143  H   UNL A   1      49.419  18.856  35.348  1.00  0.00     0.064 H 
ATOM    144  C   UNL A   1      50.040  22.312  33.932  1.00  0.00    -0.060 A 
ATOM    145  H   UNL A   1      48.180  22.796  34.810  1.00  0.00     0.064 H 
ATOM    146  C   UNL A   1      50.954  21.296  33.677  1.00  0.00    -0.062 A 
ATOM    147  H   UNL A   1      51.309  19.234  33.892  1.00  0.00     0.062 H 
ATOM    148  H   UNL A   1      50.192  23.249  33.528  1.00  0.00     0.062 H 
ATOM    149  H   UNL A   1      51.812  21.487  33.137  1.00  0.00     0.062 H 
ENDBRANCH 126 139
ENDBRANCH 123 124
ENDBRANCH 120 123
ENDBRANCH 117 120
ENDBRANCH 111 114
ENDBRANCH 101 104
ENDBRANCH  97 100
ENDBRANCH   1  97
TORSDOF 18
ENDMDL
MODEL 4
REMARK VINA RESULT:     -12.1      1.561      2.749
REMARK SMILES O=C(NCCCCCCNC(=O)c1ccc(-n2cc(CSc3nc4ccccc4c(=O)n3-c3ccccc3)nn2)cc1)c1ccc(-c2c3nc(c(-c4c(F)c(F)c(F)c(F)c4F)c4ccc([nH]4)c(-c4c(F)c(F)c(F)c(F)c4F)c4nc(c(-c5c(F)c(F)c(F)c(F)c5F)c5ccc2[nH]5)C=C4)C=C3)cc1
REMARK SMILES IDX 8 1 7 4 6 7 5 10 4 13 3 16 1 17 2 18 43 20 44 21 105 22
REMARK SMILES IDX 45 23 104 25 46 27 47 30 48 31 98 32 49 33 103 34 97 35
REMARK SMILES IDX 99 36 50 37 102 38 96 40 95 42 51 44 83 47 63 48 82 49 64 50
REMARK SMILES IDX 67 51 81 52 100 53 65 54 66 56 80 58 101 59 68 62 52 64
REMARK SMILES IDX 53 65 61 66 54 67 55 68 59 69 62 70 56 71 57 72 60 73 58 74
REMARK SMILES IDX 84 75 85 76 93 77 86 78 87 79 91 80 94 81 88 82 89 83 92 84
REMARK SMILES IDX 90 85 69 86 70 87 78 88 71 89 72 90 76 91 79 92 73 93 74 94
REMARK SMILES IDX 77 95 75 96 9 97 10 100 11 101 12 103 13 104 14 105 42 106
REMARK SMILES IDX 15 107 41 109 16 111 17 114 18 115 40 116 19 117 39 119
REMARK SMILES IDX 20 120 21 123 22 124 23 125 32 126 24 127 30 128 25 129
REMARK SMILES IDX 29 130 31 131 26 132 28 134 27 135 33 139 34 140 38 141
REMARK SMILES IDX 35 142 37 144 36 146
REMARK H PARENT 8 2 8 3 7 5 7 6 6 8 6 9 5 11 5 12 4 14 4 15 3 19 44 24 105 26
REMARK H PARENT 45 28 104 29 103 39 97 41 99 43 102 45 96 46 64 55 67 57
REMARK H PARENT 100 60 65 61 101 63 9 98 9 99 10 102 14 108 42 110 15 112
REMARK H PARENT 41 113 18 118 20 121 20 122 25 133 26 136 28 137 27 138 34 143
REMARK H PARENT 38 145 35 147 37 148 36 149
REMARK Flexibility Score: inf
ROOT
ATOM      1  C   UNL A   1      37.838  30.139  28.294  1.00  0.00    -0.036 C 
ATOM      2  H   UNL A   1      38.175  29.132  28.427  1.00  0.00     0.028 H 
ATOM      3  H   UNL A   1      38.487  30.723  27.675  1.00  0.00     0.028 H 
ENDROOT
BRANCH   1   4
ATOM      4  C   UNL A   1      37.824  30.820  29.664  1.00  0.00    -0.052 C 
ATOM      5  H   UNL A   1      36.817  30.816  30.024  1.00  0.00     0.027 H 
ATOM      6  H   UNL A   1      38.503  30.265  30.276  1.00  0.00     0.027 H 
BRANCH   4   7
ATOM      7  C   UNL A   1      38.326  32.267  29.686  1.00  0.00    -0.052 C 
ATOM      8  H   UNL A   1      39.210  32.299  30.289  1.00  0.00     0.027 H 
ATOM      9  H   UNL A   1      38.487  32.534  28.663  1.00  0.00     0.027 H 
BRANCH   7  10
ATOM     10  C   UNL A   1      37.343  33.307  30.238  1.00  0.00    -0.036 C 
ATOM     11  H   UNL A   1      37.263  34.099  29.523  1.00  0.00     0.028 H 
ATOM     12  H   UNL A   1      36.422  32.789  30.403  1.00  0.00     0.028 H 
BRANCH  10  13
ATOM     13  C   UNL A   1      37.737  33.920  31.582  1.00  0.00     0.018 C 
ATOM     14  H   UNL A   1      38.805  33.942  31.641  1.00  0.00     0.049 H 
ATOM     15  H   UNL A   1      37.301  34.897  31.615  1.00  0.00     0.049 H 
BRANCH  13  16
ATOM     16  N   UNL A   1      37.232  33.199  32.730  1.00  0.00    -0.352 N 
ATOM     17  O   UNL A   1      37.053  31.947  34.537  1.00  0.00    -0.269 OA
ATOM     18  C   UNL A   1      37.705  32.190  33.517  1.00  0.00     0.251 C 
ATOM     19  H   UNL A   1      36.339  33.509  33.007  1.00  0.00     0.163 HD
BRANCH  18  20
ATOM     20  C   UNL A   1      38.875  31.328  33.200  1.00  0.00     0.039 A 
ATOM     21  C   UNL A   1      40.186  31.760  32.997  1.00  0.00    -0.049 A 
ATOM     22  C   UNL A   1      38.584  29.961  33.024  1.00  0.00    -0.049 A 
ATOM     23  C   UNL A   1      41.152  30.878  32.520  1.00  0.00    -0.053 A 
ATOM     24  H   UNL A   1      40.441  32.739  33.201  1.00  0.00     0.063 H 
ATOM     25  C   UNL A   1      39.543  29.073  32.558  1.00  0.00    -0.053 A 
ATOM     26  H   UNL A   1      37.639  29.612  33.246  1.00  0.00     0.063 H 
ATOM     27  C   UNL A   1      40.814  29.548  32.258  1.00  0.00    -0.014 A 
ATOM     28  H   UNL A   1      42.117  31.207  32.359  1.00  0.00     0.063 H 
ATOM     29  H   UNL A   1      39.316  28.074  32.435  1.00  0.00     0.063 H 
BRANCH  27  30
ATOM     30  C   UNL A   1      41.861  28.641  31.801  1.00  0.00     0.031 A 
ATOM     31  C   UNL A   1      42.715  28.095  32.894  1.00  0.00     0.074 A 
ATOM     32  C   UNL A   1      41.955  28.213  30.525  1.00  0.00     0.049 A 
ATOM     33  N   UNL A   1      43.996  28.207  33.043  1.00  0.00    -0.248 NA
ATOM     34  C   UNL A   1      42.040  27.438  34.026  1.00  0.00    -0.034 C 
ATOM     35  C   UNL A   1      41.016  28.444  29.425  1.00  0.00    -0.036 A 
ATOM     36  N   UNL A   1      42.881  27.385  29.961  1.00  0.00    -0.354 N 
ATOM     37  C   UNL A   1      44.315  27.488  34.195  1.00  0.00     0.074 A 
ATOM     38  C   UNL A   1      43.066  27.169  34.834  1.00  0.00    -0.034 C 
ATOM     39  H   UNL A   1      41.036  27.237  34.159  1.00  0.00     0.065 H 
ATOM     40  C   UNL A   1      41.296  27.594  28.409  1.00  0.00    -0.036 A 
ATOM     41  H   UNL A   1      40.259  29.145  29.424  1.00  0.00     0.065 H 
ATOM     42  C   UNL A   1      42.505  26.855  28.732  1.00  0.00     0.049 A 
ATOM     43  H   UNL A   1      43.744  27.181  30.388  1.00  0.00     0.167 HD
ATOM     44  C   UNL A   1      45.575  27.015  34.404  1.00  0.00     0.037 A 
ATOM     45  H   UNL A   1      42.977  26.784  35.787  1.00  0.00     0.065 H 
ATOM     46  H   UNL A   1      40.741  27.488  27.546  1.00  0.00     0.065 H 
ATOM     47  C   UNL A   1      43.110  25.837  28.067  1.00  0.00     0.037 A 
ATOM     48  C   UNL A   1      46.536  27.737  33.610  1.00  0.00     0.049 A 
ATOM     49  C   UNL A   1      44.479  25.692  28.620  1.00  0.00     0.074 A 
ATOM     50  C   UNL A   1      46.949  29.053  33.534  1.00  0.00    -0.036 A 
ATOM     51  N   UNL A   1      47.008  27.140  32.469  1.00  0.00    -0.354 N 
ATOM     52  N   UNL A   1      45.424  26.574  28.457  1.00  0.00    -0.248 NA
ATOM     53  C   UNL A   1      44.656  24.782  29.742  1.00  0.00    -0.034 C 
ATOM     54  C   UNL A   1      47.199  29.282  32.148  1.00  0.00    -0.036 A 
ATOM     55  H   UNL A   1      47.057  29.724  34.311  1.00  0.00     0.065 H 
ATOM     56  C   UNL A   1      46.979  28.081  31.475  1.00  0.00     0.049 A 
ATOM     57  H   UNL A   1      47.312  26.207  32.380  1.00  0.00     0.167 HD
ATOM     58  C   UNL A   1      46.069  26.624  29.682  1.00  0.00     0.074 A 
ATOM     59  C   UNL A   1      45.604  25.445  30.409  1.00  0.00    -0.034 C 
ATOM     60  H   UNL A   1      44.188  23.888  29.957  1.00  0.00     0.065 H 
ATOM     61  H   UNL A   1      47.488  30.175  31.721  1.00  0.00     0.065 H 
ATOM     62  C   UNL A   1      46.692  27.764  30.099  1.00  0.00     0.037 A 
ATOM     63  H   UNL A   1      45.967  25.157  31.331  1.00  0.00     0.065 H 
BRANCH  44  64
ATOM     64  C   UNL A   1      45.886  25.647  34.984  1.00  0.00     0.064 A 
ATOM     65  C   UNL A   1      45.230  24.521  34.440  1.00  0.00     0.173 A 
ATOM     66  C   UNL A   1      46.504  25.437  36.235  1.00  0.00     0.173 A 
ATOM     67  F   UNL A   1      44.621  24.593  33.246  1.00  0.00    -0.203 F 
ATOM     68  C   UNL A   1      45.084  23.331  35.159  1.00  0.00     0.198 A 
ATOM     69  C   UNL A   1      46.397  24.231  36.927  1.00  0.00     0.198 A 
ATOM     70  F   UNL A   1      47.142  26.408  36.896  1.00  0.00    -0.203 F 
ATOM     71  F   UNL A   1      44.318  22.348  34.666  1.00  0.00    -0.200 F 
ATOM     72  C   UNL A   1      45.651  23.194  36.410  1.00  0.00     0.200 A 
ATOM     73  F   UNL A   1      46.950  24.121  38.143  1.00  0.00    -0.200 F 
ATOM     74  F   UNL A   1      45.442  22.090  37.136  1.00  0.00    -0.200 F 
ENDBRANCH  44  64
BRANCH  47  75
ATOM     75  C   UNL A   1      42.481  24.771  27.246  1.00  0.00     0.064 A 
ATOM     76  C   UNL A   1      43.110  24.270  26.093  1.00  0.00     0.173 A 
ATOM     77  C   UNL A   1      41.393  24.024  27.736  1.00  0.00     0.173 A 
ATOM     78  F   UNL A   1      44.188  24.889  25.590  1.00  0.00    -0.203 F 
ATOM     79  C   UNL A   1      42.687  23.083  25.481  1.00  0.00     0.198 A 
ATOM     80  C   UNL A   1      40.968  22.845  27.122  1.00  0.00     0.198 A 
ATOM     81  F   UNL A   1      40.782  24.368  28.878  1.00  0.00    -0.203 F 
ATOM     82  F   UNL A   1      43.350  22.604  24.419  1.00  0.00    -0.200 F 
ATOM     83  C   UNL A   1      41.623  22.366  26.002  1.00  0.00     0.200 A 
ATOM     84  F   UNL A   1      39.964  22.140  27.661  1.00  0.00    -0.200 F 
ATOM     85  F   UNL A   1      41.256  21.199  25.455  1.00  0.00    -0.200 F 
ENDBRANCH  47  75
BRANCH  62  86
ATOM     86  C   UNL A   1      46.881  28.865  29.096  1.00  0.00     0.064 A 
ATOM     87  C   UNL A   1      45.946  29.889  28.866  1.00  0.00     0.173 A 
ATOM     88  C   UNL A   1      48.119  28.963  28.448  1.00  0.00     0.173 A 
ATOM     89  F   UNL A   1      44.782  29.922  29.525  1.00  0.00    -0.203 F 
ATOM     90  C   UNL A   1      46.224  30.937  27.991  1.00  0.00     0.198 A 
ATOM     91  C   UNL A   1      48.409  30.031  27.604  1.00  0.00     0.198 A 
ATOM     92  F   UNL A   1      49.072  28.045  28.676  1.00  0.00    -0.203 F 
ATOM     93  F   UNL A   1      45.313  31.898  27.780  1.00  0.00    -0.200 F 
ATOM     94  C   UNL A   1      47.458  31.011  27.367  1.00  0.00     0.200 A 
ATOM     95  F   UNL A   1      49.623  30.126  27.045  1.00  0.00    -0.200 F 
ATOM     96  F   UNL A   1      47.745  32.043  26.561  1.00  0.00    -0.200 F 
ENDBRANCH  62  86
ENDBRANCH  27  30
ENDBRANCH  18  20
ENDBRANCH  13  16
ENDBRANCH  10  13
ENDBRANCH   7  10
ENDBRANCH   4   7
ENDBRANCH   1   4
BRANCH   1  97
ATOM     97  C   UNL A   1      36.488  30.098  27.584  1.00  0.00     0.018 C 
ATOM     98  H   UNL A   1      36.059  29.128  27.718  1.00  0.00     0.049 H 
ATOM     99  H   UNL A   1      36.658  30.313  26.549  1.00  0.00     0.049 H 
BRANCH  97 100
ATOM    100  N   UNL A   1      35.562  31.094  28.098  1.00  0.00    -0.352 N 
ATOM    101  C   UNL A   1      34.221  31.234  27.849  1.00  0.00     0.251 C 
ATOM    102  H   UNL A   1      35.951  31.760  28.710  1.00  0.00     0.163 HD
ATOM    103  O   UNL A   1      33.605  32.219  28.264  1.00  0.00    -0.269 OA
BRANCH 101 104
ATOM    104  C   UNL A   1      33.518  30.215  27.050  1.00  0.00     0.039 A 
ATOM    105  C   UNL A   1      34.028  28.911  27.024  1.00  0.00    -0.047 A 
ATOM    106  C   UNL A   1      32.356  30.544  26.342  1.00  0.00    -0.047 A 
ATOM    107  C   UNL A   1      33.322  27.900  26.372  1.00  0.00    -0.036 A 
ATOM    108  H   UNL A   1      34.926  28.699  27.485  1.00  0.00     0.063 H 
ATOM    109  C   UNL A   1      31.671  29.546  25.655  1.00  0.00    -0.036 A 
ATOM    110  H   UNL A   1      32.012  31.516  26.329  1.00  0.00     0.063 H 
ATOM    111  C   UNL A   1      32.146  28.223  25.695  1.00  0.00     0.066 A 
ATOM    112  H   UNL A   1      33.665  26.926  26.391  1.00  0.00     0.065 H 
ATOM    113  H   UNL A   1      30.818  29.777  25.121  1.00  0.00     0.065 H 
BRANCH 111 114
ATOM    114  N   UNL A   1      31.503  27.239  24.926  1.00  0.00    -0.220 N 
ATOM    115  C   UNL A   1      31.780  25.906  24.981  1.00  0.00     0.055 A 
ATOM    116  N   UNL A   1      30.548  27.469  24.006  1.00  0.00    -0.062 NA
ATOM    117  C   UNL A   1      30.981  25.306  24.044  1.00  0.00     0.093 A 
ATOM    118  H   UNL A   1      32.457  25.441  25.605  1.00  0.00     0.086 H 
ATOM    119  N   UNL A   1      30.271  26.304  23.413  1.00  0.00    -0.134 NA
BRANCH 117 120
ATOM    120  C   UNL A   1      31.028  23.920  23.519  1.00  0.00     0.047 C 
ATOM    121  H   UNL A   1      30.288  23.879  22.746  1.00  0.00     0.045 H 
ATOM    122  H   UNL A   1      30.917  23.362  24.425  1.00  0.00     0.045 H 
BRANCH 120 123
ATOM    123  S   UNL A   1      32.488  23.140  22.828  1.00  0.00    -0.081 SA
BRANCH 123 124
ATOM    124  C   UNL A   1      32.993  21.687  23.647  1.00  0.00     0.176 A 
ATOM    125  N   UNL A   1      32.396  20.624  23.185  1.00  0.00    -0.223 NA
ATOM    126  N   UNL A   1      33.913  21.596  24.677  1.00  0.00    -0.255 N 
ATOM    127  C   UNL A   1      32.603  19.405  23.846  1.00  0.00     0.079 A 
ATOM    128  C   UNL A   1      33.548  20.677  25.667  1.00  0.00     0.266 A 
ATOM    129  C   UNL A   1      32.313  18.183  23.241  1.00  0.00    -0.035 A 
ATOM    130  C   UNL A   1      33.008  19.406  25.173  1.00  0.00     0.066 A 
ATOM    131  O   UNL A   1      33.635  20.849  26.881  1.00  0.00    -0.268 OA
ATOM    132  C   UNL A   1      32.364  16.998  23.988  1.00  0.00    -0.060 A 
ATOM    133  H   UNL A   1      32.058  18.151  22.242  1.00  0.00     0.065 H 
ATOM    134  C   UNL A   1      33.002  18.245  25.952  1.00  0.00    -0.047 A 
ATOM    135  C   UNL A   1      32.669  17.034  25.352  1.00  0.00    -0.061 A 
ATOM    136  H   UNL A   1      32.176  16.093  23.529  1.00  0.00     0.062 H 
ATOM    137  H   UNL A   1      33.241  18.286  26.955  1.00  0.00     0.063 H 
ATOM    138  H   UNL A   1      32.647  16.167  25.911  1.00  0.00     0.062 H 
BRANCH 126 139
ATOM    139  C   UNL A   1      35.131  22.355  24.863  1.00  0.00     0.051 A 
ATOM    140  C   UNL A   1      36.376  21.751  24.579  1.00  0.00    -0.038 A 
ATOM    141  C   UNL A   1      35.187  23.659  25.365  1.00  0.00    -0.038 A 
ATOM    142  C   UNL A   1      37.584  22.298  25.015  1.00  0.00    -0.060 A 
ATOM    143  H   UNL A   1      36.393  20.875  24.033  1.00  0.00     0.064 H 
ATOM    144  C   UNL A   1      36.386  24.186  25.868  1.00  0.00    -0.060 A 
ATOM    145  H   UNL A   1      34.334  24.241  25.366  1.00  0.00     0.064 H 
ATOM    146  C   UNL A   1      37.579  23.487  25.727  1.00  0.00    -0.062 A 
ATOM    147  H   UNL A   1      38.475  21.821  24.808  1.00  0.00     0.062 H 
ATOM    148  H   UNL A   1      36.382  25.100  26.347  1.00  0.00     0.062 H 
ATOM    149  H   UNL A   1      38.450  23.847  26.147  1.00  0.00     0.062 H 
ENDBRANCH 126 139
ENDBRANCH 123 124
ENDBRANCH 120 123
ENDBRANCH 117 120
ENDBRANCH 111 114
ENDBRANCH 101 104
ENDBRANCH  97 100
ENDBRANCH   1  97
TORSDOF 18
ENDMDL
MODEL 5
REMARK VINA RESULT:     -12.0      5.111     10.224
REMARK SMILES O=C(NCCCCCCNC(=O)c1ccc(-n2cc(CSc3nc4ccccc4c(=O)n3-c3ccccc3)nn2)cc1)c1ccc(-c2c3nc(c(-c4c(F)c(F)c(F)c(F)c4F)c4ccc([nH]4)c(-c4c(F)c(F)c(F)c(F)c4F)c4nc(c(-c5c(F)c(F)c(F)c(F)c5F)c5ccc2[nH]5)C=C4)C=C3)cc1
REMARK SMILES IDX 8 1 7 4 6 7 5 10 4 13 3 16 1 17 2 18 43 20 44 21 105 22
REMARK SMILES IDX 45 23 104 25 46 27 47 30 48 31 98 32 49 33 103 34 97 35
REMARK SMILES IDX 99 36 50 37 102 38 96 40 95 42 51 44 83 47 63 48 82 49 64 50
REMARK SMILES IDX 67 51 81 52 100 53 65 54 66 56 80 58 101 59 68 62 52 64
REMARK SMILES IDX 53 65 61 66 54 67 55 68 59 69 62 70 56 71 57 72 60 73 58 74
REMARK SMILES IDX 84 75 85 76 93 77 86 78 87 79 91 80 94 81 88 82 89 83 92 84
REMARK SMILES IDX 90 85 69 86 70 87 78 88 71 89 72 90 76 91 79 92 73 93 74 94
REMARK SMILES IDX 77 95 75 96 9 97 10 100 11 101 12 103 13 104 14 105 42 106
REMARK SMILES IDX 15 107 41 109 16 111 17 114 18 115 40 116 19 117 39 119
REMARK SMILES IDX 20 120 21 123 22 124 23 125 32 126 24 127 30 128 25 129
REMARK SMILES IDX 29 130 31 131 26 132 28 134 27 135 33 139 34 140 38 141
REMARK SMILES IDX 35 142 37 144 36 146
REMARK H PARENT 8 2 8 3 7 5 7 6 6 8 6 9 5 11 5 12 4 14 4 15 3 19 44 24 105 26
REMARK H PARENT 45 28 104 29 103 39 97 41 99 43 102 45 96 46 64 55 67 57
REMARK H PARENT 100 60 65 61 101 63 9 98 9 99 10 102 14 108 42 110 15 112
REMARK H PARENT 41 113 18 118 20 121 20 122 25 133 26 136 28 137 27 138 34 143
REMARK H PARENT 38 145 35 147 37 148 36 149
REMARK Flexibility Score: inf
ROOT
ATOM      1  C   UNL A   1      35.866  34.260  35.131  1.00  0.00    -0.036 C 
ATOM      2  H   UNL A   1      35.313  34.075  36.028  1.00  0.00     0.028 H 
ATOM      3  H   UNL A   1      36.196  35.274  35.040  1.00  0.00     0.028 H 
ENDROOT
BRANCH   1   4
ATOM      4  C   UNL A   1      34.942  33.999  33.940  1.00  0.00    -0.052 C 
ATOM      5  H   UNL A   1      35.138  33.012  33.579  1.00  0.00     0.027 H 
ATOM      6  H   UNL A   1      33.946  34.135  34.304  1.00  0.00     0.027 H 
BRANCH   4   7
ATOM      7  C   UNL A   1      35.094  34.969  32.763  1.00  0.00    -0.052 C 
ATOM      8  H   UNL A   1      34.488  35.827  32.965  1.00  0.00     0.027 H 
ATOM      9  H   UNL A   1      36.140  35.180  32.695  1.00  0.00     0.027 H 
BRANCH   7  10
ATOM     10  C   UNL A   1      34.690  34.421  31.389  1.00  0.00    -0.036 C 
ATOM     11  H   UNL A   1      33.718  34.802  31.153  1.00  0.00     0.028 H 
ATOM     12  H   UNL A   1      35.449  34.739  30.706  1.00  0.00     0.028 H 
BRANCH  10  13
ATOM     13  C   UNL A   1      34.638  32.896  31.290  1.00  0.00     0.018 C 
ATOM     14  H   UNL A   1      35.563  32.503  31.658  1.00  0.00     0.049 H 
ATOM     15  H   UNL A   1      33.795  32.578  31.869  1.00  0.00     0.049 H 
BRANCH  13  16
ATOM     16  N   UNL A   1      34.433  32.398  29.948  1.00  0.00    -0.352 N 
ATOM     17  O   UNL A   1      34.510  31.205  28.094  1.00  0.00    -0.269 OA
ATOM     18  C   UNL A   1      35.093  31.521  29.136  1.00  0.00     0.251 C 
ATOM     19  H   UNL A   1      33.633  32.781  29.522  1.00  0.00     0.163 HD
BRANCH  18  20
ATOM     20  C   UNL A   1      36.465  30.997  29.370  1.00  0.00     0.039 A 
ATOM     21  C   UNL A   1      37.647  31.738  29.337  1.00  0.00    -0.049 A 
ATOM     22  C   UNL A   1      36.551  29.605  29.568  1.00  0.00    -0.049 A 
ATOM     23  C   UNL A   1      38.881  31.096  29.384  1.00  0.00    -0.053 A 
ATOM     24  H   UNL A   1      37.605  32.767  29.278  1.00  0.00     0.063 H 
ATOM     25  C   UNL A   1      37.777  28.958  29.625  1.00  0.00    -0.053 A 
ATOM     26  H   UNL A   1      35.684  29.054  29.673  1.00  0.00     0.063 H 
ATOM     27  C   UNL A   1      38.941  29.704  29.481  1.00  0.00    -0.014 A 
ATOM     28  H   UNL A   1      39.752  31.649  29.346  1.00  0.00     0.063 H 
ATOM     29  H   UNL A   1      37.825  27.938  29.772  1.00  0.00     0.063 H 
BRANCH  27  30
ATOM     30  C   UNL A   1      40.250  29.067  29.572  1.00  0.00     0.031 A 
ATOM     31  C   UNL A   1      40.767  28.930  30.964  1.00  0.00     0.074 A 
ATOM     32  C   UNL A   1      40.873  28.515  28.510  1.00  0.00     0.049 A 
ATOM     33  N   UNL A   1      41.859  29.410  31.464  1.00  0.00    -0.248 NA
ATOM     34  C   UNL A   1      39.898  28.271  31.954  1.00  0.00    -0.034 C 
ATOM     35  C   UNL A   1      40.350  28.328  27.155  1.00  0.00    -0.036 A 
ATOM     36  N   UNL A   1      42.092  27.907  28.448  1.00  0.00    -0.354 N 
ATOM     37  C   UNL A   1      41.903  28.969  32.787  1.00  0.00     0.074 A 
ATOM     38  C   UNL A   1      40.611  28.406  33.072  1.00  0.00    -0.034 C 
ATOM     39  H   UNL A   1      38.979  27.821  31.817  1.00  0.00     0.065 H 
ATOM     40  C   UNL A   1      41.141  27.460  26.483  1.00  0.00    -0.036 A 
ATOM     41  H   UNL A   1      39.508  28.786  26.772  1.00  0.00     0.065 H 
ATOM     42  C   UNL A   1      42.291  27.133  27.310  1.00  0.00     0.049 A 
ATOM     43  H   UNL A   1      42.775  28.007  29.150  1.00  0.00     0.167 HD
ATOM     44  C   UNL A   1      43.083  28.894  33.466  1.00  0.00     0.037 A 
ATOM     45  H   UNL A   1      40.281  28.144  34.014  1.00  0.00     0.065 H 
ATOM     46  H   UNL A   1      40.959  27.090  25.538  1.00  0.00     0.065 H 
ATOM     47  C   UNL A   1      43.294  26.242  27.099  1.00  0.00     0.037 A 
ATOM     48  C   UNL A   1      44.080  29.740  32.862  1.00  0.00     0.049 A 
ATOM     49  C   UNL A   1      44.382  26.556  28.057  1.00  0.00     0.074 A 
ATOM     50  C   UNL A   1      44.201  31.096  32.629  1.00  0.00    -0.036 A 
ATOM     51  N   UNL A   1      45.037  29.149  32.077  1.00  0.00    -0.354 N 
ATOM     52  N   UNL A   1      45.111  27.634  27.999  1.00  0.00    -0.248 NA
ATOM     53  C   UNL A   1      44.349  25.890  29.351  1.00  0.00    -0.034 C 
ATOM     54  C   UNL A   1      44.862  31.196  31.368  1.00  0.00    -0.036 A 
ATOM     55  H   UNL A   1      43.884  31.869  33.236  1.00  0.00     0.065 H 
ATOM     56  C   UNL A   1      45.154  29.903  30.940  1.00  0.00     0.049 A 
ATOM     57  H   UNL A   1      45.546  28.333  32.290  1.00  0.00     0.167 HD
ATOM     58  C   UNL A   1      45.262  28.024  29.320  1.00  0.00     0.074 A 
ATOM     59  C   UNL A   1      44.839  26.871  30.112  1.00  0.00    -0.034 C 
ATOM     60  H   UNL A   1      44.039  24.938  29.605  1.00  0.00     0.065 H 
ATOM     61  H   UNL A   1      45.082  32.070  30.865  1.00  0.00     0.065 H 
ATOM     62  C   UNL A   1      45.439  29.337  29.646  1.00  0.00     0.037 A 
ATOM     63  H   UNL A   1      44.910  26.821  31.140  1.00  0.00     0.065 H 
BRANCH  44  64
ATOM     64  C   UNL A   1      43.459  27.756  34.397  1.00  0.00     0.064 A 
ATOM     65  C   UNL A   1      43.429  26.437  33.893  1.00  0.00     0.173 A 
ATOM     66  C   UNL A   1      43.501  27.861  35.804  1.00  0.00     0.173 A 
ATOM     67  F   UNL A   1      43.406  26.209  32.571  1.00  0.00    -0.203 F 
ATOM     68  C   UNL A   1      43.304  25.327  34.733  1.00  0.00     0.198 A 
ATOM     69  C   UNL A   1      43.425  26.747  36.638  1.00  0.00     0.198 A 
ATOM     70  F   UNL A   1      43.504  29.038  36.438  1.00  0.00    -0.203 F 
ATOM     71  F   UNL A   1      43.119  24.111  34.202  1.00  0.00    -0.200 F 
ATOM     72  C   UNL A   1      43.283  25.485  36.104  1.00  0.00     0.200 A 
ATOM     73  F   UNL A   1      43.401  26.922  37.967  1.00  0.00    -0.200 F 
ATOM     74  F   UNL A   1      43.079  24.435  36.909  1.00  0.00    -0.200 F 
ENDBRANCH  44  64
BRANCH  47  75
ATOM     75  C   UNL A   1      43.236  24.943  26.380  1.00  0.00     0.064 A 
ATOM     76  C   UNL A   1      44.085  24.671  25.294  1.00  0.00     0.173 A 
ATOM     77  C   UNL A   1      42.550  23.841  26.926  1.00  0.00     0.173 A 
ATOM     78  F   UNL A   1      44.818  25.652  24.747  1.00  0.00    -0.203 F 
ATOM     79  C   UNL A   1      44.251  23.371  24.798  1.00  0.00     0.198 A 
ATOM     80  C   UNL A   1      42.712  22.548  26.428  1.00  0.00     0.198 A 
ATOM     81  F   UNL A   1      41.785  23.981  28.017  1.00  0.00    -0.203 F 
ATOM     82  F   UNL A   1      45.118  23.140  23.801  1.00  0.00    -0.200 F 
ATOM     83  C   UNL A   1      43.572  22.310  25.373  1.00  0.00     0.200 A 
ATOM     84  F   UNL A   1      42.080  21.525  27.020  1.00  0.00    -0.200 F 
ATOM     85  F   UNL A   1      43.778  21.057  24.941  1.00  0.00    -0.200 F 
ENDBRANCH  47  75
BRANCH  62  86
ATOM     86  C   UNL A   1      45.725  30.302  28.532  1.00  0.00     0.064 A 
ATOM     87  C   UNL A   1      44.731  30.926  27.758  1.00  0.00     0.173 A 
ATOM     88  C   UNL A   1      47.049  30.716  28.339  1.00  0.00     0.173 A 
ATOM     89  F   UNL A   1      43.434  30.660  27.955  1.00  0.00    -0.203 F 
ATOM     90  C   UNL A   1      45.057  31.887  26.803  1.00  0.00     0.198 A 
ATOM     91  C   UNL A   1      47.368  31.704  27.412  1.00  0.00     0.198 A 
ATOM     92  F   UNL A   1      48.032  30.197  29.091  1.00  0.00    -0.203 F 
ATOM     93  F   UNL A   1      44.092  32.463  26.070  1.00  0.00    -0.200 F 
ATOM     94  C   UNL A   1      46.374  32.280  26.637  1.00  0.00     0.200 A 
ATOM     95  F   UNL A   1      48.636  32.119  27.292  1.00  0.00    -0.200 F 
ATOM     96  F   UNL A   1      46.684  33.238  25.751  1.00  0.00    -0.200 F 
ENDBRANCH  62  86
ENDBRANCH  27  30
ENDBRANCH  18  20
ENDBRANCH  13  16
ENDBRANCH  10  13
ENDBRANCH   7  10
ENDBRANCH   4   7
ENDBRANCH   1   4
BRANCH   1  97
ATOM     97  C   UNL A   1      37.126  33.399  35.165  1.00  0.00     0.018 C 
ATOM     98  H   UNL A   1      37.355  33.166  36.184  1.00  0.00     0.049 H 
ATOM     99  H   UNL A   1      37.914  33.958  34.703  1.00  0.00     0.049 H 
BRANCH  97 100
ATOM    100  N   UNL A   1      36.970  32.158  34.426  1.00  0.00    -0.352 N 
ATOM    101  C   UNL A   1      37.674  31.705  33.340  1.00  0.00     0.251 C 
ATOM    102  H   UNL A   1      36.259  31.558  34.749  1.00  0.00     0.163 HD
ATOM    103  O   UNL A   1      37.325  30.682  32.747  1.00  0.00    -0.269 OA
BRANCH 101 104
ATOM    104  C   UNL A   1      38.840  32.468  32.859  1.00  0.00     0.039 A 
ATOM    105  C   UNL A   1      40.117  32.087  33.290  1.00  0.00    -0.047 A 
ATOM    106  C   UNL A   1      38.672  33.543  31.980  1.00  0.00    -0.047 A 
ATOM    107  C   UNL A   1      41.246  32.715  32.764  1.00  0.00    -0.036 A 
ATOM    108  H   UNL A   1      40.223  31.344  33.998  1.00  0.00     0.063 H 
ATOM    109  C   UNL A   1      39.794  34.200  31.483  1.00  0.00    -0.036 A 
ATOM    110  H   UNL A   1      37.726  33.846  31.703  1.00  0.00     0.063 H 
ATOM    111  C   UNL A   1      41.077  33.765  31.861  1.00  0.00     0.066 A 
ATOM    112  H   UNL A   1      42.192  32.406  33.037  1.00  0.00     0.065 H 
ATOM    113  H   UNL A   1      39.685  35.001  30.842  1.00  0.00     0.065 H 
BRANCH 111 114
ATOM    114  N   UNL A   1      42.202  34.488  31.430  1.00  0.00    -0.220 N 
ATOM    115  C   UNL A   1      42.696  35.597  32.050  1.00  0.00     0.055 A 
ATOM    116  N   UNL A   1      42.934  34.215  30.335  1.00  0.00    -0.062 NA
ATOM    117  C   UNL A   1      43.751  36.027  31.290  1.00  0.00     0.093 A 
ATOM    118  H   UNL A   1      42.344  36.027  32.919  1.00  0.00     0.086 H 
ATOM    119  N   UNL A   1      43.839  35.187  30.202  1.00  0.00    -0.134 NA
BRANCH 117 120
ATOM    120  C   UNL A   1      44.505  37.302  31.365  1.00  0.00     0.047 C 
ATOM    121  H   UNL A   1      45.275  37.225  30.626  1.00  0.00     0.045 H 
ATOM    122  H   UNL A   1      44.735  37.334  32.409  1.00  0.00     0.045 H 
BRANCH 120 123
ATOM    123  S   UNL A   1      43.781  38.928  31.137  1.00  0.00    -0.081 SA
BRANCH 123 124
ATOM    124  C   UNL A   1      44.074  39.642  29.575  1.00  0.00     0.176 A 
ATOM    125  N   UNL A   1      44.873  40.671  29.642  1.00  0.00    -0.223 NA
ATOM    126  N   UNL A   1      43.553  39.223  28.364  1.00  0.00    -0.255 N 
ATOM    127  C   UNL A   1      45.083  41.425  28.479  1.00  0.00     0.079 A 
ATOM    128  C   UNL A   1      43.187  40.279  27.521  1.00  0.00     0.266 A 
ATOM    129  C   UNL A   1      46.163  42.298  28.355  1.00  0.00    -0.035 A 
ATOM    130  C   UNL A   1      44.141  41.391  27.461  1.00  0.00     0.066 A 
ATOM    131  O   UNL A   1      42.156  40.349  26.856  1.00  0.00    -0.268 OA
ATOM    132  C   UNL A   1      46.245  43.165  27.257  1.00  0.00    -0.060 A 
ATOM    133  H   UNL A   1      46.903  42.307  29.074  1.00  0.00     0.065 H 
ATOM    134  C   UNL A   1      44.170  42.291  26.392  1.00  0.00    -0.047 A 
ATOM    135  C   UNL A   1      45.229  43.190  26.298  1.00  0.00    -0.061 A 
ATOM    136  H   UNL A   1      47.061  43.789  27.155  1.00  0.00     0.062 H 
ATOM    137  H   UNL A   1      43.418  42.290  25.685  1.00  0.00     0.063 H 
ATOM    138  H   UNL A   1      45.263  43.871  25.524  1.00  0.00     0.062 H 
BRANCH 126 139
ATOM    139  C   UNL A   1      43.304  37.870  27.912  1.00  0.00     0.051 A 
ATOM    140  C   UNL A   1      44.329  37.158  27.252  1.00  0.00    -0.038 A 
ATOM    141  C   UNL A   1      42.079  37.205  28.032  1.00  0.00    -0.038 A 
ATOM    142  C   UNL A   1      44.076  35.990  26.531  1.00  0.00    -0.060 A 
ATOM    143  H   UNL A   1      45.297  37.514  27.303  1.00  0.00     0.064 H 
ATOM    144  C   UNL A   1      41.797  36.072  27.255  1.00  0.00    -0.060 A 
ATOM    145  H   UNL A   1      41.373  37.554  28.700  1.00  0.00     0.064 H 
ATOM    146  C   UNL A   1      42.787  35.486  26.474  1.00  0.00    -0.062 A 
ATOM    147  H   UNL A   1      44.845  35.504  26.042  1.00  0.00     0.062 H 
ATOM    148  H   UNL A   1      40.847  35.668  27.264  1.00  0.00     0.062 H 
ATOM    149  H   UNL A   1      42.565  34.687  25.860  1.00  0.00     0.062 H 
ENDBRANCH 126 139
ENDBRANCH 123 124
ENDBRANCH 120 123
ENDBRANCH 117 120
ENDBRANCH 111 114
ENDBRANCH 101 104
ENDBRANCH  97 100
ENDBRANCH   1  97
TORSDOF 18
ENDMDL
MODEL 6
REMARK VINA RESULT:     -12.0      5.251     10.375
REMARK SMILES O=C(NCCCCCCNC(=O)c1ccc(-n2cc(CSc3nc4ccccc4c(=O)n3-c3ccccc3)nn2)cc1)c1ccc(-c2c3nc(c(-c4c(F)c(F)c(F)c(F)c4F)c4ccc([nH]4)c(-c4c(F)c(F)c(F)c(F)c4F)c4nc(c(-c5c(F)c(F)c(F)c(F)c5F)c5ccc2[nH]5)C=C4)C=C3)cc1
REMARK SMILES IDX 8 1 7 4 6 7 5 10 4 13 3 16 1 17 2 18 43 20 44 21 105 22
REMARK SMILES IDX 45 23 104 25 46 27 47 30 48 31 98 32 49 33 103 34 97 35
REMARK SMILES IDX 99 36 50 37 102 38 96 40 95 42 51 44 83 47 63 48 82 49 64 50
REMARK SMILES IDX 67 51 81 52 100 53 65 54 66 56 80 58 101 59 68 62 52 64
REMARK SMILES IDX 53 65 61 66 54 67 55 68 59 69 62 70 56 71 57 72 60 73 58 74
REMARK SMILES IDX 84 75 85 76 93 77 86 78 87 79 91 80 94 81 88 82 89 83 92 84
REMARK SMILES IDX 90 85 69 86 70 87 78 88 71 89 72 90 76 91 79 92 73 93 74 94
REMARK SMILES IDX 77 95 75 96 9 97 10 100 11 101 12 103 13 104 14 105 42 106
REMARK SMILES IDX 15 107 41 109 16 111 17 114 18 115 40 116 19 117 39 119
REMARK SMILES IDX 20 120 21 123 22 124 23 125 32 126 24 127 30 128 25 129
REMARK SMILES IDX 29 130 31 131 26 132 28 134 27 135 33 139 34 140 38 141
REMARK SMILES IDX 35 142 37 144 36 146
REMARK H PARENT 8 2 8 3 7 5 7 6 6 8 6 9 5 11 5 12 4 14 4 15 3 19 44 24 105 26
REMARK H PARENT 45 28 104 29 103 39 97 41 99 43 102 45 96 46 64 55 67 57
REMARK H PARENT 100 60 65 61 101 63 9 98 9 99 10 102 14 108 42 110 15 112
REMARK H PARENT 41 113 18 118 20 121 20 122 25 133 26 136 28 137 27 138 34 143
REMARK H PARENT 38 145 35 147 37 148 36 149
REMARK Flexibility Score: inf
ROOT
ATOM      1  C   UNL A   1      38.543  31.318  32.644  1.00  0.00    -0.036 C 
ATOM      2  H   UNL A   1      38.713  32.156  32.000  1.00  0.00     0.028 H 
ATOM      3  H   UNL A   1      38.954  30.405  32.266  1.00  0.00     0.028 H 
ENDROOT
BRANCH   1   4
ATOM      4  C   UNL A   1      37.033  31.098  32.751  1.00  0.00    -0.052 C 
ATOM      5  H   UNL A   1      36.752  30.372  32.016  1.00  0.00     0.027 H 
ATOM      6  H   UNL A   1      36.851  30.785  33.757  1.00  0.00     0.027 H 
BRANCH   4   7
ATOM      7  C   UNL A   1      36.168  32.344  32.536  1.00  0.00    -0.052 C 
ATOM      8  H   UNL A   1      35.778  32.641  33.487  1.00  0.00     0.027 H 
ATOM      9  H   UNL A   1      36.811  33.069  32.083  1.00  0.00     0.027 H 
BRANCH   7  10
ATOM     10  C   UNL A   1      34.985  32.179  31.574  1.00  0.00    -0.036 C 
ATOM     11  H   UNL A   1      35.039  31.199  31.147  1.00  0.00     0.028 H 
ATOM     12  H   UNL A   1      34.102  32.340  32.156  1.00  0.00     0.028 H 
BRANCH  10  13
ATOM     13  C   UNL A   1      34.934  33.192  30.430  1.00  0.00     0.018 C 
ATOM     14  H   UNL A   1      34.305  34.004  30.728  1.00  0.00     0.049 H 
ATOM     15  H   UNL A   1      35.943  33.498  30.244  1.00  0.00     0.049 H 
BRANCH  13  16
ATOM     16  N   UNL A   1      34.426  32.654  29.187  1.00  0.00    -0.352 N 
ATOM     17  O   UNL A   1      33.997  31.355  27.458  1.00  0.00    -0.269 OA
ATOM     18  C   UNL A   1      34.792  31.632  28.360  1.00  0.00     0.251 C 
ATOM     19  H   UNL A   1      33.633  33.139  28.863  1.00  0.00     0.163 HD
BRANCH  18  20
ATOM     20  C   UNL A   1      36.086  30.901  28.415  1.00  0.00     0.039 A 
ATOM     21  C   UNL A   1      36.264  29.527  28.254  1.00  0.00    -0.049 A 
ATOM     22  C   UNL A   1      37.209  31.690  28.734  1.00  0.00    -0.049 A 
ATOM     23  C   UNL A   1      37.499  28.941  28.516  1.00  0.00    -0.053 A 
ATOM     24  H   UNL A   1      35.475  28.941  27.937  1.00  0.00     0.063 H 
ATOM     25  C   UNL A   1      38.446  31.115  28.989  1.00  0.00    -0.053 A 
ATOM     26  H   UNL A   1      37.110  32.716  28.780  1.00  0.00     0.063 H 
ATOM     27  C   UNL A   1      38.574  29.732  28.928  1.00  0.00    -0.014 A 
ATOM     28  H   UNL A   1      37.621  27.921  28.408  1.00  0.00     0.063 H 
ATOM     29  H   UNL A   1      39.260  31.705  29.220  1.00  0.00     0.063 H 
BRANCH  27  30
ATOM     30  C   UNL A   1      39.865  29.092  29.152  1.00  0.00     0.031 A 
ATOM     31  C   UNL A   1      40.145  28.766  30.579  1.00  0.00     0.074 A 
ATOM     32  C   UNL A   1      40.670  28.692  28.146  1.00  0.00     0.049 A 
ATOM     33  N   UNL A   1      41.126  29.175  31.318  1.00  0.00    -0.248 NA
ATOM     34  C   UNL A   1      39.140  27.975  31.310  1.00  0.00    -0.034 C 
ATOM     35  C   UNL A   1      40.385  28.692  26.709  1.00  0.00    -0.036 A 
ATOM     36  N   UNL A   1      41.898  28.101  28.209  1.00  0.00    -0.354 N 
ATOM     37  C   UNL A   1      40.959  28.556  32.557  1.00  0.00     0.074 A 
ATOM     38  C   UNL A   1      39.653  27.957  32.541  1.00  0.00    -0.034 C 
ATOM     39  H   UNL A   1      38.268  27.546  30.960  1.00  0.00     0.065 H 
ATOM     40  C   UNL A   1      41.300  27.926  26.070  1.00  0.00    -0.036 A 
ATOM     41  H   UNL A   1      39.608  29.197  26.255  1.00  0.00     0.065 H 
ATOM     42  C   UNL A   1      42.303  27.492  27.027  1.00  0.00     0.049 A 
ATOM     43  H   UNL A   1      42.450  28.106  29.023  1.00  0.00     0.167 HD
ATOM     44  C   UNL A   1      42.010  28.391  33.409  1.00  0.00     0.037 A 
ATOM     45  H   UNL A   1      39.176  27.567  33.369  1.00  0.00     0.065 H 
ATOM     46  H   UNL A   1      41.287  27.690  25.066  1.00  0.00     0.065 H 
ATOM     47  C   UNL A   1      43.349  26.640  26.870  1.00  0.00     0.037 A 
ATOM     48  C   UNL A   1      43.073  29.314  33.102  1.00  0.00     0.049 A 
ATOM     49  C   UNL A   1      44.254  26.822  28.032  1.00  0.00     0.074 A 
ATOM     50  C   UNL A   1      43.197  30.690  33.078  1.00  0.00    -0.036 A 
ATOM     51  N   UNL A   1      44.163  28.839  32.417  1.00  0.00    -0.354 N 
ATOM     52  N   UNL A   1      44.955  27.899  28.244  1.00  0.00    -0.248 NA
ATOM     53  C   UNL A   1      44.022  25.984  29.199  1.00  0.00    -0.034 C 
ATOM     54  C   UNL A   1      44.056  30.964  31.972  1.00  0.00    -0.036 A 
ATOM     55  H   UNL A   1      42.763  31.371  33.721  1.00  0.00     0.065 H 
ATOM     56  C   UNL A   1      44.449  29.742  31.429  1.00  0.00     0.049 A 
ATOM     57  H   UNL A   1      44.649  28.002  32.601  1.00  0.00     0.167 HD
ATOM     58  C   UNL A   1      44.873  28.104  29.611  1.00  0.00     0.074 A 
ATOM     59  C   UNL A   1      44.353  26.852  30.157  1.00  0.00    -0.034 C 
ATOM     60  H   UNL A   1      43.698  25.006  29.266  1.00  0.00     0.065 H 
ATOM     61  H   UNL A   1      44.335  31.899  31.636  1.00  0.00     0.065 H 
ATOM     62  C   UNL A   1      44.960  29.361  30.137  1.00  0.00     0.037 A 
ATOM     63  H   UNL A   1      44.253  26.662  31.166  1.00  0.00     0.065 H 
BRANCH  44  64
ATOM     64  C   UNL A   1      42.254  27.137  34.227  1.00  0.00     0.064 A 
ATOM     65  C   UNL A   1      41.895  27.144  35.593  1.00  0.00     0.173 A 
ATOM     66  C   UNL A   1      43.118  26.090  33.838  1.00  0.00     0.173 A 
ATOM     67  F   UNL A   1      41.065  28.079  36.079  1.00  0.00    -0.203 F 
ATOM     68  C   UNL A   1      42.470  26.264  36.514  1.00  0.00     0.198 A 
ATOM     69  C   UNL A   1      43.651  25.184  34.753  1.00  0.00     0.198 A 
ATOM     70  F   UNL A   1      43.574  25.959  32.588  1.00  0.00    -0.203 F 
ATOM     71  F   UNL A   1      42.218  26.413  37.821  1.00  0.00    -0.200 F 
ATOM     72  C   UNL A   1      43.362  25.297  36.096  1.00  0.00     0.200 A 
ATOM     73  F   UNL A   1      44.520  24.256  34.328  1.00  0.00    -0.200 F 
ATOM     74  F   UNL A   1      43.979  24.508  36.984  1.00  0.00    -0.200 F 
ENDBRANCH  44  64
BRANCH  47  75
ATOM     75  C   UNL A   1      43.445  25.453  25.982  1.00  0.00     0.064 A 
ATOM     76  C   UNL A   1      44.608  25.189  25.238  1.00  0.00     0.173 A 
ATOM     77  C   UNL A   1      42.511  24.403  26.071  1.00  0.00     0.173 A 
ATOM     78  F   UNL A   1      45.575  26.113  25.146  1.00  0.00    -0.203 F 
ATOM     79  C   UNL A   1      44.828  23.943  24.635  1.00  0.00     0.198 A 
ATOM     80  C   UNL A   1      42.729  23.165  25.466  1.00  0.00     0.198 A 
ATOM     81  F   UNL A   1      41.412  24.524  26.829  1.00  0.00    -0.203 F 
ATOM     82  F   UNL A   1      45.977  23.708  23.985  1.00  0.00    -0.200 F 
ATOM     83  C   UNL A   1      43.893  22.929  24.759  1.00  0.00     0.200 A 
ATOM     84  F   UNL A   1      41.834  22.180  25.628  1.00  0.00    -0.200 F 
ATOM     85  F   UNL A   1      44.131  21.718  24.237  1.00  0.00    -0.200 F 
ENDBRANCH  47  75
BRANCH  62  86
ATOM     86  C   UNL A   1      45.403  30.470  29.228  1.00  0.00     0.064 A 
ATOM     87  C   UNL A   1      44.535  31.204  28.402  1.00  0.00     0.173 A 
ATOM     88  C   UNL A   1      46.735  30.897  29.307  1.00  0.00     0.173 A 
ATOM     89  F   UNL A   1      43.227  30.923  28.352  1.00  0.00    -0.203 F 
ATOM     90  C   UNL A   1      44.992  32.287  27.655  1.00  0.00     0.198 A 
ATOM     91  C   UNL A   1      47.181  32.002  28.589  1.00  0.00     0.198 A 
ATOM     92  F   UNL A   1      47.595  30.270  30.124  1.00  0.00    -0.203 F 
ATOM     93  F   UNL A   1      44.146  32.967  26.866  1.00  0.00    -0.200 F 
ATOM     94  C   UNL A   1      46.313  32.690  27.755  1.00  0.00     0.200 A 
ATOM     95  F   UNL A   1      48.446  32.420  28.730  1.00  0.00    -0.200 F 
ATOM     96  F   UNL A   1      46.745  33.759  27.072  1.00  0.00    -0.200 F 
ENDBRANCH  62  86
ENDBRANCH  27  30
ENDBRANCH  18  20
ENDBRANCH  13  16
ENDBRANCH  10  13
ENDBRANCH   7  10
ENDBRANCH   4   7
ENDBRANCH   1   4
BRANCH   1  97
ATOM     97  C   UNL A   1      39.247  31.589  33.970  1.00  0.00     0.018 C 
ATOM     98  H   UNL A   1      40.296  31.693  33.787  1.00  0.00     0.049 H 
ATOM     99  H   UNL A   1      39.042  30.766  34.622  1.00  0.00     0.049 H 
BRANCH  97 100
ATOM    100  N   UNL A   1      38.765  32.799  34.617  1.00  0.00    -0.352 N 
ATOM    101  C   UNL A   1      39.005  34.107  34.288  1.00  0.00     0.251 C 
ATOM    102  H   UNL A   1      38.184  32.658  35.400  1.00  0.00     0.163 HD
ATOM    103  O   UNL A   1      38.624  35.020  35.025  1.00  0.00    -0.269 OA
BRANCH 101 104
ATOM    104  C   UNL A   1      39.754  34.424  33.059  1.00  0.00     0.039 A 
ATOM    105  C   UNL A   1      41.144  34.568  33.137  1.00  0.00    -0.047 A 
ATOM    106  C   UNL A   1      39.087  34.565  31.836  1.00  0.00    -0.047 A 
ATOM    107  C   UNL A   1      41.893  34.753  31.974  1.00  0.00    -0.036 A 
ATOM    108  H   UNL A   1      41.615  34.540  34.055  1.00  0.00     0.063 H 
ATOM    109  C   UNL A   1      39.826  34.791  30.679  1.00  0.00    -0.036 A 
ATOM    110  H   UNL A   1      38.058  34.502  31.794  1.00  0.00     0.063 H 
ATOM    111  C   UNL A   1      41.229  34.859  30.752  1.00  0.00     0.066 A 
ATOM    112  H   UNL A   1      42.923  34.809  32.018  1.00  0.00     0.065 H 
ATOM    113  H   UNL A   1      39.346  34.907  29.772  1.00  0.00     0.065 H 
BRANCH 111 114
ATOM    114  N   UNL A   1      41.962  35.179  29.597  1.00  0.00    -0.220 N 
ATOM    115  C   UNL A   1      43.274  35.548  29.587  1.00  0.00     0.055 A 
ATOM    116  N   UNL A   1      41.474  35.198  28.343  1.00  0.00    -0.062 NA
ATOM    117  C   UNL A   1      43.588  35.825  28.283  1.00  0.00     0.093 A 
ATOM    118  H   UNL A   1      43.905  35.608  30.401  1.00  0.00     0.086 H 
ATOM    119  N   UNL A   1      42.439  35.657  27.542  1.00  0.00    -0.134 NA
BRANCH 117 120
ATOM    120  C   UNL A   1      44.796  36.481  27.727  1.00  0.00     0.047 C 
ATOM    121  H   UNL A   1      45.184  35.800  26.998  1.00  0.00     0.045 H 
ATOM    122  H   UNL A   1      45.333  36.701  28.626  1.00  0.00     0.045 H 
BRANCH 120 123
ATOM    123  S   UNL A   1      44.807  38.090  26.934  1.00  0.00    -0.081 SA
BRANCH 123 124
ATOM    124  C   UNL A   1      43.973  39.341  27.816  1.00  0.00     0.176 A 
ATOM    125  N   UNL A   1      44.210  39.287  29.098  1.00  0.00    -0.223 NA
ATOM    126  N   UNL A   1      43.140  40.311  27.286  1.00  0.00    -0.255 N 
ATOM    127  C   UNL A   1      43.494  40.146  29.943  1.00  0.00     0.079 A 
ATOM    128  C   UNL A   1      42.017  40.572  28.080  1.00  0.00     0.266 A 
ATOM    129  C   UNL A   1      43.915  40.416  31.244  1.00  0.00    -0.035 A 
ATOM    130  C   UNL A   1      42.277  40.664  29.521  1.00  0.00     0.066 A 
ATOM    131  O   UNL A   1      40.866  40.717  27.678  1.00  0.00    -0.268 OA
ATOM    132  C   UNL A   1      43.087  41.135  32.117  1.00  0.00    -0.060 A 
ATOM    133  H   UNL A   1      44.838  40.084  31.565  1.00  0.00     0.065 H 
ATOM    134  C   UNL A   1      41.410  41.326  30.394  1.00  0.00    -0.047 A 
ATOM    135  C   UNL A   1      41.819  41.554  31.705  1.00  0.00    -0.061 A 
ATOM    136  H   UNL A   1      43.416  41.357  33.070  1.00  0.00     0.062 H 
ATOM    137  H   UNL A   1      40.480  41.640  30.072  1.00  0.00     0.063 H 
ATOM    138  H   UNL A   1      41.189  42.030  32.369  1.00  0.00     0.062 H 
BRANCH 126 139
ATOM    139  C   UNL A   1      43.267  41.015  26.028  1.00  0.00     0.051 A 
ATOM    140  C   UNL A   1      44.508  41.590  25.676  1.00  0.00    -0.038 A 
ATOM    141  C   UNL A   1      42.219  41.226  25.126  1.00  0.00    -0.038 A 
ATOM    142  C   UNL A   1      44.628  42.527  24.648  1.00  0.00    -0.060 A 
ATOM    143  H   UNL A   1      45.354  41.309  26.197  1.00  0.00     0.064 H 
ATOM    144  C   UNL A   1      42.311  42.217  24.137  1.00  0.00    -0.060 A 
ATOM    145  H   UNL A   1      41.368  40.647  25.190  1.00  0.00     0.064 H 
ATOM    146  C   UNL A   1      43.506  42.894  23.923  1.00  0.00    -0.062 A 
ATOM    147  H   UNL A   1      45.546  42.943  24.429  1.00  0.00     0.062 H 
ATOM    148  H   UNL A   1      41.485  42.443  23.561  1.00  0.00     0.062 H 
ATOM    149  H   UNL A   1      43.557  43.661  23.234  1.00  0.00     0.062 H 
ENDBRANCH 126 139
ENDBRANCH 123 124
ENDBRANCH 120 123
ENDBRANCH 117 120
ENDBRANCH 111 114
ENDBRANCH 101 104
ENDBRANCH  97 100
ENDBRANCH   1  97
TORSDOF 18
ENDMDL
MODEL 7
REMARK VINA RESULT:     -11.9      5.529     10.733
REMARK SMILES O=C(NCCCCCCNC(=O)c1ccc(-n2cc(CSc3nc4ccccc4c(=O)n3-c3ccccc3)nn2)cc1)c1ccc(-c2c3nc(c(-c4c(F)c(F)c(F)c(F)c4F)c4ccc([nH]4)c(-c4c(F)c(F)c(F)c(F)c4F)c4nc(c(-c5c(F)c(F)c(F)c(F)c5F)c5ccc2[nH]5)C=C4)C=C3)cc1
REMARK SMILES IDX 8 1 7 4 6 7 5 10 4 13 3 16 1 17 2 18 43 20 44 21 105 22
REMARK SMILES IDX 45 23 104 25 46 27 47 30 48 31 98 32 49 33 103 34 97 35
REMARK SMILES IDX 99 36 50 37 102 38 96 40 95 42 51 44 83 47 63 48 82 49 64 50
REMARK SMILES IDX 67 51 81 52 100 53 65 54 66 56 80 58 101 59 68 62 52 64
REMARK SMILES IDX 53 65 61 66 54 67 55 68 59 69 62 70 56 71 57 72 60 73 58 74
REMARK SMILES IDX 84 75 85 76 93 77 86 78 87 79 91 80 94 81 88 82 89 83 92 84
REMARK SMILES IDX 90 85 69 86 70 87 78 88 71 89 72 90 76 91 79 92 73 93 74 94
REMARK SMILES IDX 77 95 75 96 9 97 10 100 11 101 12 103 13 104 14 105 42 106
REMARK SMILES IDX 15 107 41 109 16 111 17 114 18 115 40 116 19 117 39 119
REMARK SMILES IDX 20 120 21 123 22 124 23 125 32 126 24 127 30 128 25 129
REMARK SMILES IDX 29 130 31 131 26 132 28 134 27 135 33 139 34 140 38 141
REMARK SMILES IDX 35 142 37 144 36 146
REMARK H PARENT 8 2 8 3 7 5 7 6 6 8 6 9 5 11 5 12 4 14 4 15 3 19 44 24 105 26
REMARK H PARENT 45 28 104 29 103 39 97 41 99 43 102 45 96 46 64 55 67 57
REMARK H PARENT 100 60 65 61 101 63 9 98 9 99 10 102 14 108 42 110 15 112
REMARK H PARENT 41 113 18 118 20 121 20 122 25 133 26 136 28 137 27 138 34 143
REMARK H PARENT 38 145 35 147 37 148 36 149
REMARK Flexibility Score: inf
ROOT
ATOM      1  C   UNL A   1      36.476  32.453  32.132  1.00  0.00    -0.036 C 
ATOM      2  H   UNL A   1      36.844  32.584  31.136  1.00  0.00     0.028 H 
ATOM      3  H   UNL A   1      36.612  31.459  32.506  1.00  0.00     0.028 H 
ENDROOT
BRANCH   1   4
ATOM      4  C   UNL A   1      34.967  32.704  32.119  1.00  0.00    -0.052 C 
ATOM      5  H   UNL A   1      34.480  31.803  32.430  1.00  0.00     0.027 H 
ATOM      6  H   UNL A   1      34.800  33.532  32.775  1.00  0.00     0.027 H 
BRANCH   4   7
ATOM      7  C   UNL A   1      34.379  33.115  30.766  1.00  0.00    -0.052 C 
ATOM      8  H   UNL A   1      34.337  32.243  30.147  1.00  0.00     0.027 H 
ATOM      9  H   UNL A   1      33.422  33.541  30.983  1.00  0.00     0.027 H 
BRANCH   7  10
ATOM     10  C   UNL A   1      35.152  34.197  30.002  1.00  0.00    -0.036 C 
ATOM     11  H   UNL A   1      34.726  35.147  30.250  1.00  0.00     0.028 H 
ATOM     12  H   UNL A   1      36.175  34.099  30.299  1.00  0.00     0.028 H 
BRANCH  10  13
ATOM     13  C   UNL A   1      35.133  34.052  28.480  1.00  0.00     0.018 C 
ATOM     14  H   UNL A   1      34.574  34.868  28.072  1.00  0.00     0.049 H 
ATOM     15  H   UNL A   1      36.154  34.049  28.158  1.00  0.00     0.049 H 
BRANCH  13  16
ATOM     16  N   UNL A   1      34.544  32.817  28.011  1.00  0.00    -0.352 N 
ATOM     17  O   UNL A   1      34.032  30.693  27.709  1.00  0.00    -0.269 OA
ATOM     18  C   UNL A   1      34.890  31.499  28.082  1.00  0.00     0.251 C 
ATOM     19  H   UNL A   1      33.698  32.962  27.530  1.00  0.00     0.163 HD
BRANCH  18  20
ATOM     20  C   UNL A   1      36.224  30.979  28.486  1.00  0.00     0.039 A 
ATOM     21  C   UNL A   1      37.381  31.737  28.675  1.00  0.00    -0.049 A 
ATOM     22  C   UNL A   1      36.311  29.579  28.612  1.00  0.00    -0.049 A 
ATOM     23  C   UNL A   1      38.609  31.110  28.867  1.00  0.00    -0.053 A 
ATOM     24  H   UNL A   1      37.325  32.767  28.672  1.00  0.00     0.063 H 
ATOM     25  C   UNL A   1      37.530  28.947  28.812  1.00  0.00    -0.053 A 
ATOM     26  H   UNL A   1      35.451  29.011  28.552  1.00  0.00     0.063 H 
ATOM     27  C   UNL A   1      38.685  29.715  28.889  1.00  0.00    -0.014 A 
ATOM     28  H   UNL A   1      39.463  31.675  28.993  1.00  0.00     0.063 H 
ATOM     29  H   UNL A   1      37.578  27.920  28.904  1.00  0.00     0.063 H 
BRANCH  27  30
ATOM     30  C   UNL A   1      39.980  29.092  29.137  1.00  0.00     0.031 A 
ATOM     31  C   UNL A   1      40.326  28.956  30.580  1.00  0.00     0.074 A 
ATOM     32  C   UNL A   1      40.732  28.549  28.157  1.00  0.00     0.049 A 
ATOM     33  N   UNL A   1      41.345  29.446  31.210  1.00  0.00    -0.248 NA
ATOM     34  C   UNL A   1      39.351  28.285  31.457  1.00  0.00    -0.034 C 
ATOM     35  C   UNL A   1      40.379  28.360  26.748  1.00  0.00    -0.036 A 
ATOM     36  N   UNL A   1      41.956  27.954  28.241  1.00  0.00    -0.354 N 
ATOM     37  C   UNL A   1      41.233  29.001  32.528  1.00  0.00     0.074 A 
ATOM     38  C   UNL A   1      39.922  28.425  32.653  1.00  0.00    -0.034 C 
ATOM     39  H   UNL A   1      38.460  27.826  31.209  1.00  0.00     0.065 H 
ATOM     40  C   UNL A   1      41.255  27.503  26.176  1.00  0.00    -0.036 A 
ATOM     41  H   UNL A   1      39.585  28.812  26.267  1.00  0.00     0.065 H 
ATOM     42  C   UNL A   1      42.299  27.185  27.134  1.00  0.00     0.049 A 
ATOM     43  H   UNL A   1      42.548  28.059  29.021  1.00  0.00     0.167 HD
ATOM     44  C   UNL A   1      42.323  28.936  33.344  1.00  0.00     0.037 A 
ATOM     45  H   UNL A   1      39.483  28.156  33.548  1.00  0.00     0.065 H 
ATOM     46  H   UNL A   1      41.191  27.133  25.214  1.00  0.00     0.065 H 
ATOM     47  C   UNL A   1      43.329  26.305  27.045  1.00  0.00     0.037 A 
ATOM     48  C   UNL A   1      43.377  29.794  32.866  1.00  0.00     0.049 A 
ATOM     49  C   UNL A   1      44.290  26.627  28.128  1.00  0.00     0.074 A 
ATOM     50  C   UNL A   1      43.511  31.152  32.652  1.00  0.00    -0.036 A 
ATOM     51  N   UNL A   1      44.428  29.215  32.201  1.00  0.00    -0.354 N 
ATOM     52  N   UNL A   1      45.010  27.713  28.160  1.00  0.00    -0.248 NA
ATOM     53  C   UNL A   1      44.108  25.957  29.407  1.00  0.00    -0.034 C 
ATOM     54  C   UNL A   1      44.318  31.263  31.480  1.00  0.00    -0.036 A 
ATOM     55  H   UNL A   1      43.115  31.920  33.217  1.00  0.00     0.065 H 
ATOM     56  C   UNL A   1      44.674  29.973  31.089  1.00  0.00     0.049 A 
ATOM     57  H   UNL A   1      44.916  28.404  32.474  1.00  0.00     0.167 HD
ATOM     58  C   UNL A   1      44.996  28.101  29.490  1.00  0.00     0.074 A 
ATOM     59  C   UNL A   1      44.492  26.941  30.223  1.00  0.00    -0.034 C 
ATOM     60  H   UNL A   1      43.780  25.002  29.620  1.00  0.00     0.065 H 
ATOM     61  H   UNL A   1      44.588  32.140  31.009  1.00  0.00     0.065 H 
ATOM     62  C   UNL A   1      45.119  29.415  29.837  1.00  0.00     0.037 A 
ATOM     63  H   UNL A   1      44.440  26.889  31.252  1.00  0.00     0.065 H 
BRANCH  44  64
ATOM     64  C   UNL A   1      42.596  27.800  34.311  1.00  0.00     0.064 A 
ATOM     65  C   UNL A   1      43.116  26.591  33.800  1.00  0.00     0.173 A 
ATOM     66  C   UNL A   1      42.057  27.719  35.614  1.00  0.00     0.173 A 
ATOM     67  F   UNL A   1      43.671  26.546  32.579  1.00  0.00    -0.203 F 
ATOM     68  C   UNL A   1      42.975  25.378  34.479  1.00  0.00     0.198 A 
ATOM     69  C   UNL A   1      41.963  26.514  36.309  1.00  0.00     0.198 A 
ATOM     70  F   UNL A   1      41.500  28.767  36.230  1.00  0.00    -0.203 F 
ATOM     71  F   UNL A   1      43.343  24.236  33.882  1.00  0.00    -0.200 F 
ATOM     72  C   UNL A   1      42.381  25.338  35.725  1.00  0.00     0.200 A 
ATOM     73  F   UNL A   1      41.378  26.495  37.514  1.00  0.00    -0.200 F 
ATOM     74  F   UNL A   1      42.168  24.169  36.342  1.00  0.00    -0.200 F 
ENDBRANCH  44  64
BRANCH  47  75
ATOM     75  C   UNL A   1      43.372  25.008  26.322  1.00  0.00     0.064 A 
ATOM     76  C   UNL A   1      44.315  24.768  25.307  1.00  0.00     0.173 A 
ATOM     77  C   UNL A   1      42.681  23.882  26.809  1.00  0.00     0.173 A 
ATOM     78  F   UNL A   1      45.057  25.774  24.823  1.00  0.00    -0.203 F 
ATOM     79  C   UNL A   1      44.564  23.476  24.825  1.00  0.00     0.198 A 
ATOM     80  C   UNL A   1      42.925  22.597  26.324  1.00  0.00     0.198 A 
ATOM     81  F   UNL A   1      41.826  23.993  27.835  1.00  0.00    -0.203 F 
ATOM     82  F   UNL A   1      45.515  23.277  23.901  1.00  0.00    -0.200 F 
ATOM     83  C   UNL A   1      43.876  22.390  25.342  1.00  0.00     0.200 A 
ATOM     84  F   UNL A   1      42.282  21.551  26.862  1.00  0.00    -0.200 F 
ATOM     85  F   UNL A   1      44.156  21.147  24.927  1.00  0.00    -0.200 F 
ENDBRANCH  47  75
BRANCH  62  86
ATOM     86  C   UNL A   1      45.527  30.386  28.768  1.00  0.00     0.064 A 
ATOM     87  C   UNL A   1      44.626  31.011  27.888  1.00  0.00     0.173 A 
ATOM     88  C   UNL A   1      46.863  30.804  28.729  1.00  0.00     0.173 A 
ATOM     89  F   UNL A   1      43.316  30.740  27.934  1.00  0.00    -0.203 F 
ATOM     90  C   UNL A   1      45.056  31.977  26.981  1.00  0.00     0.198 A 
ATOM     91  C   UNL A   1      47.283  31.797  27.849  1.00  0.00     0.198 A 
ATOM     92  F   UNL A   1      47.755  30.284  29.586  1.00  0.00    -0.203 F 
ATOM     93  F   UNL A   1      44.179  32.554  26.146  1.00  0.00    -0.200 F 
ATOM     94  C   UNL A   1      46.382  32.375  26.968  1.00  0.00     0.200 A 
ATOM     95  F   UNL A   1      48.555  32.216  27.877  1.00  0.00    -0.200 F 
ATOM     96  F   UNL A   1      46.788  33.337  26.128  1.00  0.00    -0.200 F 
ENDBRANCH  62  86
ENDBRANCH  27  30
ENDBRANCH  18  20
ENDBRANCH  13  16
ENDBRANCH  10  13
ENDBRANCH   7  10
ENDBRANCH   4   7
ENDBRANCH   1   4
BRANCH   1  97
ATOM     97  C   UNL A   1      37.271  33.372  33.056  1.00  0.00     0.018 C 
ATOM     98  H   UNL A   1      36.585  33.956  33.632  1.00  0.00     0.049 H 
ATOM     99  H   UNL A   1      37.894  33.989  32.443  1.00  0.00     0.049 H 
BRANCH  97 100
ATOM    100  N   UNL A   1      38.133  32.633  33.964  1.00  0.00    -0.352 N 
ATOM    101  C   UNL A   1      39.481  32.399  33.876  1.00  0.00     0.251 C 
ATOM    102  H   UNL A   1      37.687  32.248  34.753  1.00  0.00     0.163 HD
ATOM    103  O   UNL A   1      40.039  31.636  34.667  1.00  0.00    -0.269 OA
BRANCH 101 104
ATOM    104  C   UNL A   1      40.262  33.039  32.802  1.00  0.00     0.039 A 
ATOM    105  C   UNL A   1      41.008  34.185  33.105  1.00  0.00    -0.047 A 
ATOM    106  C   UNL A   1      40.266  32.503  31.509  1.00  0.00    -0.047 A 
ATOM    107  C   UNL A   1      41.846  34.746  32.141  1.00  0.00    -0.036 A 
ATOM    108  H   UNL A   1      40.935  34.616  34.040  1.00  0.00     0.063 H 
ATOM    109  C   UNL A   1      41.070  33.084  30.533  1.00  0.00    -0.036 A 
ATOM    110  H   UNL A   1      39.679  31.685  31.283  1.00  0.00     0.063 H 
ATOM    111  C   UNL A   1      41.875  34.189  30.863  1.00  0.00     0.066 A 
ATOM    112  H   UNL A   1      42.438  35.560  32.372  1.00  0.00     0.065 H 
ATOM    113  H   UNL A   1      41.075  32.705  29.573  1.00  0.00     0.065 H 
BRANCH 111 114
ATOM    114  N   UNL A   1      42.612  34.827  29.852  1.00  0.00    -0.220 N 
ATOM    115  C   UNL A   1      42.224  35.962  29.205  1.00  0.00     0.055 A 
ATOM    116  N   UNL A   1      43.788  34.400  29.355  1.00  0.00    -0.062 NA
ATOM    117  C   UNL A   1      43.185  36.220  28.264  1.00  0.00     0.093 A 
ATOM    118  H   UNL A   1      41.373  36.516  29.388  1.00  0.00     0.086 H 
ATOM    119  N   UNL A   1      44.112  35.204  28.339  1.00  0.00    -0.134 NA
BRANCH 117 120
ATOM    120  C   UNL A   1      43.163  37.186  27.139  1.00  0.00     0.047 C 
ATOM    121  H   UNL A   1      43.103  36.592  26.251  1.00  0.00     0.045 H 
ATOM    122  H   UNL A   1      44.033  37.768  27.362  1.00  0.00     0.045 H 
BRANCH 120 123
ATOM    123  S   UNL A   1      41.942  38.483  26.934  1.00  0.00    -0.081 SA
BRANCH 123 124
ATOM    124  C   UNL A   1      42.604  40.086  26.759  1.00  0.00     0.176 A 
ATOM    125  N   UNL A   1      42.409  40.576  25.567  1.00  0.00    -0.223 NA
ATOM    126  N   UNL A   1      43.274  40.812  27.728  1.00  0.00    -0.255 N 
ATOM    127  C   UNL A   1      43.012  41.800  25.245  1.00  0.00     0.079 A 
ATOM    128  C   UNL A   1      44.365  41.532  27.226  1.00  0.00     0.266 A 
ATOM    129  C   UNL A   1      42.586  42.566  24.160  1.00  0.00    -0.035 A 
ATOM    130  C   UNL A   1      44.129  42.220  25.953  1.00  0.00     0.066 A 
ATOM    131  O   UNL A   1      45.474  41.621  27.749  1.00  0.00    -0.268 OA
ATOM    132  C   UNL A   1      43.321  43.691  23.762  1.00  0.00    -0.060 A 
ATOM    133  H   UNL A   1      41.730  42.302  23.649  1.00  0.00     0.065 H 
ATOM    134  C   UNL A   1      44.911  43.299  25.533  1.00  0.00    -0.047 A 
ATOM    135  C   UNL A   1      44.505  44.033  24.423  1.00  0.00    -0.061 A 
ATOM    136  H   UNL A   1      42.986  44.270  22.976  1.00  0.00     0.062 H 
ATOM    137  H   UNL A   1      45.777  43.547  26.038  1.00  0.00     0.063 H 
ATOM    138  H   UNL A   1      45.073  44.826  24.088  1.00  0.00     0.062 H 
BRANCH 126 139
ATOM    139  C   UNL A   1      43.016  40.865  29.151  1.00  0.00     0.051 A 
ATOM    140  C   UNL A   1      41.687  40.998  29.611  1.00  0.00    -0.038 A 
ATOM    141  C   UNL A   1      44.005  40.848  30.139  1.00  0.00    -0.038 A 
ATOM    142  C   UNL A   1      41.390  41.358  30.927  1.00  0.00    -0.060 A 
ATOM    143  H   UNL A   1      40.911  40.825  28.953  1.00  0.00     0.064 H 
ATOM    144  C   UNL A   1      43.724  41.277  31.446  1.00  0.00    -0.060 A 
ATOM    145  H   UNL A   1      44.954  40.517  29.905  1.00  0.00     0.064 H 
ATOM    146  C   UNL A   1      42.420  41.568  31.829  1.00  0.00    -0.062 A 
ATOM    147  H   UNL A   1      40.408  41.466  31.227  1.00  0.00     0.062 H 
ATOM    148  H   UNL A   1      44.492  41.375  32.128  1.00  0.00     0.062 H 
ATOM    149  H   UNL A   1      42.221  41.937  32.772  1.00  0.00     0.062 H 
ENDBRANCH 126 139
ENDBRANCH 123 124
ENDBRANCH 120 123
ENDBRANCH 117 120
ENDBRANCH 111 114
ENDBRANCH 101 104
ENDBRANCH  97 100
ENDBRANCH   1  97
TORSDOF 18
ENDMDL
MODEL 8
REMARK VINA RESULT:     -11.9      5.247     10.574
REMARK SMILES O=C(NCCCCCCNC(=O)c1ccc(-n2cc(CSc3nc4ccccc4c(=O)n3-c3ccccc3)nn2)cc1)c1ccc(-c2c3nc(c(-c4c(F)c(F)c(F)c(F)c4F)c4ccc([nH]4)c(-c4c(F)c(F)c(F)c(F)c4F)c4nc(c(-c5c(F)c(F)c(F)c(F)c5F)c5ccc2[nH]5)C=C4)C=C3)cc1
REMARK SMILES IDX 8 1 7 4 6 7 5 10 4 13 3 16 1 17 2 18 43 20 44 21 105 22
REMARK SMILES IDX 45 23 104 25 46 27 47 30 48 31 98 32 49 33 103 34 97 35
REMARK SMILES IDX 99 36 50 37 102 38 96 40 95 42 51 44 83 47 63 48 82 49 64 50
REMARK SMILES IDX 67 51 81 52 100 53 65 54 66 56 80 58 101 59 68 62 52 64
REMARK SMILES IDX 53 65 61 66 54 67 55 68 59 69 62 70 56 71 57 72 60 73 58 74
REMARK SMILES IDX 84 75 85 76 93 77 86 78 87 79 91 80 94 81 88 82 89 83 92 84
REMARK SMILES IDX 90 85 69 86 70 87 78 88 71 89 72 90 76 91 79 92 73 93 74 94
REMARK SMILES IDX 77 95 75 96 9 97 10 100 11 101 12 103 13 104 14 105 42 106
REMARK SMILES IDX 15 107 41 109 16 111 17 114 18 115 40 116 19 117 39 119
REMARK SMILES IDX 20 120 21 123 22 124 23 125 32 126 24 127 30 128 25 129
REMARK SMILES IDX 29 130 31 131 26 132 28 134 27 135 33 139 34 140 38 141
REMARK SMILES IDX 35 142 37 144 36 146
REMARK H PARENT 8 2 8 3 7 5 7 6 6 8 6 9 5 11 5 12 4 14 4 15 3 19 44 24 105 26
REMARK H PARENT 45 28 104 29 103 39 97 41 99 43 102 45 96 46 64 55 67 57
REMARK H PARENT 100 60 65 61 101 63 9 98 9 99 10 102 14 108 42 110 15 112
REMARK H PARENT 41 113 18 118 20 121 20 122 25 133 26 136 28 137 27 138 34 143
REMARK H PARENT 38 145 35 147 37 148 36 149
REMARK Flexibility Score: inf
ROOT
ATOM      1  C   UNL A   1      36.676  32.890  33.965  1.00  0.00    -0.036 C 
ATOM      2  H   UNL A   1      36.292  32.537  34.900  1.00  0.00     0.028 H 
ATOM      3  H   UNL A   1      35.991  33.522  33.439  1.00  0.00     0.028 H 
ENDROOT
BRANCH   1   4
ATOM      4  C   UNL A   1      36.923  31.679  33.064  1.00  0.00    -0.052 C 
ATOM      5  H   UNL A   1      37.835  31.846  32.529  1.00  0.00     0.027 H 
ATOM      6  H   UNL A   1      36.953  30.829  33.713  1.00  0.00     0.027 H 
BRANCH   4   7
ATOM      7  C   UNL A   1      35.824  31.385  32.038  1.00  0.00    -0.052 C 
ATOM      8  H   UNL A   1      36.294  31.205  31.094  1.00  0.00     0.027 H 
ATOM      9  H   UNL A   1      35.285  30.545  32.423  1.00  0.00     0.027 H 
BRANCH   7  10
ATOM     10  C   UNL A   1      34.782  32.493  31.840  1.00  0.00    -0.036 C 
ATOM     11  H   UNL A   1      33.823  32.031  31.730  1.00  0.00     0.028 H 
ATOM     12  H   UNL A   1      34.852  33.127  32.699  1.00  0.00     0.028 H 
BRANCH  10  13
ATOM     13  C   UNL A   1      35.017  33.391  30.625  1.00  0.00     0.018 C 
ATOM     14  H   UNL A   1      34.547  34.335  30.808  1.00  0.00     0.049 H 
ATOM     15  H   UNL A   1      36.077  33.475  30.503  1.00  0.00     0.049 H 
BRANCH  13  16
ATOM     16  N   UNL A   1      34.495  32.857  29.386  1.00  0.00    -0.352 N 
ATOM     17  O   UNL A   1      34.035  31.556  27.666  1.00  0.00    -0.269 OA
ATOM     18  C   UNL A   1      34.837  31.821  28.565  1.00  0.00     0.251 C 
ATOM     19  H   UNL A   1      33.713  33.356  29.059  1.00  0.00     0.163 HD
BRANCH  18  20
ATOM     20  C   UNL A   1      36.115  31.063  28.624  1.00  0.00     0.039 A 
ATOM     21  C   UNL A   1      36.249  29.674  28.634  1.00  0.00    -0.049 A 
ATOM     22  C   UNL A   1      37.276  31.849  28.754  1.00  0.00    -0.049 A 
ATOM     23  C   UNL A   1      37.487  29.087  28.883  1.00  0.00    -0.053 A 
ATOM     24  H   UNL A   1      35.426  29.078  28.455  1.00  0.00     0.063 H 
ATOM     25  C   UNL A   1      38.516  31.273  28.993  1.00  0.00    -0.053 A 
ATOM     26  H   UNL A   1      37.204  32.875  28.670  1.00  0.00     0.063 H 
ATOM     27  C   UNL A   1      38.607  29.891  29.107  1.00  0.00    -0.014 A 
ATOM     28  H   UNL A   1      37.577  28.059  28.902  1.00  0.00     0.063 H 
ATOM     29  H   UNL A   1      39.358  31.862  29.085  1.00  0.00     0.063 H 
BRANCH  27  30
ATOM     30  C   UNL A   1      39.897  29.244  29.321  1.00  0.00     0.031 A 
ATOM     31  C   UNL A   1      40.259  29.064  30.756  1.00  0.00     0.074 A 
ATOM     32  C   UNL A   1      40.630  28.719  28.317  1.00  0.00     0.049 A 
ATOM     33  N   UNL A   1      41.291  29.522  31.386  1.00  0.00    -0.248 NA
ATOM     34  C   UNL A   1      39.286  28.381  31.626  1.00  0.00    -0.034 C 
ATOM     35  C   UNL A   1      40.256  28.574  26.908  1.00  0.00    -0.036 A 
ATOM     36  N   UNL A   1      41.847  28.106  28.369  1.00  0.00    -0.354 N 
ATOM     37  C   UNL A   1      41.190  29.042  32.693  1.00  0.00     0.074 A 
ATOM     38  C   UNL A   1      39.873  28.480  32.818  1.00  0.00    -0.034 C 
ATOM     39  H   UNL A   1      38.386  27.941  31.377  1.00  0.00     0.065 H 
ATOM     40  C   UNL A   1      41.114  27.722  26.301  1.00  0.00    -0.036 A 
ATOM     41  H   UNL A   1      39.463  29.049  26.450  1.00  0.00     0.065 H 
ATOM     42  C   UNL A   1      42.166  27.364  27.237  1.00  0.00     0.049 A 
ATOM     43  H   UNL A   1      42.449  28.182  29.144  1.00  0.00     0.167 HD
ATOM     44  C   UNL A   1      42.289  28.941  33.493  1.00  0.00     0.037 A 
ATOM     45  H   UNL A   1      39.442  28.192  33.710  1.00  0.00     0.065 H 
ATOM     46  H   UNL A   1      41.034  27.380  25.331  1.00  0.00     0.065 H 
ATOM     47  C   UNL A   1      43.183  26.473  27.110  1.00  0.00     0.037 A 
ATOM     48  C   UNL A   1      43.348  29.798  33.026  1.00  0.00     0.049 A 
ATOM     49  C   UNL A   1      44.162  26.753  28.190  1.00  0.00     0.074 A 
ATOM     50  C   UNL A   1      43.498  31.159  32.847  1.00  0.00    -0.036 A 
ATOM     51  N   UNL A   1      44.384  29.224  32.332  1.00  0.00    -0.354 N 
ATOM     52  N   UNL A   1      44.896  27.828  28.243  1.00  0.00    -0.248 NA
ATOM     53  C   UNL A   1      43.986  26.050  29.452  1.00  0.00    -0.034 C 
ATOM     54  C   UNL A   1      44.292  31.292  31.669  1.00  0.00    -0.036 A 
ATOM     55  H   UNL A   1      43.119  31.916  33.438  1.00  0.00     0.065 H 
ATOM     56  C   UNL A   1      44.625  30.010  31.237  1.00  0.00     0.049 A 
ATOM     57  H   UNL A   1      44.864  28.399  32.575  1.00  0.00     0.167 HD
ATOM     58  C   UNL A   1      44.904  28.178  29.583  1.00  0.00     0.074 A 
ATOM     59  C   UNL A   1      44.393  27.005  30.290  1.00  0.00    -0.034 C 
ATOM     60  H   UNL A   1      43.648  25.093  29.643  1.00  0.00     0.065 H 
ATOM     61  H   UNL A   1      44.568  32.178  31.219  1.00  0.00     0.065 H 
ATOM     62  C   UNL A   1      45.048  29.481  29.965  1.00  0.00     0.037 A 
ATOM     63  H   UNL A   1      44.353  26.925  31.318  1.00  0.00     0.065 H 
BRANCH  44  64
ATOM     64  C   UNL A   1      42.558  27.774  34.424  1.00  0.00     0.064 A 
ATOM     65  C   UNL A   1      43.081  26.582  33.877  1.00  0.00     0.173 A 
ATOM     66  C   UNL A   1      42.016  27.652  35.722  1.00  0.00     0.173 A 
ATOM     67  F   UNL A   1      43.640  26.576  32.657  1.00  0.00    -0.203 F 
ATOM     68  C   UNL A   1      42.938  25.348  34.517  1.00  0.00     0.198 A 
ATOM     69  C   UNL A   1      41.919  26.425  36.378  1.00  0.00     0.198 A 
ATOM     70  F   UNL A   1      41.457  28.680  36.369  1.00  0.00    -0.203 F 
ATOM     71  F   UNL A   1      43.307  24.225  33.885  1.00  0.00    -0.200 F 
ATOM     72  C   UNL A   1      42.339  25.268  35.759  1.00  0.00     0.200 A 
ATOM     73  F   UNL A   1      41.330  26.369  37.580  1.00  0.00    -0.200 F 
ATOM     74  F   UNL A   1      42.124  24.081  36.337  1.00  0.00    -0.200 F 
ENDBRANCH  44  64
BRANCH  47  75
ATOM     75  C   UNL A   1      43.200  25.197  26.351  1.00  0.00     0.064 A 
ATOM     76  C   UNL A   1      44.147  24.960  25.340  1.00  0.00     0.173 A 
ATOM     77  C   UNL A   1      42.474  24.076  26.799  1.00  0.00     0.173 A 
ATOM     78  F   UNL A   1      44.920  25.961  24.892  1.00  0.00    -0.203 F 
ATOM     79  C   UNL A   1      44.367  23.676  24.823  1.00  0.00     0.198 A 
ATOM     80  C   UNL A   1      42.690  22.799  26.280  1.00  0.00     0.198 A 
ATOM     81  F   UNL A   1      41.612  24.180  27.819  1.00  0.00    -0.203 F 
ATOM     82  F   UNL A   1      45.322  23.479  23.904  1.00  0.00    -0.200 F 
ATOM     83  C   UNL A   1      43.645  22.596  25.302  1.00  0.00     0.200 A 
ATOM     84  F   UNL A   1      42.013  21.756  26.782  1.00  0.00    -0.200 F 
ATOM     85  F   UNL A   1      43.898  21.358  24.854  1.00  0.00    -0.200 F 
ENDBRANCH  47  75
BRANCH  62  86
ATOM     86  C   UNL A   1      45.456  30.476  28.918  1.00  0.00     0.064 A 
ATOM     87  C   UNL A   1      46.790  30.769  28.590  1.00  0.00     0.173 A 
ATOM     88  C   UNL A   1      44.454  31.045  28.122  1.00  0.00     0.173 A 
ATOM     89  F   UNL A   1      47.805  30.184  29.237  1.00  0.00    -0.203 F 
ATOM     90  C   UNL A   1      47.103  31.630  27.540  1.00  0.00     0.198 A 
ATOM     91  C   UNL A   1      44.770  31.875  27.050  1.00  0.00     0.198 A 
ATOM     92  F   UNL A   1      43.165  30.754  28.352  1.00  0.00    -0.203 F 
ATOM     93  F   UNL A   1      48.384  31.902  27.251  1.00  0.00    -0.200 F 
ATOM     94  C   UNL A   1      46.092  32.176  26.767  1.00  0.00     0.200 A 
ATOM     95  F   UNL A   1      43.792  32.357  26.272  1.00  0.00    -0.200 F 
ATOM     96  F   UNL A   1      46.393  32.968  25.728  1.00  0.00    -0.200 F 
ENDBRANCH  62  86
ENDBRANCH  27  30
ENDBRANCH  18  20
ENDBRANCH  13  16
ENDBRANCH  10  13
ENDBRANCH   7  10
ENDBRANCH   4   7
ENDBRANCH   1   4
BRANCH   1  97
ATOM     97  C   UNL A   1      37.911  33.740  34.251  1.00  0.00     0.018 C 
ATOM     98  H   UNL A   1      37.625  34.565  34.868  1.00  0.00     0.049 H 
ATOM     99  H   UNL A   1      38.304  34.069  33.311  1.00  0.00     0.049 H 
BRANCH  97 100
ATOM    100  N   UNL A   1      38.955  32.990  34.930  1.00  0.00    -0.352 N 
ATOM    101  C   UNL A   1      40.214  32.672  34.490  1.00  0.00     0.251 C 
ATOM    102  H   UNL A   1      38.727  32.665  35.831  1.00  0.00     0.163 HD
ATOM    103  O   UNL A   1      40.933  31.910  35.141  1.00  0.00    -0.269 OA
BRANCH 101 104
ATOM    104  C   UNL A   1      40.698  33.219  33.210  1.00  0.00     0.039 A 
ATOM    105  C   UNL A   1      40.264  32.627  32.018  1.00  0.00    -0.047 A 
ATOM    106  C   UNL A   1      41.567  34.316  33.189  1.00  0.00    -0.047 A 
ATOM    107  C   UNL A   1      40.612  33.193  30.791  1.00  0.00    -0.036 A 
ATOM    108  H   UNL A   1      39.687  31.772  32.047  1.00  0.00     0.063 H 
ATOM    109  C   UNL A   1      41.950  34.859  31.967  1.00  0.00    -0.036 A 
ATOM    110  H   UNL A   1      41.919  34.719  34.072  1.00  0.00     0.063 H 
ATOM    111  C   UNL A   1      41.450  34.307  30.774  1.00  0.00     0.066 A 
ATOM    112  H   UNL A   1      40.254  32.793  29.909  1.00  0.00     0.065 H 
ATOM    113  H   UNL A   1      42.598  35.663  31.936  1.00  0.00     0.065 H 
BRANCH 111 114
ATOM    114  N   UNL A   1      41.913  34.800  29.542  1.00  0.00    -0.220 N 
ATOM    115  C   UNL A   1      43.155  34.569  29.031  1.00  0.00     0.055 A 
ATOM    116  N   UNL A   1      41.216  35.591  28.706  1.00  0.00    -0.062 NA
ATOM    117  C   UNL A   1      43.224  35.265  27.853  1.00  0.00     0.093 A 
ATOM    118  H   UNL A   1      43.896  33.987  29.449  1.00  0.00     0.086 H 
ATOM    119  N   UNL A   1      42.030  35.937  27.706  1.00  0.00    -0.134 NA
BRANCH 117 120
ATOM    120  C   UNL A   1      44.402  35.556  27.001  1.00  0.00     0.047 C 
ATOM    121  H   UNL A   1      44.041  36.185  26.214  1.00  0.00     0.045 H 
ATOM    122  H   UNL A   1      44.754  34.565  26.806  1.00  0.00     0.045 H 
BRANCH 120 123
ATOM    123  S   UNL A   1      45.911  36.334  27.581  1.00  0.00    -0.081 SA
BRANCH 123 124
ATOM    124  C   UNL A   1      46.118  37.989  27.075  1.00  0.00     0.176 A 
ATOM    125  N   UNL A   1      45.226  38.783  27.600  1.00  0.00    -0.223 NA
ATOM    126  N   UNL A   1      47.089  38.475  26.218  1.00  0.00    -0.255 N 
ATOM    127  C   UNL A   1      45.189  40.117  27.169  1.00  0.00     0.079 A 
ATOM    128  C   UNL A   1      46.611  39.451  25.335  1.00  0.00     0.266 A 
ATOM    129  C   UNL A   1      44.538  41.108  27.902  1.00  0.00    -0.035 A 
ATOM    130  C   UNL A   1      45.719  40.451  25.931  1.00  0.00     0.066 A 
ATOM    131  O   UNL A   1      46.866  39.528  24.136  1.00  0.00    -0.268 OA
ATOM    132  C   UNL A   1      44.368  42.388  27.359  1.00  0.00    -0.060 A 
ATOM    133  H   UNL A   1      44.179  40.897  28.847  1.00  0.00     0.065 H 
ATOM    134  C   UNL A   1      45.503  41.701  25.345  1.00  0.00    -0.047 A 
ATOM    135  C   UNL A   1      44.814  42.673  26.065  1.00  0.00    -0.061 A 
ATOM    136  H   UNL A   1      43.910  43.126  27.917  1.00  0.00     0.062 H 
ATOM    137  H   UNL A   1      45.849  41.900  24.393  1.00  0.00     0.063 H 
ATOM    138  H   UNL A   1      44.634  43.598  25.647  1.00  0.00     0.062 H 
BRANCH 126 139
ATOM    139  C   UNL A   1      48.472  38.064  26.100  1.00  0.00     0.051 A 
ATOM    140  C   UNL A   1      48.834  37.117  25.118  1.00  0.00    -0.038 A 
ATOM    141  C   UNL A   1      49.504  38.500  26.938  1.00  0.00    -0.038 A 
ATOM    142  C   UNL A   1      50.063  36.456  25.141  1.00  0.00    -0.060 A 
ATOM    143  H   UNL A   1      48.168  36.907  24.358  1.00  0.00     0.064 H 
ATOM    144  C   UNL A   1      50.714  37.794  27.015  1.00  0.00    -0.060 A 
ATOM    145  H   UNL A   1      49.373  39.351  27.506  1.00  0.00     0.064 H 
ATOM    146  C   UNL A   1      50.978  36.746  26.140  1.00  0.00    -0.062 A 
ATOM    147  H   UNL A   1      50.289  35.753  24.419  1.00  0.00     0.062 H 
ATOM    148  H   UNL A   1      51.415  38.056  27.725  1.00  0.00     0.062 H 
ATOM    149  H   UNL A   1      51.843  36.191  26.234  1.00  0.00     0.062 H 
ENDBRANCH 126 139
ENDBRANCH 123 124
ENDBRANCH 120 123
ENDBRANCH 117 120
ENDBRANCH 111 114
ENDBRANCH 101 104
ENDBRANCH  97 100
ENDBRANCH   1  97
TORSDOF 18
ENDMDL
MODEL 9
REMARK VINA RESULT:     -11.9      4.857      9.586
REMARK SMILES O=C(NCCCCCCNC(=O)c1ccc(-n2cc(CSc3nc4ccccc4c(=O)n3-c3ccccc3)nn2)cc1)c1ccc(-c2c3nc(c(-c4c(F)c(F)c(F)c(F)c4F)c4ccc([nH]4)c(-c4c(F)c(F)c(F)c(F)c4F)c4nc(c(-c5c(F)c(F)c(F)c(F)c5F)c5ccc2[nH]5)C=C4)C=C3)cc1
REMARK SMILES IDX 8 1 7 4 6 7 5 10 4 13 3 16 1 17 2 18 43 20 44 21 105 22
REMARK SMILES IDX 45 23 104 25 46 27 47 30 48 31 98 32 49 33 103 34 97 35
REMARK SMILES IDX 99 36 50 37 102 38 96 40 95 42 51 44 83 47 63 48 82 49 64 50
REMARK SMILES IDX 67 51 81 52 100 53 65 54 66 56 80 58 101 59 68 62 52 64
REMARK SMILES IDX 53 65 61 66 54 67 55 68 59 69 62 70 56 71 57 72 60 73 58 74
REMARK SMILES IDX 84 75 85 76 93 77 86 78 87 79 91 80 94 81 88 82 89 83 92 84
REMARK SMILES IDX 90 85 69 86 70 87 78 88 71 89 72 90 76 91 79 92 73 93 74 94
REMARK SMILES IDX 77 95 75 96 9 97 10 100 11 101 12 103 13 104 14 105 42 106
REMARK SMILES IDX 15 107 41 109 16 111 17 114 18 115 40 116 19 117 39 119
REMARK SMILES IDX 20 120 21 123 22 124 23 125 32 126 24 127 30 128 25 129
REMARK SMILES IDX 29 130 31 131 26 132 28 134 27 135 33 139 34 140 38 141
REMARK SMILES IDX 35 142 37 144 36 146
REMARK H PARENT 8 2 8 3 7 5 7 6 6 8 6 9 5 11 5 12 4 14 4 15 3 19 44 24 105 26
REMARK H PARENT 45 28 104 29 103 39 97 41 99 43 102 45 96 46 64 55 67 57
REMARK H PARENT 100 60 65 61 101 63 9 98 9 99 10 102 14 108 42 110 15 112
REMARK H PARENT 41 113 18 118 20 121 20 122 25 133 26 136 28 137 27 138 34 143
REMARK H PARENT 38 145 35 147 37 148 36 149
REMARK Flexibility Score: inf
ROOT
ATOM      1  C   UNL A   1      36.011  33.808  35.250  1.00  0.00    -0.036 C 
ATOM      2  H   UNL A   1      35.286  33.037  35.404  1.00  0.00     0.028 H 
ATOM      3  H   UNL A   1      35.661  34.780  35.530  1.00  0.00     0.028 H 
ENDROOT
BRANCH   1   4
ATOM      4  C   UNL A   1      36.321  33.878  33.753  1.00  0.00    -0.052 C 
ATOM      5  H   UNL A   1      37.368  34.065  33.641  1.00  0.00     0.027 H 
ATOM      6  H   UNL A   1      36.004  32.943  33.342  1.00  0.00     0.027 H 
BRANCH   4   7
ATOM      7  C   UNL A   1      35.564  34.957  32.973  1.00  0.00    -0.052 C 
ATOM      8  H   UNL A   1      35.009  35.543  33.676  1.00  0.00     0.027 H 
ATOM      9  H   UNL A   1      36.310  35.508  32.440  1.00  0.00     0.027 H 
BRANCH   7  10
ATOM     10  C   UNL A   1      34.583  34.449  31.909  1.00  0.00    -0.036 C 
ATOM     11  H   UNL A   1      33.598  34.470  32.328  1.00  0.00     0.028 H 
ATOM     12  H   UNL A   1      34.699  35.094  31.064  1.00  0.00     0.028 H 
BRANCH  10  13
ATOM     13  C   UNL A   1      34.852  33.031  31.406  1.00  0.00     0.018 C 
ATOM     14  H   UNL A   1      35.902  32.840  31.484  1.00  0.00     0.049 H 
ATOM     15  H   UNL A   1      34.266  32.371  32.012  1.00  0.00     0.049 H 
BRANCH  13  16
ATOM     16  N   UNL A   1      34.450  32.804  30.035  1.00  0.00    -0.352 N 
ATOM     17  O   UNL A   1      34.143  31.935  28.031  1.00  0.00    -0.269 OA
ATOM     18  C   UNL A   1      34.854  31.962  29.040  1.00  0.00     0.251 C 
ATOM     19  H   UNL A   1      33.716  33.397  29.755  1.00  0.00     0.163 HD
BRANCH  18  20
ATOM     20  C   UNL A   1      36.103  31.155  29.050  1.00  0.00     0.039 A 
ATOM     21  C   UNL A   1      36.189  29.766  28.938  1.00  0.00    -0.049 A 
ATOM     22  C   UNL A   1      37.289  31.884  29.266  1.00  0.00    -0.049 A 
ATOM     23  C   UNL A   1      37.400  29.116  29.152  1.00  0.00    -0.053 A 
ATOM     24  H   UNL A   1      35.348  29.219  28.696  1.00  0.00     0.063 H 
ATOM     25  C   UNL A   1      38.503  31.244  29.471  1.00  0.00    -0.053 A 
ATOM     26  H   UNL A   1      37.254  32.915  29.273  1.00  0.00     0.063 H 
ATOM     27  C   UNL A   1      38.544  29.855  29.464  1.00  0.00    -0.014 A 
ATOM     28  H   UNL A   1      37.454  28.087  29.082  1.00  0.00     0.063 H 
ATOM     29  H   UNL A   1      39.363  31.792  29.627  1.00  0.00     0.063 H 
BRANCH  27  30
ATOM     30  C   UNL A   1      39.806  29.146  29.638  1.00  0.00     0.031 A 
ATOM     31  C   UNL A   1      40.187  28.918  31.061  1.00  0.00     0.074 A 
ATOM     32  C   UNL A   1      40.495  28.609  28.609  1.00  0.00     0.049 A 
ATOM     33  N   UNL A   1      41.251  29.315  31.680  1.00  0.00    -0.248 NA
ATOM     34  C   UNL A   1      39.200  28.262  31.936  1.00  0.00    -0.034 C 
ATOM     35  C   UNL A   1      40.088  28.513  27.205  1.00  0.00    -0.036 A 
ATOM     36  N   UNL A   1      41.683  27.940  28.624  1.00  0.00    -0.354 N 
ATOM     37  C   UNL A   1      41.153  28.812  32.978  1.00  0.00     0.074 A 
ATOM     38  C   UNL A   1      39.815  28.308  33.118  1.00  0.00    -0.034 C 
ATOM     39  H   UNL A   1      38.276  27.868  31.696  1.00  0.00     0.065 H 
ATOM     40  C   UNL A   1      40.894  27.635  26.563  1.00  0.00    -0.036 A 
ATOM     41  H   UNL A   1      39.309  29.033  26.773  1.00  0.00     0.065 H 
ATOM     42  C   UNL A   1      41.946  27.210  27.471  1.00  0.00     0.049 A 
ATOM     43  H   UNL A   1      42.303  27.972  29.388  1.00  0.00     0.167 HD
ATOM     44  C   UNL A   1      42.261  28.643  33.754  1.00  0.00     0.037 A 
ATOM     45  H   UNL A   1      39.387  28.021  34.013  1.00  0.00     0.065 H 
ATOM     46  H   UNL A   1      40.779  27.319  25.588  1.00  0.00     0.065 H 
ATOM     47  C   UNL A   1      42.918  26.276  27.305  1.00  0.00     0.037 A 
ATOM     48  C   UNL A   1      43.350  29.461  33.283  1.00  0.00     0.049 A 
ATOM     49  C   UNL A   1      43.929  26.487  28.370  1.00  0.00     0.074 A 
ATOM     50  C   UNL A   1      43.558  30.818  33.130  1.00  0.00    -0.036 A 
ATOM     51  N   UNL A   1      44.344  28.855  32.557  1.00  0.00    -0.354 N 
ATOM     52  N   UNL A   1      44.713  27.526  28.431  1.00  0.00    -0.248 NA
ATOM     53  C   UNL A   1      43.746  25.766  29.620  1.00  0.00    -0.034 C 
ATOM     54  C   UNL A   1      44.335  30.940  31.939  1.00  0.00    -0.036 A 
ATOM     55  H   UNL A   1      43.226  31.578  33.744  1.00  0.00     0.065 H 
ATOM     56  C   UNL A   1      44.601  29.653  31.474  1.00  0.00     0.049 A 
ATOM     57  H   UNL A   1      44.791  28.005  32.773  1.00  0.00     0.167 HD
ATOM     58  C   UNL A   1      44.763  27.847  29.778  1.00  0.00     0.074 A 
ATOM     59  C   UNL A   1      44.213  26.684  30.470  1.00  0.00    -0.034 C 
ATOM     60  H   UNL A   1      43.367  24.822  29.798  1.00  0.00     0.065 H 
ATOM     61  H   UNL A   1      44.643  31.822  31.502  1.00  0.00     0.065 H 
ATOM     62  C   UNL A   1      44.974  29.133  30.184  1.00  0.00     0.037 A 
ATOM     63  H   UNL A   1      44.188  26.583  31.497  1.00  0.00     0.065 H 
BRANCH  44  64
ATOM     64  C   UNL A   1      42.494  27.446  34.655  1.00  0.00     0.064 A 
ATOM     65  C   UNL A   1      43.004  26.260  34.082  1.00  0.00     0.173 A 
ATOM     66  C   UNL A   1      41.929  27.296  35.940  1.00  0.00     0.173 A 
ATOM     67  F   UNL A   1      43.582  26.278  32.871  1.00  0.00    -0.203 F 
ATOM     68  C   UNL A   1      42.828  25.011  34.684  1.00  0.00     0.198 A 
ATOM     69  C   UNL A   1      41.799  26.054  36.559  1.00  0.00     0.198 A 
ATOM     70  F   UNL A   1      41.378  28.316  36.608  1.00  0.00    -0.203 F 
ATOM     71  F   UNL A   1      43.187  23.900  34.026  1.00  0.00    -0.200 F 
ATOM     72  C   UNL A   1      42.208  24.908  35.913  1.00  0.00     0.200 A 
ATOM     73  F   UNL A   1      41.190  25.974  37.750  1.00  0.00    -0.200 F 
ATOM     74  F   UNL A   1      41.962  23.708  36.454  1.00  0.00    -0.200 F 
ENDBRANCH  44  64
BRANCH  47  75
ATOM     75  C   UNL A   1      42.862  25.017  26.519  1.00  0.00     0.064 A 
ATOM     76  C   UNL A   1      43.734  24.788  25.441  1.00  0.00     0.173 A 
ATOM     77  C   UNL A   1      42.149  23.898  26.992  1.00  0.00     0.173 A 
ATOM     78  F   UNL A   1      44.492  25.786  24.963  1.00  0.00    -0.203 F 
ATOM     79  C   UNL A   1      43.896  23.513  24.884  1.00  0.00     0.198 A 
ATOM     80  C   UNL A   1      42.307  22.630  26.432  1.00  0.00     0.198 A 
ATOM     81  F   UNL A   1      41.359  23.993  28.070  1.00  0.00    -0.203 F 
ATOM     82  F   UNL A   1      44.784  23.321  23.897  1.00  0.00    -0.200 F 
ATOM     83  C   UNL A   1      43.190  22.433  25.387  1.00  0.00     0.200 A 
ATOM     84  F   UNL A   1      41.648  21.586  26.956  1.00  0.00    -0.200 F 
ATOM     85  F   UNL A   1      43.390  21.202  24.897  1.00  0.00    -0.200 F 
ENDBRANCH  47  75
BRANCH  62  86
ATOM     86  C   UNL A   1      45.407  30.131  29.149  1.00  0.00     0.064 A 
ATOM     87  C   UNL A   1      46.747  30.367  28.798  1.00  0.00     0.173 A 
ATOM     88  C   UNL A   1      44.418  30.765  28.388  1.00  0.00     0.173 A 
ATOM     89  F   UNL A   1      47.746  29.720  29.410  1.00  0.00    -0.203 F 
ATOM     90  C   UNL A   1      47.079  31.236  27.760  1.00  0.00     0.198 A 
ATOM     91  C   UNL A   1      44.751  31.603  27.327  1.00  0.00     0.198 A 
ATOM     92  F   UNL A   1      43.121  30.530  28.640  1.00  0.00    -0.203 F 
ATOM     93  F   UNL A   1      48.366  31.453  27.449  1.00  0.00    -0.200 F 
ATOM     94  C   UNL A   1      46.080  31.846  27.021  1.00  0.00     0.200 A 
ATOM     95  F   UNL A   1      43.780  32.148  26.581  1.00  0.00    -0.200 F 
ATOM     96  F   UNL A   1      46.396  32.647  25.993  1.00  0.00    -0.200 F 
ENDBRANCH  62  86
ENDBRANCH  27  30
ENDBRANCH  18  20
ENDBRANCH  13  16
ENDBRANCH  10  13
ENDBRANCH   7  10
ENDBRANCH   4   7
ENDBRANCH   1   4
BRANCH   1  97
ATOM     97  C   UNL A   1      37.215  33.512  36.140  1.00  0.00     0.018 C 
ATOM     98  H   UNL A   1      37.016  33.888  37.122  1.00  0.00     0.049 H 
ATOM     99  H   UNL A   1      38.068  33.987  35.703  1.00  0.00     0.049 H 
BRANCH  97 100
ATOM    100  N   UNL A   1      37.498  32.089  36.234  1.00  0.00    -0.352 N 
ATOM    101  C   UNL A   1      38.462  31.357  35.591  1.00  0.00     0.251 C 
ATOM    102  H   UNL A   1      36.918  31.581  36.846  1.00  0.00     0.163 HD
ATOM    103  O   UNL A   1      38.482  30.128  35.682  1.00  0.00    -0.269 OA
BRANCH 101 104
ATOM    104  C   UNL A   1      39.462  32.045  34.754  1.00  0.00     0.039 A 
ATOM    105  C   UNL A   1      39.334  31.979  33.362  1.00  0.00    -0.047 A 
ATOM    106  C   UNL A   1      40.511  32.760  35.344  1.00  0.00    -0.047 A 
ATOM    107  C   UNL A   1      40.196  32.714  32.547  1.00  0.00    -0.036 A 
ATOM    108  H   UNL A   1      38.604  31.386  32.938  1.00  0.00     0.063 H 
ATOM    109  C   UNL A   1      41.399  33.461  34.533  1.00  0.00    -0.036 A 
ATOM    110  H   UNL A   1      40.625  32.766  36.370  1.00  0.00     0.063 H 
ATOM    111  C   UNL A   1      41.220  33.453  33.139  1.00  0.00     0.066 A 
ATOM    112  H   UNL A   1      40.077  32.711  31.521  1.00  0.00     0.065 H 
ATOM    113  H   UNL A   1      42.183  33.984  34.955  1.00  0.00     0.065 H 
BRANCH 111 114
ATOM    114  N   UNL A   1      42.172  34.085  32.321  1.00  0.00    -0.220 N 
ATOM    115  C   UNL A   1      42.608  33.606  31.122  1.00  0.00     0.055 A 
ATOM    116  N   UNL A   1      42.812  35.233  32.612  1.00  0.00    -0.062 NA
ATOM    117  C   UNL A   1      43.564  34.480  30.680  1.00  0.00     0.093 A 
ATOM    118  H   UNL A   1      42.281  32.752  30.643  1.00  0.00     0.086 H 
ATOM    119  N   UNL A   1      43.713  35.447  31.650  1.00  0.00    -0.134 NA
BRANCH 117 120
ATOM    120  C   UNL A   1      44.523  34.335  29.558  1.00  0.00     0.047 C 
ATOM    121  H   UNL A   1      44.047  34.787  28.712  1.00  0.00     0.045 H 
ATOM    122  H   UNL A   1      44.713  33.283  29.595  1.00  0.00     0.045 H 
BRANCH 120 123
ATOM    123  S   UNL A   1      46.200  34.973  29.563  1.00  0.00    -0.081 SA
BRANCH 123 124
ATOM    124  C   UNL A   1      46.821  35.397  27.990  1.00  0.00     0.176 A 
ATOM    125  N   UNL A   1      47.983  34.855  27.754  1.00  0.00    -0.223 NA
ATOM    126  N   UNL A   1      46.210  36.210  27.053  1.00  0.00    -0.255 N 
ATOM    127  C   UNL A   1      48.662  35.224  26.584  1.00  0.00     0.079 A 
ATOM    128  C   UNL A   1      47.103  37.056  26.385  1.00  0.00     0.266 A 
ATOM    129  C   UNL A   1      49.709  34.459  26.070  1.00  0.00    -0.035 A 
ATOM    130  C   UNL A   1      48.365  36.433  25.972  1.00  0.00     0.066 A 
ATOM    131  O   UNL A   1      46.921  38.245  26.133  1.00  0.00    -0.268 OA
ATOM    132  C   UNL A   1      50.479  34.946  25.005  1.00  0.00    -0.060 A 
ATOM    133  H   UNL A   1      49.917  33.534  26.476  1.00  0.00     0.065 H 
ATOM    134  C   UNL A   1      49.161  36.965  24.954  1.00  0.00    -0.047 A 
ATOM    135  C   UNL A   1      50.231  36.215  24.475  1.00  0.00    -0.061 A 
ATOM    136  H   UNL A   1      51.234  34.364  24.610  1.00  0.00     0.062 H 
ATOM    137  H   UNL A   1      48.958  37.899  24.564  1.00  0.00     0.063 H 
ATOM    138  H   UNL A   1      50.838  36.594  23.731  1.00  0.00     0.062 H 
BRANCH 126 139
ATOM    139  C   UNL A   1      44.801  36.316  26.737  1.00  0.00     0.051 A 
ATOM    140  C   UNL A   1      44.075  37.446  27.174  1.00  0.00    -0.038 A 
ATOM    141  C   UNL A   1      44.062  35.341  26.061  1.00  0.00    -0.038 A 
ATOM    142  C   UNL A   1      42.680  37.477  27.177  1.00  0.00    -0.060 A 
ATOM    143  H   UNL A   1      44.594  38.276  27.504  1.00  0.00     0.064 H 
ATOM    144  C   UNL A   1      42.660  35.330  26.121  1.00  0.00    -0.060 A 
ATOM    145  H   UNL A   1      44.554  34.620  25.510  1.00  0.00     0.064 H 
ATOM    146  C   UNL A   1      41.970  36.381  26.713  1.00  0.00    -0.062 A 
ATOM    147  H   UNL A   1      42.179  38.311  27.522  1.00  0.00     0.062 H 
ATOM    148  H   UNL A   1      42.137  34.536  25.721  1.00  0.00     0.062 H 
ATOM    149  H   UNL A   1      40.943  36.346  26.808  1.00  0.00     0.062 H 
ENDBRANCH 126 139
ENDBRANCH 123 124
ENDBRANCH 120 123
ENDBRANCH 117 120
ENDBRANCH 111 114
ENDBRANCH 101 104
ENDBRANCH  97 100
ENDBRANCH   1  97
TORSDOF 18
ENDMDL
MODEL 10
REMARK VINA RESULT:     -11.8      3.716      8.191
REMARK SMILES O=C(NCCCCCCNC(=O)c1ccc(-n2cc(CSc3nc4ccccc4c(=O)n3-c3ccccc3)nn2)cc1)c1ccc(-c2c3nc(c(-c4c(F)c(F)c(F)c(F)c4F)c4ccc([nH]4)c(-c4c(F)c(F)c(F)c(F)c4F)c4nc(c(-c5c(F)c(F)c(F)c(F)c5F)c5ccc2[nH]5)C=C4)C=C3)cc1
REMARK SMILES IDX 8 1 7 4 6 7 5 10 4 13 3 16 1 17 2 18 43 20 44 21 105 22
REMARK SMILES IDX 45 23 104 25 46 27 47 30 48 31 98 32 49 33 103 34 97 35
REMARK SMILES IDX 99 36 50 37 102 38 96 40 95 42 51 44 83 47 63 48 82 49 64 50
REMARK SMILES IDX 67 51 81 52 100 53 65 54 66 56 80 58 101 59 68 62 52 64
REMARK SMILES IDX 53 65 61 66 54 67 55 68 59 69 62 70 56 71 57 72 60 73 58 74
REMARK SMILES IDX 84 75 85 76 93 77 86 78 87 79 91 80 94 81 88 82 89 83 92 84
REMARK SMILES IDX 90 85 69 86 70 87 78 88 71 89 72 90 76 91 79 92 73 93 74 94
REMARK SMILES IDX 77 95 75 96 9 97 10 100 11 101 12 103 13 104 14 105 42 106
REMARK SMILES IDX 15 107 41 109 16 111 17 114 18 115 40 116 19 117 39 119
REMARK SMILES IDX 20 120 21 123 22 124 23 125 32 126 24 127 30 128 25 129
REMARK SMILES IDX 29 130 31 131 26 132 28 134 27 135 33 139 34 140 38 141
REMARK SMILES IDX 35 142 37 144 36 146
REMARK H PARENT 8 2 8 3 7 5 7 6 6 8 6 9 5 11 5 12 4 14 4 15 3 19 44 24 105 26
REMARK H PARENT 45 28 104 29 103 39 97 41 99 43 102 45 96 46 64 55 67 57
REMARK H PARENT 100 60 65 61 101 63 9 98 9 99 10 102 14 108 42 110 15 112
REMARK H PARENT 41 113 18 118 20 121 20 122 25 133 26 136 28 137 27 138 34 143
REMARK H PARENT 38 145 35 147 37 148 36 149
REMARK Flexibility Score: inf
ROOT
ATOM      1  C   UNL A   1      40.643  26.650  27.600  1.00  0.00    -0.036 C 
ATOM      2  H   UNL A   1      39.942  27.344  27.185  1.00  0.00     0.028 H 
ATOM      3  H   UNL A   1      41.657  26.984  27.536  1.00  0.00     0.028 H 
ENDROOT
BRANCH   1   4
ATOM      4  C   UNL A   1      40.565  25.354  26.789  1.00  0.00    -0.052 C 
ATOM      5  H   UNL A   1      39.723  25.426  26.133  1.00  0.00     0.027 H 
ATOM      6  H   UNL A   1      41.502  25.267  26.281  1.00  0.00     0.027 H 
BRANCH   4   7
ATOM      7  C   UNL A   1      40.412  24.071  27.611  1.00  0.00    -0.052 C 
ATOM      8  H   UNL A   1      41.319  23.922  28.160  1.00  0.00     0.027 H 
ATOM      9  H   UNL A   1      39.550  24.220  28.226  1.00  0.00     0.027 H 
BRANCH   7  10
ATOM     10  C   UNL A   1      40.135  22.793  26.810  1.00  0.00    -0.036 C 
ATOM     11  H   UNL A   1      39.395  22.225  27.336  1.00  0.00     0.028 H 
ATOM     12  H   UNL A   1      39.815  23.112  25.840  1.00  0.00     0.028 H 
BRANCH  10  13
ATOM     13  C   UNL A   1      41.351  21.893  26.584  1.00  0.00     0.018 C 
ATOM     14  H   UNL A   1      42.039  22.051  27.388  1.00  0.00     0.049 H 
ATOM     15  H   UNL A   1      40.987  20.887  26.543  1.00  0.00     0.049 H 
BRANCH  13  16
ATOM     16  N   UNL A   1      42.043  22.138  25.338  1.00  0.00    -0.352 N 
ATOM     17  O   UNL A   1      43.543  22.693  23.820  1.00  0.00    -0.269 OA
ATOM     18  C   UNL A   1      43.136  22.868  24.972  1.00  0.00     0.251 C 
ATOM     19  H   UNL A   1      41.629  21.669  24.578  1.00  0.00     0.163 HD
BRANCH  18  20
ATOM     20  C   UNL A   1      43.806  23.896  25.813  1.00  0.00     0.039 A 
ATOM     21  C   UNL A   1      44.111  23.780  27.170  1.00  0.00    -0.049 A 
ATOM     22  C   UNL A   1      44.079  25.118  25.166  1.00  0.00    -0.049 A 
ATOM     23  C   UNL A   1      44.565  24.883  27.887  1.00  0.00    -0.053 A 
ATOM     24  H   UNL A   1      43.999  22.870  27.645  1.00  0.00     0.063 H 
ATOM     25  C   UNL A   1      44.540  26.220  25.872  1.00  0.00    -0.053 A 
ATOM     26  H   UNL A   1      43.932  25.194  24.148  1.00  0.00     0.063 H 
ATOM     27  C   UNL A   1      44.734  26.112  27.243  1.00  0.00    -0.014 A 
ATOM     28  H   UNL A   1      44.776  24.795  28.893  1.00  0.00     0.063 H 
ATOM     29  H   UNL A   1      44.738  27.108  25.384  1.00  0.00     0.063 H 
BRANCH  27  30
ATOM     30  C   UNL A   1      45.253  27.236  28.014  1.00  0.00     0.031 A 
ATOM     31  C   UNL A   1      46.685  27.098  28.406  1.00  0.00     0.074 A 
ATOM     32  C   UNL A   1      44.550  28.368  28.225  1.00  0.00     0.049 A 
ATOM     33  N   UNL A   1      47.193  27.089  29.596  1.00  0.00    -0.248 NA
ATOM     34  C   UNL A   1      47.662  26.820  27.339  1.00  0.00    -0.034 C 
ATOM     35  C   UNL A   1      43.254  28.744  27.655  1.00  0.00    -0.036 A 
ATOM     36  N   UNL A   1      44.901  29.481  28.932  1.00  0.00    -0.354 N 
ATOM     37  C   UNL A   1      48.573  26.977  29.425  1.00  0.00     0.074 A 
ATOM     38  C   UNL A   1      48.787  26.666  28.037  1.00  0.00    -0.034 C 
ATOM     39  H   UNL A   1      47.514  26.760  26.319  1.00  0.00     0.065 H 
ATOM     40  C   UNL A   1      43.044  30.067  27.850  1.00  0.00    -0.036 A 
ATOM     41  H   UNL A   1      42.602  28.100  27.180  1.00  0.00     0.065 H 
ATOM     42  C   UNL A   1      44.122  30.601  28.665  1.00  0.00     0.049 A 
ATOM     43  H   UNL A   1      45.645  29.490  29.577  1.00  0.00     0.167 HD
ATOM     44  C   UNL A   1      49.439  27.382  30.396  1.00  0.00     0.037 A 
ATOM     45  H   UNL A   1      49.689  26.364  27.637  1.00  0.00     0.065 H 
ATOM     46  H   UNL A   1      42.248  30.609  27.479  1.00  0.00     0.065 H 
ATOM     47  C   UNL A   1      44.386  31.881  29.034  1.00  0.00     0.037 A 
ATOM     48  C   UNL A   1      48.785  27.439  31.678  1.00  0.00     0.049 A 
ATOM     49  C   UNL A   1      45.373  31.833  30.141  1.00  0.00     0.074 A 
ATOM     50  C   UNL A   1      48.159  26.520  32.498  1.00  0.00    -0.036 A 
ATOM     51  N   UNL A   1      48.411  28.669  32.158  1.00  0.00    -0.354 N 
ATOM     52  N   UNL A   1      45.106  31.375  31.332  1.00  0.00    -0.248 NA
ATOM     53  C   UNL A   1      46.783  31.870  29.784  1.00  0.00    -0.034 C 
ATOM     54  C   UNL A   1      47.070  27.231  33.085  1.00  0.00    -0.036 A 
ATOM     55  H   UNL A   1      48.423  25.535  32.654  1.00  0.00     0.065 H 
ATOM     56  C   UNL A   1      47.134  28.549  32.635  1.00  0.00     0.049 A 
ATOM     57  H   UNL A   1      48.959  29.488  32.158  1.00  0.00     0.167 HD
ATOM     58  C   UNL A   1      46.239  30.665  31.694  1.00  0.00     0.074 A 
ATOM     59  C   UNL A   1      47.267  31.070  30.737  1.00  0.00    -0.034 C 
ATOM     60  H   UNL A   1      47.266  32.368  29.020  1.00  0.00     0.065 H 
ATOM     61  H   UNL A   1      46.363  26.840  33.727  1.00  0.00     0.065 H 
ATOM     62  C   UNL A   1      46.158  29.605  32.549  1.00  0.00     0.037 A 
ATOM     63  H   UNL A   1      48.254  30.772  30.791  1.00  0.00     0.065 H 
BRANCH  44  64
ATOM     64  C   UNL A   1      50.733  28.126  30.127  1.00  0.00     0.064 A 
ATOM     65  C   UNL A   1      51.908  27.692  30.779  1.00  0.00     0.173 A 
ATOM     66  C   UNL A   1      50.805  29.416  29.557  1.00  0.00     0.173 A 
ATOM     67  F   UNL A   1      51.968  26.476  31.344  1.00  0.00    -0.203 F 
ATOM     68  C   UNL A   1      53.005  28.536  30.969  1.00  0.00     0.198 A 
ATOM     69  C   UNL A   1      51.921  30.238  29.708  1.00  0.00     0.198 A 
ATOM     70  F   UNL A   1      49.770  29.984  28.930  1.00  0.00    -0.203 F 
ATOM     71  F   UNL A   1      54.030  28.132  31.732  1.00  0.00    -0.200 F 
ATOM     72  C   UNL A   1      53.002  29.815  30.450  1.00  0.00     0.200 A 
ATOM     73  F   UNL A   1      51.896  31.478  29.200  1.00  0.00    -0.200 F 
ATOM     74  F   UNL A   1      54.014  30.656  30.701  1.00  0.00    -0.200 F 
ENDBRANCH  44  64
BRANCH  47  75
ATOM     75  C   UNL A   1      44.118  33.131  28.279  1.00  0.00     0.064 A 
ATOM     76  C   UNL A   1      44.410  33.234  26.908  1.00  0.00     0.173 A 
ATOM     77  C   UNL A   1      43.307  34.147  28.821  1.00  0.00     0.173 A 
ATOM     78  F   UNL A   1      45.130  32.282  26.298  1.00  0.00    -0.203 F 
ATOM     79  C   UNL A   1      43.903  34.279  26.125  1.00  0.00     0.198 A 
ATOM     80  C   UNL A   1      42.807  35.190  28.041  1.00  0.00     0.198 A 
ATOM     81  F   UNL A   1      42.900  34.093  30.097  1.00  0.00    -0.203 F 
ATOM     82  F   UNL A   1      44.151  34.310  24.807  1.00  0.00    -0.200 F 
ATOM     83  C   UNL A   1      43.093  35.250  26.690  1.00  0.00     0.200 A 
ATOM     84  F   UNL A   1      41.992  36.100  28.593  1.00  0.00    -0.200 F 
ATOM     85  F   UNL A   1      42.556  36.215  25.930  1.00  0.00    -0.200 F 
ENDBRANCH  47  75
BRANCH  62  86
ATOM     86  C   UNL A   1      44.865  29.396  33.283  1.00  0.00     0.064 A 
ATOM     87  C   UNL A   1      43.796  28.630  32.788  1.00  0.00     0.173 A 
ATOM     88  C   UNL A   1      44.765  29.873  34.596  1.00  0.00     0.173 A 
ATOM     89  F   UNL A   1      43.859  28.054  31.581  1.00  0.00    -0.203 F 
ATOM     90  C   UNL A   1      42.660  28.393  33.559  1.00  0.00     0.198 A 
ATOM     91  C   UNL A   1      43.646  29.603  35.378  1.00  0.00     0.198 A 
ATOM     92  F   UNL A   1      45.781  30.560  35.141  1.00  0.00    -0.203 F 
ATOM     93  F   UNL A   1      41.648  27.666  33.062  1.00  0.00    -0.200 F 
ATOM     94  C   UNL A   1      42.590  28.873  34.856  1.00  0.00     0.200 A 
ATOM     95  F   UNL A   1      43.606  30.023  36.649  1.00  0.00    -0.200 F 
ATOM     96  F   UNL A   1      41.518  28.607  35.616  1.00  0.00    -0.200 F 
ENDBRANCH  62  86
ENDBRANCH  27  30
ENDBRANCH  18  20
ENDBRANCH  13  16
ENDBRANCH  10  13
ENDBRANCH   7  10
ENDBRANCH   4   7
ENDBRANCH   1   4
BRANCH   1  97
ATOM     97  C   UNL A   1      40.335  26.495  29.087  1.00  0.00     0.018 C 
ATOM     98  H   UNL A   1      40.734  25.563  29.425  1.00  0.00     0.049 H 
ATOM     99  H   UNL A   1      39.272  26.534  29.204  1.00  0.00     0.049 H 
BRANCH  97 100
ATOM    100  N   UNL A   1      40.909  27.566  29.886  1.00  0.00    -0.352 N 
ATOM    101  C   UNL A   1      40.421  28.826  30.118  1.00  0.00     0.251 C 
ATOM    102  H   UNL A   1      41.767  27.357  30.320  1.00  0.00     0.163 HD
ATOM    103  O   UNL A   1      41.102  29.662  30.716  1.00  0.00    -0.269 OA
BRANCH 101 104
ATOM    104  C   UNL A   1      39.083  29.193  29.619  1.00  0.00     0.039 A 
ATOM    105  C   UNL A   1      38.963  29.672  28.309  1.00  0.00    -0.047 A 
ATOM    106  C   UNL A   1      37.957  29.052  30.437  1.00  0.00    -0.047 A 
ATOM    107  C   UNL A   1      37.699  29.918  27.770  1.00  0.00    -0.036 A 
ATOM    108  H   UNL A   1      39.808  29.845  27.743  1.00  0.00     0.063 H 
ATOM    109  C   UNL A   1      36.697  29.336  29.917  1.00  0.00    -0.036 A 
ATOM    110  H   UNL A   1      38.059  28.742  31.415  1.00  0.00     0.063 H 
ATOM    111  C   UNL A   1      36.575  29.744  28.577  1.00  0.00     0.066 A 
ATOM    112  H   UNL A   1      37.599  30.222  26.789  1.00  0.00     0.065 H 
ATOM    113  H   UNL A   1      35.858  29.246  30.512  1.00  0.00     0.065 H 
BRANCH 111 114
ATOM    114  N   UNL A   1      35.313  30.118  28.086  1.00  0.00    -0.220 N 
ATOM    115  C   UNL A   1      34.547  29.357  27.253  1.00  0.00     0.055 A 
ATOM    116  N   UNL A   1      34.691  31.284  28.338  1.00  0.00    -0.062 NA
ATOM    117  C   UNL A   1      33.431  30.098  26.969  1.00  0.00     0.093 A 
ATOM    118  H   UNL A   1      34.766  28.411  26.905  1.00  0.00     0.086 H 
ATOM    119  N   UNL A   1      33.573  31.311  27.607  1.00  0.00    -0.134 NA
BRANCH 117 120
ATOM    120  C   UNL A   1      32.382  29.864  25.947  1.00  0.00     0.047 C 
ATOM    121  H   UNL A   1      31.833  30.780  25.882  1.00  0.00     0.045 H 
ATOM    122  H   UNL A   1      31.932  28.971  26.328  1.00  0.00     0.045 H 
BRANCH 120 123
ATOM    123  S   UNL A   1      32.703  29.374  24.252  1.00  0.00    -0.081 SA
BRANCH 123 124
ATOM    124  C   UNL A   1      32.677  27.654  23.974  1.00  0.00     0.176 A 
ATOM    125  N   UNL A   1      33.684  27.046  24.537  1.00  0.00    -0.223 NA
ATOM    126  N   UNL A   1      31.733  26.949  23.249  1.00  0.00    -0.255 N 
ATOM    127  C   UNL A   1      33.864  25.680  24.277  1.00  0.00     0.079 A 
ATOM    128  C   UNL A   1      32.283  25.926  22.468  1.00  0.00     0.266 A 
ATOM    129  C   UNL A   1      34.667  24.878  25.086  1.00  0.00    -0.035 A 
ATOM    130  C   UNL A   1      33.320  25.124  23.128  1.00  0.00     0.066 A 
ATOM    131  O   UNL A   1      31.982  25.660  21.307  1.00  0.00    -0.268 OA
ATOM    132  C   UNL A   1      34.966  23.564  24.699  1.00  0.00    -0.060 A 
ATOM    133  H   UNL A   1      35.042  25.253  25.971  1.00  0.00     0.065 H 
ATOM    134  C   UNL A   1      33.659  23.840  22.691  1.00  0.00    -0.047 A 
ATOM    135  C   UNL A   1      34.496  23.060  23.483  1.00  0.00    -0.061 A 
ATOM    136  H   UNL A   1      35.538  22.965  25.316  1.00  0.00     0.062 H 
ATOM    137  H   UNL A   1      33.294  23.477  21.797  1.00  0.00     0.063 H 
ATOM    138  H   UNL A   1      34.769  22.114  23.175  1.00  0.00     0.062 H 
BRANCH 126 139
ATOM    139  C   UNL A   1      30.306  27.177  23.170  1.00  0.00     0.051 A 
ATOM    140  C   UNL A   1      29.824  28.360  22.567  1.00  0.00    -0.038 A 
ATOM    141  C   UNL A   1      29.334  26.325  23.702  1.00  0.00    -0.038 A 
ATOM    142  C   UNL A   1      28.505  28.789  22.723  1.00  0.00    -0.060 A 
ATOM    143  H   UNL A   1      30.470  28.927  21.994  1.00  0.00     0.064 H 
ATOM    144  C   UNL A   1      28.024  26.776  23.924  1.00  0.00    -0.060 A 
ATOM    145  H   UNL A   1      29.583  25.350  23.934  1.00  0.00     0.064 H 
ATOM    146  C   UNL A   1      27.620  28.026  23.467  1.00  0.00    -0.062 A 
ATOM    147  H   UNL A   1      28.190  29.670  22.286  1.00  0.00     0.062 H 
ATOM    148  H   UNL A   1      27.354  26.176  24.430  1.00  0.00     0.062 H 
ATOM    149  H   UNL A   1      26.675  28.381  23.681  1.00  0.00     0.062 H 
ENDBRANCH 126 139
ENDBRANCH 123 124
ENDBRANCH 120 123
ENDBRANCH 117 120
ENDBRANCH 111 114
ENDBRANCH 101 104
ENDBRANCH  97 100
ENDBRANCH   1  97
TORSDOF 18
ENDMDL
