MODEL 1
REMARK VINA RESULT:     -10.5      0.000      0.000
REMARK SMILES O=C(CCCC[C@@H]1CCSS1)NCCCCCCNC(=O)c1ccc(-c2c3nc(c(-c4c(F)c(F)c(F)c(F)c4F)c4ccc([nH]4)c(-c4c(F)c(F)c(F)c(F)c4F)c4nc(c(-c5c(F)c(F)c(F)c(F)c5F)c5ccc2[nH]5)C=C4)C=C3)cc1
REMARK SMILES IDX 14 1 13 4 12 7 1 8 2 9 3 11 4 14 5 17 6 20 7 23 8 24 11 25
REMARK SMILES IDX 9 27 10 30 15 33 16 36 17 39 18 42 19 45 20 46 21 48 22 49
REMARK SMILES IDX 23 50 84 51 24 52 83 54 25 56 26 59 27 60 77 61 28 62 82 63
REMARK SMILES IDX 76 64 78 65 29 66 81 67 75 69 74 71 30 73 62 76 42 77 61 78
REMARK SMILES IDX 43 79 46 80 60 81 79 82 44 83 45 85 59 87 80 88 47 91 31 93
REMARK SMILES IDX 32 94 40 95 33 96 34 97 38 98 41 99 35 100 36 101 39 102
REMARK SMILES IDX 37 103 63 104 64 105 72 106 65 107 66 108 70 109 73 110
REMARK SMILES IDX 67 111 68 112 71 113 69 114 48 115 49 116 57 117 50 118
REMARK SMILES IDX 51 119 55 120 58 121 52 122 53 123 56 124 54 125
REMARK H PARENT 14 2 14 3 13 5 13 6 12 10 3 12 3 13 4 15 4 16 5 18 5 19 6 21
REMARK H PARENT 6 22 7 26 8 28 8 29 9 31 9 32 15 34 15 35 16 37 16 38 17 40
REMARK H PARENT 17 41 18 43 18 44 19 47 23 53 84 55 24 57 83 58 82 68 76 70
REMARK H PARENT 78 72 81 74 75 75 43 84 46 86 79 89 44 90 80 92
REMARK Flexibility Score: inf
ROOT
ATOM      1  C   UNL A   1      36.485  23.073  25.723  1.00  0.00    -0.036 C 
ATOM      2  H   UNL A   1      35.960  22.482  26.445  1.00  0.00     0.028 H 
ATOM      3  H   UNL A   1      37.268  23.667  26.144  1.00  0.00     0.028 H 
ENDROOT
BRANCH   1   4
ATOM      4  C   UNL A   1      35.491  24.057  25.104  1.00  0.00     0.017 C 
ATOM      5  H   UNL A   1      35.238  24.800  25.831  1.00  0.00     0.049 H 
ATOM      6  H   UNL A   1      35.949  24.504  24.247  1.00  0.00     0.049 H 
BRANCH   4   7
ATOM      7  N   UNL A   1      34.283  23.386  24.677  1.00  0.00    -0.356 N 
ATOM      8  O   UNL A   1      34.762  23.338  22.434  1.00  0.00    -0.275 OA
ATOM      9  C   UNL A   1      34.015  23.071  23.368  1.00  0.00     0.219 C 
ATOM     10  H   UNL A   1      33.617  23.145  25.360  1.00  0.00     0.163 HD
BRANCH   9  11
ATOM     11  C   UNL A   1      32.685  22.366  23.172  1.00  0.00     0.026 C 
ATOM     12  H   UNL A   1      32.809  21.614  22.421  1.00  0.00     0.037 H 
ATOM     13  H   UNL A   1      31.975  23.114  22.886  1.00  0.00     0.037 H 
BRANCH  11  14
ATOM     14  C   UNL A   1      32.149  21.701  24.441  1.00  0.00    -0.044 C 
ATOM     15  H   UNL A   1      31.082  21.699  24.379  1.00  0.00     0.027 H 
ATOM     16  H   UNL A   1      32.550  22.277  25.250  1.00  0.00     0.027 H 
BRANCH  14  17
ATOM     17  C   UNL A   1      32.603  20.260  24.709  1.00  0.00    -0.052 C 
ATOM     18  H   UNL A   1      31.988  19.863  25.489  1.00  0.00     0.027 H 
ATOM     19  H   UNL A   1      33.642  20.327  24.961  1.00  0.00     0.027 H 
BRANCH  17  20
ATOM     20  C   UNL A   1      32.531  19.296  23.516  1.00  0.00    -0.040 C 
ATOM     21  H   UNL A   1      33.348  19.510  22.859  1.00  0.00     0.028 H 
ATOM     22  H   UNL A   1      31.582  19.447  23.046  1.00  0.00     0.028 H 
BRANCH  20  23
ATOM     23  C   UNL A   1      32.605  17.813  23.918  1.00  0.00     0.016 C 
ATOM     24  C   UNL A   1      32.526  17.621  25.439  1.00  0.00    -0.030 C 
ATOM     25  S   UNL A   1      34.195  17.078  23.397  1.00  0.00    -0.091 SA
ATOM     26  H   UNL A   1      31.773  17.341  23.438  1.00  0.00     0.043 H 
ATOM     27  C   UNL A   1      32.883  16.187  25.808  1.00  0.00     0.005 C 
ATOM     28  H   UNL A   1      31.531  17.835  25.770  1.00  0.00     0.029 H 
ATOM     29  H   UNL A   1      33.219  18.286  25.911  1.00  0.00     0.029 H 
ATOM     30  S   UNL A   1      34.460  15.833  25.001  1.00  0.00    -0.094 SA
ATOM     31  H   UNL A   1      32.128  15.515  25.456  1.00  0.00     0.039 H 
ATOM     32  H   UNL A   1      32.951  16.064  26.869  1.00  0.00     0.039 H 
ENDBRANCH  20  23
ENDBRANCH  17  20
ENDBRANCH  14  17
ENDBRANCH  11  14
ENDBRANCH   9  11
ENDBRANCH   4   7
ENDBRANCH   1   4
BRANCH   1  33
ATOM     33  C   UNL A   1      37.163  22.116  24.730  1.00  0.00    -0.052 C 
ATOM     34  H   UNL A   1      38.219  22.167  24.891  1.00  0.00     0.027 H 
ATOM     35  H   UNL A   1      36.857  22.439  23.756  1.00  0.00     0.027 H 
BRANCH  33  36
ATOM     36  C   UNL A   1      36.740  20.648  24.835  1.00  0.00    -0.052 C 
ATOM     37  H   UNL A   1      36.205  20.394  23.943  1.00  0.00     0.027 H 
ATOM     38  H   UNL A   1      36.150  20.574  25.725  1.00  0.00     0.027 H 
BRANCH  36  39
ATOM     39  C   UNL A   1      37.884  19.647  25.002  1.00  0.00    -0.036 C 
ATOM     40  H   UNL A   1      38.213  19.356  24.026  1.00  0.00     0.028 H 
ATOM     41  H   UNL A   1      37.487  18.839  25.581  1.00  0.00     0.028 H 
BRANCH  39  42
ATOM     42  C   UNL A   1      39.097  20.161  25.773  1.00  0.00     0.018 C 
ATOM     43  H   UNL A   1      38.788  20.417  26.764  1.00  0.00     0.049 H 
ATOM     44  H   UNL A   1      39.478  21.008  25.242  1.00  0.00     0.049 H 
BRANCH  42  45
ATOM     45  N   UNL A   1      40.171  19.185  25.859  1.00  0.00    -0.352 N 
ATOM     46  C   UNL A   1      41.509  19.373  26.095  1.00  0.00     0.251 C 
ATOM     47  H   UNL A   1      39.896  18.247  25.729  1.00  0.00     0.163 HD
ATOM     48  O   UNL A   1      42.286  18.423  26.008  1.00  0.00    -0.269 OA
BRANCH  46  49
ATOM     49  C   UNL A   1      42.035  20.717  26.423  1.00  0.00     0.039 A 
ATOM     50  C   UNL A   1      42.297  21.605  25.374  1.00  0.00    -0.049 A 
ATOM     51  C   UNL A   1      42.290  21.104  27.742  1.00  0.00    -0.049 A 
ATOM     52  C   UNL A   1      42.750  22.896  25.651  1.00  0.00    -0.053 A 
ATOM     53  H   UNL A   1      42.155  21.306  24.397  1.00  0.00     0.063 H 
ATOM     54  C   UNL A   1      42.681  22.413  28.022  1.00  0.00    -0.053 A 
ATOM     55  H   UNL A   1      42.189  20.420  28.508  1.00  0.00     0.063 H 
ATOM     56  C   UNL A   1      42.913  23.322  26.980  1.00  0.00    -0.014 A 
ATOM     57  H   UNL A   1      42.967  23.541  24.875  1.00  0.00     0.063 H 
ATOM     58  H   UNL A   1      42.798  22.715  29.002  1.00  0.00     0.063 H 
BRANCH  56  59
ATOM     59  C   UNL A   1      43.302  24.725  27.281  1.00  0.00     0.031 A 
ATOM     60  C   UNL A   1      44.693  25.216  26.996  1.00  0.00     0.074 A 
ATOM     61  C   UNL A   1      42.406  25.547  27.859  1.00  0.00     0.049 A 
ATOM     62  N   UNL A   1      45.206  26.408  27.186  1.00  0.00    -0.248 NA
ATOM     63  C   UNL A   1      45.643  24.236  26.452  1.00  0.00    -0.034 C 
ATOM     64  C   UNL A   1      41.042  25.175  28.241  1.00  0.00    -0.036 A 
ATOM     65  N   UNL A   1      42.505  26.866  28.225  1.00  0.00    -0.354 N 
ATOM     66  C   UNL A   1      46.535  26.316  26.797  1.00  0.00     0.074 A 
ATOM     67  C   UNL A   1      46.765  24.940  26.406  1.00  0.00    -0.034 C 
ATOM     68  H   UNL A   1      45.479  23.255  26.175  1.00  0.00     0.065 H 
ATOM     69  C   UNL A   1      40.421  26.249  28.752  1.00  0.00    -0.036 A 
ATOM     70  H   UNL A   1      40.626  24.237  28.134  1.00  0.00     0.065 H 
ATOM     71  C   UNL A   1      41.348  27.377  28.760  1.00  0.00     0.049 A 
ATOM     72  H   UNL A   1      43.328  27.396  28.115  1.00  0.00     0.167 HD
ATOM     73  C   UNL A   1      47.472  27.292  26.750  1.00  0.00     0.037 A 
ATOM     74  H   UNL A   1      47.682  24.559  26.130  1.00  0.00     0.065 H 
ATOM     75  H   UNL A   1      39.445  26.274  29.085  1.00  0.00     0.065 H 
ATOM     76  C   UNL A   1      41.063  28.618  29.197  1.00  0.00     0.037 A 
ATOM     77  C   UNL A   1      47.235  28.666  27.111  1.00  0.00     0.049 A 
ATOM     78  C   UNL A   1      42.118  29.687  29.120  1.00  0.00     0.074 A 
ATOM     79  C   UNL A   1      48.094  29.747  27.014  1.00  0.00    -0.036 A 
ATOM     80  N   UNL A   1      46.049  29.148  27.648  1.00  0.00    -0.354 N 
ATOM     81  N   UNL A   1      43.343  29.610  28.664  1.00  0.00    -0.248 NA
ATOM     82  C   UNL A   1      41.741  31.018  29.613  1.00  0.00    -0.034 C 
ATOM     83  C   UNL A   1      47.445  30.873  27.534  1.00  0.00    -0.036 A 
ATOM     84  H   UNL A   1      49.049  29.726  26.625  1.00  0.00     0.065 H 
ATOM     85  C   UNL A   1      46.165  30.504  27.914  1.00  0.00     0.049 A 
ATOM     86  H   UNL A   1      45.244  28.607  27.815  1.00  0.00     0.167 HD
ATOM     87  C   UNL A   1      43.878  30.885  28.792  1.00  0.00     0.074 A 
ATOM     88  C   UNL A   1      42.835  31.720  29.351  1.00  0.00    -0.034 C 
ATOM     89  H   UNL A   1      40.857  31.327  30.048  1.00  0.00     0.065 H 
ATOM     90  H   UNL A   1      47.852  31.817  27.621  1.00  0.00     0.065 H 
ATOM     91  C   UNL A   1      45.122  31.323  28.476  1.00  0.00     0.037 A 
ATOM     92  H   UNL A   1      42.932  32.733  29.523  1.00  0.00     0.065 H 
BRANCH  73  93
ATOM     93  C   UNL A   1      48.850  26.908  26.292  1.00  0.00     0.064 A 
ATOM     94  C   UNL A   1      49.803  26.381  27.177  1.00  0.00     0.173 A 
ATOM     95  C   UNL A   1      49.213  27.043  24.943  1.00  0.00     0.173 A 
ATOM     96  F   UNL A   1      49.509  26.242  28.479  1.00  0.00    -0.203 F 
ATOM     97  C   UNL A   1      51.077  26.037  26.737  1.00  0.00     0.198 A 
ATOM     98  C   UNL A   1      50.479  26.669  24.500  1.00  0.00     0.198 A 
ATOM     99  F   UNL A   1      48.338  27.534  24.052  1.00  0.00    -0.203 F 
ATOM    100  F   UNL A   1      51.988  25.585  27.611  1.00  0.00    -0.200 F 
ATOM    101  C   UNL A   1      51.414  26.175  25.399  1.00  0.00     0.200 A 
ATOM    102  F   UNL A   1      50.799  26.793  23.205  1.00  0.00    -0.200 F 
ATOM    103  F   UNL A   1      52.640  25.841  24.976  1.00  0.00    -0.200 F 
ENDBRANCH  73  93
BRANCH  76 104
ATOM    104  C   UNL A   1      39.701  28.929  29.701  1.00  0.00     0.064 A 
ATOM    105  C   UNL A   1      39.370  28.710  31.045  1.00  0.00     0.173 A 
ATOM    106  C   UNL A   1      38.710  29.451  28.859  1.00  0.00     0.173 A 
ATOM    107  F   UNL A   1      40.280  28.190  31.882  1.00  0.00    -0.203 F 
ATOM    108  C   UNL A   1      38.092  28.986  31.525  1.00  0.00     0.198 A 
ATOM    109  C   UNL A   1      37.440  29.752  29.346  1.00  0.00     0.198 A 
ATOM    110  F   UNL A   1      38.980  29.682  27.566  1.00  0.00    -0.203 F 
ATOM    111  F   UNL A   1      37.790  28.730  32.805  1.00  0.00    -0.200 F 
ATOM    112  C   UNL A   1      37.129  29.513  30.677  1.00  0.00     0.200 A 
ATOM    113  F   UNL A   1      36.516  30.271  28.527  1.00  0.00    -0.200 F 
ATOM    114  F   UNL A   1      35.902  29.784  31.140  1.00  0.00    -0.200 F 
ENDBRANCH  76 104
BRANCH  91 115
ATOM    115  C   UNL A   1      45.410  32.777  28.711  1.00  0.00     0.064 A 
ATOM    116  C   UNL A   1      45.154  33.745  27.728  1.00  0.00     0.173 A 
ATOM    117  C   UNL A   1      45.942  33.209  29.935  1.00  0.00     0.173 A 
ATOM    118  F   UNL A   1      44.662  33.380  26.534  1.00  0.00    -0.203 F 
ATOM    119  C   UNL A   1      45.451  35.087  27.950  1.00  0.00     0.198 A 
ATOM    120  C   UNL A   1      46.210  34.556  30.164  1.00  0.00     0.198 A 
ATOM    121  F   UNL A   1      46.200  32.326  30.910  1.00  0.00    -0.203 F 
ATOM    122  F   UNL A   1      45.253  35.985  26.975  1.00  0.00    -0.200 F 
ATOM    123  C   UNL A   1      45.974  35.492  29.169  1.00  0.00     0.200 A 
ATOM    124  F   UNL A   1      46.705  34.947  31.347  1.00  0.00    -0.200 F 
ATOM    125  F   UNL A   1      46.262  36.784  29.380  1.00  0.00    -0.200 F 
ENDBRANCH  91 115
ENDBRANCH  56  59
ENDBRANCH  46  49
ENDBRANCH  42  45
ENDBRANCH  39  42
ENDBRANCH  36  39
ENDBRANCH  33  36
ENDBRANCH   1  33
TORSDOF 17
ENDMDL
MODEL 2
REMARK VINA RESULT:     -10.5      0.530      7.529
REMARK SMILES O=C(CCCC[C@@H]1CCSS1)NCCCCCCNC(=O)c1ccc(-c2c3nc(c(-c4c(F)c(F)c(F)c(F)c4F)c4ccc([nH]4)c(-c4c(F)c(F)c(F)c(F)c4F)c4nc(c(-c5c(F)c(F)c(F)c(F)c5F)c5ccc2[nH]5)C=C4)C=C3)cc1
REMARK SMILES IDX 14 1 13 4 12 7 1 8 2 9 3 11 4 14 5 17 6 20 7 23 8 24 11 25
REMARK SMILES IDX 9 27 10 30 15 33 16 36 17 39 18 42 19 45 20 46 21 48 22 49
REMARK SMILES IDX 23 50 84 51 24 52 83 54 25 56 26 59 27 60 77 61 28 62 82 63
REMARK SMILES IDX 76 64 78 65 29 66 81 67 75 69 74 71 30 73 62 76 42 77 61 78
REMARK SMILES IDX 43 79 46 80 60 81 79 82 44 83 45 85 59 87 80 88 47 91 31 93
REMARK SMILES IDX 32 94 40 95 33 96 34 97 38 98 41 99 35 100 36 101 39 102
REMARK SMILES IDX 37 103 63 104 64 105 72 106 65 107 66 108 70 109 73 110
REMARK SMILES IDX 67 111 68 112 71 113 69 114 48 115 49 116 57 117 50 118
REMARK SMILES IDX 51 119 55 120 58 121 52 122 53 123 56 124 54 125
REMARK H PARENT 14 2 14 3 13 5 13 6 12 10 3 12 3 13 4 15 4 16 5 18 5 19 6 21
REMARK H PARENT 6 22 7 26 8 28 8 29 9 31 9 32 15 34 15 35 16 37 16 38 17 40
REMARK H PARENT 17 41 18 43 18 44 19 47 23 53 84 55 24 57 83 58 82 68 76 70
REMARK H PARENT 78 72 81 74 75 75 43 84 46 86 79 89 44 90 80 92
REMARK Flexibility Score: inf
ROOT
ATOM      1  C   UNL A   1      36.477  23.112  25.640  1.00  0.00    -0.036 C 
ATOM      2  H   UNL A   1      35.887  22.555  26.340  1.00  0.00     0.028 H 
ATOM      3  H   UNL A   1      37.219  23.728  26.102  1.00  0.00     0.028 H 
ENDROOT
BRANCH   1   4
ATOM      4  C   UNL A   1      35.545  24.063  24.888  1.00  0.00     0.017 C 
ATOM      5  H   UNL A   1      35.318  24.899  25.517  1.00  0.00     0.049 H 
ATOM      6  H   UNL A   1      36.039  24.384  23.996  1.00  0.00     0.049 H 
BRANCH   4   7
ATOM      7  N   UNL A   1      34.311  23.407  24.516  1.00  0.00    -0.356 N 
ATOM      8  O   UNL A   1      34.676  23.380  22.251  1.00  0.00    -0.275 OA
ATOM      9  C   UNL A   1      33.975  23.108  23.219  1.00  0.00     0.219 C 
ATOM     10  H   UNL A   1      33.679  23.162  25.229  1.00  0.00     0.163 HD
BRANCH   9  11
ATOM     11  C   UNL A   1      32.632  22.416  23.083  1.00  0.00     0.026 C 
ATOM     12  H   UNL A   1      32.686  21.733  22.261  1.00  0.00     0.037 H 
ATOM     13  H   UNL A   1      31.901  23.181  22.929  1.00  0.00     0.037 H 
BRANCH  11  14
ATOM     14  C   UNL A   1      32.211  21.639  24.331  1.00  0.00    -0.044 C 
ATOM     15  H   UNL A   1      31.149  21.520  24.296  1.00  0.00     0.027 H 
ATOM     16  H   UNL A   1      32.570  22.219  25.156  1.00  0.00     0.027 H 
BRANCH  14  17
ATOM     17  C   UNL A   1      32.830  20.247  24.519  1.00  0.00    -0.052 C 
ATOM     18  H   UNL A   1      32.477  19.855  25.450  1.00  0.00     0.027 H 
ATOM     19  H   UNL A   1      33.890  20.395  24.479  1.00  0.00     0.027 H 
BRANCH  17  20
ATOM     20  C   UNL A   1      32.517  19.215  23.426  1.00  0.00    -0.040 C 
ATOM     21  H   UNL A   1      33.237  19.325  22.641  1.00  0.00     0.028 H 
ATOM     22  H   UNL A   1      31.519  19.405  23.090  1.00  0.00     0.028 H 
BRANCH  20  23
ATOM     23  C   UNL A   1      32.558  17.761  23.923  1.00  0.00     0.016 C 
ATOM     24  C   UNL A   1      32.542  17.672  25.456  1.00  0.00    -0.030 C 
ATOM     25  S   UNL A   1      34.096  16.933  23.384  1.00  0.00    -0.091 SA
ATOM     26  H   UNL A   1      31.689  17.289  23.513  1.00  0.00     0.043 H 
ATOM     27  C   UNL A   1      32.866  16.252  25.904  1.00  0.00     0.005 C 
ATOM     28  H   UNL A   1      31.573  17.944  25.815  1.00  0.00     0.029 H 
ATOM     29  H   UNL A   1      33.280  18.340  25.851  1.00  0.00     0.029 H 
ATOM     30  S   UNL A   1      34.391  15.787  25.055  1.00  0.00    -0.094 SA
ATOM     31  H   UNL A   1      32.073  15.588  25.632  1.00  0.00     0.039 H 
ATOM     32  H   UNL A   1      32.980  16.197  26.967  1.00  0.00     0.039 H 
ENDBRANCH  20  23
ENDBRANCH  17  20
ENDBRANCH  14  17
ENDBRANCH  11  14
ENDBRANCH   9  11
ENDBRANCH   4   7
ENDBRANCH   1   4
BRANCH   1  33
ATOM     33  C   UNL A   1      37.240  22.112  24.759  1.00  0.00    -0.052 C 
ATOM     34  H   UNL A   1      38.275  22.160  25.025  1.00  0.00     0.027 H 
ATOM     35  H   UNL A   1      37.039  22.398  23.748  1.00  0.00     0.027 H 
BRANCH  33  36
ATOM     36  C   UNL A   1      36.791  20.653  24.877  1.00  0.00    -0.052 C 
ATOM     37  H   UNL A   1      36.232  20.408  23.998  1.00  0.00     0.027 H 
ATOM     38  H   UNL A   1      36.220  20.592  25.780  1.00  0.00     0.027 H 
BRANCH  36  39
ATOM     39  C   UNL A   1      37.919  19.630  25.020  1.00  0.00    -0.036 C 
ATOM     40  H   UNL A   1      38.222  19.333  24.038  1.00  0.00     0.028 H 
ATOM     41  H   UNL A   1      37.518  18.829  25.607  1.00  0.00     0.028 H 
BRANCH  39  42
ATOM     42  C   UNL A   1      39.157  20.119  25.767  1.00  0.00     0.018 C 
ATOM     43  H   UNL A   1      38.869  20.394  26.760  1.00  0.00     0.049 H 
ATOM     44  H   UNL A   1      39.552  20.950  25.221  1.00  0.00     0.049 H 
BRANCH  42  45
ATOM     45  N   UNL A   1      40.205  19.115  25.849  1.00  0.00    -0.352 N 
ATOM     46  C   UNL A   1      41.550  19.270  26.067  1.00  0.00     0.251 C 
ATOM     47  H   UNL A   1      39.904  18.184  25.730  1.00  0.00     0.163 HD
ATOM     48  O   UNL A   1      42.300  18.299  25.979  1.00  0.00    -0.269 OA
BRANCH  46  49
ATOM     49  C   UNL A   1      42.116  20.602  26.377  1.00  0.00     0.039 A 
ATOM     50  C   UNL A   1      42.475  21.437  25.314  1.00  0.00    -0.049 A 
ATOM     51  C   UNL A   1      42.313  21.027  27.694  1.00  0.00    -0.049 A 
ATOM     52  C   UNL A   1      42.969  22.718  25.570  1.00  0.00    -0.053 A 
ATOM     53  H   UNL A   1      42.375  21.107  24.341  1.00  0.00     0.063 H 
ATOM     54  C   UNL A   1      42.745  22.329  27.949  1.00  0.00    -0.053 A 
ATOM     55  H   UNL A   1      42.139  20.379  28.476  1.00  0.00     0.063 H 
ATOM     56  C   UNL A   1      43.076  23.187  26.890  1.00  0.00    -0.014 A 
ATOM     57  H   UNL A   1      43.257  23.323  24.786  1.00  0.00     0.063 H 
ATOM     58  H   UNL A   1      42.820  22.663  28.922  1.00  0.00     0.063 H 
BRANCH  56  59
ATOM     59  C   UNL A   1      43.508  24.582  27.163  1.00  0.00     0.031 A 
ATOM     60  C   UNL A   1      42.539  25.597  27.703  1.00  0.00     0.074 A 
ATOM     61  C   UNL A   1      44.773  24.949  26.880  1.00  0.00     0.049 A 
ATOM     62  N   UNL A   1      42.742  26.855  28.009  1.00  0.00    -0.248 NA
ATOM     63  C   UNL A   1      41.154  25.148  27.900  1.00  0.00    -0.034 C 
ATOM     64  C   UNL A   1      45.794  24.075  26.297  1.00  0.00    -0.036 A 
ATOM     65  N   UNL A   1      45.417  26.149  27.044  1.00  0.00    -0.354 N 
ATOM     66  C   UNL A   1      41.512  27.349  28.421  1.00  0.00     0.074 A 
ATOM     67  C   UNL A   1      40.557  26.269  28.281  1.00  0.00    -0.034 C 
ATOM     68  H   UNL A   1      40.750  24.207  27.776  1.00  0.00     0.065 H 
ATOM     69  C   UNL A   1      46.944  24.758  26.188  1.00  0.00    -0.036 A 
ATOM     70  H   UNL A   1      45.651  23.093  26.016  1.00  0.00     0.065 H 
ATOM     71  C   UNL A   1      46.737  26.121  26.665  1.00  0.00     0.049 A 
ATOM     72  H   UNL A   1      44.975  26.954  27.398  1.00  0.00     0.167 HD
ATOM     73  C   UNL A   1      41.211  28.582  28.892  1.00  0.00     0.037 A 
ATOM     74  H   UNL A   1      39.544  26.362  28.453  1.00  0.00     0.065 H 
ATOM     75  H   UNL A   1      47.833  24.378  25.826  1.00  0.00     0.065 H 
ATOM     76  C   UNL A   1      47.676  27.084  26.708  1.00  0.00     0.037 A 
ATOM     77  C   UNL A   1      42.167  29.646  29.060  1.00  0.00     0.049 A 
ATOM     78  C   UNL A   1      47.318  28.440  27.251  1.00  0.00     0.074 A 
ATOM     79  C   UNL A   1      41.978  30.901  29.612  1.00  0.00    -0.036 A 
ATOM     80  N   UNL A   1      43.497  29.581  28.667  1.00  0.00    -0.354 N 
ATOM     81  N   UNL A   1      46.174  28.867  27.723  1.00  0.00    -0.248 NA
ATOM     82  C   UNL A   1      48.391  29.444  27.270  1.00  0.00    -0.034 C 
ATOM     83  C   UNL A   1      43.179  31.612  29.512  1.00  0.00    -0.036 A 
ATOM     84  H   UNL A   1      41.101  31.252  30.027  1.00  0.00     0.065 H 
ATOM     85  C   UNL A   1      44.131  30.784  28.938  1.00  0.00     0.049 A 
ATOM     86  H   UNL A   1      43.927  28.796  28.256  1.00  0.00     0.167 HD
ATOM     87  C   UNL A   1      46.392  30.180  28.120  1.00  0.00     0.074 A 
ATOM     88  C   UNL A   1      47.785  30.472  27.848  1.00  0.00    -0.034 C 
ATOM     89  H   UNL A   1      49.361  29.369  26.926  1.00  0.00     0.065 H 
ATOM     90  H   UNL A   1      43.330  32.587  29.813  1.00  0.00     0.065 H 
ATOM     91  C   UNL A   1      45.516  31.064  28.658  1.00  0.00     0.037 A 
ATOM     92  H   UNL A   1      48.246  31.366  28.076  1.00  0.00     0.065 H 
BRANCH  73  93
ATOM     93  C   UNL A   1      39.780  28.851  29.262  1.00  0.00     0.064 A 
ATOM     94  C   UNL A   1      39.295  28.613  30.558  1.00  0.00     0.173 A 
ATOM     95  C   UNL A   1      38.888  29.377  28.316  1.00  0.00     0.173 A 
ATOM     96  F   UNL A   1      40.105  28.100  31.497  1.00  0.00    -0.203 F 
ATOM     97  C   UNL A   1      37.965  28.861  30.882  1.00  0.00     0.198 A 
ATOM     98  C   UNL A   1      37.565  29.653  28.652  1.00  0.00     0.198 A 
ATOM     99  F   UNL A   1      39.301  29.630  27.064  1.00  0.00    -0.203 F 
ATOM    100  F   UNL A   1      37.512  28.578  32.111  1.00  0.00    -0.200 F 
ATOM    101  C   UNL A   1      37.102  29.386  29.932  1.00  0.00     0.200 A 
ATOM    102  F   UNL A   1      36.735  30.170  27.736  1.00  0.00    -0.200 F 
ATOM    103  F   UNL A   1      35.822  29.627  30.246  1.00  0.00    -0.200 F 
ENDBRANCH  73  93
BRANCH  76 104
ATOM    104  C   UNL A   1      49.063  26.783  26.271  1.00  0.00     0.064 A 
ATOM    105  C   UNL A   1      49.464  27.027  24.950  1.00  0.00     0.173 A 
ATOM    106  C   UNL A   1      50.012  26.252  27.155  1.00  0.00     0.173 A 
ATOM    107  F   UNL A   1      48.583  27.514  24.063  1.00  0.00    -0.203 F 
ATOM    108  C   UNL A   1      50.758  26.737  24.525  1.00  0.00     0.198 A 
ATOM    109  C   UNL A   1      51.314  25.986  26.736  1.00  0.00     0.198 A 
ATOM    110  F   UNL A   1      49.678  26.005  28.430  1.00  0.00    -0.203 F 
ATOM    111  F   UNL A   1      51.103  26.943  23.247  1.00  0.00    -0.200 F 
ATOM    112  C   UNL A   1      51.684  26.222  25.420  1.00  0.00     0.200 A 
ATOM    113  F   UNL A   1      52.209  25.499  27.606  1.00  0.00    -0.200 F 
ATOM    114  F   UNL A   1      52.930  25.948  25.013  1.00  0.00    -0.200 F 
ENDBRANCH  76 104
BRANCH  91 115
ATOM    115  C   UNL A   1      46.049  32.423  29.006  1.00  0.00     0.064 A 
ATOM    116  C   UNL A   1      45.996  33.489  28.096  1.00  0.00     0.173 A 
ATOM    117  C   UNL A   1      46.614  32.664  30.268  1.00  0.00     0.173 A 
ATOM    118  F   UNL A   1      45.481  33.305  26.871  1.00  0.00    -0.203 F 
ATOM    119  C   UNL A   1      46.518  34.738  28.424  1.00  0.00     0.198 A 
ATOM    120  C   UNL A   1      47.109  33.922  30.602  1.00  0.00     0.198 A 
ATOM    121  F   UNL A   1      46.685  31.681  31.177  1.00  0.00    -0.203 F 
ATOM    122  F   UNL A   1      46.509  35.724  27.517  1.00  0.00    -0.200 F 
ATOM    123  C   UNL A   1      47.070  34.955  29.678  1.00  0.00     0.200 A 
ATOM    124  F   UNL A   1      47.632  34.133  31.819  1.00  0.00    -0.200 F 
ATOM    125  F   UNL A   1      47.574  36.156  29.990  1.00  0.00    -0.200 F 
ENDBRANCH  91 115
ENDBRANCH  56  59
ENDBRANCH  46  49
ENDBRANCH  42  45
ENDBRANCH  39  42
ENDBRANCH  36  39
ENDBRANCH  33  36
ENDBRANCH   1  33
TORSDOF 17
ENDMDL
MODEL 3
REMARK VINA RESULT:     -10.3      6.615     10.593
REMARK SMILES O=C(CCCC[C@@H]1CCSS1)NCCCCCCNC(=O)c1ccc(-c2c3nc(c(-c4c(F)c(F)c(F)c(F)c4F)c4ccc([nH]4)c(-c4c(F)c(F)c(F)c(F)c4F)c4nc(c(-c5c(F)c(F)c(F)c(F)c5F)c5ccc2[nH]5)C=C4)C=C3)cc1
REMARK SMILES IDX 14 1 13 4 12 7 1 8 2 9 3 11 4 14 5 17 6 20 7 23 8 24 11 25
REMARK SMILES IDX 9 27 10 30 15 33 16 36 17 39 18 42 19 45 20 46 21 48 22 49
REMARK SMILES IDX 23 50 84 51 24 52 83 54 25 56 26 59 27 60 77 61 28 62 82 63
REMARK SMILES IDX 76 64 78 65 29 66 81 67 75 69 74 71 30 73 62 76 42 77 61 78
REMARK SMILES IDX 43 79 46 80 60 81 79 82 44 83 45 85 59 87 80 88 47 91 31 93
REMARK SMILES IDX 32 94 40 95 33 96 34 97 38 98 41 99 35 100 36 101 39 102
REMARK SMILES IDX 37 103 63 104 64 105 72 106 65 107 66 108 70 109 73 110
REMARK SMILES IDX 67 111 68 112 71 113 69 114 48 115 49 116 57 117 50 118
REMARK SMILES IDX 51 119 55 120 58 121 52 122 53 123 56 124 54 125
REMARK H PARENT 14 2 14 3 13 5 13 6 12 10 3 12 3 13 4 15 4 16 5 18 5 19 6 21
REMARK H PARENT 6 22 7 26 8 28 8 29 9 31 9 32 15 34 15 35 16 37 16 38 17 40
REMARK H PARENT 17 41 18 43 18 44 19 47 23 53 84 55 24 57 83 58 82 68 76 70
REMARK H PARENT 78 72 81 74 75 75 43 84 46 86 79 89 44 90 80 92
REMARK Flexibility Score: inf
ROOT
ATOM      1  C   UNL A   1      33.235  28.905  26.815  1.00  0.00    -0.036 C 
ATOM      2  H   UNL A   1      33.942  29.685  27.018  1.00  0.00     0.028 H 
ATOM      3  H   UNL A   1      33.239  28.125  27.547  1.00  0.00     0.028 H 
ENDROOT
BRANCH   1   4
ATOM      4  C   UNL A   1      33.623  28.247  25.491  1.00  0.00     0.017 C 
ATOM      5  H   UNL A   1      34.110  28.971  24.871  1.00  0.00     0.049 H 
ATOM      6  H   UNL A   1      34.276  27.427  25.700  1.00  0.00     0.049 H 
BRANCH   4   7
ATOM      7  N   UNL A   1      32.461  27.739  24.795  1.00  0.00    -0.356 N 
ATOM      8  O   UNL A   1      33.588  26.617  23.142  1.00  0.00    -0.275 OA
ATOM      9  C   UNL A   1      32.535  26.952  23.673  1.00  0.00     0.219 C 
ATOM     10  H   UNL A   1      31.570  27.970  25.145  1.00  0.00     0.163 HD
BRANCH   9  11
ATOM     11  C   UNL A   1      31.180  26.541  23.127  1.00  0.00     0.026 C 
ATOM     12  H   UNL A   1      30.723  25.874  23.827  1.00  0.00     0.037 H 
ATOM     13  H   UNL A   1      31.353  26.080  22.178  1.00  0.00     0.037 H 
BRANCH  11  14
ATOM     14  C   UNL A   1      30.232  27.717  22.888  1.00  0.00    -0.044 C 
ATOM     15  H   UNL A   1      30.156  27.862  21.831  1.00  0.00     0.027 H 
ATOM     16  H   UNL A   1      30.663  28.538  23.423  1.00  0.00     0.027 H 
BRANCH  14  17
ATOM     17  C   UNL A   1      28.808  27.580  23.443  1.00  0.00    -0.052 C 
ATOM     18  H   UNL A   1      28.878  27.480  24.506  1.00  0.00     0.027 H 
ATOM     19  H   UNL A   1      28.388  26.727  22.949  1.00  0.00     0.027 H 
BRANCH  17  20
ATOM     20  C   UNL A   1      27.850  28.742  23.142  1.00  0.00    -0.040 C 
ATOM     21  H   UNL A   1      27.246  28.914  24.008  1.00  0.00     0.028 H 
ATOM     22  H   UNL A   1      27.267  28.457  22.291  1.00  0.00     0.028 H 
BRANCH  20  23
ATOM     23  C   UNL A   1      28.568  30.053  22.780  1.00  0.00     0.016 C 
ATOM     24  C   UNL A   1      28.133  31.219  23.679  1.00  0.00    -0.030 C 
ATOM     25  S   UNL A   1      28.173  30.558  21.069  1.00  0.00    -0.091 SA
ATOM     26  H   UNL A   1      29.612  29.855  22.905  1.00  0.00     0.043 H 
ATOM     27  C   UNL A   1      28.645  32.538  23.114  1.00  0.00     0.005 C 
ATOM     28  H   UNL A   1      28.532  31.075  24.661  1.00  0.00     0.029 H 
ATOM     29  H   UNL A   1      27.064  31.248  23.719  1.00  0.00     0.029 H 
ATOM     30  S   UNL A   1      28.134  32.581  21.382  1.00  0.00    -0.094 SA
ATOM     31  H   UNL A   1      29.712  32.583  23.188  1.00  0.00     0.039 H 
ATOM     32  H   UNL A   1      28.252  33.372  23.658  1.00  0.00     0.039 H 
ENDBRANCH  20  23
ENDBRANCH  17  20
ENDBRANCH  14  17
ENDBRANCH  11  14
ENDBRANCH   9  11
ENDBRANCH   4   7
ENDBRANCH   1   4
BRANCH   1  33
ATOM     33  C   UNL A   1      31.828  29.520  26.853  1.00  0.00    -0.052 C 
ATOM     34  H   UNL A   1      31.655  29.888  27.842  1.00  0.00     0.027 H 
ATOM     35  H   UNL A   1      31.158  28.738  26.560  1.00  0.00     0.027 H 
BRANCH  33  36
ATOM     36  C   UNL A   1      31.583  30.670  25.873  1.00  0.00    -0.052 C 
ATOM     37  H   UNL A   1      30.725  30.423  25.282  1.00  0.00     0.027 H 
ATOM     38  H   UNL A   1      32.483  30.768  25.302  1.00  0.00     0.027 H 
BRANCH  36  39
ATOM     39  C   UNL A   1      31.338  32.036  26.514  1.00  0.00    -0.036 C 
ATOM     40  H   UNL A   1      30.558  31.927  27.237  1.00  0.00     0.028 H 
ATOM     41  H   UNL A   1      31.089  32.698  25.710  1.00  0.00     0.028 H 
BRANCH  39  42
ATOM     42  C   UNL A   1      32.544  32.658  27.212  1.00  0.00     0.018 C 
ATOM     43  H   UNL A   1      33.386  32.603  26.554  1.00  0.00     0.049 H 
ATOM     44  H   UNL A   1      32.708  32.110  28.117  1.00  0.00     0.049 H 
BRANCH  42  45
ATOM     45  N   UNL A   1      32.333  34.049  27.580  1.00  0.00    -0.352 N 
ATOM     46  C   UNL A   1      32.979  34.814  28.518  1.00  0.00     0.251 C 
ATOM     47  H   UNL A   1      31.621  34.511  27.081  1.00  0.00     0.163 HD
ATOM     48  O   UNL A   1      32.570  35.947  28.770  1.00  0.00    -0.269 OA
BRANCH  46  49
ATOM     49  C   UNL A   1      34.145  34.279  29.256  1.00  0.00     0.039 A 
ATOM     50  C   UNL A   1      33.917  33.575  30.443  1.00  0.00    -0.049 A 
ATOM     51  C   UNL A   1      35.453  34.477  28.804  1.00  0.00    -0.049 A 
ATOM     52  C   UNL A   1      34.991  33.017  31.140  1.00  0.00    -0.053 A 
ATOM     53  H   UNL A   1      32.956  33.468  30.803  1.00  0.00     0.063 H 
ATOM     54  C   UNL A   1      36.519  33.866  29.465  1.00  0.00    -0.053 A 
ATOM     55  H   UNL A   1      35.629  35.076  27.983  1.00  0.00     0.063 H 
ATOM     56  C   UNL A   1      36.298  33.129  30.638  1.00  0.00    -0.014 A 
ATOM     57  H   UNL A   1      34.823  32.520  32.028  1.00  0.00     0.063 H 
ATOM     58  H   UNL A   1      37.475  33.955  29.087  1.00  0.00     0.063 H 
BRANCH  56  59
ATOM     59  C   UNL A   1      37.431  32.455  31.323  1.00  0.00     0.031 A 
ATOM     60  C   UNL A   1      38.170  31.326  30.660  1.00  0.00     0.074 A 
ATOM     61  C   UNL A   1      37.767  32.834  32.571  1.00  0.00     0.049 A 
ATOM     62  N   UNL A   1      39.187  30.629  31.104  1.00  0.00    -0.248 NA
ATOM     63  C   UNL A   1      37.688  30.907  29.337  1.00  0.00    -0.034 C 
ATOM     64  C   UNL A   1      37.090  33.875  33.347  1.00  0.00    -0.036 A 
ATOM     65  N   UNL A   1      38.761  32.389  33.406  1.00  0.00    -0.354 N 
ATOM     66  C   UNL A   1      39.457  29.684  30.123  1.00  0.00     0.074 A 
ATOM     67  C   UNL A   1      38.467  29.865  29.081  1.00  0.00    -0.034 C 
ATOM     68  H   UNL A   1      36.940  31.317  28.756  1.00  0.00     0.065 H 
ATOM     69  C   UNL A   1      37.711  34.015  34.528  1.00  0.00    -0.036 A 
ATOM     70  H   UNL A   1      36.268  34.414  33.035  1.00  0.00     0.065 H 
ATOM     71  C   UNL A   1      38.810  33.056  34.605  1.00  0.00     0.049 A 
ATOM     72  H   UNL A   1      39.379  31.661  33.169  1.00  0.00     0.167 HD
ATOM     73  C   UNL A   1      40.450  28.765  30.084  1.00  0.00     0.037 A 
ATOM     74  H   UNL A   1      38.379  29.260  28.251  1.00  0.00     0.065 H 
ATOM     75  H   UNL A   1      37.454  34.691  35.264  1.00  0.00     0.065 H 
ATOM     76  C   UNL A   1      39.653  32.919  35.645  1.00  0.00     0.037 A 
ATOM     77  C   UNL A   1      41.453  28.605  31.107  1.00  0.00     0.049 A 
ATOM     78  C   UNL A   1      40.757  31.900  35.570  1.00  0.00     0.074 A 
ATOM     79  C   UNL A   1      42.551  27.763  31.118  1.00  0.00    -0.036 A 
ATOM     80  N   UNL A   1      41.472  29.301  32.308  1.00  0.00    -0.354 N 
ATOM     81  N   UNL A   1      41.058  31.076  34.598  1.00  0.00    -0.248 NA
ATOM     82  C   UNL A   1      41.642  31.802  36.738  1.00  0.00    -0.034 C 
ATOM     83  C   UNL A   1      43.209  27.915  32.343  1.00  0.00    -0.036 A 
ATOM     84  H   UNL A   1      42.836  27.132  30.353  1.00  0.00     0.065 H 
ATOM     85  C   UNL A   1      42.548  28.885  33.079  1.00  0.00     0.049 A 
ATOM     86  H   UNL A   1      40.819  29.988  32.573  1.00  0.00     0.167 HD
ATOM     87  C   UNL A   1      42.180  30.378  35.024  1.00  0.00     0.074 A 
ATOM     88  C   UNL A   1      42.517  30.891  36.336  1.00  0.00    -0.034 C 
ATOM     89  H   UNL A   1      41.597  32.311  37.636  1.00  0.00     0.065 H 
ATOM     90  H   UNL A   1      44.045  27.393  32.648  1.00  0.00     0.065 H 
ATOM     91  C   UNL A   1      42.868  29.399  34.386  1.00  0.00     0.037 A 
ATOM     92  H   UNL A   1      43.333  30.585  36.888  1.00  0.00     0.065 H 
BRANCH  73  93
ATOM     93  C   UNL A   1      40.503  27.853  28.892  1.00  0.00     0.064 A 
ATOM     94  C   UNL A   1      41.291  28.150  27.769  1.00  0.00     0.173 A 
ATOM     95  C   UNL A   1      39.777  26.652  28.883  1.00  0.00     0.173 A 
ATOM     96  F   UNL A   1      41.996  29.291  27.724  1.00  0.00    -0.203 F 
ATOM     97  C   UNL A   1      41.323  27.297  26.670  1.00  0.00     0.198 A 
ATOM     98  C   UNL A   1      39.834  25.787  27.794  1.00  0.00     0.198 A 
ATOM     99  F   UNL A   1      39.012  26.316  29.933  1.00  0.00    -0.203 F 
ATOM    100  F   UNL A   1      42.042  27.628  25.588  1.00  0.00    -0.200 F 
ATOM    101  C   UNL A   1      40.601  26.114  26.684  1.00  0.00     0.200 A 
ATOM    102  F   UNL A   1      39.145  24.638  27.814  1.00  0.00    -0.200 F 
ATOM    103  F   UNL A   1      40.634  25.292  25.626  1.00  0.00    -0.200 F 
ENDBRANCH  73  93
BRANCH  76 104
ATOM    104  C   UNL A   1      39.518  33.806  36.829  1.00  0.00     0.064 A 
ATOM    105  C   UNL A   1      38.763  33.404  37.939  1.00  0.00     0.173 A 
ATOM    106  C   UNL A   1      40.137  35.062  36.878  1.00  0.00     0.173 A 
ATOM    107  F   UNL A   1      38.134  32.219  37.927  1.00  0.00    -0.203 F 
ATOM    108  C   UNL A   1      38.618  34.233  39.049  1.00  0.00     0.198 A 
ATOM    109  C   UNL A   1      40.013  35.879  38.000  1.00  0.00     0.198 A 
ATOM    110  F   UNL A   1      40.873  35.489  35.842  1.00  0.00    -0.203 F 
ATOM    111  F   UNL A   1      37.858  33.841  40.081  1.00  0.00    -0.200 F 
ATOM    112  C   UNL A   1      39.249  35.468  39.082  1.00  0.00     0.200 A 
ATOM    113  F   UNL A   1      40.633  37.067  38.032  1.00  0.00    -0.200 F 
ATOM    114  F   UNL A   1      39.115  36.262  40.151  1.00  0.00    -0.200 F 
ENDBRANCH  76 104
BRANCH  91 115
ATOM    115  C   UNL A   1      44.066  28.836  35.095  1.00  0.00     0.064 A 
ATOM    116  C   UNL A   1      45.341  29.400  34.943  1.00  0.00     0.173 A 
ATOM    117  C   UNL A   1      43.935  27.726  35.942  1.00  0.00     0.173 A 
ATOM    118  F   UNL A   1      45.521  30.452  34.130  1.00  0.00    -0.203 F 
ATOM    119  C   UNL A   1      46.448  28.852  35.586  1.00  0.00     0.198 A 
ATOM    120  C   UNL A   1      45.038  27.199  36.607  1.00  0.00     0.198 A 
ATOM    121  F   UNL A   1      42.737  27.153  36.127  1.00  0.00    -0.203 F 
ATOM    122  F   UNL A   1      47.665  29.371  35.380  1.00  0.00    -0.200 F 
ATOM    123  C   UNL A   1      46.295  27.755  36.421  1.00  0.00     0.200 A 
ATOM    124  F   UNL A   1      44.887  26.145  37.423  1.00  0.00    -0.200 F 
ATOM    125  F   UNL A   1      47.361  27.227  37.038  1.00  0.00    -0.200 F 
ENDBRANCH  91 115
ENDBRANCH  56  59
ENDBRANCH  46  49
ENDBRANCH  42  45
ENDBRANCH  39  42
ENDBRANCH  36  39
ENDBRANCH  33  36
ENDBRANCH   1  33
TORSDOF 17
ENDMDL
MODEL 4
REMARK VINA RESULT:     -10.3      6.472     11.663
REMARK SMILES O=C(CCCC[C@@H]1CCSS1)NCCCCCCNC(=O)c1ccc(-c2c3nc(c(-c4c(F)c(F)c(F)c(F)c4F)c4ccc([nH]4)c(-c4c(F)c(F)c(F)c(F)c4F)c4nc(c(-c5c(F)c(F)c(F)c(F)c5F)c5ccc2[nH]5)C=C4)C=C3)cc1
REMARK SMILES IDX 14 1 13 4 12 7 1 8 2 9 3 11 4 14 5 17 6 20 7 23 8 24 11 25
REMARK SMILES IDX 9 27 10 30 15 33 16 36 17 39 18 42 19 45 20 46 21 48 22 49
REMARK SMILES IDX 23 50 84 51 24 52 83 54 25 56 26 59 27 60 77 61 28 62 82 63
REMARK SMILES IDX 76 64 78 65 29 66 81 67 75 69 74 71 30 73 62 76 42 77 61 78
REMARK SMILES IDX 43 79 46 80 60 81 79 82 44 83 45 85 59 87 80 88 47 91 31 93
REMARK SMILES IDX 32 94 40 95 33 96 34 97 38 98 41 99 35 100 36 101 39 102
REMARK SMILES IDX 37 103 63 104 64 105 72 106 65 107 66 108 70 109 73 110
REMARK SMILES IDX 67 111 68 112 71 113 69 114 48 115 49 116 57 117 50 118
REMARK SMILES IDX 51 119 55 120 58 121 52 122 53 123 56 124 54 125
REMARK H PARENT 14 2 14 3 13 5 13 6 12 10 3 12 3 13 4 15 4 16 5 18 5 19 6 21
REMARK H PARENT 6 22 7 26 8 28 8 29 9 31 9 32 15 34 15 35 16 37 16 38 17 40
REMARK H PARENT 17 41 18 43 18 44 19 47 23 53 84 55 24 57 83 58 82 68 76 70
REMARK H PARENT 78 72 81 74 75 75 43 84 46 86 79 89 44 90 80 92
REMARK Flexibility Score: inf
ROOT
ATOM      1  C   UNL A   1      33.557  29.411  27.198  1.00  0.00    -0.036 C 
ATOM      2  H   UNL A   1      34.019  30.371  27.306  1.00  0.00     0.028 H 
ATOM      3  H   UNL A   1      33.745  28.751  28.018  1.00  0.00     0.028 H 
ENDROOT
BRANCH   1   4
ATOM      4  C   UNL A   1      34.152  28.735  25.963  1.00  0.00     0.017 C 
ATOM      5  H   UNL A   1      34.503  29.488  25.288  1.00  0.00     0.049 H 
ATOM      6  H   UNL A   1      34.956  28.104  26.278  1.00  0.00     0.049 H 
BRANCH   4   7
ATOM      7  N   UNL A   1      33.171  27.916  25.286  1.00  0.00    -0.356 N 
ATOM      8  O   UNL A   1      33.246  28.996  23.263  1.00  0.00    -0.275 OA
ATOM      9  C   UNL A   1      32.798  28.107  23.979  1.00  0.00     0.219 C 
ATOM     10  H   UNL A   1      32.747  27.184  25.789  1.00  0.00     0.163 HD
BRANCH   9  11
ATOM     11  C   UNL A   1      31.754  27.119  23.492  1.00  0.00     0.026 C 
ATOM     12  H   UNL A   1      31.959  26.167  23.934  1.00  0.00     0.037 H 
ATOM     13  H   UNL A   1      31.820  27.096  22.425  1.00  0.00     0.037 H 
BRANCH  11  14
ATOM     14  C   UNL A   1      30.320  27.518  23.845  1.00  0.00    -0.044 C 
ATOM     15  H   UNL A   1      30.365  28.175  24.687  1.00  0.00     0.027 H 
ATOM     16  H   UNL A   1      29.808  26.595  24.024  1.00  0.00     0.027 H 
BRANCH  14  17
ATOM     17  C   UNL A   1      29.510  28.221  22.747  1.00  0.00    -0.052 C 
ATOM     18  H   UNL A   1      29.419  27.545  21.923  1.00  0.00     0.027 H 
ATOM     19  H   UNL A   1      30.049  29.118  22.522  1.00  0.00     0.027 H 
BRANCH  17  20
ATOM     20  C   UNL A   1      28.097  28.678  23.139  1.00  0.00    -0.040 C 
ATOM     21  H   UNL A   1      28.065  28.806  24.201  1.00  0.00     0.028 H 
ATOM     22  H   UNL A   1      27.417  27.925  22.800  1.00  0.00     0.028 H 
BRANCH  20  23
ATOM     23  C   UNL A   1      27.673  30.000  22.477  1.00  0.00     0.016 C 
ATOM     24  C   UNL A   1      28.573  30.368  21.289  1.00  0.00    -0.030 C 
ATOM     25  S   UNL A   1      27.802  31.388  23.659  1.00  0.00    -0.091 SA
ATOM     26  H   UNL A   1      26.665  29.850  22.149  1.00  0.00     0.043 H 
ATOM     27  C   UNL A   1      28.302  31.800  20.847  1.00  0.00     0.005 C 
ATOM     28  H   UNL A   1      28.374  29.702  20.475  1.00  0.00     0.029 H 
ATOM     29  H   UNL A   1      29.597  30.283  21.588  1.00  0.00     0.029 H 
ATOM     30  S   UNL A   1      28.419  32.821  22.332  1.00  0.00    -0.094 SA
ATOM     31  H   UNL A   1      27.324  31.877  20.420  1.00  0.00     0.039 H 
ATOM     32  H   UNL A   1      29.002  32.116  20.100  1.00  0.00     0.039 H 
ENDBRANCH  20  23
ENDBRANCH  17  20
ENDBRANCH  14  17
ENDBRANCH  11  14
ENDBRANCH   9  11
ENDBRANCH   4   7
ENDBRANCH   1   4
BRANCH   1  33
ATOM     33  C   UNL A   1      32.035  29.619  27.160  1.00  0.00    -0.052 C 
ATOM     34  H   UNL A   1      31.717  29.906  28.140  1.00  0.00     0.027 H 
ATOM     35  H   UNL A   1      31.620  28.692  26.824  1.00  0.00     0.027 H 
BRANCH  33  36
ATOM     36  C   UNL A   1      31.538  30.680  26.174  1.00  0.00    -0.052 C 
ATOM     37  H   UNL A   1      30.595  30.355  25.787  1.00  0.00     0.027 H 
ATOM     38  H   UNL A   1      32.301  30.769  25.428  1.00  0.00     0.027 H 
BRANCH  36  39
ATOM     39  C   UNL A   1      31.353  32.081  26.757  1.00  0.00    -0.036 C 
ATOM     40  H   UNL A   1      30.999  31.977  27.762  1.00  0.00     0.028 H 
ATOM     41  H   UNL A   1      30.664  32.582  26.109  1.00  0.00     0.028 H 
BRANCH  39  42
ATOM     42  C   UNL A   1      32.608  32.950  26.788  1.00  0.00     0.018 C 
ATOM     43  H   UNL A   1      32.867  33.211  25.784  1.00  0.00     0.049 H 
ATOM     44  H   UNL A   1      33.379  32.382  27.265  1.00  0.00     0.049 H 
BRANCH  42  45
ATOM     45  N   UNL A   1      32.433  34.173  27.555  1.00  0.00    -0.352 N 
ATOM     46  C   UNL A   1      33.111  34.616  28.662  1.00  0.00     0.251 C 
ATOM     47  H   UNL A   1      31.722  34.773  27.231  1.00  0.00     0.163 HD
ATOM     48  O   UNL A   1      32.732  35.630  29.247  1.00  0.00    -0.269 OA
BRANCH  46  49
ATOM     49  C   UNL A   1      34.278  33.869  29.182  1.00  0.00     0.039 A 
ATOM     50  C   UNL A   1      35.558  34.371  28.926  1.00  0.00    -0.049 A 
ATOM     51  C   UNL A   1      34.127  32.678  29.898  1.00  0.00    -0.049 A 
ATOM     52  C   UNL A   1      36.679  33.716  29.441  1.00  0.00    -0.053 A 
ATOM     53  H   UNL A   1      35.675  35.224  28.357  1.00  0.00     0.063 H 
ATOM     54  C   UNL A   1      35.242  32.061  30.467  1.00  0.00    -0.053 A 
ATOM     55  H   UNL A   1      33.192  32.257  30.007  1.00  0.00     0.063 H 
ATOM     56  C   UNL A   1      36.528  32.574  30.245  1.00  0.00    -0.014 A 
ATOM     57  H   UNL A   1      37.624  34.073  29.229  1.00  0.00     0.063 H 
ATOM     58  H   UNL A   1      35.119  31.222  31.056  1.00  0.00     0.063 H 
BRANCH  56  59
ATOM     59  C   UNL A   1      37.710  31.931  30.875  1.00  0.00     0.031 A 
ATOM     60  C   UNL A   1      38.142  32.309  32.264  1.00  0.00     0.074 A 
ATOM     61  C   UNL A   1      38.426  31.034  30.172  1.00  0.00     0.049 A 
ATOM     62  N   UNL A   1      39.141  31.846  32.975  1.00  0.00    -0.248 NA
ATOM     63  C   UNL A   1      37.367  33.362  32.935  1.00  0.00    -0.034 C 
ATOM     64  C   UNL A   1      38.147  30.626  28.793  1.00  0.00    -0.036 A 
ATOM     65  N   UNL A   1      39.534  30.301  30.517  1.00  0.00    -0.354 N 
ATOM     66  C   UNL A   1      39.122  32.558  34.166  1.00  0.00     0.074 A 
ATOM     67  C   UNL A   1      38.042  33.518  34.065  1.00  0.00    -0.034 C 
ATOM     68  H   UNL A   1      36.518  33.851  32.612  1.00  0.00     0.065 H 
ATOM     69  C   UNL A   1      39.036  29.691  28.424  1.00  0.00    -0.036 A 
ATOM     70  H   UNL A   1      37.389  30.999  28.201  1.00  0.00     0.065 H 
ATOM     71  C   UNL A   1      39.962  29.452  29.526  1.00  0.00     0.049 A 
ATOM     72  H   UNL A   1      39.980  30.378  31.391  1.00  0.00     0.167 HD
ATOM     73  C   UNL A   1      39.917  32.412  35.252  1.00  0.00     0.037 A 
ATOM     74  H   UNL A   1      37.828  34.231  34.779  1.00  0.00     0.065 H 
ATOM     75  H   UNL A   1      39.059  29.216  27.508  1.00  0.00     0.065 H 
ATOM     76  C   UNL A   1      40.981  28.572  29.513  1.00  0.00     0.037 A 
ATOM     77  C   UNL A   1      40.972  31.437  35.364  1.00  0.00     0.049 A 
ATOM     78  C   UNL A   1      41.839  28.419  30.738  1.00  0.00     0.074 A 
ATOM     79  C   UNL A   1      41.775  31.151  36.455  1.00  0.00    -0.036 A 
ATOM     80  N   UNL A   1      41.377  30.591  34.340  1.00  0.00    -0.354 N 
ATOM     81  N   UNL A   1      41.753  29.033  31.891  1.00  0.00    -0.248 NA
ATOM     82  C   UNL A   1      42.933  27.441  30.656  1.00  0.00    -0.034 C 
ATOM     83  C   UNL A   1      42.694  30.166  36.078  1.00  0.00    -0.036 A 
ATOM     84  H   UNL A   1      41.706  31.589  37.386  1.00  0.00     0.065 H 
ATOM     85  C   UNL A   1      42.437  29.805  34.766  1.00  0.00     0.049 A 
ATOM     86  H   UNL A   1      40.971  30.555  33.444  1.00  0.00     0.167 HD
ATOM     87  C   UNL A   1      42.763  28.502  32.682  1.00  0.00     0.074 A 
ATOM     88  C   UNL A   1      43.437  27.500  31.880  1.00  0.00    -0.034 C 
ATOM     89  H   UNL A   1      43.230  26.860  29.856  1.00  0.00     0.065 H 
ATOM     90  H   UNL A   1      43.439  29.776  36.676  1.00  0.00     0.065 H 
ATOM     91  C   UNL A   1      43.103  28.816  33.957  1.00  0.00     0.037 A 
ATOM     92  H   UNL A   1      44.211  26.909  32.220  1.00  0.00     0.065 H 
BRANCH  73  93
ATOM     93  C   UNL A   1      39.678  33.333  36.415  1.00  0.00     0.064 A 
ATOM     94  C   UNL A   1      40.342  34.564  36.530  1.00  0.00     0.173 A 
ATOM     95  C   UNL A   1      38.754  32.991  37.413  1.00  0.00     0.173 A 
ATOM     96  F   UNL A   1      41.244  34.932  35.607  1.00  0.00    -0.203 F 
ATOM     97  C   UNL A   1      40.114  35.402  37.617  1.00  0.00     0.198 A 
ATOM     98  C   UNL A   1      38.506  33.846  38.484  1.00  0.00     0.198 A 
ATOM     99  F   UNL A   1      38.086  31.829  37.349  1.00  0.00    -0.203 F 
ATOM    100  F   UNL A   1      40.798  36.549  37.732  1.00  0.00    -0.200 F 
ATOM    101  C   UNL A   1      39.193  35.047  38.590  1.00  0.00     0.200 A 
ATOM    102  F   UNL A   1      37.607  33.507  39.418  1.00  0.00    -0.200 F 
ATOM    103  F   UNL A   1      38.973  35.856  39.635  1.00  0.00    -0.200 F 
ENDBRANCH  73  93
BRANCH  76 104
ATOM    104  C   UNL A   1      41.212  27.729  28.312  1.00  0.00     0.064 A 
ATOM    105  C   UNL A   1      42.095  28.147  27.306  1.00  0.00     0.173 A 
ATOM    106  C   UNL A   1      40.566  26.497  28.146  1.00  0.00     0.173 A 
ATOM    107  F   UNL A   1      42.718  29.330  27.412  1.00  0.00    -0.203 F 
ATOM    108  C   UNL A   1      42.310  27.371  26.170  1.00  0.00     0.198 A 
ATOM    109  C   UNL A   1      40.802  25.709  27.022  1.00  0.00     0.198 A 
ATOM    110  F   UNL A   1      39.716  26.052  29.083  1.00  0.00    -0.203 F 
ATOM    111  F   UNL A   1      43.128  27.812  25.205  1.00  0.00    -0.200 F 
ATOM    112  C   UNL A   1      41.668  26.148  26.031  1.00  0.00     0.200 A 
ATOM    113  F   UNL A   1      40.189  24.524  26.896  1.00  0.00    -0.200 F 
ATOM    114  F   UNL A   1      41.880  25.399  24.942  1.00  0.00    -0.200 F 
ENDBRANCH  76 104
BRANCH  91 115
ATOM    115  C   UNL A   1      44.242  28.051  34.565  1.00  0.00     0.064 A 
ATOM    116  C   UNL A   1      44.036  26.834  35.233  1.00  0.00     0.173 A 
ATOM    117  C   UNL A   1      45.554  28.537  34.474  1.00  0.00     0.173 A 
ATOM    118  F   UNL A   1      42.797  26.337  35.361  1.00  0.00    -0.203 F 
ATOM    119  C   UNL A   1      45.099  26.149  35.815  1.00  0.00     0.198 A 
ATOM    120  C   UNL A   1      46.619  27.834  35.033  1.00  0.00     0.198 A 
ATOM    121  F   UNL A   1      45.806  29.693  33.843  1.00  0.00    -0.203 F 
ATOM    122  F   UNL A   1      44.871  25.019  36.497  1.00  0.00    -0.200 F 
ATOM    123  C   UNL A   1      46.389  26.646  35.711  1.00  0.00     0.200 A 
ATOM    124  F   UNL A   1      47.867  28.311  34.921  1.00  0.00    -0.200 F 
ATOM    125  F   UNL A   1      47.411  25.986  36.274  1.00  0.00    -0.200 F 
ENDBRANCH  91 115
ENDBRANCH  56  59
ENDBRANCH  46  49
ENDBRANCH  42  45
ENDBRANCH  39  42
ENDBRANCH  36  39
ENDBRANCH  33  36
ENDBRANCH   1  33
TORSDOF 17
ENDMDL
MODEL 5
REMARK VINA RESULT:     -10.3      1.719      2.563
REMARK SMILES O=C(CCCC[C@@H]1CCSS1)NCCCCCCNC(=O)c1ccc(-c2c3nc(c(-c4c(F)c(F)c(F)c(F)c4F)c4ccc([nH]4)c(-c4c(F)c(F)c(F)c(F)c4F)c4nc(c(-c5c(F)c(F)c(F)c(F)c5F)c5ccc2[nH]5)C=C4)C=C3)cc1
REMARK SMILES IDX 14 1 13 4 12 7 1 8 2 9 3 11 4 14 5 17 6 20 7 23 8 24 11 25
REMARK SMILES IDX 9 27 10 30 15 33 16 36 17 39 18 42 19 45 20 46 21 48 22 49
REMARK SMILES IDX 23 50 84 51 24 52 83 54 25 56 26 59 27 60 77 61 28 62 82 63
REMARK SMILES IDX 76 64 78 65 29 66 81 67 75 69 74 71 30 73 62 76 42 77 61 78
REMARK SMILES IDX 43 79 46 80 60 81 79 82 44 83 45 85 59 87 80 88 47 91 31 93
REMARK SMILES IDX 32 94 40 95 33 96 34 97 38 98 41 99 35 100 36 101 39 102
REMARK SMILES IDX 37 103 63 104 64 105 72 106 65 107 66 108 70 109 73 110
REMARK SMILES IDX 67 111 68 112 71 113 69 114 48 115 49 116 57 117 50 118
REMARK SMILES IDX 51 119 55 120 58 121 52 122 53 123 56 124 54 125
REMARK H PARENT 14 2 14 3 13 5 13 6 12 10 3 12 3 13 4 15 4 16 5 18 5 19 6 21
REMARK H PARENT 6 22 7 26 8 28 8 29 9 31 9 32 15 34 15 35 16 37 16 38 17 40
REMARK H PARENT 17 41 18 43 18 44 19 47 23 53 84 55 24 57 83 58 82 68 76 70
REMARK H PARENT 78 72 81 74 75 75 43 84 46 86 79 89 44 90 80 92
REMARK Flexibility Score: inf
ROOT
ATOM      1  C   UNL A   1      34.342  25.667  25.721  1.00  0.00    -0.036 C 
ATOM      2  H   UNL A   1      34.677  25.769  26.733  1.00  0.00     0.028 H 
ATOM      3  H   UNL A   1      34.597  26.500  25.100  1.00  0.00     0.028 H 
ENDROOT
BRANCH   1   4
ATOM      4  C   UNL A   1      32.815  25.597  25.732  1.00  0.00     0.017 C 
ATOM      5  H   UNL A   1      32.460  25.894  26.697  1.00  0.00     0.049 H 
ATOM      6  H   UNL A   1      32.441  26.251  24.973  1.00  0.00     0.049 H 
BRANCH   4   7
ATOM      7  N   UNL A   1      32.347  24.258  25.451  1.00  0.00    -0.356 N 
ATOM      8  O   UNL A   1      30.940  24.064  27.252  1.00  0.00    -0.275 OA
ATOM      9  C   UNL A   1      31.434  23.596  26.233  1.00  0.00     0.219 C 
ATOM     10  H   UNL A   1      32.702  23.797  24.656  1.00  0.00     0.163 HD
BRANCH   9  11
ATOM     11  C   UNL A   1      31.098  22.204  25.730  1.00  0.00     0.026 C 
ATOM     12  H   UNL A   1      30.096  22.214  25.354  1.00  0.00     0.037 H 
ATOM     13  H   UNL A   1      31.216  21.536  26.557  1.00  0.00     0.037 H 
BRANCH  11  14
ATOM     14  C   UNL A   1      32.028  21.710  24.620  1.00  0.00    -0.044 C 
ATOM     15  H   UNL A   1      32.833  22.409  24.539  1.00  0.00     0.027 H 
ATOM     16  H   UNL A   1      31.410  21.635  23.750  1.00  0.00     0.027 H 
BRANCH  14  17
ATOM     17  C   UNL A   1      32.639  20.314  24.802  1.00  0.00    -0.052 C 
ATOM     18  H   UNL A   1      32.152  19.849  25.633  1.00  0.00     0.027 H 
ATOM     19  H   UNL A   1      33.688  20.476  24.944  1.00  0.00     0.027 H 
BRANCH  17  20
ATOM     20  C   UNL A   1      32.527  19.366  23.600  1.00  0.00    -0.040 C 
ATOM     21  H   UNL A   1      33.342  19.566  22.935  1.00  0.00     0.028 H 
ATOM     22  H   UNL A   1      31.577  19.547  23.143  1.00  0.00     0.028 H 
BRANCH  20  23
ATOM     23  C   UNL A   1      32.567  17.877  23.985  1.00  0.00     0.016 C 
ATOM     24  C   UNL A   1      32.526  17.672  25.506  1.00  0.00    -0.030 C 
ATOM     25  S   UNL A   1      34.118  17.100  23.411  1.00  0.00    -0.091 SA
ATOM     26  H   UNL A   1      31.708  17.436  23.525  1.00  0.00     0.043 H 
ATOM     27  C   UNL A   1      32.850  16.223  25.850  1.00  0.00     0.005 C 
ATOM     28  H   UNL A   1      31.549  17.912  25.868  1.00  0.00     0.029 H 
ATOM     29  H   UNL A   1      33.253  18.310  25.964  1.00  0.00     0.029 H 
ATOM     30  S   UNL A   1      34.391  15.830  24.994  1.00  0.00    -0.094 SA
ATOM     31  H   UNL A   1      32.064  15.579  25.514  1.00  0.00     0.039 H 
ATOM     32  H   UNL A   1      32.945  16.087  26.907  1.00  0.00     0.039 H 
ENDBRANCH  20  23
ENDBRANCH  17  20
ENDBRANCH  14  17
ENDBRANCH  11  14
ENDBRANCH   9  11
ENDBRANCH   4   7
ENDBRANCH   1   4
BRANCH   1  33
ATOM     33  C   UNL A   1      35.048  24.448  25.107  1.00  0.00    -0.052 C 
ATOM     34  H   UNL A   1      35.908  24.797  24.577  1.00  0.00     0.027 H 
ATOM     35  H   UNL A   1      34.320  23.969  24.486  1.00  0.00     0.027 H 
BRANCH  33  36
ATOM     36  C   UNL A   1      35.511  23.382  26.105  1.00  0.00    -0.052 C 
ATOM     37  H   UNL A   1      34.715  23.214  26.800  1.00  0.00     0.027 H 
ATOM     38  H   UNL A   1      36.401  23.768  26.557  1.00  0.00     0.027 H 
BRANCH  36  39
ATOM     39  C   UNL A   1      35.897  22.036  25.493  1.00  0.00    -0.036 C 
ATOM     40  H   UNL A   1      35.173  21.793  24.744  1.00  0.00     0.028 H 
ATOM     41  H   UNL A   1      35.925  21.339  26.305  1.00  0.00     0.028 H 
BRANCH  39  42
ATOM     42  C   UNL A   1      37.279  21.982  24.846  1.00  0.00     0.018 C 
ATOM     43  H   UNL A   1      37.755  22.931  24.978  1.00  0.00     0.049 H 
ATOM     44  H   UNL A   1      37.139  21.746  23.812  1.00  0.00     0.049 H 
BRANCH  42  45
ATOM     45  N   UNL A   1      38.133  20.952  25.415  1.00  0.00    -0.352 N 
ATOM     46  C   UNL A   1      39.286  21.076  26.146  1.00  0.00     0.251 C 
ATOM     47  H   UNL A   1      37.838  20.026  25.251  1.00  0.00     0.163 HD
ATOM     48  O   UNL A   1      39.938  20.074  26.437  1.00  0.00    -0.269 OA
BRANCH  46  49
ATOM     49  C   UNL A   1      39.775  22.410  26.563  1.00  0.00     0.039 A 
ATOM     50  C   UNL A   1      40.843  22.476  27.464  1.00  0.00    -0.049 A 
ATOM     51  C   UNL A   1      39.186  23.587  26.094  1.00  0.00    -0.049 A 
ATOM     52  C   UNL A   1      41.359  23.717  27.842  1.00  0.00    -0.053 A 
ATOM     53  H   UNL A   1      41.250  21.609  27.848  1.00  0.00     0.063 H 
ATOM     54  C   UNL A   1      39.743  24.824  26.421  1.00  0.00    -0.053 A 
ATOM     55  H   UNL A   1      38.340  23.541  25.506  1.00  0.00     0.063 H 
ATOM     56  C   UNL A   1      40.835  24.901  27.298  1.00  0.00    -0.014 A 
ATOM     57  H   UNL A   1      42.131  23.765  28.526  1.00  0.00     0.063 H 
ATOM     58  H   UNL A   1      39.349  25.687  26.016  1.00  0.00     0.063 H 
BRANCH  56  59
ATOM     59  C   UNL A   1      41.444  26.217  27.622  1.00  0.00     0.031 A 
ATOM     60  C   UNL A   1      42.841  26.549  27.178  1.00  0.00     0.074 A 
ATOM     61  C   UNL A   1      40.748  27.101  28.362  1.00  0.00     0.049 A 
ATOM     62  N   UNL A   1      43.529  27.649  27.362  1.00  0.00    -0.248 NA
ATOM     63  C   UNL A   1      43.572  25.500  26.454  1.00  0.00    -0.034 C 
ATOM     64  C   UNL A   1      39.407  26.876  28.905  1.00  0.00    -0.036 A 
ATOM     65  N   UNL A   1      41.070  28.366  28.785  1.00  0.00    -0.354 N 
ATOM     66  C   UNL A   1      44.773  27.420  26.791  1.00  0.00     0.074 A 
ATOM     67  C   UNL A   1      44.763  26.059  26.295  1.00  0.00    -0.034 C 
ATOM     68  H   UNL A   1      43.244  24.571  26.147  1.00  0.00     0.065 H 
ATOM     69  C   UNL A   1      39.007  27.979  29.556  1.00  0.00    -0.036 A 
ATOM     70  H   UNL A   1      38.859  26.008  28.804  1.00  0.00     0.065 H 
ATOM     71  C   UNL A   1      40.070  28.977  29.501  1.00  0.00     0.049 A 
ATOM     72  H   UNL A   1      41.936  28.795  28.594  1.00  0.00     0.167 HD
ATOM     73  C   UNL A   1      45.819  28.271  26.672  1.00  0.00     0.037 A 
ATOM     74  H   UNL A   1      45.579  25.587  25.875  1.00  0.00     0.065 H 
ATOM     75  H   UNL A   1      38.093  28.102  30.020  1.00  0.00     0.065 H 
ATOM     76  C   UNL A   1      40.014  30.208  30.043  1.00  0.00     0.037 A 
ATOM     77  C   UNL A   1      45.817  29.634  27.138  1.00  0.00     0.049 A 
ATOM     78  C   UNL A   1      41.184  31.139  29.882  1.00  0.00     0.074 A 
ATOM     79  C   UNL A   1      46.794  30.603  26.986  1.00  0.00    -0.036 A 
ATOM     80  N   UNL A   1      44.785  30.220  27.858  1.00  0.00    -0.354 N 
ATOM     81  N   UNL A   1      42.319  30.943  29.260  1.00  0.00    -0.248 NA
ATOM     82  C   UNL A   1      41.056  32.467  30.497  1.00  0.00    -0.034 C 
ATOM     83  C   UNL A   1      46.375  31.759  27.652  1.00  0.00    -0.036 A 
ATOM     84  H   UNL A   1      47.680  30.490  26.469  1.00  0.00     0.065 H 
ATOM     85  C   UNL A   1      45.116  31.528  28.182  1.00  0.00     0.049 A 
ATOM     86  H   UNL A   1      43.943  29.774  28.103  1.00  0.00     0.167 HD
ATOM     87  C   UNL A   1      43.032  32.127  29.385  1.00  0.00     0.074 A 
ATOM     88  C   UNL A   1      42.191  33.044  30.128  1.00  0.00    -0.034 C 
ATOM     89  H   UNL A   1      40.285  32.852  31.065  1.00  0.00     0.065 H 
ATOM     90  H   UNL A   1      46.912  32.636  27.736  1.00  0.00     0.065 H 
ATOM     91  C   UNL A   1      44.273  32.427  28.927  1.00  0.00     0.037 A 
ATOM     92  H   UNL A   1      42.445  34.021  30.342  1.00  0.00     0.065 H 
BRANCH  73  93
ATOM     93  C   UNL A   1      47.062  27.752  26.008  1.00  0.00     0.064 A 
ATOM     94  C   UNL A   1      47.212  27.758  24.612  1.00  0.00     0.173 A 
ATOM     95  C   UNL A   1      48.129  27.265  26.779  1.00  0.00     0.173 A 
ATOM     96  F   UNL A   1      46.217  28.203  23.830  1.00  0.00    -0.203 F 
ATOM     97  C   UNL A   1      48.367  27.266  24.013  1.00  0.00     0.198 A 
ATOM     98  C   UNL A   1      49.296  26.802  26.177  1.00  0.00     0.198 A 
ATOM     99  F   UNL A   1      48.041  27.243  28.117  1.00  0.00    -0.203 F 
ATOM    100  F   UNL A   1      48.466  27.234  22.677  1.00  0.00    -0.200 F 
ATOM    101  C   UNL A   1      49.411  26.794  24.795  1.00  0.00     0.200 A 
ATOM    102  F   UNL A   1      50.308  26.356  26.934  1.00  0.00    -0.200 F 
ATOM    103  F   UNL A   1      50.525  26.323  24.216  1.00  0.00    -0.200 F 
ENDBRANCH  73  93
BRANCH  76 104
ATOM    104  C   UNL A   1      38.782  30.651  30.744  1.00  0.00     0.064 A 
ATOM    105  C   UNL A   1      38.663  30.512  32.134  1.00  0.00     0.173 A 
ATOM    106  C   UNL A   1      37.706  31.220  30.049  1.00  0.00     0.173 A 
ATOM    107  F   UNL A   1      39.658  29.952  32.837  1.00  0.00    -0.203 F 
ATOM    108  C   UNL A   1      37.507  30.911  32.801  1.00  0.00     0.198 A 
ATOM    109  C   UNL A   1      36.561  31.643  30.720  1.00  0.00     0.198 A 
ATOM    110  F   UNL A   1      37.774  31.377  28.719  1.00  0.00    -0.203 F 
ATOM    111  F   UNL A   1      37.404  30.731  34.124  1.00  0.00    -0.200 F 
ATOM    112  C   UNL A   1      36.459  31.483  32.094  1.00  0.00     0.200 A 
ATOM    113  F   UNL A   1      35.555  32.205  30.036  1.00  0.00    -0.200 F 
ATOM    114  F   UNL A   1      35.350  31.872  32.736  1.00  0.00    -0.200 F 
ENDBRANCH  76 104
BRANCH  91 115
ATOM    115  C   UNL A   1      44.782  33.813  29.202  1.00  0.00     0.064 A 
ATOM    116  C   UNL A   1      44.525  34.877  28.325  1.00  0.00     0.173 A 
ATOM    117  C   UNL A   1      45.529  34.080  30.359  1.00  0.00     0.173 A 
ATOM    118  F   UNL A   1      43.831  34.669  27.196  1.00  0.00    -0.203 F 
ATOM    119  C   UNL A   1      45.026  36.151  28.579  1.00  0.00     0.198 A 
ATOM    120  C   UNL A   1      46.003  35.362  30.625  1.00  0.00     0.198 A 
ATOM    121  F   UNL A   1      45.798  33.099  31.232  1.00  0.00    -0.203 F 
ATOM    122  F   UNL A   1      44.818  37.139  27.698  1.00  0.00    -0.200 F 
ATOM    123  C   UNL A   1      45.760  36.394  29.731  1.00  0.00     0.200 A 
ATOM    124  F   UNL A   1      46.703  35.597  31.744  1.00  0.00    -0.200 F 
ATOM    125  F   UNL A   1      46.243  37.620  29.972  1.00  0.00    -0.200 F 
ENDBRANCH  91 115
ENDBRANCH  56  59
ENDBRANCH  46  49
ENDBRANCH  42  45
ENDBRANCH  39  42
ENDBRANCH  36  39
ENDBRANCH  33  36
ENDBRANCH   1  33
TORSDOF 17
ENDMDL
MODEL 6
REMARK VINA RESULT:     -10.1      1.928      8.016
REMARK SMILES O=C(CCCC[C@@H]1CCSS1)NCCCCCCNC(=O)c1ccc(-c2c3nc(c(-c4c(F)c(F)c(F)c(F)c4F)c4ccc([nH]4)c(-c4c(F)c(F)c(F)c(F)c4F)c4nc(c(-c5c(F)c(F)c(F)c(F)c5F)c5ccc2[nH]5)C=C4)C=C3)cc1
REMARK SMILES IDX 14 1 13 4 12 7 1 8 2 9 3 11 4 14 5 17 6 20 7 23 8 24 11 25
REMARK SMILES IDX 9 27 10 30 15 33 16 36 17 39 18 42 19 45 20 46 21 48 22 49
REMARK SMILES IDX 23 50 84 51 24 52 83 54 25 56 26 59 27 60 77 61 28 62 82 63
REMARK SMILES IDX 76 64 78 65 29 66 81 67 75 69 74 71 30 73 62 76 42 77 61 78
REMARK SMILES IDX 43 79 46 80 60 81 79 82 44 83 45 85 59 87 80 88 47 91 31 93
REMARK SMILES IDX 32 94 40 95 33 96 34 97 38 98 41 99 35 100 36 101 39 102
REMARK SMILES IDX 37 103 63 104 64 105 72 106 65 107 66 108 70 109 73 110
REMARK SMILES IDX 67 111 68 112 71 113 69 114 48 115 49 116 57 117 50 118
REMARK SMILES IDX 51 119 55 120 58 121 52 122 53 123 56 124 54 125
REMARK H PARENT 14 2 14 3 13 5 13 6 12 10 3 12 3 13 4 15 4 16 5 18 5 19 6 21
REMARK H PARENT 6 22 7 26 8 28 8 29 9 31 9 32 15 34 15 35 16 37 16 38 17 40
REMARK H PARENT 17 41 18 43 18 44 19 47 23 53 84 55 24 57 83 58 82 68 76 70
REMARK H PARENT 78 72 81 74 75 75 43 84 46 86 79 89 44 90 80 92
REMARK Flexibility Score: inf
ROOT
ATOM      1  C   UNL A   1      36.608  22.821  26.028  1.00  0.00    -0.036 C 
ATOM      2  H   UNL A   1      36.037  22.069  26.535  1.00  0.00     0.028 H 
ATOM      3  H   UNL A   1      37.180  23.439  26.686  1.00  0.00     0.028 H 
ENDROOT
BRANCH   1   4
ATOM      4  C   UNL A   1      35.631  23.753  25.311  1.00  0.00     0.017 C 
ATOM      5  H   UNL A   1      35.326  24.525  25.986  1.00  0.00     0.049 H 
ATOM      6  H   UNL A   1      36.125  24.168  24.458  1.00  0.00     0.049 H 
BRANCH   4   7
ATOM      7  N   UNL A   1      34.459  23.038  24.854  1.00  0.00    -0.356 N 
ATOM      8  O   UNL A   1      34.805  23.331  22.606  1.00  0.00    -0.275 OA
ATOM      9  C   UNL A   1      34.141  22.876  23.530  1.00  0.00     0.219 C 
ATOM     10  H   UNL A   1      33.858  22.648  25.530  1.00  0.00     0.163 HD
BRANCH   9  11
ATOM     11  C   UNL A   1      32.865  22.086  23.303  1.00  0.00     0.026 C 
ATOM     12  H   UNL A   1      33.128  21.068  23.106  1.00  0.00     0.037 H 
ATOM     13  H   UNL A   1      32.358  22.542  22.478  1.00  0.00     0.037 H 
BRANCH  11  14
ATOM     14  C   UNL A   1      31.903  22.117  24.492  1.00  0.00    -0.044 C 
ATOM     15  H   UNL A   1      32.487  22.021  25.383  1.00  0.00     0.027 H 
ATOM     16  H   UNL A   1      31.216  21.315  24.318  1.00  0.00     0.027 H 
BRANCH  14  17
ATOM     17  C   UNL A   1      31.031  23.371  24.641  1.00  0.00    -0.052 C 
ATOM     18  H   UNL A   1      31.561  24.068  25.255  1.00  0.00     0.027 H 
ATOM     19  H   UNL A   1      30.107  23.030  25.061  1.00  0.00     0.027 H 
BRANCH  17  20
ATOM     20  C   UNL A   1      30.650  24.088  23.337  1.00  0.00    -0.040 C 
ATOM     21  H   UNL A   1      29.583  24.159  23.291  1.00  0.00     0.028 H 
ATOM     22  H   UNL A   1      31.054  23.512  22.532  1.00  0.00     0.028 H 
BRANCH  20  23
ATOM     23  C   UNL A   1      31.238  25.504  23.220  1.00  0.00     0.016 C 
ATOM     24  C   UNL A   1      32.255  25.615  22.075  1.00  0.00    -0.030 C 
ATOM     25  S   UNL A   1      32.140  25.960  24.743  1.00  0.00    -0.091 SA
ATOM     26  H   UNL A   1      30.405  26.151  23.043  1.00  0.00     0.043 H 
ATOM     27  C   UNL A   1      33.013  26.933  22.171  1.00  0.00     0.005 C 
ATOM     28  H   UNL A   1      31.739  25.571  21.139  1.00  0.00     0.029 H 
ATOM     29  H   UNL A   1      32.951  24.806  22.147  1.00  0.00     0.029 H 
ATOM     30  S   UNL A   1      33.643  27.035  23.861  1.00  0.00    -0.094 SA
ATOM     31  H   UNL A   1      32.357  27.753  21.970  1.00  0.00     0.039 H 
ATOM     32  H   UNL A   1      33.808  26.977  21.455  1.00  0.00     0.039 H 
ENDBRANCH  20  23
ENDBRANCH  17  20
ENDBRANCH  14  17
ENDBRANCH  11  14
ENDBRANCH   9  11
ENDBRANCH   4   7
ENDBRANCH   1   4
BRANCH   1  33
ATOM     33  C   UNL A   1      37.623  22.112  25.119  1.00  0.00    -0.052 C 
ATOM     34  H   UNL A   1      38.538  22.010  25.663  1.00  0.00     0.027 H 
ATOM     35  H   UNL A   1      37.705  22.719  24.242  1.00  0.00     0.027 H 
BRANCH  33  36
ATOM     36  C   UNL A   1      37.211  20.721  24.627  1.00  0.00    -0.052 C 
ATOM     37  H   UNL A   1      37.138  20.757  23.560  1.00  0.00     0.027 H 
ATOM     38  H   UNL A   1      36.283  20.499  25.114  1.00  0.00     0.027 H 
BRANCH  36  39
ATOM     39  C   UNL A   1      38.165  19.586  24.999  1.00  0.00    -0.036 C 
ATOM     40  H   UNL A   1      38.611  19.221  24.098  1.00  0.00     0.028 H 
ATOM     41  H   UNL A   1      37.571  18.856  25.510  1.00  0.00     0.028 H 
BRANCH  39  42
ATOM     42  C   UNL A   1      39.288  19.962  25.962  1.00  0.00     0.018 C 
ATOM     43  H   UNL A   1      38.880  20.044  26.947  1.00  0.00     0.049 H 
ATOM     44  H   UNL A   1      39.703  20.888  25.623  1.00  0.00     0.049 H 
BRANCH  42  45
ATOM     45  N   UNL A   1      40.366  18.986  25.986  1.00  0.00    -0.352 N 
ATOM     46  C   UNL A   1      41.717  19.178  26.120  1.00  0.00     0.251 C 
ATOM     47  H   UNL A   1      40.083  18.047  25.894  1.00  0.00     0.163 HD
ATOM     48  O   UNL A   1      42.486  18.226  25.993  1.00  0.00    -0.269 OA
BRANCH  46  49
ATOM     49  C   UNL A   1      42.266  20.528  26.384  1.00  0.00     0.039 A 
ATOM     50  C   UNL A   1      42.671  21.306  25.296  1.00  0.00    -0.049 A 
ATOM     51  C   UNL A   1      42.401  21.023  27.684  1.00  0.00    -0.049 A 
ATOM     52  C   UNL A   1      43.150  22.602  25.506  1.00  0.00    -0.053 A 
ATOM     53  H   UNL A   1      42.617  20.925  24.338  1.00  0.00     0.063 H 
ATOM     54  C   UNL A   1      42.818  22.339  27.889  1.00  0.00    -0.053 A 
ATOM     55  H   UNL A   1      42.192  20.416  28.491  1.00  0.00     0.063 H 
ATOM     56  C   UNL A   1      43.195  23.141  26.802  1.00  0.00    -0.014 A 
ATOM     57  H   UNL A   1      43.473  23.165  24.704  1.00  0.00     0.063 H 
ATOM     58  H   UNL A   1      42.847  22.724  28.845  1.00  0.00     0.063 H 
BRANCH  56  59
ATOM     59  C   UNL A   1      43.611  24.551  27.020  1.00  0.00     0.031 A 
ATOM     60  C   UNL A   1      42.635  25.570  27.538  1.00  0.00     0.074 A 
ATOM     61  C   UNL A   1      44.866  24.924  26.706  1.00  0.00     0.049 A 
ATOM     62  N   UNL A   1      42.825  26.840  27.797  1.00  0.00    -0.248 NA
ATOM     63  C   UNL A   1      41.259  25.109  27.771  1.00  0.00    -0.034 C 
ATOM     64  C   UNL A   1      45.891  24.045  26.139  1.00  0.00    -0.036 A 
ATOM     65  N   UNL A   1      45.495  26.138  26.818  1.00  0.00    -0.354 N 
ATOM     66  C   UNL A   1      41.594  27.331  28.210  1.00  0.00     0.074 A 
ATOM     67  C   UNL A   1      40.652  26.235  28.121  1.00  0.00    -0.034 C 
ATOM     68  H   UNL A   1      40.867  24.159  27.686  1.00  0.00     0.065 H 
ATOM     69  C   UNL A   1      47.030  24.739  25.989  1.00  0.00    -0.036 A 
ATOM     70  H   UNL A   1      45.758  23.052  25.894  1.00  0.00     0.065 H 
ATOM     71  C   UNL A   1      46.810  26.116  26.421  1.00  0.00     0.049 A 
ATOM     72  H   UNL A   1      45.047  26.949  27.151  1.00  0.00     0.167 HD
ATOM     73  C   UNL A   1      41.281  28.576  28.642  1.00  0.00     0.037 A 
ATOM     74  H   UNL A   1      39.641  26.320  28.305  1.00  0.00     0.065 H 
ATOM     75  H   UNL A   1      47.919  24.359  25.627  1.00  0.00     0.065 H 
ATOM     76  C   UNL A   1      47.736  27.092  26.417  1.00  0.00     0.037 A 
ATOM     77  C   UNL A   1      42.225  29.659  28.758  1.00  0.00     0.049 A 
ATOM     78  C   UNL A   1      47.366  28.461  26.917  1.00  0.00     0.074 A 
ATOM     79  C   UNL A   1      42.025  30.930  29.269  1.00  0.00    -0.036 A 
ATOM     80  N   UNL A   1      43.550  29.598  28.348  1.00  0.00    -0.354 N 
ATOM     81  N   UNL A   1      46.223  28.889  27.391  1.00  0.00    -0.248 NA
ATOM     82  C   UNL A   1      48.425  29.480  26.886  1.00  0.00    -0.034 C 
ATOM     83  C   UNL A   1      43.215  31.653  29.126  1.00  0.00    -0.036 A 
ATOM     84  H   UNL A   1      41.149  31.283  29.684  1.00  0.00     0.065 H 
ATOM     85  C   UNL A   1      44.170  30.819  28.568  1.00  0.00     0.049 A 
ATOM     86  H   UNL A   1      43.985  28.806  27.959  1.00  0.00     0.167 HD
ATOM     87  C   UNL A   1      46.428  30.218  27.738  1.00  0.00     0.074 A 
ATOM     88  C   UNL A   1      47.812  30.519  27.436  1.00  0.00    -0.034 C 
ATOM     89  H   UNL A   1      49.391  29.406  26.530  1.00  0.00     0.065 H 
ATOM     90  H   UNL A   1      43.357  32.640  29.391  1.00  0.00     0.065 H 
ATOM     91  C   UNL A   1      45.547  31.108  28.258  1.00  0.00     0.037 A 
ATOM     92  H   UNL A   1      48.264  31.427  27.626  1.00  0.00     0.065 H 
BRANCH  73  93
ATOM     93  C   UNL A   1      39.852  28.838  29.023  1.00  0.00     0.064 A 
ATOM     94  C   UNL A   1      39.394  28.657  30.337  1.00  0.00     0.173 A 
ATOM     95  C   UNL A   1      38.936  29.301  28.068  1.00  0.00     0.173 A 
ATOM     96  F   UNL A   1      40.228  28.206  31.286  1.00  0.00    -0.203 F 
ATOM     97  C   UNL A   1      38.065  28.898  30.672  1.00  0.00     0.198 A 
ATOM     98  C   UNL A   1      37.613  29.570  28.413  1.00  0.00     0.198 A 
ATOM     99  F   UNL A   1      39.322  29.498  26.798  1.00  0.00    -0.203 F 
ATOM    100  F   UNL A   1      37.638  28.668  31.922  1.00  0.00    -0.200 F 
ATOM    101  C   UNL A   1      37.176  29.359  29.713  1.00  0.00     0.200 A 
ATOM    102  F   UNL A   1      36.759  30.027  27.487  1.00  0.00    -0.200 F 
ATOM    103  F   UNL A   1      35.897  29.593  30.037  1.00  0.00    -0.200 F 
ENDBRANCH  73  93
BRANCH  76 104
ATOM    104  C   UNL A   1      49.121  26.795  25.970  1.00  0.00     0.064 A 
ATOM    105  C   UNL A   1      49.499  26.997  24.635  1.00  0.00     0.173 A 
ATOM    106  C   UNL A   1      50.090  26.309  26.858  1.00  0.00     0.173 A 
ATOM    107  F   UNL A   1      48.598  27.440  23.745  1.00  0.00    -0.203 F 
ATOM    108  C   UNL A   1      50.791  26.710  24.202  1.00  0.00     0.198 A 
ATOM    109  C   UNL A   1      51.389  26.046  26.429  1.00  0.00     0.198 A 
ATOM    110  F   UNL A   1      49.777  26.102  28.146  1.00  0.00    -0.203 F 
ATOM    111  F   UNL A   1      51.115  26.875  22.912  1.00  0.00    -0.200 F 
ATOM    112  C   UNL A   1      51.737  26.241  25.101  1.00  0.00     0.200 A 
ATOM    113  F   UNL A   1      52.304  25.603  27.302  1.00  0.00    -0.200 F 
ATOM    114  F   UNL A   1      52.981  25.970  24.685  1.00  0.00    -0.200 F 
ENDBRANCH  76 104
BRANCH  91 115
ATOM    115  C   UNL A   1      46.066  32.486  28.551  1.00  0.00     0.064 A 
ATOM    116  C   UNL A   1      46.634  32.808  29.793  1.00  0.00     0.173 A 
ATOM    117  C   UNL A   1      46.002  33.493  27.576  1.00  0.00     0.173 A 
ATOM    118  F   UNL A   1      46.702  31.885  30.763  1.00  0.00    -0.203 F 
ATOM    119  C   UNL A   1      47.087  34.097  30.059  1.00  0.00     0.198 A 
ATOM    120  C   UNL A   1      46.483  34.773  27.837  1.00  0.00     0.198 A 
ATOM    121  F   UNL A   1      45.473  33.236  26.371  1.00  0.00    -0.203 F 
ATOM    122  F   UNL A   1      47.572  34.397  31.272  1.00  0.00    -0.200 F 
ATOM    123  C   UNL A   1      47.016  35.077  29.080  1.00  0.00     0.200 A 
ATOM    124  F   UNL A   1      46.424  35.716  26.885  1.00  0.00    -0.200 F 
ATOM    125  F   UNL A   1      47.451  36.318  29.340  1.00  0.00    -0.200 F 
ENDBRANCH  91 115
ENDBRANCH  56  59
ENDBRANCH  46  49
ENDBRANCH  42  45
ENDBRANCH  39  42
ENDBRANCH  36  39
ENDBRANCH  33  36
ENDBRANCH   1  33
TORSDOF 17
ENDMDL
MODEL 7
REMARK VINA RESULT:     -10.1      5.118     10.480
REMARK SMILES O=C(CCCC[C@@H]1CCSS1)NCCCCCCNC(=O)c1ccc(-c2c3nc(c(-c4c(F)c(F)c(F)c(F)c4F)c4ccc([nH]4)c(-c4c(F)c(F)c(F)c(F)c4F)c4nc(c(-c5c(F)c(F)c(F)c(F)c5F)c5ccc2[nH]5)C=C4)C=C3)cc1
REMARK SMILES IDX 14 1 13 4 12 7 1 8 2 9 3 11 4 14 5 17 6 20 7 23 8 24 11 25
REMARK SMILES IDX 9 27 10 30 15 33 16 36 17 39 18 42 19 45 20 46 21 48 22 49
REMARK SMILES IDX 23 50 84 51 24 52 83 54 25 56 26 59 27 60 77 61 28 62 82 63
REMARK SMILES IDX 76 64 78 65 29 66 81 67 75 69 74 71 30 73 62 76 42 77 61 78
REMARK SMILES IDX 43 79 46 80 60 81 79 82 44 83 45 85 59 87 80 88 47 91 31 93
REMARK SMILES IDX 32 94 40 95 33 96 34 97 38 98 41 99 35 100 36 101 39 102
REMARK SMILES IDX 37 103 63 104 64 105 72 106 65 107 66 108 70 109 73 110
REMARK SMILES IDX 67 111 68 112 71 113 69 114 48 115 49 116 57 117 50 118
REMARK SMILES IDX 51 119 55 120 58 121 52 122 53 123 56 124 54 125
REMARK H PARENT 14 2 14 3 13 5 13 6 12 10 3 12 3 13 4 15 4 16 5 18 5 19 6 21
REMARK H PARENT 6 22 7 26 8 28 8 29 9 31 9 32 15 34 15 35 16 37 16 38 17 40
REMARK H PARENT 17 41 18 43 18 44 19 47 23 53 84 55 24 57 83 58 82 68 76 70
REMARK H PARENT 78 72 81 74 75 75 43 84 46 86 79 89 44 90 80 92
REMARK Flexibility Score: inf
ROOT
ATOM      1  C   UNL A   1      45.793  22.818  24.228  1.00  0.00    -0.036 C 
ATOM      2  H   UNL A   1      45.847  22.402  23.243  1.00  0.00     0.028 H 
ATOM      3  H   UNL A   1      44.837  23.232  24.465  1.00  0.00     0.028 H 
ENDROOT
BRANCH   1   4
ATOM      4  C   UNL A   1      46.789  23.975  24.309  1.00  0.00     0.017 C 
ATOM      5  H   UNL A   1      47.625  23.675  24.906  1.00  0.00     0.049 H 
ATOM      6  H   UNL A   1      47.102  24.221  23.316  1.00  0.00     0.049 H 
BRANCH   4   7
ATOM      7  N   UNL A   1      46.186  25.149  24.900  1.00  0.00    -0.356 N 
ATOM      8  O   UNL A   1      47.521  26.704  23.870  1.00  0.00    -0.275 OA
ATOM      9  C   UNL A   1      46.596  26.429  24.626  1.00  0.00     0.219 C 
ATOM     10  H   UNL A   1      45.442  25.023  25.532  1.00  0.00     0.163 HD
BRANCH   9  11
ATOM     11  C   UNL A   1      45.806  27.493  25.366  1.00  0.00     0.026 C 
ATOM     12  H   UNL A   1      45.628  27.149  26.363  1.00  0.00     0.037 H 
ATOM     13  H   UNL A   1      44.899  27.644  24.820  1.00  0.00     0.037 H 
BRANCH  11  14
ATOM     14  C   UNL A   1      46.516  28.846  25.439  1.00  0.00    -0.044 C 
ATOM     15  H   UNL A   1      46.406  29.320  24.486  1.00  0.00     0.027 H 
ATOM     16  H   UNL A   1      47.525  28.618  25.712  1.00  0.00     0.027 H 
BRANCH  14  17
ATOM     17  C   UNL A   1      46.021  29.829  26.508  1.00  0.00    -0.052 C 
ATOM     18  H   UNL A   1      45.781  29.265  27.386  1.00  0.00     0.027 H 
ATOM     19  H   UNL A   1      45.184  30.334  26.070  1.00  0.00     0.027 H 
BRANCH  17  20
ATOM     20  C   UNL A   1      47.003  30.937  26.915  1.00  0.00    -0.040 C 
ATOM     21  H   UNL A   1      47.768  31.000  26.169  1.00  0.00     0.028 H 
ATOM     22  H   UNL A   1      47.394  30.674  27.876  1.00  0.00     0.028 H 
BRANCH  20  23
ATOM     23  C   UNL A   1      46.346  32.320  27.058  1.00  0.00     0.016 C 
ATOM     24  C   UNL A   1      45.137  32.484  26.127  1.00  0.00    -0.030 C 
ATOM     25  S   UNL A   1      47.520  33.645  26.602  1.00  0.00    -0.091 SA
ATOM     26  H   UNL A   1      46.043  32.393  28.081  1.00  0.00     0.043 H 
ATOM     27  C   UNL A   1      44.695  33.942  26.091  1.00  0.00     0.005 C 
ATOM     28  H   UNL A   1      44.331  31.879  26.485  1.00  0.00     0.029 H 
ATOM     29  H   UNL A   1      45.412  32.179  25.139  1.00  0.00     0.029 H 
ATOM     30  S   UNL A   1      46.174  34.912  25.720  1.00  0.00    -0.094 SA
ATOM     31  H   UNL A   1      44.291  34.230  27.039  1.00  0.00     0.039 H 
ATOM     32  H   UNL A   1      43.932  34.099  25.357  1.00  0.00     0.039 H 
ENDBRANCH  20  23
ENDBRANCH  17  20
ENDBRANCH  14  17
ENDBRANCH  11  14
ENDBRANCH   9  11
ENDBRANCH   4   7
ENDBRANCH   1   4
BRANCH   1  33
ATOM     33  C   UNL A   1      46.028  21.681  25.236  1.00  0.00    -0.052 C 
ATOM     34  H   UNL A   1      45.135  21.564  25.814  1.00  0.00     0.027 H 
ATOM     35  H   UNL A   1      46.882  21.971  25.811  1.00  0.00     0.027 H 
BRANCH  33  36
ATOM     36  C   UNL A   1      46.376  20.321  24.626  1.00  0.00    -0.052 C 
ATOM     37  H   UNL A   1      47.102  19.853  25.258  1.00  0.00     0.027 H 
ATOM     38  H   UNL A   1      46.734  20.523  23.638  1.00  0.00     0.027 H 
BRANCH  36  39
ATOM     39  C   UNL A   1      45.201  19.356  24.461  1.00  0.00    -0.036 C 
ATOM     40  H   UNL A   1      45.571  18.460  24.008  1.00  0.00     0.028 H 
ATOM     41  H   UNL A   1      44.478  19.872  23.864  1.00  0.00     0.028 H 
BRANCH  39  42
ATOM     42  C   UNL A   1      44.483  18.971  25.752  1.00  0.00     0.018 C 
ATOM     43  H   UNL A   1      44.609  19.761  26.462  1.00  0.00     0.049 H 
ATOM     44  H   UNL A   1      44.913  18.053  26.095  1.00  0.00     0.049 H 
BRANCH  42  45
ATOM     45  N   UNL A   1      43.060  18.739  25.563  1.00  0.00    -0.352 N 
ATOM     46  C   UNL A   1      41.994  19.542  25.878  1.00  0.00     0.251 C 
ATOM     47  H   UNL A   1      42.827  17.878  25.146  1.00  0.00     0.163 HD
ATOM     48  O   UNL A   1      40.847  19.115  25.751  1.00  0.00    -0.269 OA
BRANCH  46  49
ATOM     49  C   UNL A   1      42.208  20.911  26.400  1.00  0.00     0.039 A 
ATOM     50  C   UNL A   1      42.251  21.096  27.786  1.00  0.00    -0.049 A 
ATOM     51  C   UNL A   1      42.346  22.009  25.547  1.00  0.00    -0.049 A 
ATOM     52  C   UNL A   1      42.497  22.366  28.312  1.00  0.00    -0.053 A 
ATOM     53  H   UNL A   1      42.102  20.295  28.419  1.00  0.00     0.063 H 
ATOM     54  C   UNL A   1      42.656  23.264  26.070  1.00  0.00    -0.053 A 
ATOM     55  H   UNL A   1      42.220  21.891  24.530  1.00  0.00     0.063 H 
ATOM     56  C   UNL A   1      42.735  23.455  27.457  1.00  0.00    -0.014 A 
ATOM     57  H   UNL A   1      42.504  22.505  29.334  1.00  0.00     0.063 H 
ATOM     58  H   UNL A   1      42.828  24.058  25.433  1.00  0.00     0.063 H 
BRANCH  56  59
ATOM     59  C   UNL A   1      43.093  24.786  28.011  1.00  0.00     0.031 A 
ATOM     60  C   UNL A   1      42.031  25.807  28.310  1.00  0.00     0.074 A 
ATOM     61  C   UNL A   1      44.390  25.094  28.204  1.00  0.00     0.049 A 
ATOM     62  N   UNL A   1      42.158  27.014  28.804  1.00  0.00    -0.248 NA
ATOM     63  C   UNL A   1      40.646  25.434  27.987  1.00  0.00    -0.034 C 
ATOM     64  C   UNL A   1      45.520  24.214  27.898  1.00  0.00    -0.036 A 
ATOM     65  N   UNL A   1      44.978  26.228  28.703  1.00  0.00    -0.354 N 
ATOM     66  C   UNL A   1      40.876  27.547  28.839  1.00  0.00     0.074 A 
ATOM     67  C   UNL A   1      39.991  26.551  28.272  1.00  0.00    -0.034 C 
ATOM     68  H   UNL A   1      40.279  24.537  27.634  1.00  0.00     0.065 H 
ATOM     69  C   UNL A   1      46.661  24.826  28.251  1.00  0.00    -0.036 A 
ATOM     70  H   UNL A   1      45.450  23.274  27.478  1.00  0.00     0.065 H 
ATOM     71  C   UNL A   1      46.347  26.150  28.781  1.00  0.00     0.049 A 
ATOM     72  H   UNL A   1      44.468  27.024  28.979  1.00  0.00     0.167 HD
ATOM     73  C   UNL A   1      40.472  28.747  29.318  1.00  0.00     0.037 A 
ATOM     74  H   UNL A   1      38.983  26.693  28.110  1.00  0.00     0.065 H 
ATOM     75  H   UNL A   1      47.607  24.425  28.162  1.00  0.00     0.065 H 
ATOM     76  C   UNL A   1      47.247  27.040  29.238  1.00  0.00     0.037 A 
ATOM     77  C   UNL A   1      41.349  29.725  29.909  1.00  0.00     0.049 A 
ATOM     78  C   UNL A   1      46.769  28.359  29.779  1.00  0.00     0.074 A 
ATOM     79  C   UNL A   1      41.024  30.932  30.503  1.00  0.00    -0.036 A 
ATOM     80  N   UNL A   1      42.731  29.610  29.972  1.00  0.00    -0.354 N 
ATOM     81  N   UNL A   1      45.547  28.814  29.892  1.00  0.00    -0.248 NA
ATOM     82  C   UNL A   1      47.803  29.284  30.263  1.00  0.00    -0.034 C 
ATOM     83  C   UNL A   1      42.210  31.568  30.885  1.00  0.00    -0.036 A 
ATOM     84  H   UNL A   1      40.070  31.300  30.642  1.00  0.00     0.065 H 
ATOM     85  C   UNL A   1      43.273  30.738  30.570  1.00  0.00     0.049 A 
ATOM     86  H   UNL A   1      43.249  28.841  29.642  1.00  0.00     0.167 HD
ATOM     87  C   UNL A   1      45.659  30.067  30.481  1.00  0.00     0.074 A 
ATOM     88  C   UNL A   1      47.070  30.290  30.719  1.00  0.00    -0.034 C 
ATOM     89  H   UNL A   1      48.830  29.178  30.253  1.00  0.00     0.065 H 
ATOM     90  H   UNL A   1      42.282  32.499  31.325  1.00  0.00     0.065 H 
ATOM     91  C   UNL A   1      44.680  30.952  30.795  1.00  0.00     0.037 A 
ATOM     92  H   UNL A   1      47.455  31.127  31.184  1.00  0.00     0.065 H 
BRANCH  73  93
ATOM     93  C   UNL A   1      39.009  29.073  29.222  1.00  0.00     0.064 A 
ATOM     94  C   UNL A   1      38.178  29.075  30.353  1.00  0.00     0.173 A 
ATOM     95  C   UNL A   1      38.436  29.414  27.988  1.00  0.00     0.173 A 
ATOM     96  F   UNL A   1      38.674  28.746  31.556  1.00  0.00    -0.203 F 
ATOM     97  C   UNL A   1      36.822  29.373  30.246  1.00  0.00     0.198 A 
ATOM     98  C   UNL A   1      37.086  29.741  27.889  1.00  0.00     0.198 A 
ATOM     99  F   UNL A   1      39.187  29.434  26.876  1.00  0.00    -0.203 F 
ATOM    100  F   UNL A   1      36.038  29.318  31.331  1.00  0.00    -0.200 F 
ATOM    101  C   UNL A   1      36.278  29.711  29.016  1.00  0.00     0.200 A 
ATOM    102  F   UNL A   1      36.564  30.078  26.702  1.00  0.00    -0.200 F 
ATOM    103  F   UNL A   1      34.974  30.000  28.915  1.00  0.00    -0.200 F 
ENDBRANCH  73  93
BRANCH  76 104
ATOM    104  C   UNL A   1      48.690  26.691  29.253  1.00  0.00     0.064 A 
ATOM    105  C   UNL A   1      49.529  27.081  28.199  1.00  0.00     0.173 A 
ATOM    106  C   UNL A   1      49.260  25.969  30.311  1.00  0.00     0.173 A 
ATOM    107  F   UNL A   1      49.023  27.753  27.155  1.00  0.00    -0.203 F 
ATOM    108  C   UNL A   1      50.881  26.748  28.196  1.00  0.00     0.198 A 
ATOM    109  C   UNL A   1      50.618  25.660  30.319  1.00  0.00     0.198 A 
ATOM    110  F   UNL A   1      48.499  25.578  31.343  1.00  0.00    -0.203 F 
ATOM    111  F   UNL A   1      51.653  27.099  27.158  1.00  0.00    -0.200 F 
ATOM    112  C   UNL A   1      51.427  26.043  29.259  1.00  0.00     0.200 A 
ATOM    113  F   UNL A   1      51.144  24.988  31.352  1.00  0.00    -0.200 F 
ATOM    114  F   UNL A   1      52.728  25.728  29.258  1.00  0.00    -0.200 F 
ENDBRANCH  76 104
BRANCH  91 115
ATOM    115  C   UNL A   1      45.107  32.234  31.449  1.00  0.00     0.064 A 
ATOM    116  C   UNL A   1      45.436  32.289  32.812  1.00  0.00     0.173 A 
ATOM    117  C   UNL A   1      45.196  33.418  30.703  1.00  0.00     0.173 A 
ATOM    118  F   UNL A   1      45.351  31.187  33.571  1.00  0.00    -0.203 F 
ATOM    119  C   UNL A   1      45.806  33.491  33.410  1.00  0.00     0.198 A 
ATOM    120  C   UNL A   1      45.594  34.612  31.299  1.00  0.00     0.198 A 
ATOM    121  F   UNL A   1      44.897  33.419  29.395  1.00  0.00    -0.203 F 
ATOM    122  F   UNL A   1      46.059  33.531  34.725  1.00  0.00    -0.200 F 
ATOM    123  C   UNL A   1      45.889  34.650  32.653  1.00  0.00     0.200 A 
ATOM    124  F   UNL A   1      45.684  35.729  30.563  1.00  0.00    -0.200 F 
ATOM    125  F   UNL A   1      46.242  35.806  33.232  1.00  0.00    -0.200 F 
ENDBRANCH  91 115
ENDBRANCH  56  59
ENDBRANCH  46  49
ENDBRANCH  42  45
ENDBRANCH  39  42
ENDBRANCH  36  39
ENDBRANCH  33  36
ENDBRANCH   1  33
TORSDOF 17
ENDMDL
MODEL 8
REMARK VINA RESULT:     -10.0      1.762      2.816
REMARK SMILES O=C(CCCC[C@@H]1CCSS1)NCCCCCCNC(=O)c1ccc(-c2c3nc(c(-c4c(F)c(F)c(F)c(F)c4F)c4ccc([nH]4)c(-c4c(F)c(F)c(F)c(F)c4F)c4nc(c(-c5c(F)c(F)c(F)c(F)c5F)c5ccc2[nH]5)C=C4)C=C3)cc1
REMARK SMILES IDX 14 1 13 4 12 7 1 8 2 9 3 11 4 14 5 17 6 20 7 23 8 24 11 25
REMARK SMILES IDX 9 27 10 30 15 33 16 36 17 39 18 42 19 45 20 46 21 48 22 49
REMARK SMILES IDX 23 50 84 51 24 52 83 54 25 56 26 59 27 60 77 61 28 62 82 63
REMARK SMILES IDX 76 64 78 65 29 66 81 67 75 69 74 71 30 73 62 76 42 77 61 78
REMARK SMILES IDX 43 79 46 80 60 81 79 82 44 83 45 85 59 87 80 88 47 91 31 93
REMARK SMILES IDX 32 94 40 95 33 96 34 97 38 98 41 99 35 100 36 101 39 102
REMARK SMILES IDX 37 103 63 104 64 105 72 106 65 107 66 108 70 109 73 110
REMARK SMILES IDX 67 111 68 112 71 113 69 114 48 115 49 116 57 117 50 118
REMARK SMILES IDX 51 119 55 120 58 121 52 122 53 123 56 124 54 125
REMARK H PARENT 14 2 14 3 13 5 13 6 12 10 3 12 3 13 4 15 4 16 5 18 5 19 6 21
REMARK H PARENT 6 22 7 26 8 28 8 29 9 31 9 32 15 34 15 35 16 37 16 38 17 40
REMARK H PARENT 17 41 18 43 18 44 19 47 23 53 84 55 24 57 83 58 82 68 76 70
REMARK H PARENT 78 72 81 74 75 75 43 84 46 86 79 89 44 90 80 92
REMARK Flexibility Score: inf
ROOT
ATOM      1  C   UNL A   1      35.917  22.669  24.773  1.00  0.00    -0.036 C 
ATOM      2  H   UNL A   1      35.102  22.073  25.131  1.00  0.00     0.028 H 
ATOM      3  H   UNL A   1      36.219  23.435  25.455  1.00  0.00     0.028 H 
ENDROOT
BRANCH   1   4
ATOM      4  C   UNL A   1      35.456  23.387  23.504  1.00  0.00     0.017 C 
ATOM      5  H   UNL A   1      36.314  23.648  22.920  1.00  0.00     0.049 H 
ATOM      6  H   UNL A   1      34.813  22.729  22.959  1.00  0.00     0.049 H 
BRANCH   4   7
ATOM      7  N   UNL A   1      34.717  24.589  23.819  1.00  0.00    -0.356 N 
ATOM      8  O   UNL A   1      33.483  24.678  21.887  1.00  0.00    -0.275 OA
ATOM      9  C   UNL A   1      33.777  25.140  22.984  1.00  0.00     0.219 C 
ATOM     10  H   UNL A   1      34.898  25.038  24.677  1.00  0.00     0.163 HD
BRANCH   9  11
ATOM     11  C   UNL A   1      33.135  26.399  23.537  1.00  0.00     0.026 C 
ATOM     12  H   UNL A   1      32.090  26.214  23.671  1.00  0.00     0.037 H 
ATOM     13  H   UNL A   1      33.322  27.180  22.831  1.00  0.00     0.037 H 
BRANCH  11  14
ATOM     14  C   UNL A   1      33.723  26.852  24.874  1.00  0.00    -0.044 C 
ATOM     15  H   UNL A   1      33.836  27.915  24.834  1.00  0.00     0.027 H 
ATOM     16  H   UNL A   1      34.639  26.308  24.976  1.00  0.00     0.027 H 
BRANCH  14  17
ATOM     17  C   UNL A   1      32.912  26.517  26.133  1.00  0.00    -0.052 C 
ATOM     18  H   UNL A   1      32.783  27.421  26.690  1.00  0.00     0.027 H 
ATOM     19  H   UNL A   1      33.475  25.763  26.645  1.00  0.00     0.027 H 
BRANCH  17  20
ATOM     20  C   UNL A   1      31.522  25.906  25.900  1.00  0.00    -0.040 C 
ATOM     21  H   UNL A   1      31.266  26.036  24.869  1.00  0.00     0.028 H 
ATOM     22  H   UNL A   1      30.843  26.411  26.554  1.00  0.00     0.028 H 
BRANCH  20  23
ATOM     23  C   UNL A   1      31.445  24.407  26.236  1.00  0.00     0.016 C 
ATOM     24  C   UNL A   1      32.787  23.857  26.739  1.00  0.00    -0.030 C 
ATOM     25  S   UNL A   1      31.021  23.430  24.751  1.00  0.00    -0.091 SA
ATOM     26  H   UNL A   1      30.697  24.319  26.997  1.00  0.00     0.043 H 
ATOM     27  C   UNL A   1      32.746  22.335  26.789  1.00  0.00     0.005 C 
ATOM     28  H   UNL A   1      32.980  24.238  27.720  1.00  0.00     0.029 H 
ATOM     29  H   UNL A   1      33.563  24.163  26.068  1.00  0.00     0.029 H 
ATOM     30  S   UNL A   1      32.173  21.788  25.165  1.00  0.00    -0.094 SA
ATOM     31  H   UNL A   1      32.069  22.008  27.550  1.00  0.00     0.039 H 
ATOM     32  H   UNL A   1      33.708  21.927  27.021  1.00  0.00     0.039 H 
ENDBRANCH  20  23
ENDBRANCH  17  20
ENDBRANCH  14  17
ENDBRANCH  11  14
ENDBRANCH   9  11
ENDBRANCH   4   7
ENDBRANCH   1   4
BRANCH   1  33
ATOM     33  C   UNL A   1      37.136  21.749  24.598  1.00  0.00    -0.052 C 
ATOM     34  H   UNL A   1      37.935  22.145  25.189  1.00  0.00     0.027 H 
ATOM     35  H   UNL A   1      37.341  21.730  23.548  1.00  0.00     0.027 H 
BRANCH  33  36
ATOM     36  C   UNL A   1      36.925  20.289  25.009  1.00  0.00    -0.052 C 
ATOM     37  H   UNL A   1      36.193  19.865  24.354  1.00  0.00     0.027 H 
ATOM     38  H   UNL A   1      36.621  20.312  26.035  1.00  0.00     0.027 H 
BRANCH  36  39
ATOM     39  C   UNL A   1      38.174  19.408  24.958  1.00  0.00    -0.036 C 
ATOM     40  H   UNL A   1      38.490  19.341  23.938  1.00  0.00     0.028 H 
ATOM     41  H   UNL A   1      37.888  18.468  25.382  1.00  0.00     0.028 H 
BRANCH  39  42
ATOM     42  C   UNL A   1      39.358  19.900  25.786  1.00  0.00     0.018 C 
ATOM     43  H   UNL A   1      39.027  20.063  26.791  1.00  0.00     0.049 H 
ATOM     44  H   UNL A   1      39.714  20.801  25.332  1.00  0.00     0.049 H 
BRANCH  42  45
ATOM     45  N   UNL A   1      40.465  18.959  25.809  1.00  0.00    -0.352 N 
ATOM     46  C   UNL A   1      41.796  19.179  26.056  1.00  0.00     0.251 C 
ATOM     47  H   UNL A   1      40.224  18.022  25.620  1.00  0.00     0.163 HD
ATOM     48  O   UNL A   1      42.606  18.265  25.908  1.00  0.00    -0.269 OA
BRANCH  46  49
ATOM     49  C   UNL A   1      42.276  20.517  26.468  1.00  0.00     0.039 A 
ATOM     50  C   UNL A   1      42.772  21.380  25.485  1.00  0.00    -0.049 A 
ATOM     51  C   UNL A   1      42.261  20.922  27.806  1.00  0.00    -0.049 A 
ATOM     52  C   UNL A   1      43.190  22.666  25.833  1.00  0.00    -0.053 A 
ATOM     53  H   UNL A   1      42.828  21.066  24.503  1.00  0.00     0.063 H 
ATOM     54  C   UNL A   1      42.617  22.228  28.143  1.00  0.00    -0.053 A 
ATOM     55  H   UNL A   1      41.986  20.255  28.543  1.00  0.00     0.063 H 
ATOM     56  C   UNL A   1      43.084  23.113  27.160  1.00  0.00    -0.014 A 
ATOM     57  H   UNL A   1      43.578  23.292  25.110  1.00  0.00     0.063 H 
ATOM     58  H   UNL A   1      42.536  22.545  29.122  1.00  0.00     0.063 H 
BRANCH  56  59
ATOM     59  C   UNL A   1      43.435  24.512  27.518  1.00  0.00     0.031 A 
ATOM     60  C   UNL A   1      44.867  24.969  27.521  1.00  0.00     0.074 A 
ATOM     61  C   UNL A   1      42.460  25.364  27.886  1.00  0.00     0.049 A 
ATOM     62  N   UNL A   1      45.358  26.152  27.796  1.00  0.00    -0.248 NA
ATOM     63  C   UNL A   1      45.885  23.959  27.197  1.00  0.00    -0.034 C 
ATOM     64  C   UNL A   1      41.038  25.027  27.982  1.00  0.00    -0.036 A 
ATOM     65  N   UNL A   1      42.513  26.686  28.247  1.00  0.00    -0.354 N 
ATOM     66  C   UNL A   1      46.737  26.025  27.692  1.00  0.00     0.074 A 
ATOM     67  C   UNL A   1      47.009  24.638  27.376  1.00  0.00    -0.034 C 
ATOM     68  H   UNL A   1      45.758  22.977  26.906  1.00  0.00     0.065 H 
ATOM     69  C   UNL A   1      40.351  26.123  28.339  1.00  0.00    -0.036 A 
ATOM     70  H   UNL A   1      40.630  24.096  27.804  1.00  0.00     0.065 H 
ATOM     71  C   UNL A   1      41.283  27.231  28.524  1.00  0.00     0.049 A 
ATOM     72  H   UNL A   1      43.353  27.197  28.303  1.00  0.00     0.167 HD
ATOM     73  C   UNL A   1      47.687  26.980  27.828  1.00  0.00     0.037 A 
ATOM     74  H   UNL A   1      47.954  24.234  27.301  1.00  0.00     0.065 H 
ATOM     75  H   UNL A   1      39.328  26.175  28.462  1.00  0.00     0.065 H 
ATOM     76  C   UNL A   1      40.945  28.485  28.877  1.00  0.00     0.037 A 
ATOM     77  C   UNL A   1      47.414  28.366  28.114  1.00  0.00     0.049 A 
ATOM     78  C   UNL A   1      42.018  29.530  29.006  1.00  0.00     0.074 A 
ATOM     79  C   UNL A   1      48.300  29.426  28.183  1.00  0.00    -0.036 A 
ATOM     80  N   UNL A   1      46.154  28.882  28.387  1.00  0.00    -0.354 N 
ATOM     81  N   UNL A   1      43.309  29.419  28.815  1.00  0.00    -0.248 NA
ATOM     82  C   UNL A   1      41.580  30.878  29.393  1.00  0.00    -0.034 C 
ATOM     83  C   UNL A   1      47.586  30.574  28.542  1.00  0.00    -0.036 A 
ATOM     84  H   UNL A   1      49.315  29.378  28.000  1.00  0.00     0.065 H 
ATOM     85  C   UNL A   1      46.246  30.240  28.653  1.00  0.00     0.049 A 
ATOM     86  H   UNL A   1      45.319  28.361  28.391  1.00  0.00     0.167 HD
ATOM     87  C   UNL A   1      43.837  30.685  29.034  1.00  0.00     0.074 A 
ATOM     88  C   UNL A   1      42.721  31.552  29.354  1.00  0.00    -0.034 C 
ATOM     89  H   UNL A   1      40.633  31.213  29.631  1.00  0.00     0.065 H 
ATOM     90  H   UNL A   1      47.988  31.512  28.699  1.00  0.00     0.065 H 
ATOM     91  C   UNL A   1      45.129  31.091  28.977  1.00  0.00     0.037 A 
ATOM     92  H   UNL A   1      42.805  32.565  29.529  1.00  0.00     0.065 H 
BRANCH  73  93
ATOM     93  C   UNL A   1      49.120  26.559  27.670  1.00  0.00     0.064 A 
ATOM     94  C   UNL A   1      49.930  26.267  28.778  1.00  0.00     0.173 A 
ATOM     95  C   UNL A   1      49.682  26.420  26.392  1.00  0.00     0.173 A 
ATOM     96  F   UNL A   1      49.443  26.394  30.022  1.00  0.00    -0.203 F 
ATOM     97  C   UNL A   1      51.258  25.884  28.614  1.00  0.00     0.198 A 
ATOM     98  C   UNL A   1      51.003  26.009  26.230  1.00  0.00     0.198 A 
ATOM     99  F   UNL A   1      48.950  26.680  25.298  1.00  0.00    -0.203 F 
ATOM    100  F   UNL A   1      52.027  25.661  29.688  1.00  0.00    -0.200 F 
ATOM    101  C   UNL A   1      51.793  25.749  27.341  1.00  0.00     0.200 A 
ATOM    102  F   UNL A   1      51.515  25.868  25.000  1.00  0.00    -0.200 F 
ATOM    103  F   UNL A   1      53.071  25.379  27.185  1.00  0.00    -0.200 F 
ENDBRANCH  73  93
BRANCH  76 104
ATOM    104  C   UNL A   1      39.516  28.834  29.083  1.00  0.00     0.064 A 
ATOM    105  C   UNL A   1      38.734  29.298  28.015  1.00  0.00     0.173 A 
ATOM    106  C   UNL A   1      38.904  28.711  30.337  1.00  0.00     0.173 A 
ATOM    107  F   UNL A   1      39.284  29.453  26.802  1.00  0.00    -0.203 F 
ATOM    108  C   UNL A   1      37.397  29.641  28.199  1.00  0.00     0.198 A 
ATOM    109  C   UNL A   1      37.559  29.029  30.514  1.00  0.00     0.198 A 
ATOM    110  F   UNL A   1      39.610  28.268  31.388  1.00  0.00    -0.203 F 
ATOM    111  F   UNL A   1      36.683  30.118  27.171  1.00  0.00    -0.200 F 
ATOM    112  C   UNL A   1      36.808  29.500  29.447  1.00  0.00     0.200 A 
ATOM    113  F   UNL A   1      36.991  28.882  31.719  1.00  0.00    -0.200 F 
ATOM    114  F   UNL A   1      35.520  29.824  29.623  1.00  0.00    -0.200 F 
ENDBRANCH  76 104
BRANCH  91 115
ATOM    115  C   UNL A   1      45.398  32.543  29.247  1.00  0.00     0.064 A 
ATOM    116  C   UNL A   1      45.719  33.003  30.533  1.00  0.00     0.173 A 
ATOM    117  C   UNL A   1      45.343  33.482  28.207  1.00  0.00     0.173 A 
ATOM    118  F   UNL A   1      45.767  32.147  31.564  1.00  0.00    -0.203 F 
ATOM    119  C   UNL A   1      45.940  34.357  30.773  1.00  0.00     0.198 A 
ATOM    120  C   UNL A   1      45.594  34.831  28.446  1.00  0.00     0.198 A 
ATOM    121  F   UNL A   1      45.046  33.093  26.958  1.00  0.00    -0.203 F 
ATOM    122  F   UNL A   1      46.187  34.782  32.020  1.00  0.00    -0.200 F 
ATOM    123  C   UNL A   1      45.883  35.268  29.730  1.00  0.00     0.200 A 
ATOM    124  F   UNL A   1      45.549  35.709  27.434  1.00  0.00    -0.200 F 
ATOM    125  F   UNL A   1      46.094  36.571  29.964  1.00  0.00    -0.200 F 
ENDBRANCH  91 115
ENDBRANCH  56  59
ENDBRANCH  46  49
ENDBRANCH  42  45
ENDBRANCH  39  42
ENDBRANCH  36  39
ENDBRANCH  33  36
ENDBRANCH   1  33
TORSDOF 17
ENDMDL
MODEL 9
REMARK VINA RESULT:     -10.0      5.978     11.048
REMARK SMILES O=C(CCCC[C@@H]1CCSS1)NCCCCCCNC(=O)c1ccc(-c2c3nc(c(-c4c(F)c(F)c(F)c(F)c4F)c4ccc([nH]4)c(-c4c(F)c(F)c(F)c(F)c4F)c4nc(c(-c5c(F)c(F)c(F)c(F)c5F)c5ccc2[nH]5)C=C4)C=C3)cc1
REMARK SMILES IDX 14 1 13 4 12 7 1 8 2 9 3 11 4 14 5 17 6 20 7 23 8 24 11 25
REMARK SMILES IDX 9 27 10 30 15 33 16 36 17 39 18 42 19 45 20 46 21 48 22 49
REMARK SMILES IDX 23 50 84 51 24 52 83 54 25 56 26 59 27 60 77 61 28 62 82 63
REMARK SMILES IDX 76 64 78 65 29 66 81 67 75 69 74 71 30 73 62 76 42 77 61 78
REMARK SMILES IDX 43 79 46 80 60 81 79 82 44 83 45 85 59 87 80 88 47 91 31 93
REMARK SMILES IDX 32 94 40 95 33 96 34 97 38 98 41 99 35 100 36 101 39 102
REMARK SMILES IDX 37 103 63 104 64 105 72 106 65 107 66 108 70 109 73 110
REMARK SMILES IDX 67 111 68 112 71 113 69 114 48 115 49 116 57 117 50 118
REMARK SMILES IDX 51 119 55 120 58 121 52 122 53 123 56 124 54 125
REMARK H PARENT 14 2 14 3 13 5 13 6 12 10 3 12 3 13 4 15 4 16 5 18 5 19 6 21
REMARK H PARENT 6 22 7 26 8 28 8 29 9 31 9 32 15 34 15 35 16 37 16 38 17 40
REMARK H PARENT 17 41 18 43 18 44 19 47 23 53 84 55 24 57 83 58 82 68 76 70
REMARK H PARENT 78 72 81 74 75 75 43 84 46 86 79 89 44 90 80 92
REMARK Flexibility Score: inf
ROOT
ATOM      1  C   UNL A   1      33.998  26.645  25.421  1.00  0.00    -0.036 C 
ATOM      2  H   UNL A   1      34.556  25.877  24.925  1.00  0.00     0.028 H 
ATOM      3  H   UNL A   1      34.560  27.170  26.164  1.00  0.00     0.028 H 
ENDROOT
BRANCH   1   4
ATOM      4  C   UNL A   1      32.834  25.982  26.158  1.00  0.00     0.017 C 
ATOM      5  H   UNL A   1      33.032  24.935  26.252  1.00  0.00     0.049 H 
ATOM      6  H   UNL A   1      32.741  26.438  27.121  1.00  0.00     0.049 H 
BRANCH   4   7
ATOM      7  N   UNL A   1      31.588  26.164  25.447  1.00  0.00    -0.356 N 
ATOM      8  O   UNL A   1      30.293  24.838  26.798  1.00  0.00    -0.275 OA
ATOM      9  C   UNL A   1      30.406  25.580  25.830  1.00  0.00     0.219 C 
ATOM     10  H   UNL A   1      31.587  26.735  24.645  1.00  0.00     0.163 HD
BRANCH   9  11
ATOM     11  C   UNL A   1      29.236  25.924  24.926  1.00  0.00     0.026 C 
ATOM     12  H   UNL A   1      28.607  26.621  25.438  1.00  0.00     0.037 H 
ATOM     13  H   UNL A   1      28.733  25.006  24.704  1.00  0.00     0.037 H 
BRANCH  11  14
ATOM     14  C   UNL A   1      29.654  26.540  23.589  1.00  0.00    -0.044 C 
ATOM     15  H   UNL A   1      28.896  26.302  22.873  1.00  0.00     0.027 H 
ATOM     16  H   UNL A   1      30.617  26.123  23.377  1.00  0.00     0.027 H 
BRANCH  14  17
ATOM     17  C   UNL A   1      29.858  28.061  23.564  1.00  0.00    -0.052 C 
ATOM     18  H   UNL A   1      30.704  28.267  22.942  1.00  0.00     0.027 H 
ATOM     19  H   UNL A   1      29.983  28.351  24.587  1.00  0.00     0.027 H 
BRANCH  17  20
ATOM     20  C   UNL A   1      28.677  28.892  23.041  1.00  0.00    -0.040 C 
ATOM     21  H   UNL A   1      27.958  28.989  23.828  1.00  0.00     0.028 H 
ATOM     22  H   UNL A   1      28.282  28.378  22.191  1.00  0.00     0.028 H 
BRANCH  20  23
ATOM     23  C   UNL A   1      29.077  30.301  22.571  1.00  0.00     0.016 C 
ATOM     24  C   UNL A   1      28.642  31.388  23.563  1.00  0.00    -0.030 C 
ATOM     25  S   UNL A   1      28.268  30.709  20.984  1.00  0.00    -0.091 SA
ATOM     26  H   UNL A   1      30.143  30.284  22.480  1.00  0.00     0.043 H 
ATOM     27  C   UNL A   1      28.801  32.767  22.935  1.00  0.00     0.005 C 
ATOM     28  H   UNL A   1      29.248  31.327  24.442  1.00  0.00     0.029 H 
ATOM     29  H   UNL A   1      27.613  31.237  23.817  1.00  0.00     0.029 H 
ATOM     30  S   UNL A   1      27.953  32.701  21.342  1.00  0.00    -0.094 SA
ATOM     31  H   UNL A   1      29.837  32.993  22.795  1.00  0.00     0.039 H 
ATOM     32  H   UNL A   1      28.390  33.530  23.564  1.00  0.00     0.039 H 
ENDBRANCH  20  23
ENDBRANCH  17  20
ENDBRANCH  14  17
ENDBRANCH  11  14
ENDBRANCH   9  11
ENDBRANCH   4   7
ENDBRANCH   1   4
BRANCH   1  33
ATOM     33  C   UNL A   1      33.596  27.693  24.371  1.00  0.00    -0.052 C 
ATOM     34  H   UNL A   1      32.597  27.477  24.056  1.00  0.00     0.027 H 
ATOM     35  H   UNL A   1      34.323  27.619  23.590  1.00  0.00     0.027 H 
BRANCH  33  36
ATOM     36  C   UNL A   1      33.637  29.149  24.843  1.00  0.00    -0.052 C 
ATOM     37  H   UNL A   1      33.912  29.759  24.008  1.00  0.00     0.027 H 
ATOM     38  H   UNL A   1      34.343  29.178  25.647  1.00  0.00     0.027 H 
BRANCH  36  39
ATOM     39  C   UNL A   1      32.325  29.690  25.413  1.00  0.00    -0.036 C 
ATOM     40  H   UNL A   1      31.606  28.898  25.395  1.00  0.00     0.028 H 
ATOM     41  H   UNL A   1      32.059  30.525  24.799  1.00  0.00     0.028 H 
BRANCH  39  42
ATOM     42  C   UNL A   1      32.401  30.225  26.840  1.00  0.00     0.018 C 
ATOM     43  H   UNL A   1      33.275  29.823  27.309  1.00  0.00     0.049 H 
ATOM     44  H   UNL A   1      31.505  29.926  27.342  1.00  0.00     0.049 H 
BRANCH  42  45
ATOM     45  N   UNL A   1      32.468  31.676  26.900  1.00  0.00    -0.352 N 
ATOM     46  C   UNL A   1      33.414  32.485  27.478  1.00  0.00     0.251 C 
ATOM     47  H   UNL A   1      31.725  32.149  26.460  1.00  0.00     0.163 HD
ATOM     48  O   UNL A   1      33.230  33.701  27.529  1.00  0.00    -0.269 OA
BRANCH  46  49
ATOM     49  C   UNL A   1      34.641  31.908  28.070  1.00  0.00     0.039 A 
ATOM     50  C   UNL A   1      35.733  32.753  28.295  1.00  0.00    -0.049 A 
ATOM     51  C   UNL A   1      34.735  30.550  28.387  1.00  0.00    -0.049 A 
ATOM     52  C   UNL A   1      36.890  32.251  28.895  1.00  0.00    -0.053 A 
ATOM     53  H   UNL A   1      35.684  33.746  28.018  1.00  0.00     0.063 H 
ATOM     54  C   UNL A   1      35.865  30.064  29.044  1.00  0.00    -0.053 A 
ATOM     55  H   UNL A   1      33.968  29.908  28.135  1.00  0.00     0.063 H 
ATOM     56  C   UNL A   1      36.953  30.910  29.306  1.00  0.00    -0.014 A 
ATOM     57  H   UNL A   1      37.704  32.870  29.037  1.00  0.00     0.063 H 
ATOM     58  H   UNL A   1      35.901  29.076  29.341  1.00  0.00     0.063 H 
BRANCH  56  59
ATOM     59  C   UNL A   1      38.144  30.396  30.031  1.00  0.00     0.031 A 
ATOM     60  C   UNL A   1      38.408  30.796  31.456  1.00  0.00     0.074 A 
ATOM     61  C   UNL A   1      39.017  29.600  29.386  1.00  0.00     0.049 A 
ATOM     62  N   UNL A   1      39.390  30.439  32.247  1.00  0.00    -0.248 NA
ATOM     63  C   UNL A   1      37.461  31.741  32.065  1.00  0.00    -0.034 C 
ATOM     64  C   UNL A   1      38.906  29.187  27.985  1.00  0.00    -0.036 A 
ATOM     65  N   UNL A   1      40.169  28.994  29.821  1.00  0.00    -0.354 N 
ATOM     66  C   UNL A   1      39.186  31.124  33.438  1.00  0.00     0.074 A 
ATOM     67  C   UNL A   1      38.015  31.954  33.250  1.00  0.00    -0.034 C 
ATOM     68  H   UNL A   1      36.592  32.135  31.673  1.00  0.00     0.065 H 
ATOM     69  C   UNL A   1      39.925  28.367  27.688  1.00  0.00    -0.036 A 
ATOM     70  H   UNL A   1      38.163  29.481  27.332  1.00  0.00     0.065 H 
ATOM     71  C   UNL A   1      40.776  28.217  28.865  1.00  0.00     0.049 A 
ATOM     72  H   UNL A   1      40.526  29.106  30.731  1.00  0.00     0.167 HD
ATOM     73  C   UNL A   1      39.898  31.051  34.588  1.00  0.00     0.037 A 
ATOM     74  H   UNL A   1      37.659  32.625  33.948  1.00  0.00     0.065 H 
ATOM     75  H   UNL A   1      40.082  27.914  26.774  1.00  0.00     0.065 H 
ATOM     76  C   UNL A   1      41.887  27.461  28.933  1.00  0.00     0.037 A 
ATOM     77  C   UNL A   1      41.045  30.202  34.783  1.00  0.00     0.049 A 
ATOM     78  C   UNL A   1      42.650  27.386  30.227  1.00  0.00     0.074 A 
ATOM     79  C   UNL A   1      41.779  29.992  35.938  1.00  0.00    -0.036 A 
ATOM     80  N   UNL A   1      41.631  29.427  33.792  1.00  0.00    -0.354 N 
ATOM     81  N   UNL A   1      42.395  27.966  31.373  1.00  0.00    -0.248 NA
ATOM     82  C   UNL A   1      43.853  26.543  30.234  1.00  0.00    -0.034 C 
ATOM     83  C   UNL A   1      42.836  29.126  35.635  1.00  0.00    -0.036 A 
ATOM     84  H   UNL A   1      41.581  30.403  36.863  1.00  0.00     0.065 H 
ATOM     85  C   UNL A   1      42.735  28.760  34.302  1.00  0.00     0.049 A 
ATOM     86  H   UNL A   1      41.311  29.360  32.864  1.00  0.00     0.167 HD
ATOM     87  C   UNL A   1      43.388  27.540  32.245  1.00  0.00     0.074 A 
ATOM     88  C   UNL A   1      44.240  26.638  31.498  1.00  0.00    -0.034 C 
ATOM     89  H   UNL A   1      44.282  26.013  29.458  1.00  0.00     0.065 H 
ATOM     90  H   UNL A   1      43.568  28.814  36.292  1.00  0.00     0.065 H 
ATOM     91  C   UNL A   1      43.578  27.870  33.547  1.00  0.00     0.037 A 
ATOM     92  H   UNL A   1      45.046  26.134  31.899  1.00  0.00     0.065 H 
BRANCH  73  93
ATOM     93  C   UNL A   1      39.455  31.918  35.731  1.00  0.00     0.064 A 
ATOM     94  C   UNL A   1      38.485  31.488  36.651  1.00  0.00     0.173 A 
ATOM     95  C   UNL A   1      40.026  33.184  35.926  1.00  0.00     0.173 A 
ATOM     96  F   UNL A   1      37.901  30.290  36.503  1.00  0.00    -0.203 F 
ATOM     97  C   UNL A   1      38.081  32.307  37.701  1.00  0.00     0.198 A 
ATOM     98  C   UNL A   1      39.641  33.989  36.995  1.00  0.00     0.198 A 
ATOM     99  F   UNL A   1      40.962  33.642  35.081  1.00  0.00    -0.203 F 
ATOM    100  F   UNL A   1      37.116  31.896  38.536  1.00  0.00    -0.200 F 
ATOM    101  C   UNL A   1      38.662  33.554  37.877  1.00  0.00     0.200 A 
ATOM    102  F   UNL A   1      40.212  35.189  37.171  1.00  0.00    -0.200 F 
ATOM    103  F   UNL A   1      38.274  34.340  38.890  1.00  0.00    -0.200 F 
ENDBRANCH  73  93
BRANCH  76 104
ATOM    104  C   UNL A   1      42.317  26.671  27.751  1.00  0.00     0.064 A 
ATOM    105  C   UNL A   1      41.771  25.404  27.504  1.00  0.00     0.173 A 
ATOM    106  C   UNL A   1      43.271  27.161  26.850  1.00  0.00     0.173 A 
ATOM    107  F   UNL A   1      40.871  24.886  28.353  1.00  0.00    -0.203 F 
ATOM    108  C   UNL A   1      42.175  24.648  26.406  1.00  0.00     0.198 A 
ATOM    109  C   UNL A   1      43.656  26.415  25.737  1.00  0.00     0.198 A 
ATOM    110  F   UNL A   1      43.819  28.369  27.042  1.00  0.00    -0.203 F 
ATOM    111  F   UNL A   1      41.667  23.423  26.214  1.00  0.00    -0.200 F 
ATOM    112  C   UNL A   1      43.113  25.157  25.519  1.00  0.00     0.200 A 
ATOM    113  F   UNL A   1      44.554  26.914  24.877  1.00  0.00    -0.200 F 
ATOM    114  F   UNL A   1      43.498  24.433  24.461  1.00  0.00    -0.200 F 
ENDBRANCH  76 104
BRANCH  91 115
ATOM    115  C   UNL A   1      44.743  27.231  34.247  1.00  0.00     0.064 A 
ATOM    116  C   UNL A   1      45.999  27.853  34.302  1.00  0.00     0.173 A 
ATOM    117  C   UNL A   1      44.598  25.985  34.875  1.00  0.00     0.173 A 
ATOM    118  F   UNL A   1      46.191  29.037  33.701  1.00  0.00    -0.203 F 
ATOM    119  C   UNL A   1      47.076  27.237  34.932  1.00  0.00     0.198 A 
ATOM    120  C   UNL A   1      45.671  25.385  35.530  1.00  0.00     0.198 A 
ATOM    121  F   UNL A   1      43.418  25.350  34.856  1.00  0.00    -0.203 F 
ATOM    122  F   UNL A   1      48.281  27.824  34.922  1.00  0.00    -0.200 F 
ATOM    123  C   UNL A   1      46.910  26.006  35.550  1.00  0.00     0.200 A 
ATOM    124  F   UNL A   1      45.506  24.200  36.136  1.00  0.00    -0.200 F 
ATOM    125  F   UNL A   1      47.950  25.413  36.154  1.00  0.00    -0.200 F 
ENDBRANCH  91 115
ENDBRANCH  56  59
ENDBRANCH  46  49
ENDBRANCH  42  45
ENDBRANCH  39  42
ENDBRANCH  36  39
ENDBRANCH  33  36
ENDBRANCH   1  33
TORSDOF 17
ENDMDL
MODEL 10
REMARK VINA RESULT:     -10.0      2.605      3.732
REMARK SMILES O=C(CCCC[C@@H]1CCSS1)NCCCCCCNC(=O)c1ccc(-c2c3nc(c(-c4c(F)c(F)c(F)c(F)c4F)c4ccc([nH]4)c(-c4c(F)c(F)c(F)c(F)c4F)c4nc(c(-c5c(F)c(F)c(F)c(F)c5F)c5ccc2[nH]5)C=C4)C=C3)cc1
REMARK SMILES IDX 14 1 13 4 12 7 1 8 2 9 3 11 4 14 5 17 6 20 7 23 8 24 11 25
REMARK SMILES IDX 9 27 10 30 15 33 16 36 17 39 18 42 19 45 20 46 21 48 22 49
REMARK SMILES IDX 23 50 84 51 24 52 83 54 25 56 26 59 27 60 77 61 28 62 82 63
REMARK SMILES IDX 76 64 78 65 29 66 81 67 75 69 74 71 30 73 62 76 42 77 61 78
REMARK SMILES IDX 43 79 46 80 60 81 79 82 44 83 45 85 59 87 80 88 47 91 31 93
REMARK SMILES IDX 32 94 40 95 33 96 34 97 38 98 41 99 35 100 36 101 39 102
REMARK SMILES IDX 37 103 63 104 64 105 72 106 65 107 66 108 70 109 73 110
REMARK SMILES IDX 67 111 68 112 71 113 69 114 48 115 49 116 57 117 50 118
REMARK SMILES IDX 51 119 55 120 58 121 52 122 53 123 56 124 54 125
REMARK H PARENT 14 2 14 3 13 5 13 6 12 10 3 12 3 13 4 15 4 16 5 18 5 19 6 21
REMARK H PARENT 6 22 7 26 8 28 8 29 9 31 9 32 15 34 15 35 16 37 16 38 17 40
REMARK H PARENT 17 41 18 43 18 44 19 47 23 53 84 55 24 57 83 58 82 68 76 70
REMARK H PARENT 78 72 81 74 75 75 43 84 46 86 79 89 44 90 80 92
REMARK Flexibility Score: inf
ROOT
ATOM      1  C   UNL A   1      40.048  22.636  26.586  1.00  0.00    -0.036 C 
ATOM      2  H   UNL A   1      39.753  23.145  27.481  1.00  0.00     0.028 H 
ATOM      3  H   UNL A   1      40.302  23.295  25.783  1.00  0.00     0.028 H 
ENDROOT
BRANCH   1   4
ATOM      4  C   UNL A   1      38.858  21.809  26.097  1.00  0.00     0.017 C 
ATOM      5  H   UNL A   1      39.212  20.863  25.745  1.00  0.00     0.049 H 
ATOM      6  H   UNL A   1      38.179  21.680  26.913  1.00  0.00     0.049 H 
BRANCH   4   7
ATOM      7  N   UNL A   1      38.158  22.479  25.023  1.00  0.00    -0.356 N 
ATOM      8  O   UNL A   1      36.332  21.092  24.966  1.00  0.00    -0.275 OA
ATOM      9  C   UNL A   1      36.939  22.070  24.544  1.00  0.00     0.219 C 
ATOM     10  H   UNL A   1      38.579  23.269  24.613  1.00  0.00     0.163 HD
BRANCH   9  11
ATOM     11  C   UNL A   1      36.405  22.936  23.418  1.00  0.00     0.026 C 
ATOM     12  H   UNL A   1      36.195  22.306  22.579  1.00  0.00     0.037 H 
ATOM     13  H   UNL A   1      37.158  23.665  23.201  1.00  0.00     0.037 H 
BRANCH  11  14
ATOM     14  C   UNL A   1      35.132  23.701  23.781  1.00  0.00    -0.044 C 
ATOM     15  H   UNL A   1      34.327  22.996  23.805  1.00  0.00     0.027 H 
ATOM     16  H   UNL A   1      35.039  24.462  23.034  1.00  0.00     0.027 H 
BRANCH  14  17
ATOM     17  C   UNL A   1      35.135  24.450  25.121  1.00  0.00    -0.052 C 
ATOM     18  H   UNL A   1      36.083  24.936  25.221  1.00  0.00     0.027 H 
ATOM     19  H   UNL A   1      34.943  23.706  25.867  1.00  0.00     0.027 H 
BRANCH  17  20
ATOM     20  C   UNL A   1      34.040  25.510  25.305  1.00  0.00    -0.040 C 
ATOM     21  H   UNL A   1      34.412  26.270  25.960  1.00  0.00     0.028 H 
ATOM     22  H   UNL A   1      33.183  25.011  25.707  1.00  0.00     0.028 H 
BRANCH  20  23
ATOM     23  C   UNL A   1      33.600  26.174  23.990  1.00  0.00     0.016 C 
ATOM     24  C   UNL A   1      33.647  27.707  24.071  1.00  0.00    -0.030 C 
ATOM     25  S   UNL A   1      31.869  25.742  23.592  1.00  0.00    -0.091 SA
ATOM     26  H   UNL A   1      34.279  25.819  23.244  1.00  0.00     0.043 H 
ATOM     27  C   UNL A   1      32.944  28.319  22.865  1.00  0.00     0.005 C 
ATOM     28  H   UNL A   1      34.667  28.028  24.087  1.00  0.00     0.029 H 
ATOM     29  H   UNL A   1      33.150  28.024  24.963  1.00  0.00     0.029 H 
ATOM     30  S   UNL A   1      31.319  27.536  22.773  1.00  0.00    -0.094 SA
ATOM     31  H   UNL A   1      33.501  28.124  21.973  1.00  0.00     0.039 H 
ATOM     32  H   UNL A   1      32.860  29.382  22.963  1.00  0.00     0.039 H 
ENDBRANCH  20  23
ENDBRANCH  17  20
ENDBRANCH  14  17
ENDBRANCH  11  14
ENDBRANCH   9  11
ENDBRANCH   4   7
ENDBRANCH   1   4
BRANCH   1  33
ATOM     33  C   UNL A   1      41.320  21.831  26.896  1.00  0.00    -0.052 C 
ATOM     34  H   UNL A   1      41.754  22.230  27.788  1.00  0.00     0.027 H 
ATOM     35  H   UNL A   1      41.944  21.926  26.031  1.00  0.00     0.027 H 
BRANCH  33  36
ATOM     36  C   UNL A   1      41.116  20.328  27.102  1.00  0.00    -0.052 C 
ATOM     37  H   UNL A   1      40.065  20.147  27.191  1.00  0.00     0.027 H 
ATOM     38  H   UNL A   1      41.672  20.072  27.981  1.00  0.00     0.027 H 
BRANCH  36  39
ATOM     39  C   UNL A   1      41.657  19.434  25.985  1.00  0.00    -0.036 C 
ATOM     40  H   UNL A   1      41.780  20.037  25.110  1.00  0.00     0.028 H 
ATOM     41  H   UNL A   1      40.944  18.645  25.867  1.00  0.00     0.028 H 
BRANCH  39  42
ATOM     42  C   UNL A   1      42.992  18.754  26.278  1.00  0.00     0.018 C 
ATOM     43  H   UNL A   1      42.799  17.779  26.674  1.00  0.00     0.049 H 
ATOM     44  H   UNL A   1      43.519  19.371  26.976  1.00  0.00     0.049 H 
BRANCH  42  45
ATOM     45  N   UNL A   1      43.831  18.618  25.099  1.00  0.00    -0.352 N 
ATOM     46  C   UNL A   1      44.530  19.574  24.407  1.00  0.00     0.251 C 
ATOM     47  H   UNL A   1      43.910  17.702  24.744  1.00  0.00     0.163 HD
ATOM     48  O   UNL A   1      45.089  19.279  23.351  1.00  0.00    -0.269 OA
BRANCH  46  49
ATOM     49  C   UNL A   1      44.592  20.968  24.899  1.00  0.00     0.039 A 
ATOM     50  C   UNL A   1      45.217  21.214  26.126  1.00  0.00    -0.049 A 
ATOM     51  C   UNL A   1      44.029  22.027  24.180  1.00  0.00    -0.049 A 
ATOM     52  C   UNL A   1      45.334  22.524  26.598  1.00  0.00    -0.053 A 
ATOM     53  H   UNL A   1      45.592  20.430  26.681  1.00  0.00     0.063 H 
ATOM     54  C   UNL A   1      44.203  23.339  24.620  1.00  0.00    -0.053 A 
ATOM     55  H   UNL A   1      43.485  21.837  23.324  1.00  0.00     0.063 H 
ATOM     56  C   UNL A   1      44.858  23.600  25.832  1.00  0.00    -0.014 A 
ATOM     57  H   UNL A   1      45.773  22.701  27.515  1.00  0.00     0.063 H 
ATOM     58  H   UNL A   1      43.848  24.122  24.049  1.00  0.00     0.063 H 
BRANCH  56  59
ATOM     59  C   UNL A   1      45.067  25.001  26.284  1.00  0.00     0.031 A 
ATOM     60  C   UNL A   1      46.417  25.652  26.170  1.00  0.00     0.074 A 
ATOM     61  C   UNL A   1      44.043  25.673  26.843  1.00  0.00     0.049 A 
ATOM     62  N   UNL A   1      46.780  26.867  26.505  1.00  0.00    -0.248 NA
ATOM     63  C   UNL A   1      47.508  24.826  25.636  1.00  0.00    -0.034 C 
ATOM     64  C   UNL A   1      42.701  25.133  27.065  1.00  0.00    -0.036 A 
ATOM     65  N   UNL A   1      43.970  26.956  27.325  1.00  0.00    -0.354 N 
ATOM     66  C   UNL A   1      48.140  26.944  26.234  1.00  0.00     0.074 A 
ATOM     67  C   UNL A   1      48.548  25.640  25.752  1.00  0.00    -0.034 C 
ATOM     68  H   UNL A   1      47.475  23.864  25.265  1.00  0.00     0.065 H 
ATOM     69  C   UNL A   1      41.927  26.088  27.604  1.00  0.00    -0.036 A 
ATOM     70  H   UNL A   1      42.398  24.172  26.843  1.00  0.00     0.065 H 
ATOM     71  C   UNL A   1      42.724  27.297  27.791  1.00  0.00     0.049 A 
ATOM     72  H   UNL A   1      44.737  27.573  27.336  1.00  0.00     0.167 HD
ATOM     73  C   UNL A   1      48.967  28.009  26.355  1.00  0.00     0.037 A 
ATOM     74  H   UNL A   1      49.521  25.380  25.531  1.00  0.00     0.065 H 
ATOM     75  H   UNL A   1      40.930  25.984  27.847  1.00  0.00     0.065 H 
ATOM     76  C   UNL A   1      42.272  28.457  28.303  1.00  0.00     0.037 A 
ATOM     77  C   UNL A   1      48.555  29.314  26.806  1.00  0.00     0.049 A 
ATOM     78  C   UNL A   1      43.209  29.629  28.412  1.00  0.00     0.074 A 
ATOM     79  C   UNL A   1      49.298  30.479  26.879  1.00  0.00    -0.036 A 
ATOM     80  N   UNL A   1      47.283  29.623  27.269  1.00  0.00    -0.354 N 
ATOM     81  N   UNL A   1      44.468  29.717  28.067  1.00  0.00    -0.248 NA
ATOM     82  C   UNL A   1      42.651  30.865  28.978  1.00  0.00    -0.034 C 
ATOM     83  C   UNL A   1      48.491  31.481  27.428  1.00  0.00    -0.036 A 
ATOM     84  H   UNL A   1      50.278  30.590  26.579  1.00  0.00     0.065 H 
ATOM     85  C   UNL A   1      47.231  30.953  27.656  1.00  0.00     0.049 A 
ATOM     86  H   UNL A   1      46.530  28.991  27.315  1.00  0.00     0.167 HD
ATOM     87  C   UNL A   1      44.851  31.021  28.349  1.00  0.00     0.074 A 
ATOM     88  C   UNL A   1      43.681  31.693  28.877  1.00  0.00    -0.034 C 
ATOM     89  H   UNL A   1      41.706  31.042  29.354  1.00  0.00     0.065 H 
ATOM     90  H   UNL A   1      48.785  32.449  27.631  1.00  0.00     0.065 H 
ATOM     91  C   UNL A   1      46.062  31.609  28.186  1.00  0.00     0.037 A 
ATOM     92  H   UNL A   1      43.654  32.690  29.141  1.00  0.00     0.065 H 
BRANCH  73  93
ATOM     93  C   UNL A   1      50.411  27.808  25.995  1.00  0.00     0.064 A 
ATOM     94  C   UNL A   1      51.388  27.561  26.972  1.00  0.00     0.173 A 
ATOM     95  C   UNL A   1      50.819  27.836  24.653  1.00  0.00     0.173 A 
ATOM     96  F   UNL A   1      51.052  27.535  28.270  1.00  0.00    -0.203 F 
ATOM     97  C   UNL A   1      52.724  27.384  26.621  1.00  0.00     0.198 A 
ATOM     98  C   UNL A   1      52.151  27.629  24.303  1.00  0.00     0.198 A 
ATOM     99  F   UNL A   1      49.925  28.061  23.678  1.00  0.00    -0.203 F 
ATOM    100  F   UNL A   1      53.647  27.202  27.575  1.00  0.00    -0.200 F 
ATOM    101  C   UNL A   1      53.104  27.412  25.288  1.00  0.00     0.200 A 
ATOM    102  F   UNL A   1      52.516  27.645  23.014  1.00  0.00    -0.200 F 
ATOM    103  F   UNL A   1      54.390  27.239  24.952  1.00  0.00    -0.200 F 
ENDBRANCH  73  93
BRANCH  76 104
ATOM    104  C   UNL A   1      40.847  28.583  28.702  1.00  0.00     0.064 A 
ATOM    105  C   UNL A   1      39.883  29.009  27.778  1.00  0.00     0.173 A 
ATOM    106  C   UNL A   1      40.421  28.282  30.003  1.00  0.00     0.173 A 
ATOM    107  F   UNL A   1      40.249  29.330  26.529  1.00  0.00    -0.203 F 
ATOM    108  C   UNL A   1      38.546  29.144  28.145  1.00  0.00     0.198 A 
ATOM    109  C   UNL A   1      39.079  28.391  30.361  1.00  0.00     0.198 A 
ATOM    110  F   UNL A   1      41.306  27.867  30.920  1.00  0.00    -0.203 F 
ATOM    111  F   UNL A   1      37.651  29.590  27.253  1.00  0.00    -0.200 F 
ATOM    112  C   UNL A   1      38.143  28.829  29.434  1.00  0.00     0.200 A 
ATOM    113  F   UNL A   1      38.692  28.076  31.604  1.00  0.00    -0.200 F 
ATOM    114  F   UNL A   1      36.857  28.952  29.785  1.00  0.00    -0.200 F 
ENDBRANCH  76 104
BRANCH  91 115
ATOM    115  C   UNL A   1      46.172  33.057  28.567  1.00  0.00     0.064 A 
ATOM    116  C   UNL A   1      45.921  34.081  27.641  1.00  0.00     0.173 A 
ATOM    117  C   UNL A   1      46.525  33.424  29.874  1.00  0.00     0.173 A 
ATOM    118  F   UNL A   1      45.597  33.780  26.375  1.00  0.00    -0.203 F 
ATOM    119  C   UNL A   1      46.053  35.419  28.001  1.00  0.00     0.198 A 
ATOM    120  C   UNL A   1      46.627  34.764  30.238  1.00  0.00     0.198 A 
ATOM    121  F   UNL A   1      46.771  32.485  30.798  1.00  0.00    -0.203 F 
ATOM    122  F   UNL A   1      45.865  36.379  27.085  1.00  0.00    -0.200 F 
ATOM    123  C   UNL A   1      46.401  35.760  29.300  1.00  0.00     0.200 A 
ATOM    124  F   UNL A   1      46.953  35.092  31.496  1.00  0.00    -0.200 F 
ATOM    125  F   UNL A   1      46.529  37.049  29.644  1.00  0.00    -0.200 F 
ENDBRANCH  91 115
ENDBRANCH  56  59
ENDBRANCH  46  49
ENDBRANCH  42  45
ENDBRANCH  39  42
ENDBRANCH  36  39
ENDBRANCH  33  36
ENDBRANCH   1  33
TORSDOF 17
ENDMDL
