MODEL 1
REMARK VINA RESULT:     -12.3      0.000      0.000
REMARK SMILES C/C(=N/OCc1ccccc1Nc1c(Cl)cccc1Cl)C(=O)NCCCCCCNC(=O)c1ccc(-c2c3nc(c(-c4c(F)c(F)c(F)c(F)c4F)c4ccc([nH]4)c(-c4c(F)c(F)c(F)c(F)c4F)c4nc(c(-c5c(F)c(F)c(F)c(F)c5F)c5ccc2[nH]5)C=C4)C=C3)cc1
REMARK SMILES IDX 25 1 24 4 23 7 21 8 22 9 2 11 3 12 1 13 4 17 5 18 6 21 7 22
REMARK SMILES IDX 11 23 8 24 10 26 9 27 12 31 13 33 14 34 19 35 15 36 16 37
REMARK SMILES IDX 18 38 20 39 17 40 26 44 27 47 28 50 29 53 30 56 31 57 32 59
REMARK SMILES IDX 33 60 34 61 95 62 35 63 94 65 36 67 37 70 38 71 88 72 39 73
REMARK SMILES IDX 93 74 87 75 89 76 40 77 92 78 86 80 85 82 41 84 73 87 53 88
REMARK SMILES IDX 72 89 54 90 57 91 71 92 90 93 55 94 56 96 70 98 91 99 58 102
REMARK SMILES IDX 42 104 43 105 51 106 44 107 45 108 49 109 52 110 46 111
REMARK SMILES IDX 47 112 50 113 48 114 74 115 75 116 83 117 76 118 77 119
REMARK SMILES IDX 81 120 84 121 78 122 79 123 82 124 80 125 59 126 60 127
REMARK SMILES IDX 68 128 61 129 62 130 66 131 69 132 63 133 64 134 67 135
REMARK SMILES IDX 65 136
REMARK H PARENT 25 2 25 3 24 5 24 6 23 10 1 14 1 15 1 16 5 19 5 20 7 25 8 28
REMARK H PARENT 10 29 9 30 12 32 16 41 18 42 17 43 26 45 26 46 27 48 27 49
REMARK H PARENT 28 51 28 52 29 54 29 55 30 58 34 64 95 66 35 68 94 69 93 79
REMARK H PARENT 87 81 89 83 92 85 86 86 54 95 57 97 90 100 55 101 91 103
REMARK Flexibility Score: inf
ROOT
ATOM      1  C   UNL A   1      31.911  28.739  27.518  1.00  0.00    -0.036 C 
ATOM      2  H   UNL A   1      32.520  28.456  28.351  1.00  0.00     0.028 H 
ATOM      3  H   UNL A   1      30.887  28.876  27.794  1.00  0.00     0.028 H 
ENDROOT
BRANCH   1   4
ATOM      4  C   UNL A   1      31.953  27.608  26.479  1.00  0.00     0.018 C 
ATOM      5  H   UNL A   1      31.720  28.003  25.511  1.00  0.00     0.049 H 
ATOM      6  H   UNL A   1      32.933  27.178  26.459  1.00  0.00     0.049 H 
BRANCH   4   7
ATOM      7  N   UNL A   1      30.985  26.595  26.833  1.00  0.00    -0.351 N 
ATOM      8  C   UNL A   1      30.581  25.457  26.187  1.00  0.00     0.268 C 
ATOM      9  O   UNL A   1      29.547  24.916  26.589  1.00  0.00    -0.268 OA
ATOM     10  H   UNL A   1      30.537  26.750  27.695  1.00  0.00     0.163 HD
BRANCH   8  11
ATOM     11  C   UNL A   1      31.357  24.707  25.116  1.00  0.00     0.141 C 
ATOM     12  N   UNL A   1      32.538  24.163  25.126  1.00  0.00    -0.086 NA
BRANCH  11  13
ATOM     13  C   UNL A   1      30.622  24.633  23.792  1.00  0.00    -0.013 C 
ATOM     14  H   UNL A   1      31.072  23.881  23.177  1.00  0.00     0.030 H 
ATOM     15  H   UNL A   1      30.681  25.580  23.297  1.00  0.00     0.030 H 
ATOM     16  H   UNL A   1      29.597  24.384  23.966  1.00  0.00     0.030 H 
ENDBRANCH  11  13
BRANCH  12  17
ATOM     17  O   UNL A   1      33.185  24.133  26.351  1.00  0.00    -0.390 OA
BRANCH  17  18
ATOM     18  C   UNL A   1      33.733  22.816  26.587  1.00  0.00     0.144 C 
ATOM     19  H   UNL A   1      33.016  22.099  26.247  1.00  0.00     0.079 H 
ATOM     20  H   UNL A   1      33.937  22.777  27.637  1.00  0.00     0.079 H 
BRANCH  18  21
ATOM     21  C   UNL A   1      35.067  22.502  25.903  1.00  0.00     0.016 A 
ATOM     22  C   UNL A   1      36.054  23.503  25.776  1.00  0.00    -0.053 A 
ATOM     23  C   UNL A   1      35.412  21.182  25.526  1.00  0.00     0.045 A 
ATOM     24  C   UNL A   1      37.337  23.228  25.307  1.00  0.00    -0.062 A 
ATOM     25  H   UNL A   1      35.816  24.473  26.039  1.00  0.00     0.063 H 
ATOM     26  C   UNL A   1      36.722  20.922  25.071  1.00  0.00    -0.038 A 
ATOM     27  C   UNL A   1      37.677  21.931  24.964  1.00  0.00    -0.060 A 
ATOM     28  H   UNL A   1      38.031  23.986  25.215  1.00  0.00     0.062 H 
ATOM     29  H   UNL A   1      36.981  19.958  24.810  1.00  0.00     0.064 H 
ATOM     30  H   UNL A   1      38.629  21.713  24.632  1.00  0.00     0.062 H 
BRANCH  23  31
ATOM     31  N   UNL A   1      34.474  20.125  25.621  1.00  0.00    -0.353 N 
ATOM     32  H   UNL A   1      34.139  19.931  26.526  1.00  0.00     0.167 HD
BRANCH  31  33
ATOM     33  C   UNL A   1      33.952  19.305  24.584  1.00  0.00     0.076 A 
ATOM     34  C   UNL A   1      34.542  18.047  24.328  1.00  0.00     0.066 A 
ATOM     35  C   UNL A   1      32.804  19.644  23.839  1.00  0.00     0.066 A 
ATOM     36  Cl  UNL A   1      35.962  17.545  25.190  1.00  0.00    -0.082 Cl
ATOM     37  C   UNL A   1      34.003  17.162  23.390  1.00  0.00    -0.041 A 
ATOM     38  C   UNL A   1      32.265  18.757  22.898  1.00  0.00    -0.041 A 
ATOM     39  Cl  UNL A   1      32.043  21.196  23.975  1.00  0.00    -0.082 Cl
ATOM     40  C   UNL A   1      32.858  17.515  22.679  1.00  0.00    -0.059 A 
ATOM     41  H   UNL A   1      34.452  16.248  23.222  1.00  0.00     0.064 H 
ATOM     42  H   UNL A   1      31.424  19.025  22.363  1.00  0.00     0.064 H 
ATOM     43  H   UNL A   1      32.451  16.861  21.994  1.00  0.00     0.062 H 
ENDBRANCH  31  33
ENDBRANCH  23  31
ENDBRANCH  18  21
ENDBRANCH  17  18
ENDBRANCH  12  17
ENDBRANCH   8  11
ENDBRANCH   4   7
ENDBRANCH   1   4
BRANCH   1  44
ATOM     44  C   UNL A   1      32.417  30.082  26.977  1.00  0.00    -0.052 C 
ATOM     45  H   UNL A   1      33.248  29.891  26.330  1.00  0.00     0.027 H 
ATOM     46  H   UNL A   1      32.680  30.675  27.829  1.00  0.00     0.027 H 
BRANCH  44  47
ATOM     47  C   UNL A   1      31.373  30.884  26.193  1.00  0.00    -0.052 C 
ATOM     48  H   UNL A   1      30.408  30.475  26.411  1.00  0.00     0.027 H 
ATOM     49  H   UNL A   1      31.645  30.801  25.162  1.00  0.00     0.027 H 
BRANCH  47  50
ATOM     50  C   UNL A   1      31.335  32.382  26.507  1.00  0.00    -0.036 C 
ATOM     51  H   UNL A   1      30.488  32.572  27.133  1.00  0.00     0.028 H 
ATOM     52  H   UNL A   1      31.281  32.890  25.566  1.00  0.00     0.028 H 
BRANCH  50  53
ATOM     53  C   UNL A   1      32.579  32.911  27.215  1.00  0.00     0.018 C 
ATOM     54  H   UNL A   1      33.414  32.837  26.550  1.00  0.00     0.049 H 
ATOM     55  H   UNL A   1      32.737  32.324  28.096  1.00  0.00     0.049 H 
BRANCH  53  56
ATOM     56  N   UNL A   1      32.417  34.300  27.618  1.00  0.00    -0.352 N 
ATOM     57  C   UNL A   1      33.010  34.980  28.652  1.00  0.00     0.251 C 
ATOM     58  H   UNL A   1      31.793  34.828  27.069  1.00  0.00     0.163 HD
ATOM     59  O   UNL A   1      32.582  36.075  29.001  1.00  0.00    -0.269 OA
BRANCH  57  60
ATOM     60  C   UNL A   1      34.169  34.387  29.353  1.00  0.00     0.039 A 
ATOM     61  C   UNL A   1      33.952  33.648  30.519  1.00  0.00    -0.049 A 
ATOM     62  C   UNL A   1      35.468  34.588  28.877  1.00  0.00    -0.049 A 
ATOM     63  C   UNL A   1      35.035  33.069  31.182  1.00  0.00    -0.053 A 
ATOM     64  H   UNL A   1      32.995  33.532  30.888  1.00  0.00     0.063 H 
ATOM     65  C   UNL A   1      36.539  33.955  29.501  1.00  0.00    -0.053 A 
ATOM     66  H   UNL A   1      35.633  35.205  28.066  1.00  0.00     0.063 H 
ATOM     67  C   UNL A   1      36.334  33.197  30.664  1.00  0.00    -0.014 A 
ATOM     68  H   UNL A   1      34.881  32.543  32.056  1.00  0.00     0.063 H 
ATOM     69  H   UNL A   1      37.489  34.044  29.107  1.00  0.00     0.063 H 
BRANCH  67  70
ATOM     70  C   UNL A   1      37.495  32.561  31.331  1.00  0.00     0.031 A 
ATOM     71  C   UNL A   1      38.207  31.413  30.670  1.00  0.00     0.074 A 
ATOM     72  C   UNL A   1      37.866  32.973  32.557  1.00  0.00     0.049 A 
ATOM     73  N   UNL A   1      39.191  30.677  31.122  1.00  0.00    -0.248 NA
ATOM     74  C   UNL A   1      37.730  31.023  29.334  1.00  0.00    -0.034 C 
ATOM     75  C   UNL A   1      37.226  34.048  33.317  1.00  0.00    -0.036 A 
ATOM     76  N   UNL A   1      38.869  32.532  33.384  1.00  0.00    -0.354 N 
ATOM     77  C   UNL A   1      39.435  29.729  30.138  1.00  0.00     0.074 A 
ATOM     78  C   UNL A   1      38.468  29.952  29.084  1.00  0.00    -0.034 C 
ATOM     79  H   UNL A   1      37.010  31.469  28.744  1.00  0.00     0.065 H 
ATOM     80  C   UNL A   1      37.866  34.200  34.486  1.00  0.00    -0.036 A 
ATOM     81  H   UNL A   1      36.412  34.599  33.004  1.00  0.00     0.065 H 
ATOM     82  C   UNL A   1      38.937  33.211  34.576  1.00  0.00     0.049 A 
ATOM     83  H   UNL A   1      39.481  31.799  33.145  1.00  0.00     0.167 HD
ATOM     84  C   UNL A   1      40.393  28.772  30.106  1.00  0.00     0.037 A 
ATOM     85  H   UNL A   1      38.366  29.354  28.249  1.00  0.00     0.065 H 
ATOM     86  H   UNL A   1      37.639  34.904  35.207  1.00  0.00     0.065 H 
ATOM     87  C   UNL A   1      39.767  33.047  35.623  1.00  0.00     0.037 A 
ATOM     88  C   UNL A   1      41.371  28.573  31.143  1.00  0.00     0.049 A 
ATOM     89  C   UNL A   1      40.828  31.983  35.560  1.00  0.00     0.074 A 
ATOM     90  C   UNL A   1      42.419  27.670  31.180  1.00  0.00    -0.036 A 
ATOM     91  N   UNL A   1      41.421  29.294  32.328  1.00  0.00    -0.354 N 
ATOM     92  N   UNL A   1      41.086  31.127  34.601  1.00  0.00    -0.248 NA
ATOM     93  C   UNL A   1      41.715  31.862  36.725  1.00  0.00    -0.034 C 
ATOM     94  C   UNL A   1      43.077  27.815  32.407  1.00  0.00    -0.036 A 
ATOM     95  H   UNL A   1      42.672  27.006  30.433  1.00  0.00     0.065 H 
ATOM     96  C   UNL A   1      42.470  28.841  33.113  1.00  0.00     0.049 A 
ATOM     97  H   UNL A   1      40.803  30.019  32.574  1.00  0.00     0.167 HD
ATOM     98  C   UNL A   1      42.177  30.387  35.031  1.00  0.00     0.074 A 
ATOM     99  C   UNL A   1      42.543  30.903  36.335  1.00  0.00    -0.034 C 
ATOM    100  H   UNL A   1      41.699  32.387  37.613  1.00  0.00     0.065 H 
ATOM    101  H   UNL A   1      43.878  27.252  32.731  1.00  0.00     0.065 H 
ATOM    102  C   UNL A   1      42.820  29.371  34.405  1.00  0.00     0.037 A 
ATOM    103  H   UNL A   1      43.345  30.566  36.889  1.00  0.00     0.065 H 
BRANCH  84 104
ATOM    104  C   UNL A   1      40.430  27.864  28.910  1.00  0.00     0.064 A 
ATOM    105  C   UNL A   1      41.214  28.159  27.785  1.00  0.00     0.173 A 
ATOM    106  C   UNL A   1      39.699  26.666  28.903  1.00  0.00     0.173 A 
ATOM    107  F   UNL A   1      41.924  29.296  27.736  1.00  0.00    -0.203 F 
ATOM    108  C   UNL A   1      41.243  27.303  26.687  1.00  0.00     0.198 A 
ATOM    109  C   UNL A   1      39.755  25.798  27.816  1.00  0.00     0.198 A 
ATOM    110  F   UNL A   1      38.937  26.332  29.956  1.00  0.00    -0.203 F 
ATOM    111  F   UNL A   1      41.962  27.630  25.603  1.00  0.00    -0.200 F 
ATOM    112  C   UNL A   1      40.520  26.121  26.705  1.00  0.00     0.200 A 
ATOM    113  F   UNL A   1      39.065  24.649  27.842  1.00  0.00    -0.200 F 
ATOM    114  F   UNL A   1      40.554  25.295  25.651  1.00  0.00    -0.200 F 
ENDBRANCH  84 104
BRANCH  87 115
ATOM    115  C   UNL A   1      39.640  33.928  36.813  1.00  0.00     0.064 A 
ATOM    116  C   UNL A   1      38.858  33.544  37.912  1.00  0.00     0.173 A 
ATOM    117  C   UNL A   1      40.293  35.166  36.876  1.00  0.00     0.173 A 
ATOM    118  F   UNL A   1      38.196  32.377  37.886  1.00  0.00    -0.203 F 
ATOM    119  C   UNL A   1      38.718  34.375  39.020  1.00  0.00     0.198 A 
ATOM    120  C   UNL A   1      40.175  35.985  37.998  1.00  0.00     0.198 A 
ATOM    121  F   UNL A   1      41.052  35.578  35.851  1.00  0.00    -0.203 F 
ATOM    122  F   UNL A   1      37.928  34.005  40.037  1.00  0.00    -0.200 F 
ATOM    123  C   UNL A   1      39.383  35.592  39.066  1.00  0.00     0.200 A 
ATOM    124  F   UNL A   1      40.828  37.153  38.041  1.00  0.00    -0.200 F 
ATOM    125  F   UNL A   1      39.251  36.390  40.133  1.00  0.00    -0.200 F 
ENDBRANCH  87 115
BRANCH 102 126
ATOM    126  C   UNL A   1      44.002  28.770  35.107  1.00  0.00     0.064 A 
ATOM    127  C   UNL A   1      45.304  29.251  34.902  1.00  0.00     0.173 A 
ATOM    128  C   UNL A   1      43.825  27.727  36.030  1.00  0.00     0.173 A 
ATOM    129  F   UNL A   1      45.526  30.236  34.018  1.00  0.00    -0.203 F 
ATOM    130  C   UNL A   1      46.387  28.694  35.575  1.00  0.00     0.198 A 
ATOM    131  C   UNL A   1      44.906  27.193  36.723  1.00  0.00     0.198 A 
ATOM    132  F   UNL A   1      42.600  27.235  36.267  1.00  0.00    -0.203 F 
ATOM    133  F   UNL A   1      47.627  29.139  35.328  1.00  0.00    -0.200 F 
ATOM    134  C   UNL A   1      46.187  27.672  36.490  1.00  0.00     0.200 A 
ATOM    135  F   UNL A   1      44.710  26.212  37.616  1.00  0.00    -0.200 F 
ATOM    136  F   UNL A   1      47.230  27.141  37.143  1.00  0.00    -0.200 F 
ENDBRANCH 102 126
ENDBRANCH  67  70
ENDBRANCH  57  60
ENDBRANCH  53  56
ENDBRANCH  50  53
ENDBRANCH  47  50
ENDBRANCH  44  47
ENDBRANCH   1  44
TORSDOF 19
ENDMDL
MODEL 2
REMARK VINA RESULT:     -12.3      0.152      1.810
REMARK SMILES C/C(=N/OCc1ccccc1Nc1c(Cl)cccc1Cl)C(=O)NCCCCCCNC(=O)c1ccc(-c2c3nc(c(-c4c(F)c(F)c(F)c(F)c4F)c4ccc([nH]4)c(-c4c(F)c(F)c(F)c(F)c4F)c4nc(c(-c5c(F)c(F)c(F)c(F)c5F)c5ccc2[nH]5)C=C4)C=C3)cc1
REMARK SMILES IDX 25 1 24 4 23 7 21 8 22 9 2 11 3 12 1 13 4 17 5 18 6 21 7 22
REMARK SMILES IDX 11 23 8 24 10 26 9 27 12 31 13 33 14 34 19 35 15 36 16 37
REMARK SMILES IDX 18 38 20 39 17 40 26 44 27 47 28 50 29 53 30 56 31 57 32 59
REMARK SMILES IDX 33 60 34 61 95 62 35 63 94 65 36 67 37 70 38 71 88 72 39 73
REMARK SMILES IDX 93 74 87 75 89 76 40 77 92 78 86 80 85 82 41 84 73 87 53 88
REMARK SMILES IDX 72 89 54 90 57 91 71 92 90 93 55 94 56 96 70 98 91 99 58 102
REMARK SMILES IDX 42 104 43 105 51 106 44 107 45 108 49 109 52 110 46 111
REMARK SMILES IDX 47 112 50 113 48 114 74 115 75 116 83 117 76 118 77 119
REMARK SMILES IDX 81 120 84 121 78 122 79 123 82 124 80 125 59 126 60 127
REMARK SMILES IDX 68 128 61 129 62 130 66 131 69 132 63 133 64 134 67 135
REMARK SMILES IDX 65 136
REMARK H PARENT 25 2 25 3 24 5 24 6 23 10 1 14 1 15 1 16 5 19 5 20 7 25 8 28
REMARK H PARENT 10 29 9 30 12 32 16 41 18 42 17 43 26 45 26 46 27 48 27 49
REMARK H PARENT 28 51 28 52 29 54 29 55 30 58 34 64 95 66 35 68 94 69 93 79
REMARK H PARENT 87 81 89 83 92 85 86 86 54 95 57 97 90 100 55 101 91 103
REMARK Flexibility Score: inf
ROOT
ATOM      1  C   UNL A   1      32.385  28.874  27.384  1.00  0.00    -0.036 C 
ATOM      2  H   UNL A   1      33.099  28.828  28.181  1.00  0.00     0.028 H 
ATOM      3  H   UNL A   1      31.380  28.933  27.746  1.00  0.00     0.028 H 
ENDROOT
BRANCH   1   4
ATOM      4  C   UNL A   1      32.495  27.584  26.558  1.00  0.00     0.018 C 
ATOM      5  H   UNL A   1      32.516  27.828  25.516  1.00  0.00     0.049 H 
ATOM      6  H   UNL A   1      33.395  27.067  26.820  1.00  0.00     0.049 H 
BRANCH   4   7
ATOM      7  N   UNL A   1      31.354  26.740  26.832  1.00  0.00    -0.351 N 
ATOM      8  C   UNL A   1      30.819  25.682  26.147  1.00  0.00     0.268 C 
ATOM      9  O   UNL A   1      29.686  25.315  26.470  1.00  0.00    -0.268 OA
ATOM     10  H   UNL A   1      30.877  26.966  27.663  1.00  0.00     0.163 HD
BRANCH   8  11
ATOM     11  C   UNL A   1      31.537  24.817  25.125  1.00  0.00     0.141 C 
ATOM     12  N   UNL A   1      32.662  24.167  25.180  1.00  0.00    -0.086 NA
BRANCH  11  13
ATOM     13  C   UNL A   1      30.819  24.751  23.791  1.00  0.00    -0.013 C 
ATOM     14  H   UNL A   1      30.332  23.803  23.695  1.00  0.00     0.030 H 
ATOM     15  H   UNL A   1      31.528  24.870  22.998  1.00  0.00     0.030 H 
ATOM     16  H   UNL A   1      30.091  25.532  23.738  1.00  0.00     0.030 H 
ENDBRANCH  11  13
BRANCH  12  17
ATOM     17  O   UNL A   1      33.286  24.132  26.418  1.00  0.00    -0.390 OA
BRANCH  17  18
ATOM     18  C   UNL A   1      33.813  22.809  26.668  1.00  0.00     0.144 C 
ATOM     19  H   UNL A   1      33.058  22.101  26.396  1.00  0.00     0.079 H 
ATOM     20  H   UNL A   1      34.077  22.800  27.704  1.00  0.00     0.079 H 
BRANCH  18  21
ATOM     21  C   UNL A   1      35.094  22.435  25.918  1.00  0.00     0.016 A 
ATOM     22  C   UNL A   1      36.117  23.390  25.736  1.00  0.00    -0.053 A 
ATOM     23  C   UNL A   1      35.361  21.099  25.529  1.00  0.00     0.045 A 
ATOM     24  C   UNL A   1      37.361  23.057  25.203  1.00  0.00    -0.062 A 
ATOM     25  H   UNL A   1      35.936  24.370  26.007  1.00  0.00     0.063 H 
ATOM     26  C   UNL A   1      36.633  20.781  25.009  1.00  0.00    -0.038 A 
ATOM     27  C   UNL A   1      37.625  21.746  24.849  1.00  0.00    -0.060 A 
ATOM     28  H   UNL A   1      38.082  23.784  25.073  1.00  0.00     0.062 H 
ATOM     29  H   UNL A   1      36.835  19.805  24.739  1.00  0.00     0.064 H 
ATOM     30  H   UNL A   1      38.548  21.485  24.470  1.00  0.00     0.062 H 
BRANCH  23  31
ATOM     31  N   UNL A   1      34.383  20.085  25.676  1.00  0.00    -0.353 N 
ATOM     32  H   UNL A   1      34.035  19.957  26.588  1.00  0.00     0.167 HD
BRANCH  31  33
ATOM     33  C   UNL A   1      33.838  19.227  24.683  1.00  0.00     0.076 A 
ATOM     34  C   UNL A   1      32.705  19.645  23.949  1.00  0.00     0.066 A 
ATOM     35  C   UNL A   1      34.426  17.997  24.322  1.00  0.00     0.066 A 
ATOM     36  Cl  UNL A   1      31.909  21.140  24.325  1.00  0.00    -0.082 Cl
ATOM     37  C   UNL A   1      32.194  18.882  22.894  1.00  0.00    -0.041 A 
ATOM     38  C   UNL A   1      33.912  17.234  23.265  1.00  0.00    -0.041 A 
ATOM     39  Cl  UNL A   1      35.753  17.317  25.205  1.00  0.00    -0.082 Cl
ATOM     40  C   UNL A   1      32.804  17.679  22.547  1.00  0.00    -0.059 A 
ATOM     41  H   UNL A   1      31.366  19.210  22.373  1.00  0.00     0.064 H 
ATOM     42  H   UNL A   1      34.358  16.336  23.017  1.00  0.00     0.064 H 
ATOM     43  H   UNL A   1      32.437  17.119  21.763  1.00  0.00     0.062 H 
ENDBRANCH  31  33
ENDBRANCH  23  31
ENDBRANCH  18  21
ENDBRANCH  17  18
ENDBRANCH  12  17
ENDBRANCH   8  11
ENDBRANCH   4   7
ENDBRANCH   1   4
BRANCH   1  44
ATOM     44  C   UNL A   1      32.648  30.145  26.568  1.00  0.00    -0.052 C 
ATOM     45  H   UNL A   1      33.211  29.875  25.699  1.00  0.00     0.027 H 
ATOM     46  H   UNL A   1      33.175  30.819  27.212  1.00  0.00     0.027 H 
BRANCH  44  47
ATOM     47  C   UNL A   1      31.382  30.878  26.111  1.00  0.00    -0.052 C 
ATOM     48  H   UNL A   1      30.537  30.379  26.539  1.00  0.00     0.027 H 
ATOM     49  H   UNL A   1      31.392  30.854  25.042  1.00  0.00     0.027 H 
BRANCH  47  50
ATOM     50  C   UNL A   1      31.310  32.356  26.505  1.00  0.00    -0.036 C 
ATOM     51  H   UNL A   1      30.457  32.493  27.136  1.00  0.00     0.028 H 
ATOM     52  H   UNL A   1      31.248  32.912  25.592  1.00  0.00     0.028 H 
BRANCH  50  53
ATOM     53  C   UNL A   1      32.539  32.873  27.246  1.00  0.00     0.018 C 
ATOM     54  H   UNL A   1      33.394  32.778  26.609  1.00  0.00     0.049 H 
ATOM     55  H   UNL A   1      32.661  32.293  28.138  1.00  0.00     0.049 H 
BRANCH  53  56
ATOM     56  N   UNL A   1      32.388  34.269  27.629  1.00  0.00    -0.352 N 
ATOM     57  C   UNL A   1      32.992  34.962  28.647  1.00  0.00     0.251 C 
ATOM     58  H   UNL A   1      31.762  34.792  27.077  1.00  0.00     0.163 HD
ATOM     59  O   UNL A   1      32.572  36.064  28.983  1.00  0.00    -0.269 OA
BRANCH  57  60
ATOM     60  C   UNL A   1      34.154  34.374  29.348  1.00  0.00     0.039 A 
ATOM     61  C   UNL A   1      33.946  33.675  30.540  1.00  0.00    -0.049 A 
ATOM     62  C   UNL A   1      35.448  34.542  28.846  1.00  0.00    -0.049 A 
ATOM     63  C   UNL A   1      35.031  33.101  31.203  1.00  0.00    -0.053 A 
ATOM     64  H   UNL A   1      32.993  33.584  30.928  1.00  0.00     0.063 H 
ATOM     65  C   UNL A   1      36.520  33.913  29.472  1.00  0.00    -0.053 A 
ATOM     66  H   UNL A   1      35.608  35.131  28.013  1.00  0.00     0.063 H 
ATOM     67  C   UNL A   1      36.323  33.194  30.660  1.00  0.00    -0.014 A 
ATOM     68  H   UNL A   1      34.884  32.604  32.096  1.00  0.00     0.063 H 
ATOM     69  H   UNL A   1      37.464  33.976  29.060  1.00  0.00     0.063 H 
BRANCH  67  70
ATOM     70  C   UNL A   1      37.486  32.562  31.329  1.00  0.00     0.031 A 
ATOM     71  C   UNL A   1      38.197  31.412  30.672  1.00  0.00     0.074 A 
ATOM     72  C   UNL A   1      37.859  32.981  32.552  1.00  0.00     0.049 A 
ATOM     73  N   UNL A   1      39.183  30.678  31.126  1.00  0.00    -0.248 NA
ATOM     74  C   UNL A   1      37.719  31.015  29.339  1.00  0.00    -0.034 C 
ATOM     75  C   UNL A   1      37.220  34.059  33.308  1.00  0.00    -0.036 A 
ATOM     76  N   UNL A   1      38.864  32.545  33.379  1.00  0.00    -0.354 N 
ATOM     77  C   UNL A   1      39.426  29.726  30.146  1.00  0.00     0.074 A 
ATOM     78  C   UNL A   1      38.456  29.942  29.093  1.00  0.00    -0.034 C 
ATOM     79  H   UNL A   1      36.997  31.457  28.748  1.00  0.00     0.065 H 
ATOM     80  C   UNL A   1      37.863  34.218  34.475  1.00  0.00    -0.036 A 
ATOM     81  H   UNL A   1      36.405  34.608  32.993  1.00  0.00     0.065 H 
ATOM     82  C   UNL A   1      38.934  33.230  34.567  1.00  0.00     0.049 A 
ATOM     83  H   UNL A   1      39.476  31.811  33.143  1.00  0.00     0.167 HD
ATOM     84  C   UNL A   1      40.385  28.769  30.117  1.00  0.00     0.037 A 
ATOM     85  H   UNL A   1      38.353  29.340  28.261  1.00  0.00     0.065 H 
ATOM     86  H   UNL A   1      37.636  34.925  35.193  1.00  0.00     0.065 H 
ATOM     87  C   UNL A   1      39.766  33.072  35.614  1.00  0.00     0.037 A 
ATOM     88  C   UNL A   1      41.365  28.576  31.153  1.00  0.00     0.049 A 
ATOM     89  C   UNL A   1      40.828  32.008  35.554  1.00  0.00     0.074 A 
ATOM     90  C   UNL A   1      42.414  27.675  31.193  1.00  0.00    -0.036 A 
ATOM     91  N   UNL A   1      41.417  29.303  32.334  1.00  0.00    -0.354 N 
ATOM     92  N   UNL A   1      41.084  31.147  34.599  1.00  0.00    -0.248 NA
ATOM     93  C   UNL A   1      41.718  31.894  36.718  1.00  0.00    -0.034 C 
ATOM     94  C   UNL A   1      43.074  27.826  32.418  1.00  0.00    -0.036 A 
ATOM     95  H   UNL A   1      42.666  27.007  30.448  1.00  0.00     0.065 H 
ATOM     96  C   UNL A   1      42.467  28.855  33.119  1.00  0.00     0.049 A 
ATOM     97  H   UNL A   1      40.799  30.029  32.578  1.00  0.00     0.167 HD
ATOM     98  C   UNL A   1      42.177  30.410  35.031  1.00  0.00     0.074 A 
ATOM     99  C   UNL A   1      42.545  30.933  36.331  1.00  0.00    -0.034 C 
ATOM    100  H   UNL A   1      41.703  32.423  37.604  1.00  0.00     0.065 H 
ATOM    101  H   UNL A   1      43.876  27.265  32.743  1.00  0.00     0.065 H 
ATOM    102  C   UNL A   1      42.819  29.392  34.408  1.00  0.00     0.037 A 
ATOM    103  H   UNL A   1      43.349  30.599  36.885  1.00  0.00     0.065 H 
BRANCH  84 104
ATOM    104  C   UNL A   1      40.420  27.856  28.926  1.00  0.00     0.064 A 
ATOM    105  C   UNL A   1      41.208  28.141  27.801  1.00  0.00     0.173 A 
ATOM    106  C   UNL A   1      39.684  26.661  28.923  1.00  0.00     0.173 A 
ATOM    107  F   UNL A   1      41.923  29.275  27.748  1.00  0.00    -0.203 F 
ATOM    108  C   UNL A   1      41.235  27.280  26.707  1.00  0.00     0.198 A 
ATOM    109  C   UNL A   1      39.737  25.788  27.840  1.00  0.00     0.198 A 
ATOM    110  F   UNL A   1      38.917  26.336  29.976  1.00  0.00    -0.203 F 
ATOM    111  F   UNL A   1      41.958  27.598  25.623  1.00  0.00    -0.200 F 
ATOM    112  C   UNL A   1      40.507  26.101  26.730  1.00  0.00     0.200 A 
ATOM    113  F   UNL A   1      39.042  24.642  27.870  1.00  0.00    -0.200 F 
ATOM    114  F   UNL A   1      40.539  25.270  25.679  1.00  0.00    -0.200 F 
ENDBRANCH  84 104
BRANCH  87 115
ATOM    115  C   UNL A   1      39.641  33.958  36.800  1.00  0.00     0.064 A 
ATOM    116  C   UNL A   1      40.297  35.196  36.845  1.00  0.00     0.173 A 
ATOM    117  C   UNL A   1      38.867  33.587  37.908  1.00  0.00     0.173 A 
ATOM    118  F   UNL A   1      41.066  35.583  35.817  1.00  0.00    -0.203 F 
ATOM    119  C   UNL A   1      40.199  36.021  37.963  1.00  0.00     0.198 A 
ATOM    120  C   UNL A   1      38.747  34.425  39.015  1.00  0.00     0.198 A 
ATOM    121  F   UNL A   1      38.220  32.412  37.913  1.00  0.00    -0.203 F 
ATOM    122  F   UNL A   1      40.873  37.178  38.000  1.00  0.00    -0.200 F 
ATOM    123  C   UNL A   1      39.419  35.638  39.045  1.00  0.00     0.200 A 
ATOM    124  F   UNL A   1      37.983  34.056  40.051  1.00  0.00    -0.200 F 
ATOM    125  F   UNL A   1      39.323  36.433  40.119  1.00  0.00    -0.200 F 
ENDBRANCH  87 115
BRANCH 102 126
ATOM    126  C   UNL A   1      44.003  28.795  35.111  1.00  0.00     0.064 A 
ATOM    127  C   UNL A   1      43.867  27.717  35.998  1.00  0.00     0.173 A 
ATOM    128  C   UNL A   1      45.296  29.281  34.861  1.00  0.00     0.173 A 
ATOM    129  F   UNL A   1      42.650  27.228  36.282  1.00  0.00    -0.203 F 
ATOM    130  C   UNL A   1      44.978  27.163  36.628  1.00  0.00     0.198 A 
ATOM    131  C   UNL A   1      46.408  28.705  35.469  1.00  0.00     0.198 A 
ATOM    132  F   UNL A   1      45.482  30.306  34.016  1.00  0.00    -0.203 F 
ATOM    133  F   UNL A   1      44.819  26.164  37.506  1.00  0.00    -0.200 F 
ATOM    134  C   UNL A   1      46.247  27.652  36.357  1.00  0.00     0.200 A 
ATOM    135  F   UNL A   1      47.635  29.172  35.197  1.00  0.00    -0.200 F 
ATOM    136  F   UNL A   1      47.317  27.113  36.958  1.00  0.00    -0.200 F 
ENDBRANCH 102 126
ENDBRANCH  67  70
ENDBRANCH  57  60
ENDBRANCH  53  56
ENDBRANCH  50  53
ENDBRANCH  47  50
ENDBRANCH  44  47
ENDBRANCH   1  44
TORSDOF 19
ENDMDL
MODEL 3
REMARK VINA RESULT:     -11.9      0.644      7.098
REMARK SMILES C/C(=N/OCc1ccccc1Nc1c(Cl)cccc1Cl)C(=O)NCCCCCCNC(=O)c1ccc(-c2c3nc(c(-c4c(F)c(F)c(F)c(F)c4F)c4ccc([nH]4)c(-c4c(F)c(F)c(F)c(F)c4F)c4nc(c(-c5c(F)c(F)c(F)c(F)c5F)c5ccc2[nH]5)C=C4)C=C3)cc1
REMARK SMILES IDX 25 1 24 4 23 7 21 8 22 9 2 11 3 12 1 13 4 17 5 18 6 21 7 22
REMARK SMILES IDX 11 23 8 24 10 26 9 27 12 31 13 33 14 34 19 35 15 36 16 37
REMARK SMILES IDX 18 38 20 39 17 40 26 44 27 47 28 50 29 53 30 56 31 57 32 59
REMARK SMILES IDX 33 60 34 61 95 62 35 63 94 65 36 67 37 70 38 71 88 72 39 73
REMARK SMILES IDX 93 74 87 75 89 76 40 77 92 78 86 80 85 82 41 84 73 87 53 88
REMARK SMILES IDX 72 89 54 90 57 91 71 92 90 93 55 94 56 96 70 98 91 99 58 102
REMARK SMILES IDX 42 104 43 105 51 106 44 107 45 108 49 109 52 110 46 111
REMARK SMILES IDX 47 112 50 113 48 114 74 115 75 116 83 117 76 118 77 119
REMARK SMILES IDX 81 120 84 121 78 122 79 123 82 124 80 125 59 126 60 127
REMARK SMILES IDX 68 128 61 129 62 130 66 131 69 132 63 133 64 134 67 135
REMARK SMILES IDX 65 136
REMARK H PARENT 25 2 25 3 24 5 24 6 23 10 1 14 1 15 1 16 5 19 5 20 7 25 8 28
REMARK H PARENT 10 29 9 30 12 32 16 41 18 42 17 43 26 45 26 46 27 48 27 49
REMARK H PARENT 28 51 28 52 29 54 29 55 30 58 34 64 95 66 35 68 94 69 93 79
REMARK H PARENT 87 81 89 83 92 85 86 86 54 95 57 97 90 100 55 101 91 103
REMARK Flexibility Score: inf
ROOT
ATOM      1  C   UNL A   1      32.119  28.637  27.506  1.00  0.00    -0.036 C 
ATOM      2  H   UNL A   1      32.901  28.255  28.129  1.00  0.00     0.028 H 
ATOM      3  H   UNL A   1      31.188  28.712  28.026  1.00  0.00     0.028 H 
ENDROOT
BRANCH   1   4
ATOM      4  C   UNL A   1      31.910  27.663  26.337  1.00  0.00     0.018 C 
ATOM      5  H   UNL A   1      31.434  28.175  25.526  1.00  0.00     0.049 H 
ATOM      6  H   UNL A   1      32.858  27.287  26.011  1.00  0.00     0.049 H 
BRANCH   4   7
ATOM      7  N   UNL A   1      31.076  26.565  26.770  1.00  0.00    -0.351 N 
ATOM      8  C   UNL A   1      30.634  25.445  26.119  1.00  0.00     0.268 C 
ATOM      9  O   UNL A   1      29.716  24.810  26.644  1.00  0.00    -0.268 OA
ATOM     10  H   UNL A   1      30.772  26.636  27.704  1.00  0.00     0.163 HD
BRANCH   8  11
ATOM     11  C   UNL A   1      31.260  24.819  24.883  1.00  0.00     0.141 C 
ATOM     12  N   UNL A   1      32.463  24.385  24.649  1.00  0.00    -0.086 NA
BRANCH  11  13
ATOM     13  C   UNL A   1      30.304  24.738  23.708  1.00  0.00    -0.013 C 
ATOM     14  H   UNL A   1      29.559  23.996  23.906  1.00  0.00     0.030 H 
ATOM     15  H   UNL A   1      30.847  24.471  22.825  1.00  0.00     0.030 H 
ATOM     16  H   UNL A   1      29.834  25.687  23.565  1.00  0.00     0.030 H 
ENDBRANCH  11  13
BRANCH  12  17
ATOM     17  O   UNL A   1      33.324  24.358  25.735  1.00  0.00    -0.390 OA
BRANCH  17  18
ATOM     18  C   UNL A   1      33.701  22.995  26.032  1.00  0.00     0.144 C 
ATOM     19  H   UNL A   1      32.976  22.350  25.581  1.00  0.00     0.079 H 
ATOM     20  H   UNL A   1      33.741  22.937  27.100  1.00  0.00     0.079 H 
BRANCH  18  21
ATOM     21  C   UNL A   1      35.085  22.551  25.550  1.00  0.00     0.016 A 
ATOM     22  C   UNL A   1      36.126  23.493  25.414  1.00  0.00    -0.053 A 
ATOM     23  C   UNL A   1      35.406  21.182  25.381  1.00  0.00     0.045 A 
ATOM     24  C   UNL A   1      37.439  23.117  25.132  1.00  0.00    -0.062 A 
ATOM     25  H   UNL A   1      35.908  24.496  25.526  1.00  0.00     0.063 H 
ATOM     26  C   UNL A   1      36.744  20.822  25.114  1.00  0.00    -0.038 A 
ATOM     27  C   UNL A   1      37.752  21.777  24.994  1.00  0.00    -0.060 A 
ATOM     28  H   UNL A   1      38.173  23.834  25.028  1.00  0.00     0.062 H 
ATOM     29  H   UNL A   1      36.983  19.824  25.005  1.00  0.00     0.064 H 
ATOM     30  H   UNL A   1      38.723  21.486  24.802  1.00  0.00     0.062 H 
BRANCH  23  31
ATOM     31  N   UNL A   1      34.413  20.178  25.497  1.00  0.00    -0.353 N 
ATOM     32  H   UNL A   1      34.055  20.034  26.402  1.00  0.00     0.167 HD
BRANCH  31  33
ATOM     33  C   UNL A   1      33.867  19.348  24.481  1.00  0.00     0.076 A 
ATOM     34  C   UNL A   1      34.427  18.071  24.250  1.00  0.00     0.066 A 
ATOM     35  C   UNL A   1      32.722  19.697  23.735  1.00  0.00     0.066 A 
ATOM     36  Cl  UNL A   1      35.839  17.556  25.114  1.00  0.00    -0.082 Cl
ATOM     37  C   UNL A   1      33.861  17.179  23.334  1.00  0.00    -0.041 A 
ATOM     38  C   UNL A   1      32.157  18.802  22.817  1.00  0.00    -0.041 A 
ATOM     39  Cl  UNL A   1      31.997  21.268  23.842  1.00  0.00    -0.082 Cl
ATOM     40  C   UNL A   1      32.720  17.543  22.622  1.00  0.00    -0.059 A 
ATOM     41  H   UNL A   1      34.288  16.252  23.184  1.00  0.00     0.064 H 
ATOM     42  H   UNL A   1      31.318  19.078  22.282  1.00  0.00     0.064 H 
ATOM     43  H   UNL A   1      32.294  16.883  21.954  1.00  0.00     0.062 H 
ENDBRANCH  31  33
ENDBRANCH  23  31
ENDBRANCH  18  21
ENDBRANCH  17  18
ENDBRANCH  12  17
ENDBRANCH   8  11
ENDBRANCH   4   7
ENDBRANCH   1   4
BRANCH   1  44
ATOM     44  C   UNL A   1      32.503  30.054  27.058  1.00  0.00    -0.052 C 
ATOM     45  H   UNL A   1      33.345  29.981  26.402  1.00  0.00     0.027 H 
ATOM     46  H   UNL A   1      32.714  30.609  27.948  1.00  0.00     0.027 H 
BRANCH  44  47
ATOM     47  C   UNL A   1      31.388  30.809  26.326  1.00  0.00    -0.052 C 
ATOM     48  H   UNL A   1      30.448  30.444  26.684  1.00  0.00     0.027 H 
ATOM     49  H   UNL A   1      31.542  30.631  25.282  1.00  0.00     0.027 H 
BRANCH  47  50
ATOM     50  C   UNL A   1      31.407  32.330  26.507  1.00  0.00    -0.036 C 
ATOM     51  H   UNL A   1      30.629  32.595  27.192  1.00  0.00     0.028 H 
ATOM     52  H   UNL A   1      31.270  32.755  25.534  1.00  0.00     0.028 H 
BRANCH  50  53
ATOM     53  C   UNL A   1      32.723  32.885  27.043  1.00  0.00     0.018 C 
ATOM     54  H   UNL A   1      33.426  32.950  26.238  1.00  0.00     0.049 H 
ATOM     55  H   UNL A   1      33.078  32.226  27.808  1.00  0.00     0.049 H 
BRANCH  53  56
ATOM     56  N   UNL A   1      32.550  34.207  27.627  1.00  0.00    -0.352 N 
ATOM     57  C   UNL A   1      33.120  34.741  28.755  1.00  0.00     0.251 C 
ATOM     58  H   UNL A   1      31.936  34.804  27.141  1.00  0.00     0.163 HD
ATOM     59  O   UNL A   1      32.682  35.779  29.240  1.00  0.00    -0.269 OA
BRANCH  57  60
ATOM     60  C   UNL A   1      34.265  34.059  29.393  1.00  0.00     0.039 A 
ATOM     61  C   UNL A   1      34.021  33.086  30.366  1.00  0.00    -0.049 A 
ATOM     62  C   UNL A   1      35.578  34.403  29.054  1.00  0.00    -0.049 A 
ATOM     63  C   UNL A   1      35.093  32.422  30.964  1.00  0.00    -0.053 A 
ATOM     64  H   UNL A   1      33.052  32.860  30.640  1.00  0.00     0.063 H 
ATOM     65  C   UNL A   1      36.642  33.695  29.603  1.00  0.00    -0.053 A 
ATOM     66  H   UNL A   1      35.756  35.181  28.400  1.00  0.00     0.063 H 
ATOM     67  C   UNL A   1      36.411  32.704  30.569  1.00  0.00    -0.014 A 
ATOM     68  H   UNL A   1      34.917  31.720  31.700  1.00  0.00     0.063 H 
ATOM     69  H   UNL A   1      37.607  33.899  29.298  1.00  0.00     0.063 H 
BRANCH  67  70
ATOM     70  C   UNL A   1      37.563  31.986  31.166  1.00  0.00     0.031 A 
ATOM     71  C   UNL A   1      38.040  32.345  32.546  1.00  0.00     0.074 A 
ATOM     72  C   UNL A   1      38.218  31.060  30.441  1.00  0.00     0.049 A 
ATOM     73  N   UNL A   1      39.072  31.889  33.210  1.00  0.00    -0.248 NA
ATOM     74  C   UNL A   1      37.271  33.373  33.263  1.00  0.00    -0.034 C 
ATOM     75  C   UNL A   1      37.875  30.658  29.076  1.00  0.00    -0.036 A 
ATOM     76  N   UNL A   1      39.313  30.293  30.749  1.00  0.00    -0.354 N 
ATOM     77  C   UNL A   1      39.086  32.587  34.410  1.00  0.00     0.074 A 
ATOM     78  C   UNL A   1      37.989  33.530  34.365  1.00  0.00    -0.034 C 
ATOM     79  H   UNL A   1      36.398  33.848  32.982  1.00  0.00     0.065 H 
ATOM     80  C   UNL A   1      38.725  29.701  28.674  1.00  0.00    -0.036 A 
ATOM     81  H   UNL A   1      37.103  31.048  28.513  1.00  0.00     0.065 H 
ATOM     82  C   UNL A   1      39.696  29.449  29.735  1.00  0.00     0.049 A 
ATOM     83  H   UNL A   1      39.780  30.344  31.614  1.00  0.00     0.167 HD
ATOM     84  C   UNL A   1      39.926  32.441  35.463  1.00  0.00     0.037 A 
ATOM     85  H   UNL A   1      37.792  34.233  35.095  1.00  0.00     0.065 H 
ATOM     86  H   UNL A   1      38.698  29.220  27.761  1.00  0.00     0.065 H 
ATOM     87  C   UNL A   1      40.719  28.576  29.671  1.00  0.00     0.037 A 
ATOM     88  C   UNL A   1      40.997  31.482  35.514  1.00  0.00     0.049 A 
ATOM     89  C   UNL A   1      41.633  28.426  30.857  1.00  0.00     0.074 A 
ATOM     90  C   UNL A   1      41.868  31.214  36.556  1.00  0.00    -0.036 A 
ATOM     91  N   UNL A   1      41.343  30.630  34.476  1.00  0.00    -0.354 N 
ATOM     92  N   UNL A   1      41.604  29.053  32.008  1.00  0.00    -0.248 NA
ATOM     93  C   UNL A   1      42.720  27.446  30.735  1.00  0.00    -0.034 C 
ATOM     94  C   UNL A   1      42.768  30.230  36.132  1.00  0.00    -0.036 A 
ATOM     95  H   UNL A   1      41.855  31.662  37.486  1.00  0.00     0.065 H 
ATOM     96  C   UNL A   1      42.427  29.849  34.844  1.00  0.00     0.049 A 
ATOM     97  H   UNL A   1      40.885  30.585  33.605  1.00  0.00     0.167 HD
ATOM     98  C   UNL A   1      42.647  28.527  32.756  1.00  0.00     0.074 A 
ATOM     99  C   UNL A   1      43.283  27.519  31.933  1.00  0.00    -0.034 C 
ATOM    100  H   UNL A   1      42.978  26.856  29.929  1.00  0.00     0.065 H 
ATOM    101  H   UNL A   1      43.553  29.852  36.685  1.00  0.00     0.065 H 
ATOM    102  C   UNL A   1      43.043  28.848  34.012  1.00  0.00     0.037 A 
ATOM    103  H   UNL A   1      44.074  26.932  32.241  1.00  0.00     0.065 H 
BRANCH  84 104
ATOM    104  C   UNL A   1      39.720  33.341  36.647  1.00  0.00     0.064 A 
ATOM    105  C   UNL A   1      40.375  34.577  36.757  1.00  0.00     0.173 A 
ATOM    106  C   UNL A   1      38.827  32.980  37.668  1.00  0.00     0.173 A 
ATOM    107  F   UNL A   1      41.246  34.965  35.814  1.00  0.00    -0.203 F 
ATOM    108  C   UNL A   1      40.167  35.403  37.858  1.00  0.00     0.198 A 
ATOM    109  C   UNL A   1      38.599  33.823  38.752  1.00  0.00     0.198 A 
ATOM    110  F   UNL A   1      38.169  31.812  37.610  1.00  0.00    -0.203 F 
ATOM    111  F   UNL A   1      40.842  36.557  37.965  1.00  0.00    -0.200 F 
ATOM    112  C   UNL A   1      39.275  35.030  38.851  1.00  0.00     0.200 A 
ATOM    113  F   UNL A   1      37.725  33.467  39.705  1.00  0.00    -0.200 F 
ATOM    114  F   UNL A   1      39.070  35.830  39.906  1.00  0.00    -0.200 F 
ENDBRANCH  84 104
BRANCH  87 115
ATOM    115  C   UNL A   1      40.920  27.761  28.445  1.00  0.00     0.064 A 
ATOM    116  C   UNL A   1      41.779  28.195  27.426  1.00  0.00     0.173 A 
ATOM    117  C   UNL A   1      40.261  26.537  28.268  1.00  0.00     0.173 A 
ATOM    118  F   UNL A   1      42.414  29.371  27.542  1.00  0.00    -0.203 F 
ATOM    119  C   UNL A   1      41.954  27.445  26.265  1.00  0.00     0.198 A 
ATOM    120  C   UNL A   1      40.458  25.773  27.119  1.00  0.00     0.198 A 
ATOM    121  F   UNL A   1      39.429  26.078  29.214  1.00  0.00    -0.203 F 
ATOM    122  F   UNL A   1      42.745  27.905  25.286  1.00  0.00    -0.200 F 
ATOM    123  C   UNL A   1      41.300  26.231  26.116  1.00  0.00     0.200 A 
ATOM    124  F   UNL A   1      39.833  24.597  26.986  1.00  0.00    -0.200 F 
ATOM    125  F   UNL A   1      41.470  25.508  25.001  1.00  0.00    -0.200 F 
ENDBRANCH  87 115
BRANCH 102 126
ATOM    126  C   UNL A   1      44.200  28.083  34.584  1.00  0.00     0.064 A 
ATOM    127  C   UNL A   1      45.518  28.553  34.478  1.00  0.00     0.173 A 
ATOM    128  C   UNL A   1      43.983  26.886  35.283  1.00  0.00     0.173 A 
ATOM    129  F   UNL A   1      45.778  29.684  33.806  1.00  0.00    -0.203 F 
ATOM    130  C   UNL A   1      46.578  27.840  35.031  1.00  0.00     0.198 A 
ATOM    131  C   UNL A   1      45.042  26.191  35.860  1.00  0.00     0.198 A 
ATOM    132  F   UNL A   1      42.742  26.397  35.418  1.00  0.00    -0.203 F 
ATOM    133  F   UNL A   1      47.833  28.284  34.878  1.00  0.00    -0.200 F 
ATOM    134  C   UNL A   1      46.339  26.665  35.727  1.00  0.00     0.200 A 
ATOM    135  F   UNL A   1      44.808  25.061  36.543  1.00  0.00    -0.200 F 
ATOM    136  F   UNL A   1      47.360  25.983  36.265  1.00  0.00    -0.200 F 
ENDBRANCH 102 126
ENDBRANCH  67  70
ENDBRANCH  57  60
ENDBRANCH  53  56
ENDBRANCH  50  53
ENDBRANCH  47  50
ENDBRANCH  44  47
ENDBRANCH   1  44
TORSDOF 19
ENDMDL
MODEL 4
REMARK VINA RESULT:     -11.8      1.899      3.267
REMARK SMILES C/C(=N/OCc1ccccc1Nc1c(Cl)cccc1Cl)C(=O)NCCCCCCNC(=O)c1ccc(-c2c3nc(c(-c4c(F)c(F)c(F)c(F)c4F)c4ccc([nH]4)c(-c4c(F)c(F)c(F)c(F)c4F)c4nc(c(-c5c(F)c(F)c(F)c(F)c5F)c5ccc2[nH]5)C=C4)C=C3)cc1
REMARK SMILES IDX 25 1 24 4 23 7 21 8 22 9 2 11 3 12 1 13 4 17 5 18 6 21 7 22
REMARK SMILES IDX 11 23 8 24 10 26 9 27 12 31 13 33 14 34 19 35 15 36 16 37
REMARK SMILES IDX 18 38 20 39 17 40 26 44 27 47 28 50 29 53 30 56 31 57 32 59
REMARK SMILES IDX 33 60 34 61 95 62 35 63 94 65 36 67 37 70 38 71 88 72 39 73
REMARK SMILES IDX 93 74 87 75 89 76 40 77 92 78 86 80 85 82 41 84 73 87 53 88
REMARK SMILES IDX 72 89 54 90 57 91 71 92 90 93 55 94 56 96 70 98 91 99 58 102
REMARK SMILES IDX 42 104 43 105 51 106 44 107 45 108 49 109 52 110 46 111
REMARK SMILES IDX 47 112 50 113 48 114 74 115 75 116 83 117 76 118 77 119
REMARK SMILES IDX 81 120 84 121 78 122 79 123 82 124 80 125 59 126 60 127
REMARK SMILES IDX 68 128 61 129 62 130 66 131 69 132 63 133 64 134 67 135
REMARK SMILES IDX 65 136
REMARK H PARENT 25 2 25 3 24 5 24 6 23 10 1 14 1 15 1 16 5 19 5 20 7 25 8 28
REMARK H PARENT 10 29 9 30 12 32 16 41 18 42 17 43 26 45 26 46 27 48 27 49
REMARK H PARENT 28 51 28 52 29 54 29 55 30 58 34 64 95 66 35 68 94 69 93 79
REMARK H PARENT 87 81 89 83 92 85 86 86 54 95 57 97 90 100 55 101 91 103
REMARK Flexibility Score: inf
ROOT
ATOM      1  C   UNL A   1      33.578  25.711  23.476  1.00  0.00    -0.036 C 
ATOM      2  H   UNL A   1      34.209  25.143  22.824  1.00  0.00     0.028 H 
ATOM      3  H   UNL A   1      34.137  26.365  24.111  1.00  0.00     0.028 H 
ENDROOT
BRANCH   1   4
ATOM      4  C   UNL A   1      32.815  24.737  24.386  1.00  0.00     0.018 C 
ATOM      5  H   UNL A   1      32.246  24.058  23.784  1.00  0.00     0.049 H 
ATOM      6  H   UNL A   1      33.512  24.185  24.981  1.00  0.00     0.049 H 
BRANCH   4   7
ATOM      7  N   UNL A   1      31.925  25.481  25.247  1.00  0.00    -0.351 N 
ATOM      8  C   UNL A   1      30.969  25.074  26.138  1.00  0.00     0.268 C 
ATOM      9  O   UNL A   1      30.172  25.925  26.542  1.00  0.00    -0.268 OA
ATOM     10  H   UNL A   1      32.025  26.458  25.181  1.00  0.00     0.163 HD
BRANCH   8  11
ATOM     11  C   UNL A   1      30.878  23.706  26.796  1.00  0.00     0.141 C 
ATOM     12  N   UNL A   1      31.794  22.908  27.261  1.00  0.00    -0.086 NA
BRANCH  11  13
ATOM     13  C   UNL A   1      29.460  23.176  26.873  1.00  0.00    -0.013 C 
ATOM     14  H   UNL A   1      29.135  22.885  25.896  1.00  0.00     0.030 H 
ATOM     15  H   UNL A   1      28.813  23.939  27.252  1.00  0.00     0.030 H 
ATOM     16  H   UNL A   1      29.430  22.328  27.525  1.00  0.00     0.030 H 
ENDBRANCH  11  13
BRANCH  12  17
ATOM     17  O   UNL A   1      33.085  23.413  27.291  1.00  0.00    -0.390 OA
BRANCH  17  18
ATOM     18  C   UNL A   1      34.036  22.328  27.368  1.00  0.00     0.144 C 
ATOM     19  H   UNL A   1      33.487  21.410  27.354  1.00  0.00     0.079 H 
ATOM     20  H   UNL A   1      34.589  22.499  28.268  1.00  0.00     0.079 H 
BRANCH  18  21
ATOM     21  C   UNL A   1      35.085  22.261  26.254  1.00  0.00     0.016 A 
ATOM     22  C   UNL A   1      35.979  23.335  26.055  1.00  0.00    -0.053 A 
ATOM     23  C   UNL A   1      35.294  21.078  25.505  1.00  0.00     0.045 A 
ATOM     24  C   UNL A   1      37.049  23.257  25.164  1.00  0.00    -0.062 A 
ATOM     25  H   UNL A   1      35.837  24.207  26.588  1.00  0.00     0.063 H 
ATOM     26  C   UNL A   1      36.393  21.015  24.622  1.00  0.00    -0.038 A 
ATOM     27  C   UNL A   1      37.264  22.089  24.453  1.00  0.00    -0.060 A 
ATOM     28  H   UNL A   1      37.677  24.065  25.034  1.00  0.00     0.062 H 
ATOM     29  H   UNL A   1      36.556  20.149  24.085  1.00  0.00     0.064 H 
ATOM     30  H   UNL A   1      38.062  22.015  23.803  1.00  0.00     0.062 H 
BRANCH  23  31
ATOM     31  N   UNL A   1      34.435  19.961  25.646  1.00  0.00    -0.353 N 
ATOM     32  H   UNL A   1      34.249  19.680  26.571  1.00  0.00     0.167 HD
BRANCH  31  33
ATOM     33  C   UNL A   1      33.807  19.190  24.631  1.00  0.00     0.076 A 
ATOM     34  C   UNL A   1      32.734  19.745  23.899  1.00  0.00     0.066 A 
ATOM     35  C   UNL A   1      34.259  17.910  24.247  1.00  0.00     0.066 A 
ATOM     36  Cl  UNL A   1      32.105  21.311  24.303  1.00  0.00    -0.082 Cl
ATOM     37  C   UNL A   1      32.152  19.066  22.825  1.00  0.00    -0.041 A 
ATOM     38  C   UNL A   1      33.674  17.231  23.170  1.00  0.00    -0.041 A 
ATOM     39  Cl  UNL A   1      35.495  17.068  25.123  1.00  0.00    -0.082 Cl
ATOM     40  C   UNL A   1      32.628  17.811  22.455  1.00  0.00    -0.059 A 
ATOM     41  H   UNL A   1      31.369  19.495  22.305  1.00  0.00     0.064 H 
ATOM     42  H   UNL A   1      34.020  16.295  22.905  1.00  0.00     0.064 H 
ATOM     43  H   UNL A   1      32.208  17.312  21.656  1.00  0.00     0.062 H 
ENDBRANCH  31  33
ENDBRANCH  23  31
ENDBRANCH  18  21
ENDBRANCH  17  18
ENDBRANCH  12  17
ENDBRANCH   8  11
ENDBRANCH   4   7
ENDBRANCH   1   4
BRANCH   1  44
ATOM     44  C   UNL A   1      32.659  26.591  22.618  1.00  0.00    -0.052 C 
ATOM     45  H   UNL A   1      31.681  26.156  22.620  1.00  0.00     0.027 H 
ATOM     46  H   UNL A   1      33.096  26.629  21.642  1.00  0.00     0.027 H 
BRANCH  44  47
ATOM     47  C   UNL A   1      32.539  28.041  23.100  1.00  0.00    -0.052 C 
ATOM     48  H   UNL A   1      31.683  28.108  23.740  1.00  0.00     0.027 H 
ATOM     49  H   UNL A   1      32.459  28.643  22.220  1.00  0.00     0.027 H 
BRANCH  47  50
ATOM     50  C   UNL A   1      33.751  28.570  23.872  1.00  0.00    -0.036 C 
ATOM     51  H   UNL A   1      33.999  29.536  23.484  1.00  0.00     0.028 H 
ATOM     52  H   UNL A   1      34.534  27.853  23.740  1.00  0.00     0.028 H 
BRANCH  50  53
ATOM     53  C   UNL A   1      33.533  28.703  25.376  1.00  0.00     0.018 C 
ATOM     54  H   UNL A   1      34.467  28.555  25.877  1.00  0.00     0.049 H 
ATOM     55  H   UNL A   1      32.817  27.967  25.677  1.00  0.00     0.049 H 
BRANCH  53  56
ATOM     56  N   UNL A   1      33.011  30.015  25.729  1.00  0.00    -0.352 N 
ATOM     57  C   UNL A   1      33.368  30.844  26.762  1.00  0.00     0.251 C 
ATOM     58  H   UNL A   1      32.299  30.357  25.141  1.00  0.00     0.163 HD
ATOM     59  O   UNL A   1      32.664  31.803  27.060  1.00  0.00    -0.269 OA
BRANCH  57  60
ATOM     60  C   UNL A   1      34.606  30.578  27.524  1.00  0.00     0.039 A 
ATOM     61  C   UNL A   1      35.571  31.584  27.625  1.00  0.00    -0.049 A 
ATOM     62  C   UNL A   1      34.827  29.328  28.110  1.00  0.00    -0.049 A 
ATOM     63  C   UNL A   1      36.737  31.352  28.356  1.00  0.00    -0.053 A 
ATOM     64  H   UNL A   1      35.422  32.494  27.161  1.00  0.00     0.063 H 
ATOM     65  C   UNL A   1      35.958  29.121  28.893  1.00  0.00    -0.053 A 
ATOM     66  H   UNL A   1      34.153  28.561  27.961  1.00  0.00     0.063 H 
ATOM     67  C   UNL A   1      36.928  30.127  29.017  1.00  0.00    -0.014 A 
ATOM     68  H   UNL A   1      37.463  32.084  28.413  1.00  0.00     0.063 H 
ATOM     69  H   UNL A   1      36.085  28.222  29.385  1.00  0.00     0.063 H 
BRANCH  67  70
ATOM     70  C   UNL A   1      38.142  29.871  29.828  1.00  0.00     0.031 A 
ATOM     71  C   UNL A   1      39.220  28.964  29.304  1.00  0.00     0.074 A 
ATOM     72  C   UNL A   1      38.244  30.404  31.060  1.00  0.00     0.049 A 
ATOM     73  N   UNL A   1      40.318  28.555  29.890  1.00  0.00    -0.248 NA
ATOM     74  C   UNL A   1      39.024  28.420  27.951  1.00  0.00    -0.034 C 
ATOM     75  C   UNL A   1      37.244  31.265  31.693  1.00  0.00    -0.036 A 
ATOM     76  N   UNL A   1      39.234  30.293  32.004  1.00  0.00    -0.354 N 
ATOM     77  C   UNL A   1      40.929  27.695  28.987  1.00  0.00     0.074 A 
ATOM     78  C   UNL A   1      40.059  27.602  27.834  1.00  0.00    -0.034 C 
ATOM     79  H   UNL A   1      38.275  28.623  27.270  1.00  0.00     0.065 H 
ATOM     80  C   UNL A   1      37.683  31.625  32.909  1.00  0.00    -0.036 A 
ATOM     81  H   UNL A   1      36.346  31.549  31.272  1.00  0.00     0.065 H 
ATOM     82  C   UNL A   1      38.975  30.992  33.157  1.00  0.00     0.049 A 
ATOM     83  H   UNL A   1      40.052  29.763  31.866  1.00  0.00     0.167 HD
ATOM     84  C   UNL A   1      42.118  27.056  29.103  1.00  0.00     0.037 A 
ATOM     85  H   UNL A   1      40.224  26.980  27.027  1.00  0.00     0.065 H 
ATOM     86  H   UNL A   1      37.187  32.251  33.565  1.00  0.00     0.065 H 
ATOM     87  C   UNL A   1      39.697  31.101  34.288  1.00  0.00     0.037 A 
ATOM     88  C   UNL A   1      42.992  27.175  30.239  1.00  0.00     0.049 A 
ATOM     89  C   UNL A   1      41.018  30.388  34.388  1.00  0.00     0.074 A 
ATOM     90  C   UNL A   1      44.244  26.616  30.428  1.00  0.00    -0.036 A 
ATOM     91  N   UNL A   1      42.705  27.908  31.381  1.00  0.00    -0.354 N 
ATOM     92  N   UNL A   1      41.613  29.621  33.507  1.00  0.00    -0.248 NA
ATOM     93  C   UNL A   1      41.770  30.559  35.638  1.00  0.00    -0.034 C 
ATOM     94  C   UNL A   1      44.695  26.975  31.704  1.00  0.00    -0.036 A 
ATOM     95  H   UNL A   1      44.757  26.036  29.747  1.00  0.00     0.065 H 
ATOM     96  C   UNL A   1      43.747  27.799  32.289  1.00  0.00     0.049 A 
ATOM     97  H   UNL A   1      41.882  28.429  31.526  1.00  0.00     0.167 HD
ATOM     98  C   UNL A   1      42.816  29.240  34.082  1.00  0.00     0.074 A 
ATOM     99  C   UNL A   1      42.875  29.871  35.384  1.00  0.00    -0.034 C 
ATOM    100  H   UNL A   1      41.508  31.078  36.491  1.00  0.00     0.065 H 
ATOM    101  H   UNL A   1      45.583  26.677  32.135  1.00  0.00     0.065 H 
ATOM    102  C   UNL A   1      43.787  28.439  33.578  1.00  0.00     0.037 A 
ATOM    103  H   UNL A   1      43.675  29.795  36.032  1.00  0.00     0.065 H 
BRANCH  84 104
ATOM    104  C   UNL A   1      42.543  26.169  27.968  1.00  0.00     0.064 A 
ATOM    105  C   UNL A   1      42.167  24.819  27.907  1.00  0.00     0.173 A 
ATOM    106  C   UNL A   1      43.305  26.685  26.908  1.00  0.00     0.173 A 
ATOM    107  F   UNL A   1      41.447  24.274  28.899  1.00  0.00    -0.203 F 
ATOM    108  C   UNL A   1      42.564  24.011  26.844  1.00  0.00     0.198 A 
ATOM    109  C   UNL A   1      43.674  25.882  25.832  1.00  0.00     0.198 A 
ATOM    110  F   UNL A   1      43.687  27.971  26.913  1.00  0.00    -0.203 F 
ATOM    111  F   UNL A   1      42.234  22.712  26.833  1.00  0.00    -0.200 F 
ATOM    112  C   UNL A   1      43.309  24.544  25.805  1.00  0.00     0.200 A 
ATOM    113  F   UNL A   1      44.384  26.403  24.822  1.00  0.00    -0.200 F 
ATOM    114  F   UNL A   1      43.684  23.767  24.779  1.00  0.00    -0.200 F 
ENDBRANCH  84 104
BRANCH  87 115
ATOM    115  C   UNL A   1      39.195  31.936  35.410  1.00  0.00     0.064 A 
ATOM    116  C   UNL A   1      39.485  33.306  35.474  1.00  0.00     0.173 A 
ATOM    117  C   UNL A   1      38.418  31.384  36.438  1.00  0.00     0.173 A 
ATOM    118  F   UNL A   1      40.244  33.873  34.524  1.00  0.00    -0.203 F 
ATOM    119  C   UNL A   1      39.034  34.088  36.534  1.00  0.00     0.198 A 
ATOM    120  C   UNL A   1      37.943  32.173  37.484  1.00  0.00     0.198 A 
ATOM    121  F   UNL A   1      38.112  30.078  36.422  1.00  0.00    -0.203 F 
ATOM    122  F   UNL A   1      39.365  35.385  36.595  1.00  0.00    -0.200 F 
ATOM    123  C   UNL A   1      38.257  33.522  37.535  1.00  0.00     0.200 A 
ATOM    124  F   UNL A   1      37.184  31.624  38.440  1.00  0.00    -0.200 F 
ATOM    125  F   UNL A   1      37.821  34.275  38.553  1.00  0.00    -0.200 F 
ENDBRANCH  87 115
BRANCH 102 126
ATOM    126  C   UNL A   1      45.007  28.223  34.424  1.00  0.00     0.064 A 
ATOM    127  C   UNL A   1      46.117  29.079  34.348  1.00  0.00     0.173 A 
ATOM    128  C   UNL A   1      45.050  27.172  35.354  1.00  0.00     0.173 A 
ATOM    129  F   UNL A   1      46.130  30.088  33.464  1.00  0.00    -0.203 F 
ATOM    130  C   UNL A   1      47.233  28.875  35.153  1.00  0.00     0.198 A 
ATOM    131  C   UNL A   1      46.156  26.990  36.179  1.00  0.00     0.198 A 
ATOM    132  F   UNL A   1      44.013  26.330  35.471  1.00  0.00    -0.203 F 
ATOM    133  F   UNL A   1      48.300  29.677  35.031  1.00  0.00    -0.200 F 
ATOM    134  C   UNL A   1      47.249  27.837  36.072  1.00  0.00     0.200 A 
ATOM    135  F   UNL A   1      46.165  25.993  37.075  1.00  0.00    -0.200 F 
ATOM    136  F   UNL A   1      48.323  27.647  36.852  1.00  0.00    -0.200 F 
ENDBRANCH 102 126
ENDBRANCH  67  70
ENDBRANCH  57  60
ENDBRANCH  53  56
ENDBRANCH  50  53
ENDBRANCH  47  50
ENDBRANCH  44  47
ENDBRANCH   1  44
TORSDOF 19
ENDMDL
MODEL 5
REMARK VINA RESULT:     -11.7      1.888      7.777
REMARK SMILES C/C(=N/OCc1ccccc1Nc1c(Cl)cccc1Cl)C(=O)NCCCCCCNC(=O)c1ccc(-c2c3nc(c(-c4c(F)c(F)c(F)c(F)c4F)c4ccc([nH]4)c(-c4c(F)c(F)c(F)c(F)c4F)c4nc(c(-c5c(F)c(F)c(F)c(F)c5F)c5ccc2[nH]5)C=C4)C=C3)cc1
REMARK SMILES IDX 25 1 24 4 23 7 21 8 22 9 2 11 3 12 1 13 4 17 5 18 6 21 7 22
REMARK SMILES IDX 11 23 8 24 10 26 9 27 12 31 13 33 14 34 19 35 15 36 16 37
REMARK SMILES IDX 18 38 20 39 17 40 26 44 27 47 28 50 29 53 30 56 31 57 32 59
REMARK SMILES IDX 33 60 34 61 95 62 35 63 94 65 36 67 37 70 38 71 88 72 39 73
REMARK SMILES IDX 93 74 87 75 89 76 40 77 92 78 86 80 85 82 41 84 73 87 53 88
REMARK SMILES IDX 72 89 54 90 57 91 71 92 90 93 55 94 56 96 70 98 91 99 58 102
REMARK SMILES IDX 42 104 43 105 51 106 44 107 45 108 49 109 52 110 46 111
REMARK SMILES IDX 47 112 50 113 48 114 74 115 75 116 83 117 76 118 77 119
REMARK SMILES IDX 81 120 84 121 78 122 79 123 82 124 80 125 59 126 60 127
REMARK SMILES IDX 68 128 61 129 62 130 66 131 69 132 63 133 64 134 67 135
REMARK SMILES IDX 65 136
REMARK H PARENT 25 2 25 3 24 5 24 6 23 10 1 14 1 15 1 16 5 19 5 20 7 25 8 28
REMARK H PARENT 10 29 9 30 12 32 16 41 18 42 17 43 26 45 26 46 27 48 27 49
REMARK H PARENT 28 51 28 52 29 54 29 55 30 58 34 64 95 66 35 68 94 69 93 79
REMARK H PARENT 87 81 89 83 92 85 86 86 54 95 57 97 90 100 55 101 91 103
REMARK Flexibility Score: inf
ROOT
ATOM      1  C   UNL A   1      35.895  32.421  28.006  1.00  0.00    -0.036 C 
ATOM      2  H   UNL A   1      36.065  32.550  26.956  1.00  0.00     0.028 H 
ATOM      3  H   UNL A   1      36.796  32.192  28.535  1.00  0.00     0.028 H 
ENDROOT
BRANCH   1   4
ATOM      4  C   UNL A   1      34.939  31.235  28.202  1.00  0.00     0.018 C 
ATOM      5  H   UNL A   1      35.303  30.609  28.990  1.00  0.00     0.049 H 
ATOM      6  H   UNL A   1      33.966  31.600  28.458  1.00  0.00     0.049 H 
BRANCH   4   7
ATOM      7  N   UNL A   1      34.863  30.472  26.976  1.00  0.00    -0.351 N 
ATOM      8  C   UNL A   1      33.880  29.670  26.463  1.00  0.00     0.268 C 
ATOM      9  O   UNL A   1      34.186  28.928  25.526  1.00  0.00    -0.268 OA
ATOM     10  H   UNL A   1      35.664  30.544  26.408  1.00  0.00     0.163 HD
BRANCH   8  11
ATOM     11  C   UNL A   1      32.406  29.704  26.835  1.00  0.00     0.141 C 
ATOM     12  N   UNL A   1      31.570  28.757  27.142  1.00  0.00    -0.086 NA
BRANCH  11  13
ATOM     13  C   UNL A   1      31.813  31.099  26.787  1.00  0.00    -0.013 C 
ATOM     14  H   UNL A   1      32.569  31.816  27.028  1.00  0.00     0.030 H 
ATOM     15  H   UNL A   1      31.014  31.171  27.495  1.00  0.00     0.030 H 
ATOM     16  H   UNL A   1      31.437  31.293  25.805  1.00  0.00     0.030 H 
ENDBRANCH  11  13
BRANCH  12  17
ATOM     17  O   UNL A   1      32.112  27.489  27.288  1.00  0.00    -0.390 OA
BRANCH  17  18
ATOM     18  C   UNL A   1      31.445  26.563  26.401  1.00  0.00     0.144 C 
ATOM     19  H   UNL A   1      30.426  26.877  26.307  1.00  0.00     0.079 H 
ATOM     20  H   UNL A   1      31.572  25.600  26.849  1.00  0.00     0.079 H 
BRANCH  18  21
ATOM     21  C   UNL A   1      32.025  26.435  24.990  1.00  0.00     0.016 A 
ATOM     22  C   UNL A   1      31.605  27.311  23.966  1.00  0.00    -0.053 A 
ATOM     23  C   UNL A   1      33.099  25.556  24.708  1.00  0.00     0.045 A 
ATOM     24  C   UNL A   1      32.215  27.339  22.713  1.00  0.00    -0.062 A 
ATOM     25  H   UNL A   1      30.818  27.954  24.152  1.00  0.00     0.063 H 
ATOM     26  C   UNL A   1      33.713  25.614  23.439  1.00  0.00    -0.038 A 
ATOM     27  C   UNL A   1      33.281  26.496  22.452  1.00  0.00    -0.060 A 
ATOM     28  H   UNL A   1      31.874  27.985  21.984  1.00  0.00     0.062 H 
ATOM     29  H   UNL A   1      34.506  24.984  23.236  1.00  0.00     0.064 H 
ATOM     30  H   UNL A   1      33.750  26.520  21.534  1.00  0.00     0.062 H 
BRANCH  23  31
ATOM     31  N   UNL A   1      33.573  24.644  25.683  1.00  0.00    -0.353 N 
ATOM     32  H   UNL A   1      33.716  25.017  26.582  1.00  0.00     0.167 HD
BRANCH  31  33
ATOM     33  C   UNL A   1      33.872  23.263  25.535  1.00  0.00     0.076 A 
ATOM     34  C   UNL A   1      32.819  22.340  25.344  1.00  0.00     0.066 A 
ATOM     35  C   UNL A   1      35.189  22.762  25.481  1.00  0.00     0.066 A 
ATOM     36  Cl  UNL A   1      31.165  22.861  25.400  1.00  0.00    -0.082 Cl
ATOM     37  C   UNL A   1      33.068  20.987  25.093  1.00  0.00    -0.041 A 
ATOM     38  C   UNL A   1      35.436  21.406  25.229  1.00  0.00    -0.041 A 
ATOM     39  Cl  UNL A   1      36.568  23.761  25.802  1.00  0.00    -0.082 Cl
ATOM     40  C   UNL A   1      34.379  20.521  25.028  1.00  0.00    -0.059 A 
ATOM     41  H   UNL A   1      32.281  20.334  24.955  1.00  0.00     0.064 H 
ATOM     42  H   UNL A   1      36.409  21.060  25.194  1.00  0.00     0.064 H 
ATOM     43  H   UNL A   1      34.566  19.527  24.831  1.00  0.00     0.062 H 
ENDBRANCH  31  33
ENDBRANCH  23  31
ENDBRANCH  18  21
ENDBRANCH  17  18
ENDBRANCH  12  17
ENDBRANCH   8  11
ENDBRANCH   4   7
ENDBRANCH   1   4
BRANCH   1  44
ATOM     44  C   UNL A   1      35.357  33.739  28.577  1.00  0.00    -0.052 C 
ATOM     45  H   UNL A   1      35.365  34.470  27.796  1.00  0.00     0.027 H 
ATOM     46  H   UNL A   1      35.993  33.999  29.398  1.00  0.00     0.027 H 
BRANCH  44  47
ATOM     47  C   UNL A   1      33.934  33.652  29.138  1.00  0.00    -0.052 C 
ATOM     48  H   UNL A   1      34.002  33.567  30.203  1.00  0.00     0.027 H 
ATOM     49  H   UNL A   1      33.481  32.801  28.673  1.00  0.00     0.027 H 
BRANCH  47  50
ATOM     50  C   UNL A   1      33.033  34.847  28.814  1.00  0.00    -0.036 C 
ATOM     51  H   UNL A   1      32.026  34.583  29.058  1.00  0.00     0.028 H 
ATOM     52  H   UNL A   1      33.170  35.057  27.773  1.00  0.00     0.028 H 
BRANCH  50  53
ATOM     53  C   UNL A   1      33.387  36.126  29.566  1.00  0.00     0.018 C 
ATOM     54  H   UNL A   1      33.280  36.960  28.903  1.00  0.00     0.049 H 
ATOM     55  H   UNL A   1      34.395  36.042  29.915  1.00  0.00     0.049 H 
BRANCH  53  56
ATOM     56  N   UNL A   1      32.522  36.326  30.719  1.00  0.00    -0.352 N 
ATOM     57  C   UNL A   1      32.588  35.756  31.965  1.00  0.00     0.251 C 
ATOM     58  H   UNL A   1      31.783  36.964  30.586  1.00  0.00     0.163 HD
ATOM     59  O   UNL A   1      31.642  35.848  32.741  1.00  0.00    -0.269 OA
BRANCH  57  60
ATOM     60  C   UNL A   1      33.803  35.021  32.374  1.00  0.00     0.039 A 
ATOM     61  C   UNL A   1      33.676  33.724  32.877  1.00  0.00    -0.049 A 
ATOM     62  C   UNL A   1      35.062  35.624  32.290  1.00  0.00    -0.049 A 
ATOM     63  C   UNL A   1      34.817  33.012  33.251  1.00  0.00    -0.053 A 
ATOM     64  H   UNL A   1      32.742  33.294  32.972  1.00  0.00     0.063 H 
ATOM     65  C   UNL A   1      36.203  34.891  32.601  1.00  0.00    -0.053 A 
ATOM     66  H   UNL A   1      35.144  36.611  32.000  1.00  0.00     0.063 H 
ATOM     67  C   UNL A   1      36.091  33.581  33.092  1.00  0.00    -0.014 A 
ATOM     68  H   UNL A   1      34.724  32.063  33.645  1.00  0.00     0.063 H 
ATOM     69  H   UNL A   1      37.136  35.312  32.469  1.00  0.00     0.063 H 
BRANCH  67  70
ATOM     70  C   UNL A   1      37.319  32.831  33.449  1.00  0.00     0.031 A 
ATOM     71  C   UNL A   1      38.036  33.130  34.736  1.00  0.00     0.074 A 
ATOM     72  C   UNL A   1      37.822  31.929  32.586  1.00  0.00     0.049 A 
ATOM     73  N   UNL A   1      39.161  32.640  35.191  1.00  0.00    -0.248 NA
ATOM     74  C   UNL A   1      37.420  34.135  35.616  1.00  0.00    -0.034 C 
ATOM     75  C   UNL A   1      37.239  31.584  31.288  1.00  0.00    -0.036 A 
ATOM     76  N   UNL A   1      38.943  31.141  32.667  1.00  0.00    -0.354 N 
ATOM     77  C   UNL A   1      39.396  33.289  36.396  1.00  0.00     0.074 A 
ATOM     78  C   UNL A   1      38.322  34.242  36.580  1.00  0.00    -0.034 C 
ATOM     79  H   UNL A   1      36.518  34.627  35.511  1.00  0.00     0.065 H 
ATOM     80  C   UNL A   1      37.992  30.637  30.707  1.00  0.00    -0.036 A 
ATOM     81  H   UNL A   1      36.387  32.003  30.885  1.00  0.00     0.065 H 
ATOM     82  C   UNL A   1      39.129  30.335  31.571  1.00  0.00     0.049 A 
ATOM     83  H   UNL A   1      39.555  31.153  33.438  1.00  0.00     0.167 HD
ATOM     84  C   UNL A   1      40.405  33.094  37.278  1.00  0.00     0.037 A 
ATOM     85  H   UNL A   1      38.267  34.917  37.359  1.00  0.00     0.065 H 
ATOM     86  H   UNL A   1      37.798  30.193  29.795  1.00  0.00     0.065 H 
ATOM     87  C   UNL A   1      40.112  29.457  31.295  1.00  0.00     0.037 A 
ATOM     88  C   UNL A   1      41.454  32.125  37.104  1.00  0.00     0.049 A 
ATOM     89  C   UNL A   1      41.217  29.253  32.295  1.00  0.00     0.074 A 
ATOM     90  C   UNL A   1      42.489  31.809  37.966  1.00  0.00    -0.036 A 
ATOM     91  N   UNL A   1      41.599  31.312  35.989  1.00  0.00    -0.354 N 
ATOM     92  N   UNL A   1      41.400  29.833  33.456  1.00  0.00    -0.248 NA
ATOM     93  C   UNL A   1      42.251  28.269  31.947  1.00  0.00    -0.034 C 
ATOM     94  C   UNL A   1      43.286  30.834  37.353  1.00  0.00    -0.036 A 
ATOM     95  H   UNL A   1      42.647  32.219  38.899  1.00  0.00     0.065 H 
ATOM     96  C   UNL A   1      42.719  30.508  36.132  1.00  0.00     0.049 A 
ATOM     97  H   UNL A   1      40.995  31.306  35.212  1.00  0.00     0.167 HD
ATOM     98  C   UNL A   1      42.550  29.269  33.989  1.00  0.00     0.074 A 
ATOM     99  C   UNL A   1      43.017  28.289  33.029  1.00  0.00    -0.034 C 
ATOM    100  H   UNL A   1      42.355  27.709  31.086  1.00  0.00     0.065 H 
ATOM    101  H   UNL A   1      44.150  30.429  37.745  1.00  0.00     0.065 H 
ATOM    102  C   UNL A   1      43.165  29.537  35.167  1.00  0.00     0.037 A 
ATOM    103  H   UNL A   1      43.840  27.684  33.171  1.00  0.00     0.065 H 
BRANCH  84 104
ATOM    104  C   UNL A   1      40.423  33.948  38.513  1.00  0.00     0.064 A 
ATOM    105  C   UNL A   1      39.754  33.563  39.685  1.00  0.00     0.173 A 
ATOM    106  C   UNL A   1      41.147  35.149  38.538  1.00  0.00     0.173 A 
ATOM    107  F   UNL A   1      39.039  32.428  39.712  1.00  0.00    -0.203 F 
ATOM    108  C   UNL A   1      39.786  34.362  40.825  1.00  0.00     0.198 A 
ATOM    109  C   UNL A   1      41.202  35.931  39.688  1.00  0.00     0.198 A 
ATOM    110  F   UNL A   1      41.810  35.562  37.446  1.00  0.00    -0.203 F 
ATOM    111  F   UNL A   1      39.099  33.997  41.917  1.00  0.00    -0.200 F 
ATOM    112  C   UNL A   1      40.515  35.541  40.829  1.00  0.00     0.200 A 
ATOM    113  F   UNL A   1      41.918  37.064  39.694  1.00  0.00    -0.200 F 
ATOM    114  F   UNL A   1      40.551  36.306  41.929  1.00  0.00    -0.200 F 
ENDBRANCH  84 104
BRANCH  87 115
ATOM    115  C   UNL A   1      40.083  28.690  30.023  1.00  0.00     0.064 A 
ATOM    116  C   UNL A   1      39.476  27.428  29.957  1.00  0.00     0.173 A 
ATOM    117  C   UNL A   1      40.661  29.199  28.851  1.00  0.00     0.173 A 
ATOM    118  F   UNL A   1      38.930  26.891  31.059  1.00  0.00    -0.203 F 
ATOM    119  C   UNL A   1      39.465  26.696  28.772  1.00  0.00     0.198 A 
ATOM    120  C   UNL A   1      40.624  28.478  27.659  1.00  0.00     0.198 A 
ATOM    121  F   UNL A   1      41.253  30.402  28.862  1.00  0.00    -0.203 F 
ATOM    122  F   UNL A   1      38.919  25.473  28.749  1.00  0.00    -0.200 F 
ATOM    123  C   UNL A   1      40.033  27.225  27.623  1.00  0.00     0.200 A 
ATOM    124  F   UNL A   1      41.164  28.999  26.550  1.00  0.00    -0.200 F 
ATOM    125  F   UNL A   1      40.020  26.522  26.482  1.00  0.00    -0.200 F 
ENDBRANCH  87 115
BRANCH 102 126
ATOM    126  C   UNL A   1      44.393  28.740  35.497  1.00  0.00     0.064 A 
ATOM    127  C   UNL A   1      45.674  29.173  35.125  1.00  0.00     0.173 A 
ATOM    128  C   UNL A   1      44.289  27.548  36.232  1.00  0.00     0.173 A 
ATOM    129  F   UNL A   1      45.823  30.297  34.408  1.00  0.00    -0.203 F 
ATOM    130  C   UNL A   1      46.804  28.431  35.456  1.00  0.00     0.198 A 
ATOM    131  C   UNL A   1      45.423  26.825  36.587  1.00  0.00     0.198 A 
ATOM    132  F   UNL A   1      43.088  27.094  36.618  1.00  0.00    -0.203 F 
ATOM    133  F   UNL A   1      48.014  28.840  35.050  1.00  0.00    -0.200 F 
ATOM    134  C   UNL A   1      46.679  27.262  36.192  1.00  0.00     0.200 A 
ATOM    135  F   UNL A   1      45.302  25.702  37.309  1.00  0.00    -0.200 F 
ATOM    136  F   UNL A   1      47.769  26.553  36.516  1.00  0.00    -0.200 F 
ENDBRANCH 102 126
ENDBRANCH  67  70
ENDBRANCH  57  60
ENDBRANCH  53  56
ENDBRANCH  50  53
ENDBRANCH  47  50
ENDBRANCH  44  47
ENDBRANCH   1  44
TORSDOF 19
ENDMDL
MODEL 6
REMARK VINA RESULT:     -11.6      2.649      8.128
REMARK SMILES C/C(=N/OCc1ccccc1Nc1c(Cl)cccc1Cl)C(=O)NCCCCCCNC(=O)c1ccc(-c2c3nc(c(-c4c(F)c(F)c(F)c(F)c4F)c4ccc([nH]4)c(-c4c(F)c(F)c(F)c(F)c4F)c4nc(c(-c5c(F)c(F)c(F)c(F)c5F)c5ccc2[nH]5)C=C4)C=C3)cc1
REMARK SMILES IDX 25 1 24 4 23 7 21 8 22 9 2 11 3 12 1 13 4 17 5 18 6 21 7 22
REMARK SMILES IDX 11 23 8 24 10 26 9 27 12 31 13 33 14 34 19 35 15 36 16 37
REMARK SMILES IDX 18 38 20 39 17 40 26 44 27 47 28 50 29 53 30 56 31 57 32 59
REMARK SMILES IDX 33 60 34 61 95 62 35 63 94 65 36 67 37 70 38 71 88 72 39 73
REMARK SMILES IDX 93 74 87 75 89 76 40 77 92 78 86 80 85 82 41 84 73 87 53 88
REMARK SMILES IDX 72 89 54 90 57 91 71 92 90 93 55 94 56 96 70 98 91 99 58 102
REMARK SMILES IDX 42 104 43 105 51 106 44 107 45 108 49 109 52 110 46 111
REMARK SMILES IDX 47 112 50 113 48 114 74 115 75 116 83 117 76 118 77 119
REMARK SMILES IDX 81 120 84 121 78 122 79 123 82 124 80 125 59 126 60 127
REMARK SMILES IDX 68 128 61 129 62 130 66 131 69 132 63 133 64 134 67 135
REMARK SMILES IDX 65 136
REMARK H PARENT 25 2 25 3 24 5 24 6 23 10 1 14 1 15 1 16 5 19 5 20 7 25 8 28
REMARK H PARENT 10 29 9 30 12 32 16 41 18 42 17 43 26 45 26 46 27 48 27 49
REMARK H PARENT 28 51 28 52 29 54 29 55 30 58 34 64 95 66 35 68 94 69 93 79
REMARK H PARENT 87 81 89 83 92 85 86 86 54 95 57 97 90 100 55 101 91 103
REMARK Flexibility Score: inf
ROOT
ATOM      1  C   UNL A   1      35.686  32.202  27.970  1.00  0.00    -0.036 C 
ATOM      2  H   UNL A   1      36.079  32.298  26.979  1.00  0.00     0.028 H 
ATOM      3  H   UNL A   1      36.411  31.822  28.658  1.00  0.00     0.028 H 
ENDROOT
BRANCH   1   4
ATOM      4  C   UNL A   1      34.522  31.200  27.936  1.00  0.00     0.018 C 
ATOM      5  H   UNL A   1      34.540  30.602  28.824  1.00  0.00     0.049 H 
ATOM      6  H   UNL A   1      33.595  31.731  27.885  1.00  0.00     0.049 H 
BRANCH   4   7
ATOM      7  N   UNL A   1      34.657  30.347  26.777  1.00  0.00    -0.351 N 
ATOM      8  C   UNL A   1      33.801  29.444  26.207  1.00  0.00     0.268 C 
ATOM      9  O   UNL A   1      34.274  28.659  25.381  1.00  0.00    -0.268 OA
ATOM     10  H   UNL A   1      35.522  30.432  26.314  1.00  0.00     0.163 HD
BRANCH   8  11
ATOM     11  C   UNL A   1      32.291  29.404  26.380  1.00  0.00     0.141 C 
ATOM     12  N   UNL A   1      31.485  28.442  26.721  1.00  0.00    -0.086 NA
BRANCH  11  13
ATOM     13  C   UNL A   1      31.618  30.720  26.042  1.00  0.00    -0.013 C 
ATOM     14  H   UNL A   1      32.046  31.120  25.146  1.00  0.00     0.030 H 
ATOM     15  H   UNL A   1      31.764  31.412  26.846  1.00  0.00     0.030 H 
ATOM     16  H   UNL A   1      30.571  30.559  25.897  1.00  0.00     0.030 H 
ENDBRANCH  11  13
BRANCH  12  17
ATOM     17  O   UNL A   1      32.085  27.260  27.128  1.00  0.00    -0.390 OA
BRANCH  17  18
ATOM     18  C   UNL A   1      31.680  26.177  26.259  1.00  0.00     0.144 C 
ATOM     19  H   UNL A   1      30.930  26.554  25.596  1.00  0.00     0.079 H 
ATOM     20  H   UNL A   1      31.345  25.400  26.912  1.00  0.00     0.079 H 
BRANCH  18  21
ATOM     21  C   UNL A   1      32.782  25.544  25.405  1.00  0.00     0.016 A 
ATOM     22  C   UNL A   1      33.974  25.087  26.006  1.00  0.00    -0.053 A 
ATOM     23  C   UNL A   1      32.580  25.253  24.033  1.00  0.00     0.045 A 
ATOM     24  C   UNL A   1      34.934  24.363  25.300  1.00  0.00    -0.062 A 
ATOM     25  H   UNL A   1      34.141  25.296  27.003  1.00  0.00     0.063 H 
ATOM     26  C   UNL A   1      33.556  24.504  23.343  1.00  0.00    -0.038 A 
ATOM     27  C   UNL A   1      34.719  24.060  23.967  1.00  0.00    -0.060 A 
ATOM     28  H   UNL A   1      35.800  24.054  25.769  1.00  0.00     0.062 H 
ATOM     29  H   UNL A   1      33.404  24.279  22.347  1.00  0.00     0.064 H 
ATOM     30  H   UNL A   1      35.415  23.510  23.440  1.00  0.00     0.062 H 
BRANCH  23  31
ATOM     31  N   UNL A   1      31.410  25.683  23.359  1.00  0.00    -0.353 N 
ATOM     32  H   UNL A   1      30.815  24.968  23.038  1.00  0.00     0.167 HD
BRANCH  31  33
ATOM     33  C   UNL A   1      30.982  27.009  23.081  1.00  0.00     0.076 A 
ATOM     34  C   UNL A   1      29.646  27.380  23.352  1.00  0.00     0.066 A 
ATOM     35  C   UNL A   1      31.854  28.019  22.623  1.00  0.00     0.066 A 
ATOM     36  Cl  UNL A   1      28.499  26.205  23.913  1.00  0.00    -0.082 Cl
ATOM     37  C   UNL A   1      29.206  28.697  23.193  1.00  0.00    -0.041 A 
ATOM     38  C   UNL A   1      31.410  29.338  22.463  1.00  0.00    -0.041 A 
ATOM     39  Cl  UNL A   1      33.488  27.682  22.153  1.00  0.00    -0.082 Cl
ATOM     40  C   UNL A   1      30.091  29.679  22.754  1.00  0.00    -0.059 A 
ATOM     41  H   UNL A   1      28.224  28.943  23.399  1.00  0.00     0.064 H 
ATOM     42  H   UNL A   1      32.065  30.062  22.126  1.00  0.00     0.064 H 
ATOM     43  H   UNL A   1      29.772  30.654  22.646  1.00  0.00     0.062 H 
ENDBRANCH  31  33
ENDBRANCH  23  31
ENDBRANCH  18  21
ENDBRANCH  17  18
ENDBRANCH  12  17
ENDBRANCH   8  11
ENDBRANCH   4   7
ENDBRANCH   1   4
BRANCH   1  44
ATOM     44  C   UNL A   1      35.277  33.594  28.468  1.00  0.00    -0.052 C 
ATOM     45  H   UNL A   1      35.248  34.256  27.627  1.00  0.00     0.027 H 
ATOM     46  H   UNL A   1      36.002  33.882  29.200  1.00  0.00     0.027 H 
BRANCH  44  47
ATOM     47  C   UNL A   1      33.911  33.643  29.162  1.00  0.00    -0.052 C 
ATOM     48  H   UNL A   1      34.076  33.636  30.220  1.00  0.00     0.027 H 
ATOM     49  H   UNL A   1      33.368  32.791  28.812  1.00  0.00     0.027 H 
BRANCH  47  50
ATOM     50  C   UNL A   1      33.054  34.866  28.823  1.00  0.00    -0.036 C 
ATOM     51  H   UNL A   1      32.033  34.628  29.038  1.00  0.00     0.028 H 
ATOM     52  H   UNL A   1      33.225  35.081  27.789  1.00  0.00     0.028 H 
BRANCH  50  53
ATOM     53  C   UNL A   1      33.422  36.128  29.597  1.00  0.00     0.018 C 
ATOM     54  H   UNL A   1      33.327  36.973  28.947  1.00  0.00     0.049 H 
ATOM     55  H   UNL A   1      34.428  36.025  29.947  1.00  0.00     0.049 H 
BRANCH  53  56
ATOM     56  N   UNL A   1      32.557  36.321  30.751  1.00  0.00    -0.352 N 
ATOM     57  C   UNL A   1      32.624  35.745  31.994  1.00  0.00     0.251 C 
ATOM     58  H   UNL A   1      31.816  36.958  30.621  1.00  0.00     0.163 HD
ATOM     59  O   UNL A   1      31.679  35.831  32.771  1.00  0.00    -0.269 OA
BRANCH  57  60
ATOM     60  C   UNL A   1      33.841  35.011  32.400  1.00  0.00     0.039 A 
ATOM     61  C   UNL A   1      33.716  33.719  32.917  1.00  0.00    -0.049 A 
ATOM     62  C   UNL A   1      35.101  35.610  32.299  1.00  0.00    -0.049 A 
ATOM     63  C   UNL A   1      34.858  33.008  33.287  1.00  0.00    -0.053 A 
ATOM     64  H   UNL A   1      32.782  33.293  33.024  1.00  0.00     0.063 H 
ATOM     65  C   UNL A   1      36.242  34.877  32.606  1.00  0.00    -0.053 A 
ATOM     66  H   UNL A   1      35.183  36.594  31.998  1.00  0.00     0.063 H 
ATOM     67  C   UNL A   1      36.132  33.572  33.111  1.00  0.00    -0.014 A 
ATOM     68  H   UNL A   1      34.767  32.063  33.691  1.00  0.00     0.063 H 
ATOM     69  H   UNL A   1      37.176  35.295  32.462  1.00  0.00     0.063 H 
BRANCH  67  70
ATOM     70  C   UNL A   1      37.362  32.823  33.464  1.00  0.00     0.031 A 
ATOM     71  C   UNL A   1      38.080  33.119  34.751  1.00  0.00     0.074 A 
ATOM     72  C   UNL A   1      37.864  31.924  32.598  1.00  0.00     0.049 A 
ATOM     73  N   UNL A   1      39.206  32.629  35.204  1.00  0.00    -0.248 NA
ATOM     74  C   UNL A   1      37.463  34.120  35.635  1.00  0.00    -0.034 C 
ATOM     75  C   UNL A   1      37.281  31.582  31.300  1.00  0.00    -0.036 A 
ATOM     76  N   UNL A   1      38.987  31.137  32.675  1.00  0.00    -0.354 N 
ATOM     77  C   UNL A   1      39.441  33.275  36.409  1.00  0.00     0.074 A 
ATOM     78  C   UNL A   1      38.367  34.226  36.598  1.00  0.00    -0.034 C 
ATOM     79  H   UNL A   1      36.561  34.612  35.532  1.00  0.00     0.065 H 
ATOM     80  C   UNL A   1      38.033  30.638  30.715  1.00  0.00    -0.036 A 
ATOM     81  H   UNL A   1      36.427  32.001  30.899  1.00  0.00     0.065 H 
ATOM     82  C   UNL A   1      39.173  30.335  31.577  1.00  0.00     0.049 A 
ATOM     83  H   UNL A   1      39.600  31.148  33.446  1.00  0.00     0.167 HD
ATOM     84  C   UNL A   1      40.452  33.078  37.290  1.00  0.00     0.037 A 
ATOM     85  H   UNL A   1      38.312  34.898  37.379  1.00  0.00     0.065 H 
ATOM     86  H   UNL A   1      37.839  30.196  29.802  1.00  0.00     0.065 H 
ATOM     87  C   UNL A   1      40.156  29.459  31.297  1.00  0.00     0.037 A 
ATOM     88  C   UNL A   1      41.502  32.111  37.112  1.00  0.00     0.049 A 
ATOM     89  C   UNL A   1      41.262  29.252  32.295  1.00  0.00     0.074 A 
ATOM     90  C   UNL A   1      42.539  31.794  37.972  1.00  0.00    -0.036 A 
ATOM     91  N   UNL A   1      41.647  31.301  35.995  1.00  0.00    -0.354 N 
ATOM     92  N   UNL A   1      41.446  29.830  33.458  1.00  0.00    -0.248 NA
ATOM     93  C   UNL A   1      42.297  28.271  31.943  1.00  0.00    -0.034 C 
ATOM     94  C   UNL A   1      43.336  30.822  37.355  1.00  0.00    -0.036 A 
ATOM     95  H   UNL A   1      42.697  32.201  38.906  1.00  0.00     0.065 H 
ATOM     96  C   UNL A   1      42.768  30.499  36.134  1.00  0.00     0.049 A 
ATOM     97  H   UNL A   1      41.042  31.297  35.218  1.00  0.00     0.167 HD
ATOM     98  C   UNL A   1      42.597  29.265  33.988  1.00  0.00     0.074 A 
ATOM     99  C   UNL A   1      43.064  28.289  33.024  1.00  0.00    -0.034 C 
ATOM    100  H   UNL A   1      42.401  27.714  31.081  1.00  0.00     0.065 H 
ATOM    101  H   UNL A   1      44.201  30.417  37.745  1.00  0.00     0.065 H 
ATOM    102  C   UNL A   1      43.213  29.531  35.165  1.00  0.00     0.037 A 
ATOM    103  H   UNL A   1      43.889  27.684  33.163  1.00  0.00     0.065 H 
BRANCH  84 104
ATOM    104  C   UNL A   1      40.470  33.929  38.528  1.00  0.00     0.064 A 
ATOM    105  C   UNL A   1      41.173  35.142  38.579  1.00  0.00     0.173 A 
ATOM    106  C   UNL A   1      39.746  33.544  39.667  1.00  0.00     0.173 A 
ATOM    107  F   UNL A   1      41.889  35.551  37.521  1.00  0.00    -0.203 F 
ATOM    108  C   UNL A   1      41.174  35.922  39.732  1.00  0.00     0.198 A 
ATOM    109  C   UNL A   1      39.725  34.342  40.807  1.00  0.00     0.198 A 
ATOM    110  F   UNL A   1      39.052  32.395  39.671  1.00  0.00    -0.203 F 
ATOM    111  F   UNL A   1      41.893  37.054  39.772  1.00  0.00    -0.200 F 
ATOM    112  C   UNL A   1      40.445  35.526  40.842  1.00  0.00     0.200 A 
ATOM    113  F   UNL A   1      39.009  33.963  41.875  1.00  0.00    -0.200 F 
ATOM    114  F   UNL A   1      40.441  36.282  41.948  1.00  0.00    -0.200 F 
ENDBRANCH  84 104
BRANCH  87 115
ATOM    115  C   UNL A   1      40.126  28.695  30.023  1.00  0.00     0.064 A 
ATOM    116  C   UNL A   1      39.485  27.451  29.944  1.00  0.00     0.173 A 
ATOM    117  C   UNL A   1      40.737  29.190  28.862  1.00  0.00     0.173 A 
ATOM    118  F   UNL A   1      38.906  26.927  31.035  1.00  0.00    -0.203 F 
ATOM    119  C   UNL A   1      39.472  26.722  28.758  1.00  0.00     0.198 A 
ATOM    120  C   UNL A   1      40.700  28.473  27.668  1.00  0.00     0.198 A 
ATOM    121  F   UNL A   1      41.364  30.375  28.886  1.00  0.00    -0.203 F 
ATOM    122  F   UNL A   1      38.892  25.515  28.722  1.00  0.00    -0.200 F 
ATOM    123  C   UNL A   1      40.074  27.236  27.619  1.00  0.00     0.200 A 
ATOM    124  F   UNL A   1      41.273  28.979  26.569  1.00  0.00    -0.200 F 
ATOM    125  F   UNL A   1      40.060  26.536  26.477  1.00  0.00    -0.200 F 
ENDBRANCH  87 115
BRANCH 102 126
ATOM    126  C   UNL A   1      44.443  28.734  35.492  1.00  0.00     0.064 A 
ATOM    127  C   UNL A   1      44.369  27.521  36.192  1.00  0.00     0.173 A 
ATOM    128  C   UNL A   1      45.706  29.170  35.061  1.00  0.00     0.173 A 
ATOM    129  F   UNL A   1      43.187  27.071  36.638  1.00  0.00    -0.203 F 
ATOM    130  C   UNL A   1      45.518  26.785  36.470  1.00  0.00     0.198 A 
ATOM    131  C   UNL A   1      46.848  28.417  35.315  1.00  0.00     0.198 A 
ATOM    132  F   UNL A   1      45.829  30.320  34.382  1.00  0.00    -0.203 F 
ATOM    133  F   UNL A   1      45.429  25.652  37.181  1.00  0.00    -0.200 F 
ATOM    134  C   UNL A   1      46.754  27.230  36.026  1.00  0.00     0.200 A 
ATOM    135  F   UNL A   1      48.041  28.842  34.875  1.00  0.00    -0.200 F 
ATOM    136  F   UNL A   1      47.858  26.516  36.288  1.00  0.00    -0.200 F 
ENDBRANCH 102 126
ENDBRANCH  67  70
ENDBRANCH  57  60
ENDBRANCH  53  56
ENDBRANCH  50  53
ENDBRANCH  47  50
ENDBRANCH  44  47
ENDBRANCH   1  44
TORSDOF 19
ENDMDL
MODEL 7
REMARK VINA RESULT:     -11.6      2.024      7.566
REMARK SMILES C/C(=N/OCc1ccccc1Nc1c(Cl)cccc1Cl)C(=O)NCCCCCCNC(=O)c1ccc(-c2c3nc(c(-c4c(F)c(F)c(F)c(F)c4F)c4ccc([nH]4)c(-c4c(F)c(F)c(F)c(F)c4F)c4nc(c(-c5c(F)c(F)c(F)c(F)c5F)c5ccc2[nH]5)C=C4)C=C3)cc1
REMARK SMILES IDX 25 1 24 4 23 7 21 8 22 9 2 11 3 12 1 13 4 17 5 18 6 21 7 22
REMARK SMILES IDX 11 23 8 24 10 26 9 27 12 31 13 33 14 34 19 35 15 36 16 37
REMARK SMILES IDX 18 38 20 39 17 40 26 44 27 47 28 50 29 53 30 56 31 57 32 59
REMARK SMILES IDX 33 60 34 61 95 62 35 63 94 65 36 67 37 70 38 71 88 72 39 73
REMARK SMILES IDX 93 74 87 75 89 76 40 77 92 78 86 80 85 82 41 84 73 87 53 88
REMARK SMILES IDX 72 89 54 90 57 91 71 92 90 93 55 94 56 96 70 98 91 99 58 102
REMARK SMILES IDX 42 104 43 105 51 106 44 107 45 108 49 109 52 110 46 111
REMARK SMILES IDX 47 112 50 113 48 114 74 115 75 116 83 117 76 118 77 119
REMARK SMILES IDX 81 120 84 121 78 122 79 123 82 124 80 125 59 126 60 127
REMARK SMILES IDX 68 128 61 129 62 130 66 131 69 132 63 133 64 134 67 135
REMARK SMILES IDX 65 136
REMARK H PARENT 25 2 25 3 24 5 24 6 23 10 1 14 1 15 1 16 5 19 5 20 7 25 8 28
REMARK H PARENT 10 29 9 30 12 32 16 41 18 42 17 43 26 45 26 46 27 48 27 49
REMARK H PARENT 28 51 28 52 29 54 29 55 30 58 34 64 95 66 35 68 94 69 93 79
REMARK H PARENT 87 81 89 83 92 85 86 86 54 95 57 97 90 100 55 101 91 103
REMARK Flexibility Score: inf
ROOT
ATOM      1  C   UNL A   1      33.589  25.740  23.473  1.00  0.00    -0.036 C 
ATOM      2  H   UNL A   1      34.200  25.169  22.805  1.00  0.00     0.028 H 
ATOM      3  H   UNL A   1      34.170  26.378  24.106  1.00  0.00     0.028 H 
ENDROOT
BRANCH   1   4
ATOM      4  C   UNL A   1      32.826  24.769  24.386  1.00  0.00     0.018 C 
ATOM      5  H   UNL A   1      32.240  24.102  23.787  1.00  0.00     0.049 H 
ATOM      6  H   UNL A   1      33.523  24.203  24.968  1.00  0.00     0.049 H 
BRANCH   4   7
ATOM      7  N   UNL A   1      31.957  25.518  25.265  1.00  0.00    -0.351 N 
ATOM      8  C   UNL A   1      31.005  25.117  26.162  1.00  0.00     0.268 C 
ATOM      9  O   UNL A   1      30.227  25.976  26.584  1.00  0.00    -0.268 OA
ATOM     10  H   UNL A   1      32.073  26.494  25.208  1.00  0.00     0.163 HD
BRANCH   8  11
ATOM     11  C   UNL A   1      30.899  23.744  26.808  1.00  0.00     0.141 C 
ATOM     12  N   UNL A   1      31.806  22.933  27.266  1.00  0.00    -0.086 NA
BRANCH  11  13
ATOM     13  C   UNL A   1      29.475  23.227  26.876  1.00  0.00    -0.013 C 
ATOM     14  H   UNL A   1      29.149  22.950  25.895  1.00  0.00     0.030 H 
ATOM     15  H   UNL A   1      28.835  23.994  27.261  1.00  0.00     0.030 H 
ATOM     16  H   UNL A   1      29.436  22.374  27.520  1.00  0.00     0.030 H 
ENDBRANCH  11  13
BRANCH  12  17
ATOM     17  O   UNL A   1      33.102  23.424  27.303  1.00  0.00    -0.390 OA
BRANCH  17  18
ATOM     18  C   UNL A   1      34.042  22.329  27.373  1.00  0.00     0.144 C 
ATOM     19  H   UNL A   1      33.484  21.416  27.350  1.00  0.00     0.079 H 
ATOM     20  H   UNL A   1      34.595  22.487  28.276  1.00  0.00     0.079 H 
BRANCH  18  21
ATOM     21  C   UNL A   1      35.092  22.261  26.260  1.00  0.00     0.016 A 
ATOM     22  C   UNL A   1      35.991  23.331  26.065  1.00  0.00    -0.053 A 
ATOM     23  C   UNL A   1      35.297  21.079  25.508  1.00  0.00     0.045 A 
ATOM     24  C   UNL A   1      37.061  23.251  25.175  1.00  0.00    -0.062 A 
ATOM     25  H   UNL A   1      35.852  24.203  26.600  1.00  0.00     0.063 H 
ATOM     26  C   UNL A   1      36.396  21.013  24.626  1.00  0.00    -0.038 A 
ATOM     27  C   UNL A   1      37.272  22.085  24.461  1.00  0.00    -0.060 A 
ATOM     28  H   UNL A   1      37.692  24.057  25.048  1.00  0.00     0.062 H 
ATOM     29  H   UNL A   1      36.556  20.148  24.087  1.00  0.00     0.064 H 
ATOM     30  H   UNL A   1      38.070  22.009  23.812  1.00  0.00     0.062 H 
BRANCH  23  31
ATOM     31  N   UNL A   1      34.433  19.965  25.645  1.00  0.00    -0.353 N 
ATOM     32  H   UNL A   1      34.243  19.684  26.569  1.00  0.00     0.167 HD
BRANCH  31  33
ATOM     33  C   UNL A   1      33.806  19.197  24.627  1.00  0.00     0.076 A 
ATOM     34  C   UNL A   1      32.734  19.756  23.895  1.00  0.00     0.066 A 
ATOM     35  C   UNL A   1      34.256  17.918  24.240  1.00  0.00     0.066 A 
ATOM     36  Cl  UNL A   1      32.107  21.322  24.301  1.00  0.00    -0.082 Cl
ATOM     37  C   UNL A   1      32.153  19.080  22.818  1.00  0.00    -0.041 A 
ATOM     38  C   UNL A   1      33.672  17.242  23.161  1.00  0.00    -0.041 A 
ATOM     39  Cl  UNL A   1      35.489  17.072  25.117  1.00  0.00    -0.082 Cl
ATOM     40  C   UNL A   1      32.628  17.825  22.446  1.00  0.00    -0.059 A 
ATOM     41  H   UNL A   1      31.372  19.511  22.298  1.00  0.00     0.064 H 
ATOM     42  H   UNL A   1      34.017  16.306  22.894  1.00  0.00     0.064 H 
ATOM     43  H   UNL A   1      32.208  17.329  21.645  1.00  0.00     0.062 H 
ENDBRANCH  31  33
ENDBRANCH  23  31
ENDBRANCH  18  21
ENDBRANCH  17  18
ENDBRANCH  12  17
ENDBRANCH   8  11
ENDBRANCH   4   7
ENDBRANCH   1   4
BRANCH   1  44
ATOM     44  C   UNL A   1      32.671  26.644  22.640  1.00  0.00    -0.052 C 
ATOM     45  H   UNL A   1      31.683  26.233  22.667  1.00  0.00     0.027 H 
ATOM     46  H   UNL A   1      33.084  26.673  21.654  1.00  0.00     0.027 H 
BRANCH  44  47
ATOM     47  C   UNL A   1      32.600  28.095  23.127  1.00  0.00    -0.052 C 
ATOM     48  H   UNL A   1      31.766  28.182  23.792  1.00  0.00     0.027 H 
ATOM     49  H   UNL A   1      32.508  28.700  22.250  1.00  0.00     0.027 H 
BRANCH  47  50
ATOM     50  C   UNL A   1      33.847  28.595  23.863  1.00  0.00    -0.036 C 
ATOM     51  H   UNL A   1      34.105  29.555  23.468  1.00  0.00     0.028 H 
ATOM     52  H   UNL A   1      34.609  27.860  23.706  1.00  0.00     0.028 H 
BRANCH  50  53
ATOM     53  C   UNL A   1      33.678  28.730  25.373  1.00  0.00     0.018 C 
ATOM     54  H   UNL A   1      34.626  28.576  25.844  1.00  0.00     0.049 H 
ATOM     55  H   UNL A   1      32.966  27.999  25.697  1.00  0.00     0.049 H 
BRANCH  53  56
ATOM     56  N   UNL A   1      33.176  30.046  25.741  1.00  0.00    -0.352 N 
ATOM     57  C   UNL A   1      33.508  30.834  26.813  1.00  0.00     0.251 C 
ATOM     58  H   UNL A   1      32.502  30.425  25.132  1.00  0.00     0.163 HD
ATOM     59  O   UNL A   1      32.818  31.804  27.108  1.00  0.00    -0.269 OA
BRANCH  57  60
ATOM     60  C   UNL A   1      34.703  30.510  27.622  1.00  0.00     0.039 A 
ATOM     61  C   UNL A   1      34.714  29.334  28.377  1.00  0.00    -0.049 A 
ATOM     62  C   UNL A   1      35.795  31.382  27.659  1.00  0.00    -0.049 A 
ATOM     63  C   UNL A   1      35.841  29.008  29.131  1.00  0.00    -0.053 A 
ATOM     64  H   UNL A   1      33.891  28.711  28.376  1.00  0.00     0.063 H 
ATOM     65  C   UNL A   1      36.943  31.023  28.358  1.00  0.00    -0.053 A 
ATOM     66  H   UNL A   1      35.750  32.290  27.170  1.00  0.00     0.063 H 
ATOM     67  C   UNL A   1      36.974  29.837  29.108  1.00  0.00    -0.014 A 
ATOM     68  H   UNL A   1      35.844  28.152  29.709  1.00  0.00     0.063 H 
ATOM     69  H   UNL A   1      37.776  31.632  28.326  1.00  0.00     0.063 H 
BRANCH  67  70
ATOM     70  C   UNL A   1      38.197  29.492  29.873  1.00  0.00     0.031 A 
ATOM     71  C   UNL A   1      38.424  30.087  31.235  1.00  0.00     0.074 A 
ATOM     72  C   UNL A   1      39.129  28.697  29.316  1.00  0.00     0.049 A 
ATOM     73  N   UNL A   1      39.460  29.971  32.029  1.00  0.00    -0.248 NA
ATOM     74  C   UNL A   1      37.357  30.950  31.765  1.00  0.00    -0.034 C 
ATOM     75  C   UNL A   1      39.040  28.096  27.985  1.00  0.00    -0.036 A 
ATOM     76  N   UNL A   1      40.339  28.264  29.797  1.00  0.00    -0.354 N 
ATOM     77  C   UNL A   1      39.177  30.759  33.136  1.00  0.00     0.074 A 
ATOM     78  C   UNL A   1      37.895  31.386  32.894  1.00  0.00    -0.034 C 
ATOM     79  H   UNL A   1      36.430  31.161  31.362  1.00  0.00     0.065 H 
ATOM     80  C   UNL A   1      40.134  27.351  27.766  1.00  0.00    -0.036 A 
ATOM     81  H   UNL A   1      38.260  28.224  27.321  1.00  0.00     0.065 H 
ATOM     82  C   UNL A   1      41.019  27.453  28.923  1.00  0.00     0.049 A 
ATOM     83  H   UNL A   1      40.685  28.511  30.685  1.00  0.00     0.167 HD
ATOM     84  C   UNL A   1      39.911  30.928  34.262  1.00  0.00     0.037 A 
ATOM     85  H   UNL A   1      37.458  32.082  33.519  1.00  0.00     0.065 H 
ATOM     86  H   UNL A   1      40.321  26.796  26.916  1.00  0.00     0.065 H 
ATOM     87  C   UNL A   1      42.224  26.864  29.043  1.00  0.00     0.037 A 
ATOM     88  C   UNL A   1      41.171  30.279  34.510  1.00  0.00     0.049 A 
ATOM     89  C   UNL A   1      43.016  27.061  30.306  1.00  0.00     0.074 A 
ATOM     90  C   UNL A   1      41.965  30.339  35.641  1.00  0.00    -0.036 A 
ATOM     91  N   UNL A   1      41.821  29.448  33.608  1.00  0.00    -0.354 N 
ATOM     92  N   UNL A   1      42.715  27.765  31.370  1.00  0.00    -0.248 NA
ATOM     93  C   UNL A   1      44.315  26.380  30.386  1.00  0.00    -0.034 C 
ATOM     94  C   UNL A   1      43.117  29.578  35.408  1.00  0.00    -0.036 A 
ATOM     95  H   UNL A   1      41.746  30.854  36.508  1.00  0.00     0.065 H 
ATOM     96  C   UNL A   1      43.016  29.005  34.150  1.00  0.00     0.049 A 
ATOM     97  H   UNL A   1      41.482  29.209  32.716  1.00  0.00     0.167 HD
ATOM     98  C   UNL A   1      43.769  27.591  32.255  1.00  0.00     0.074 A 
ATOM     99  C   UNL A   1      44.714  26.703  31.608  1.00  0.00    -0.034 C 
ATOM    100  H   UNL A   1      44.793  25.801  29.678  1.00  0.00     0.065 H 
ATOM    101  H   UNL A   1      43.906  29.464  36.061  1.00  0.00     0.065 H 
ATOM    102  C   UNL A   1      43.941  28.118  33.492  1.00  0.00     0.037 A 
ATOM    103  H   UNL A   1      45.587  26.367  32.044  1.00  0.00     0.065 H 
BRANCH  84 104
ATOM    104  C   UNL A   1      39.369  31.854  35.312  1.00  0.00     0.064 A 
ATOM    105  C   UNL A   1      39.684  33.221  35.325  1.00  0.00     0.173 A 
ATOM    106  C   UNL A   1      38.493  31.376  36.299  1.00  0.00     0.173 A 
ATOM    107  F   UNL A   1      40.525  33.727  34.410  1.00  0.00    -0.203 F 
ATOM    108  C   UNL A   1      39.167  34.068  36.302  1.00  0.00     0.198 A 
ATOM    109  C   UNL A   1      37.954  32.231  37.256  1.00  0.00     0.198 A 
ATOM    110  F   UNL A   1      38.153  30.078  36.330  1.00  0.00    -0.203 F 
ATOM    111  F   UNL A   1      39.522  35.360  36.322  1.00  0.00    -0.200 F 
ATOM    112  C   UNL A   1      38.297  33.575  37.261  1.00  0.00     0.200 A 
ATOM    113  F   UNL A   1      37.103  31.755  38.175  1.00  0.00    -0.200 F 
ATOM    114  F   UNL A   1      37.795  34.392  38.197  1.00  0.00    -0.200 F 
ENDBRANCH  84 104
BRANCH  87 115
ATOM    115  C   UNL A   1      42.745  26.015  27.940  1.00  0.00     0.064 A 
ATOM    116  C   UNL A   1      42.388  24.663  27.843  1.00  0.00     0.173 A 
ATOM    117  C   UNL A   1      43.609  26.534  26.966  1.00  0.00     0.173 A 
ATOM    118  F   UNL A   1      41.581  24.117  28.765  1.00  0.00    -0.203 F 
ATOM    119  C   UNL A   1      42.890  23.858  26.823  1.00  0.00     0.198 A 
ATOM    120  C   UNL A   1      44.090  25.735  25.931  1.00  0.00     0.198 A 
ATOM    121  F   UNL A   1      43.981  27.821  27.016  1.00  0.00    -0.203 F 
ATOM    122  F   UNL A   1      42.569  22.558  26.780  1.00  0.00    -0.200 F 
ATOM    123  C   UNL A   1      43.736  24.396  25.864  1.00  0.00     0.200 A 
ATOM    124  F   UNL A   1      44.896  26.263  25.001  1.00  0.00    -0.200 F 
ATOM    125  F   UNL A   1      44.217  23.622  24.882  1.00  0.00    -0.200 F 
ENDBRANCH  87 115
BRANCH 102 126
ATOM    126  C   UNL A   1      45.182  27.727  34.239  1.00  0.00     0.064 A 
ATOM    127  C   UNL A   1      45.216  26.595  35.068  1.00  0.00     0.173 A 
ATOM    128  C   UNL A   1      46.364  28.469  34.091  1.00  0.00     0.173 A 
ATOM    129  F   UNL A   1      44.108  25.862  35.254  1.00  0.00    -0.203 F 
ATOM    130  C   UNL A   1      46.381  26.236  35.739  1.00  0.00     0.198 A 
ATOM    131  C   UNL A   1      47.535  28.089  34.740  1.00  0.00     0.198 A 
ATOM    132  F   UNL A   1      46.386  29.556  33.305  1.00  0.00    -0.203 F 
ATOM    133  F   UNL A   1      46.378  25.177  36.562  1.00  0.00    -0.200 F 
ATOM    134  C   UNL A   1      47.540  26.978  35.569  1.00  0.00     0.200 A 
ATOM    135  F   UNL A   1      48.657  28.801  34.565  1.00  0.00    -0.200 F 
ATOM    136  F   UNL A   1      48.663  26.626  36.211  1.00  0.00    -0.200 F 
ENDBRANCH 102 126
ENDBRANCH  67  70
ENDBRANCH  57  60
ENDBRANCH  53  56
ENDBRANCH  50  53
ENDBRANCH  47  50
ENDBRANCH  44  47
ENDBRANCH   1  44
TORSDOF 19
ENDMDL
MODEL 8
REMARK VINA RESULT:     -11.5      2.899      8.339
REMARK SMILES C/C(=N/OCc1ccccc1Nc1c(Cl)cccc1Cl)C(=O)NCCCCCCNC(=O)c1ccc(-c2c3nc(c(-c4c(F)c(F)c(F)c(F)c4F)c4ccc([nH]4)c(-c4c(F)c(F)c(F)c(F)c4F)c4nc(c(-c5c(F)c(F)c(F)c(F)c5F)c5ccc2[nH]5)C=C4)C=C3)cc1
REMARK SMILES IDX 25 1 24 4 23 7 21 8 22 9 2 11 3 12 1 13 4 17 5 18 6 21 7 22
REMARK SMILES IDX 11 23 8 24 10 26 9 27 12 31 13 33 14 34 19 35 15 36 16 37
REMARK SMILES IDX 18 38 20 39 17 40 26 44 27 47 28 50 29 53 30 56 31 57 32 59
REMARK SMILES IDX 33 60 34 61 95 62 35 63 94 65 36 67 37 70 38 71 88 72 39 73
REMARK SMILES IDX 93 74 87 75 89 76 40 77 92 78 86 80 85 82 41 84 73 87 53 88
REMARK SMILES IDX 72 89 54 90 57 91 71 92 90 93 55 94 56 96 70 98 91 99 58 102
REMARK SMILES IDX 42 104 43 105 51 106 44 107 45 108 49 109 52 110 46 111
REMARK SMILES IDX 47 112 50 113 48 114 74 115 75 116 83 117 76 118 77 119
REMARK SMILES IDX 81 120 84 121 78 122 79 123 82 124 80 125 59 126 60 127
REMARK SMILES IDX 68 128 61 129 62 130 66 131 69 132 63 133 64 134 67 135
REMARK SMILES IDX 65 136
REMARK H PARENT 25 2 25 3 24 5 24 6 23 10 1 14 1 15 1 16 5 19 5 20 7 25 8 28
REMARK H PARENT 10 29 9 30 12 32 16 41 18 42 17 43 26 45 26 46 27 48 27 49
REMARK H PARENT 28 51 28 52 29 54 29 55 30 58 34 64 95 66 35 68 94 69 93 79
REMARK H PARENT 87 81 89 83 92 85 86 86 54 95 57 97 90 100 55 101 91 103
REMARK Flexibility Score: inf
ROOT
ATOM      1  C   UNL A   1      31.477  28.746  23.719  1.00  0.00    -0.036 C 
ATOM      2  H   UNL A   1      31.555  28.235  24.657  1.00  0.00     0.028 H 
ATOM      3  H   UNL A   1      31.071  29.729  23.827  1.00  0.00     0.028 H 
ENDROOT
BRANCH   1   4
ATOM      4  C   UNL A   1      30.522  27.955  22.812  1.00  0.00     0.018 C 
ATOM      5  H   UNL A   1      29.529  28.342  22.916  1.00  0.00     0.049 H 
ATOM      6  H   UNL A   1      30.835  28.052  21.793  1.00  0.00     0.049 H 
BRANCH   4   7
ATOM      7  N   UNL A   1      30.540  26.562  23.195  1.00  0.00    -0.351 N 
ATOM      8  C   UNL A   1      31.133  25.468  22.623  1.00  0.00     0.268 C 
ATOM      9  O   UNL A   1      30.764  24.357  23.011  1.00  0.00    -0.268 OA
ATOM     10  H   UNL A   1      30.035  26.364  24.017  1.00  0.00     0.163 HD
BRANCH   8  11
ATOM     11  C   UNL A   1      32.309  25.485  21.659  1.00  0.00     0.141 C 
ATOM     12  N   UNL A   1      33.550  25.126  21.805  1.00  0.00    -0.086 NA
BRANCH  11  13
ATOM     13  C   UNL A   1      31.961  26.072  20.305  1.00  0.00    -0.013 C 
ATOM     14  H   UNL A   1      30.922  25.914  20.105  1.00  0.00     0.030 H 
ATOM     15  H   UNL A   1      32.547  25.595  19.548  1.00  0.00     0.030 H 
ATOM     16  H   UNL A   1      32.168  27.121  20.308  1.00  0.00     0.030 H 
ENDBRANCH  11  13
BRANCH  12  17
ATOM     17  O   UNL A   1      33.867  24.496  22.999  1.00  0.00    -0.390 OA
BRANCH  17  18
ATOM     18  C   UNL A   1      34.111  23.091  22.765  1.00  0.00     0.144 C 
ATOM     19  H   UNL A   1      35.145  22.976  22.516  1.00  0.00     0.079 H 
ATOM     20  H   UNL A   1      33.434  22.811  21.986  1.00  0.00     0.079 H 
BRANCH  18  21
ATOM     21  C   UNL A   1      33.804  22.145  23.929  1.00  0.00     0.016 A 
ATOM     22  C   UNL A   1      32.467  21.836  24.261  1.00  0.00    -0.053 A 
ATOM     23  C   UNL A   1      34.831  21.435  24.598  1.00  0.00     0.045 A 
ATOM     24  C   UNL A   1      32.140  20.862  25.204  1.00  0.00    -0.062 A 
ATOM     25  H   UNL A   1      31.705  22.349  23.789  1.00  0.00     0.063 H 
ATOM     26  C   UNL A   1      34.477  20.442  25.535  1.00  0.00    -0.038 A 
ATOM     27  C   UNL A   1      33.147  20.154  25.835  1.00  0.00    -0.060 A 
ATOM     28  H   UNL A   1      31.151  20.671  25.430  1.00  0.00     0.062 H 
ATOM     29  H   UNL A   1      35.224  19.913  26.012  1.00  0.00     0.064 H 
ATOM     30  H   UNL A   1      32.916  19.420  26.521  1.00  0.00     0.062 H 
BRANCH  23  31
ATOM     31  N   UNL A   1      36.197  21.693  24.323  1.00  0.00    -0.353 N 
ATOM     32  H   UNL A   1      36.485  21.522  23.397  1.00  0.00     0.167 HD
BRANCH  31  33
ATOM     33  C   UNL A   1      37.206  22.164  25.204  1.00  0.00     0.076 A 
ATOM     34  C   UNL A   1      38.309  21.333  25.505  1.00  0.00     0.066 A 
ATOM     35  C   UNL A   1      37.215  23.469  25.738  1.00  0.00     0.066 A 
ATOM     36  Cl  UNL A   1      38.385  19.710  24.899  1.00  0.00    -0.082 Cl
ATOM     37  C   UNL A   1      39.377  21.789  26.284  1.00  0.00    -0.041 A 
ATOM     38  C   UNL A   1      38.286  23.923  26.519  1.00  0.00    -0.041 A 
ATOM     39  Cl  UNL A   1      35.879  24.555  25.537  1.00  0.00    -0.082 Cl
ATOM     40  C   UNL A   1      39.369  23.088  26.786  1.00  0.00    -0.059 A 
ATOM     41  H   UNL A   1      40.172  21.163  26.488  1.00  0.00     0.064 H 
ATOM     42  H   UNL A   1      38.271  24.883  26.901  1.00  0.00     0.064 H 
ATOM     43  H   UNL A   1      40.160  23.430  27.351  1.00  0.00     0.062 H 
ENDBRANCH  31  33
ENDBRANCH  23  31
ENDBRANCH  18  21
ENDBRANCH  17  18
ENDBRANCH  12  17
ENDBRANCH   8  11
ENDBRANCH   4   7
ENDBRANCH   1   4
BRANCH   1  44
ATOM     44  C   UNL A   1      32.886  28.901  23.132  1.00  0.00    -0.052 C 
ATOM     45  H   UNL A   1      33.102  29.945  23.051  1.00  0.00     0.027 H 
ATOM     46  H   UNL A   1      32.880  28.401  22.186  1.00  0.00     0.027 H 
BRANCH  44  47
ATOM     47  C   UNL A   1      33.994  28.246  23.965  1.00  0.00    -0.052 C 
ATOM     48  H   UNL A   1      34.656  29.017  24.302  1.00  0.00     0.027 H 
ATOM     49  H   UNL A   1      34.467  27.532  23.324  1.00  0.00     0.027 H 
BRANCH  47  50
ATOM     50  C   UNL A   1      33.510  27.466  25.191  1.00  0.00    -0.036 C 
ATOM     51  H   UNL A   1      33.856  26.457  25.103  1.00  0.00     0.028 H 
ATOM     52  H   UNL A   1      32.443  27.543  25.199  1.00  0.00     0.028 H 
BRANCH  50  53
ATOM     53  C   UNL A   1      33.997  28.022  26.525  1.00  0.00     0.018 C 
ATOM     54  H   UNL A   1      35.046  27.832  26.619  1.00  0.00     0.049 H 
ATOM     55  H   UNL A   1      33.450  27.540  27.309  1.00  0.00     0.049 H 
BRANCH  53  56
ATOM     56  N   UNL A   1      33.767  29.456  26.625  1.00  0.00    -0.352 N 
ATOM     57  C   UNL A   1      34.425  30.392  27.382  1.00  0.00     0.251 C 
ATOM     58  H   UNL A   1      33.033  29.805  26.069  1.00  0.00     0.163 HD
ATOM     59  O   UNL A   1      33.951  31.512  27.535  1.00  0.00    -0.269 OA
BRANCH  57  60
ATOM     60  C   UNL A   1      35.713  30.047  28.022  1.00  0.00     0.039 A 
ATOM     61  C   UNL A   1      35.718  29.628  29.355  1.00  0.00    -0.049 A 
ATOM     62  C   UNL A   1      36.913  30.167  27.316  1.00  0.00    -0.049 A 
ATOM     63  C   UNL A   1      36.924  29.283  29.966  1.00  0.00    -0.053 A 
ATOM     64  H   UNL A   1      34.834  29.575  29.885  1.00  0.00     0.063 H 
ATOM     65  C   UNL A   1      38.106  29.759  27.905  1.00  0.00    -0.053 A 
ATOM     66  H   UNL A   1      36.915  30.557  26.360  1.00  0.00     0.063 H 
ATOM     67  C   UNL A   1      38.124  29.322  29.238  1.00  0.00    -0.014 A 
ATOM     68  H   UNL A   1      36.935  28.996  30.958  1.00  0.00     0.063 H 
ATOM     69  H   UNL A   1      38.982  29.779  27.359  1.00  0.00     0.063 H 
BRANCH  67  70
ATOM     70  C   UNL A   1      39.413  28.925  29.856  1.00  0.00     0.031 A 
ATOM     71  C   UNL A   1      39.942  29.681  31.043  1.00  0.00     0.074 A 
ATOM     72  C   UNL A   1      40.135  27.930  29.309  1.00  0.00     0.049 A 
ATOM     73  N   UNL A   1      41.079  29.539  31.677  1.00  0.00    -0.248 NA
ATOM     74  C   UNL A   1      39.091  30.758  31.572  1.00  0.00    -0.034 C 
ATOM     75  C   UNL A   1      39.746  27.153  28.131  1.00  0.00    -0.036 A 
ATOM     76  N   UNL A   1      41.352  27.406  29.667  1.00  0.00    -0.354 N 
ATOM     77  C   UNL A   1      41.087  30.518  32.661  1.00  0.00     0.074 A 
ATOM     78  C   UNL A   1      39.864  31.278  32.513  1.00  0.00    -0.034 C 
ATOM     79  H   UNL A   1      38.139  31.036  31.285  1.00  0.00     0.065 H 
ATOM     80  C   UNL A   1      40.692  26.234  27.880  1.00  0.00    -0.036 A 
ATOM     81  H   UNL A   1      38.883  27.289  27.582  1.00  0.00     0.065 H 
ATOM     82  C   UNL A   1      41.770  26.382  28.853  1.00  0.00     0.049 A 
ATOM     83  H   UNL A   1      41.874  27.732  30.435  1.00  0.00     0.167 HD
ATOM     84  C   UNL A   1      42.021  30.749  33.615  1.00  0.00     0.037 A 
ATOM     85  H   UNL A   1      39.627  32.116  33.068  1.00  0.00     0.065 H 
ATOM     86  H   UNL A   1      40.662  25.535  27.120  1.00  0.00     0.065 H 
ATOM     87  C   UNL A   1      42.901  25.652  28.887  1.00  0.00     0.037 A 
ATOM     88  C   UNL A   1      43.220  29.971  33.776  1.00  0.00     0.049 A 
ATOM     89  C   UNL A   1      43.919  25.923  29.961  1.00  0.00     0.074 A 
ATOM     90  C   UNL A   1      44.201  30.087  34.745  1.00  0.00    -0.036 A 
ATOM     91  N   UNL A   1      43.602  28.929  32.943  1.00  0.00    -0.354 N 
ATOM     92  N   UNL A   1      43.891  26.815  30.921  1.00  0.00    -0.248 NA
ATOM     93  C   UNL A   1      45.124  25.082  29.959  1.00  0.00    -0.034 C 
ATOM     94  C   UNL A   1      45.198  29.143  34.474  1.00  0.00    -0.036 A 
ATOM     95  H   UNL A   1      44.198  30.753  35.533  1.00  0.00     0.065 H 
ATOM     96  C   UNL A   1      44.814  28.406  33.365  1.00  0.00     0.049 A 
ATOM     97  H   UNL A   1      43.087  28.608  32.168  1.00  0.00     0.167 HD
ATOM     98  C   UNL A   1      45.056  26.628  31.650  1.00  0.00     0.074 A 
ATOM     99  C   UNL A   1      45.764  25.527  31.030  1.00  0.00    -0.034 C 
ATOM    100  H   UNL A   1      45.400  24.340  29.296  1.00  0.00     0.065 H 
ATOM    101  H   UNL A   1      46.071  29.017  35.008  1.00  0.00     0.065 H 
ATOM    102  C   UNL A   1      45.500  27.307  32.736  1.00  0.00     0.037 A 
ATOM    103  H   UNL A   1      46.654  25.139  31.380  1.00  0.00     0.065 H 
BRANCH  84 104
ATOM    104  C   UNL A   1      41.781  31.891  34.560  1.00  0.00     0.064 A 
ATOM    105  C   UNL A   1      42.260  33.182  34.292  1.00  0.00     0.173 A 
ATOM    106  C   UNL A   1      41.031  31.701  35.731  1.00  0.00     0.173 A 
ATOM    107  F   UNL A   1      42.991  33.416  33.192  1.00  0.00    -0.203 F 
ATOM    108  C   UNL A   1      42.023  34.233  35.175  1.00  0.00     0.198 A 
ATOM    109  C   UNL A   1      40.770  32.760  36.596  1.00  0.00     0.198 A 
ATOM    110  F   UNL A   1      40.544  30.487  36.032  1.00  0.00    -0.203 F 
ATOM    111  F   UNL A   1      42.533  35.447  34.922  1.00  0.00    -0.200 F 
ATOM    112  C   UNL A   1      41.273  34.023  36.322  1.00  0.00     0.200 A 
ATOM    113  F   UNL A   1      40.033  32.558  37.697  1.00  0.00    -0.200 F 
ATOM    114  F   UNL A   1      41.040  35.037  37.167  1.00  0.00    -0.200 F 
ENDBRANCH  84 104
BRANCH  87 115
ATOM    115  C   UNL A   1      43.120  24.580  27.882  1.00  0.00     0.064 A 
ATOM    116  C   UNL A   1      43.721  24.863  26.647  1.00  0.00     0.173 A 
ATOM    117  C   UNL A   1      42.733  23.256  28.132  1.00  0.00     0.173 A 
ATOM    118  F   UNL A   1      44.088  26.120  26.355  1.00  0.00    -0.203 F 
ATOM    119  C   UNL A   1      43.909  23.865  25.694  1.00  0.00     0.198 A 
ATOM    120  C   UNL A   1      42.947  22.253  27.188  1.00  0.00     0.198 A 
ATOM    121  F   UNL A   1      42.154  22.935  29.298  1.00  0.00    -0.203 F 
ATOM    122  F   UNL A   1      44.445  24.172  24.504  1.00  0.00    -0.200 F 
ATOM    123  C   UNL A   1      43.528  22.560  25.967  1.00  0.00     0.200 A 
ATOM    124  F   UNL A   1      42.588  20.993  27.463  1.00  0.00    -0.200 F 
ATOM    125  F   UNL A   1      43.712  21.600  25.051  1.00  0.00    -0.200 F 
ENDBRANCH  87 115
BRANCH 102 126
ATOM    126  C   UNL A   1      46.799  26.859  33.342  1.00  0.00     0.064 A 
ATOM    127  C   UNL A   1      46.847  25.858  34.323  1.00  0.00     0.173 A 
ATOM    128  C   UNL A   1      48.013  27.409  32.903  1.00  0.00     0.173 A 
ATOM    129  F   UNL A   1      45.712  25.313  34.787  1.00  0.00    -0.203 F 
ATOM    130  C   UNL A   1      48.062  25.442  34.861  1.00  0.00     0.198 A 
ATOM    131  C   UNL A   1      49.228  26.969  33.421  1.00  0.00     0.198 A 
ATOM    132  F   UNL A   1      48.022  28.365  31.962  1.00  0.00    -0.203 F 
ATOM    133  F   UNL A   1      48.080  24.517  35.831  1.00  0.00    -0.200 F 
ATOM    134  C   UNL A   1      49.250  25.992  34.405  1.00  0.00     0.200 A 
ATOM    135  F   UNL A   1      50.376  27.493  32.971  1.00  0.00    -0.200 F 
ATOM    136  F   UNL A   1      50.419  25.584  34.918  1.00  0.00    -0.200 F 
ENDBRANCH 102 126
ENDBRANCH  67  70
ENDBRANCH  57  60
ENDBRANCH  53  56
ENDBRANCH  50  53
ENDBRANCH  47  50
ENDBRANCH  44  47
ENDBRANCH   1  44
TORSDOF 19
ENDMDL
MODEL 9
REMARK VINA RESULT:     -11.5      3.234      8.484
REMARK SMILES C/C(=N/OCc1ccccc1Nc1c(Cl)cccc1Cl)C(=O)NCCCCCCNC(=O)c1ccc(-c2c3nc(c(-c4c(F)c(F)c(F)c(F)c4F)c4ccc([nH]4)c(-c4c(F)c(F)c(F)c(F)c4F)c4nc(c(-c5c(F)c(F)c(F)c(F)c5F)c5ccc2[nH]5)C=C4)C=C3)cc1
REMARK SMILES IDX 25 1 24 4 23 7 21 8 22 9 2 11 3 12 1 13 4 17 5 18 6 21 7 22
REMARK SMILES IDX 11 23 8 24 10 26 9 27 12 31 13 33 14 34 19 35 15 36 16 37
REMARK SMILES IDX 18 38 20 39 17 40 26 44 27 47 28 50 29 53 30 56 31 57 32 59
REMARK SMILES IDX 33 60 34 61 95 62 35 63 94 65 36 67 37 70 38 71 88 72 39 73
REMARK SMILES IDX 93 74 87 75 89 76 40 77 92 78 86 80 85 82 41 84 73 87 53 88
REMARK SMILES IDX 72 89 54 90 57 91 71 92 90 93 55 94 56 96 70 98 91 99 58 102
REMARK SMILES IDX 42 104 43 105 51 106 44 107 45 108 49 109 52 110 46 111
REMARK SMILES IDX 47 112 50 113 48 114 74 115 75 116 83 117 76 118 77 119
REMARK SMILES IDX 81 120 84 121 78 122 79 123 82 124 80 125 59 126 60 127
REMARK SMILES IDX 68 128 61 129 62 130 66 131 69 132 63 133 64 134 67 135
REMARK SMILES IDX 65 136
REMARK H PARENT 25 2 25 3 24 5 24 6 23 10 1 14 1 15 1 16 5 19 5 20 7 25 8 28
REMARK H PARENT 10 29 9 30 12 32 16 41 18 42 17 43 26 45 26 46 27 48 27 49
REMARK H PARENT 28 51 28 52 29 54 29 55 30 58 34 64 95 66 35 68 94 69 93 79
REMARK H PARENT 87 81 89 83 92 85 86 86 54 95 57 97 90 100 55 101 91 103
REMARK Flexibility Score: inf
ROOT
ATOM      1  C   UNL A   1      33.250  27.709  22.283  1.00  0.00    -0.036 C 
ATOM      2  H   UNL A   1      32.420  28.332  22.024  1.00  0.00     0.028 H 
ATOM      3  H   UNL A   1      33.908  27.547  21.455  1.00  0.00     0.028 H 
ENDROOT
BRANCH   1   4
ATOM      4  C   UNL A   1      32.713  26.335  22.711  1.00  0.00     0.018 C 
ATOM      5  H   UNL A   1      32.898  25.621  21.936  1.00  0.00     0.049 H 
ATOM      6  H   UNL A   1      33.207  26.022  23.607  1.00  0.00     0.049 H 
BRANCH   4   7
ATOM      7  N   UNL A   1      31.290  26.430  22.950  1.00  0.00    -0.351 N 
ATOM      8  C   UNL A   1      30.444  25.677  23.719  1.00  0.00     0.268 C 
ATOM      9  O   UNL A   1      29.233  25.816  23.530  1.00  0.00    -0.268 OA
ATOM     10  H   UNL A   1      30.851  27.170  22.473  1.00  0.00     0.163 HD
BRANCH   8  11
ATOM     11  C   UNL A   1      30.842  24.792  24.890  1.00  0.00     0.141 C 
ATOM     12  N   UNL A   1      31.269  23.565  24.939  1.00  0.00    -0.086 NA
BRANCH  11  13
ATOM     13  C   UNL A   1      30.654  25.465  26.236  1.00  0.00    -0.013 C 
ATOM     14  H   UNL A   1      30.768  26.524  26.124  1.00  0.00     0.030 H 
ATOM     15  H   UNL A   1      31.388  25.099  26.923  1.00  0.00     0.030 H 
ATOM     16  H   UNL A   1      29.676  25.249  26.609  1.00  0.00     0.030 H 
ENDBRANCH  11  13
BRANCH  12  17
ATOM     17  O   UNL A   1      31.541  22.964  23.720  1.00  0.00    -0.390 OA
BRANCH  17  18
ATOM     18  C   UNL A   1      32.847  22.347  23.755  1.00  0.00     0.144 C 
ATOM     19  H   UNL A   1      33.375  22.747  24.596  1.00  0.00     0.079 H 
ATOM     20  H   UNL A   1      33.291  22.568  22.807  1.00  0.00     0.079 H 
BRANCH  18  21
ATOM     21  C   UNL A   1      32.875  20.820  23.870  1.00  0.00     0.016 A 
ATOM     22  C   UNL A   1      32.221  20.023  22.907  1.00  0.00    -0.053 A 
ATOM     23  C   UNL A   1      33.677  20.165  24.836  1.00  0.00     0.045 A 
ATOM     24  C   UNL A   1      32.350  18.635  22.878  1.00  0.00    -0.062 A 
ATOM     25  H   UNL A   1      31.626  20.483  22.200  1.00  0.00     0.063 H 
ATOM     26  C   UNL A   1      33.808  18.762  24.777  1.00  0.00    -0.038 A 
ATOM     27  C   UNL A   1      33.155  18.002  23.808  1.00  0.00    -0.060 A 
ATOM     28  H   UNL A   1      31.847  18.081  22.167  1.00  0.00     0.062 H 
ATOM     29  H   UNL A   1      34.404  18.284  25.471  1.00  0.00     0.064 H 
ATOM     30  H   UNL A   1      33.271  16.978  23.786  1.00  0.00     0.062 H 
BRANCH  23  31
ATOM     31  N   UNL A   1      34.361  20.898  25.837  1.00  0.00    -0.353 N 
ATOM     32  H   UNL A   1      33.943  20.895  26.728  1.00  0.00     0.167 HD
BRANCH  31  33
ATOM     33  C   UNL A   1      35.569  21.638  25.727  1.00  0.00     0.076 A 
ATOM     34  C   UNL A   1      35.580  23.007  26.078  1.00  0.00     0.066 A 
ATOM     35  C   UNL A   1      36.800  21.053  25.364  1.00  0.00     0.066 A 
ATOM     36  Cl  UNL A   1      34.114  23.815  26.532  1.00  0.00    -0.082 Cl
ATOM     37  C   UNL A   1      36.764  23.751  26.084  1.00  0.00    -0.041 A 
ATOM     38  C   UNL A   1      37.985  21.801  25.370  1.00  0.00    -0.041 A 
ATOM     39  Cl  UNL A   1      36.912  19.414  24.810  1.00  0.00    -0.082 Cl
ATOM     40  C   UNL A   1      37.969  23.145  25.737  1.00  0.00    -0.059 A 
ATOM     41  H   UNL A   1      36.746  24.749  26.346  1.00  0.00     0.064 H 
ATOM     42  H   UNL A   1      38.875  21.353  25.100  1.00  0.00     0.064 H 
ATOM     43  H   UNL A   1      38.845  23.688  25.751  1.00  0.00     0.062 H 
ENDBRANCH  31  33
ENDBRANCH  23  31
ENDBRANCH  18  21
ENDBRANCH  17  18
ENDBRANCH  12  17
ENDBRANCH   8  11
ENDBRANCH   4   7
ENDBRANCH   1   4
BRANCH   1  44
ATOM     44  C   UNL A   1      34.064  28.413  23.377  1.00  0.00    -0.052 C 
ATOM     45  H   UNL A   1      34.316  29.393  23.029  1.00  0.00     0.027 H 
ATOM     46  H   UNL A   1      34.923  27.802  23.560  1.00  0.00     0.027 H 
BRANCH  44  47
ATOM     47  C   UNL A   1      33.334  28.554  24.717  1.00  0.00    -0.052 C 
ATOM     48  H   UNL A   1      32.330  28.208  24.587  1.00  0.00     0.027 H 
ATOM     49  H   UNL A   1      33.395  29.588  24.983  1.00  0.00     0.027 H 
BRANCH  47  50
ATOM     50  C   UNL A   1      33.957  27.775  25.880  1.00  0.00    -0.036 C 
ATOM     51  H   UNL A   1      35.020  27.869  25.813  1.00  0.00     0.028 H 
ATOM     52  H   UNL A   1      33.619  26.764  25.785  1.00  0.00     0.028 H 
BRANCH  50  53
ATOM     53  C   UNL A   1      33.522  28.251  27.263  1.00  0.00     0.018 C 
ATOM     54  H   UNL A   1      34.225  27.898  27.989  1.00  0.00     0.049 H 
ATOM     55  H   UNL A   1      32.543  27.865  27.458  1.00  0.00     0.049 H 
BRANCH  53  56
ATOM     56  N   UNL A   1      33.460  29.703  27.335  1.00  0.00    -0.352 N 
ATOM     57  C   UNL A   1      34.348  30.585  27.898  1.00  0.00     0.251 C 
ATOM     58  H   UNL A   1      32.666  30.112  26.920  1.00  0.00     0.163 HD
ATOM     59  O   UNL A   1      34.027  31.754  28.087  1.00  0.00    -0.269 OA
BRANCH  57  60
ATOM     60  C   UNL A   1      35.698  30.123  28.284  1.00  0.00     0.039 A 
ATOM     61  C   UNL A   1      36.725  30.158  27.336  1.00  0.00    -0.049 A 
ATOM     62  C   UNL A   1      35.940  29.628  29.569  1.00  0.00    -0.049 A 
ATOM     63  C   UNL A   1      38.008  29.742  27.693  1.00  0.00    -0.053 A 
ATOM     64  H   UNL A   1      36.534  30.490  26.378  1.00  0.00     0.063 H 
ATOM     65  C   UNL A   1      37.234  29.276  29.941  1.00  0.00    -0.053 A 
ATOM     66  H   UNL A   1      35.162  29.523  30.238  1.00  0.00     0.063 H 
ATOM     67  C   UNL A   1      38.278  29.321  29.005  1.00  0.00    -0.014 A 
ATOM     68  H   UNL A   1      38.763  29.743  26.989  1.00  0.00     0.063 H 
ATOM     69  H   UNL A   1      37.426  28.980  30.911  1.00  0.00     0.063 H 
BRANCH  67  70
ATOM     70  C   UNL A   1      39.641  28.907  29.416  1.00  0.00     0.031 A 
ATOM     71  C   UNL A   1      40.460  29.797  30.309  1.00  0.00     0.074 A 
ATOM     72  C   UNL A   1      40.164  27.765  28.933  1.00  0.00     0.049 A 
ATOM     73  N   UNL A   1      41.696  29.651  30.718  1.00  0.00    -0.248 NA
ATOM     74  C   UNL A   1      39.813  31.029  30.785  1.00  0.00    -0.034 C 
ATOM     75  C   UNL A   1      39.482  26.841  28.025  1.00  0.00    -0.036 A 
ATOM     76  N   UNL A   1      41.394  27.189  29.133  1.00  0.00    -0.354 N 
ATOM     77  C   UNL A   1      41.977  30.777  31.478  1.00  0.00     0.074 A 
ATOM     78  C   UNL A   1      40.802  31.622  31.437  1.00  0.00    -0.034 C 
ATOM     79  H   UNL A   1      38.841  31.349  30.647  1.00  0.00     0.065 H 
ATOM     80  C   UNL A   1      40.292  25.802  27.767  1.00  0.00    -0.036 A 
ATOM     81  H   UNL A   1      38.532  26.969  27.644  1.00  0.00     0.065 H 
ATOM     82  C   UNL A   1      41.561  26.004  28.459  1.00  0.00     0.049 A 
ATOM     83  H   UNL A   1      42.088  27.587  29.705  1.00  0.00     0.167 HD
ATOM     84  C   UNL A   1      43.108  31.072  32.165  1.00  0.00     0.037 A 
ATOM     85  H   UNL A   1      40.743  32.561  31.860  1.00  0.00     0.065 H 
ATOM     86  H   UNL A   1      40.055  24.990  27.175  1.00  0.00     0.065 H 
ATOM     87  C   UNL A   1      42.624  25.179  28.403  1.00  0.00     0.037 A 
ATOM     88  C   UNL A   1      44.262  30.216  32.226  1.00  0.00     0.049 A 
ATOM     89  C   UNL A   1      43.864  25.525  29.181  1.00  0.00     0.074 A 
ATOM     90  C   UNL A   1      45.434  30.396  32.940  1.00  0.00    -0.036 A 
ATOM     91  N   UNL A   1      44.389  29.013  31.545  1.00  0.00    -0.354 N 
ATOM     92  N   UNL A   1      44.101  26.567  29.941  1.00  0.00    -0.248 NA
ATOM     93  C   UNL A   1      44.985  24.579  29.096  1.00  0.00    -0.034 C 
ATOM     94  C   UNL A   1      46.287  29.322  32.657  1.00  0.00    -0.036 A 
ATOM     95  H   UNL A   1      45.642  31.183  33.572  1.00  0.00     0.065 H 
ATOM     96  C   UNL A   1      45.627  28.450  31.807  1.00  0.00     0.049 A 
ATOM     97  H   UNL A   1      43.700  28.619  30.964  1.00  0.00     0.167 HD
ATOM     98  C   UNL A   1      45.381  26.390  30.445  1.00  0.00     0.074 A 
ATOM     99  C   UNL A   1      45.868  25.133  29.915  1.00  0.00    -0.034 C 
ATOM    100  H   UNL A   1      45.064  23.710  28.544  1.00  0.00     0.065 H 
ATOM    101  H   UNL A   1      47.245  29.202  33.020  1.00  0.00     0.065 H 
ATOM    102  C   UNL A   1      46.091  27.195  31.272  1.00  0.00     0.037 A 
ATOM    103  H   UNL A   1      46.786  24.721  30.146  1.00  0.00     0.065 H 
BRANCH  84 104
ATOM    104  C   UNL A   1      43.150  32.378  32.906  1.00  0.00     0.064 A 
ATOM    105  C   UNL A   1      43.628  33.552  32.305  1.00  0.00     0.173 A 
ATOM    106  C   UNL A   1      42.672  32.464  34.222  1.00  0.00     0.173 A 
ATOM    107  F   UNL A   1      44.106  33.522  31.052  1.00  0.00    -0.203 F 
ATOM    108  C   UNL A   1      43.654  34.756  33.004  1.00  0.00     0.198 A 
ATOM    109  C   UNL A   1      42.671  33.676  34.907  1.00  0.00     0.198 A 
ATOM    110  F   UNL A   1      42.197  31.373  34.843  1.00  0.00    -0.203 F 
ATOM    111  F   UNL A   1      44.162  35.854  32.425  1.00  0.00    -0.200 F 
ATOM    112  C   UNL A   1      43.169  34.819  34.300  1.00  0.00     0.200 A 
ATOM    113  F   UNL A   1      42.189  33.738  36.156  1.00  0.00    -0.200 F 
ATOM    114  F   UNL A   1      43.188  35.981  34.969  1.00  0.00    -0.200 F 
ENDBRANCH  84 104
BRANCH  87 115
ATOM    115  C   UNL A   1      42.553  23.934  27.595  1.00  0.00     0.064 A 
ATOM    116  C   UNL A   1      42.960  23.924  26.253  1.00  0.00     0.173 A 
ATOM    117  C   UNL A   1      42.078  22.735  28.144  1.00  0.00     0.173 A 
ATOM    118  F   UNL A   1      43.401  25.053  25.679  1.00  0.00    -0.203 F 
ATOM    119  C   UNL A   1      42.875  22.764  25.486  1.00  0.00     0.198 A 
ATOM    120  C   UNL A   1      42.020  21.569  27.383  1.00  0.00     0.198 A 
ATOM    121  F   UNL A   1      41.677  22.694  29.423  1.00  0.00    -0.203 F 
ATOM    122  F   UNL A   1      43.227  22.793  24.193  1.00  0.00    -0.200 F 
ATOM    123  C   UNL A   1      42.412  21.586  26.053  1.00  0.00     0.200 A 
ATOM    124  F   UNL A   1      41.583  20.432  27.939  1.00  0.00    -0.200 F 
ATOM    125  F   UNL A   1      42.333  20.471  25.315  1.00  0.00    -0.200 F 
ENDBRANCH  87 115
BRANCH 102 126
ATOM    126  C   UNL A   1      47.458  26.728  31.679  1.00  0.00     0.064 A 
ATOM    127  C   UNL A   1      48.608  27.112  30.972  1.00  0.00     0.173 A 
ATOM    128  C   UNL A   1      47.623  25.921  32.815  1.00  0.00     0.173 A 
ATOM    129  F   UNL A   1      48.500  27.870  29.871  1.00  0.00    -0.203 F 
ATOM    130  C   UNL A   1      49.870  26.685  31.374  1.00  0.00     0.198 A 
ATOM    131  C   UNL A   1      48.890  25.521  33.231  1.00  0.00     0.198 A 
ATOM    132  F   UNL A   1      46.557  25.532  33.529  1.00  0.00    -0.203 F 
ATOM    133  F   UNL A   1      50.950  27.026  30.657  1.00  0.00    -0.200 F 
ATOM    134  C   UNL A   1      50.010  25.897  32.506  1.00  0.00     0.200 A 
ATOM    135  F   UNL A   1      49.025  24.768  34.332  1.00  0.00    -0.200 F 
ATOM    136  F   UNL A   1      51.227  25.492  32.896  1.00  0.00    -0.200 F 
ENDBRANCH 102 126
ENDBRANCH  67  70
ENDBRANCH  57  60
ENDBRANCH  53  56
ENDBRANCH  50  53
ENDBRANCH  47  50
ENDBRANCH  44  47
ENDBRANCH   1  44
TORSDOF 19
ENDMDL
MODEL 10
REMARK VINA RESULT:     -11.5      3.416      8.342
REMARK SMILES C/C(=N/OCc1ccccc1Nc1c(Cl)cccc1Cl)C(=O)NCCCCCCNC(=O)c1ccc(-c2c3nc(c(-c4c(F)c(F)c(F)c(F)c4F)c4ccc([nH]4)c(-c4c(F)c(F)c(F)c(F)c4F)c4nc(c(-c5c(F)c(F)c(F)c(F)c5F)c5ccc2[nH]5)C=C4)C=C3)cc1
REMARK SMILES IDX 25 1 24 4 23 7 21 8 22 9 2 11 3 12 1 13 4 17 5 18 6 21 7 22
REMARK SMILES IDX 11 23 8 24 10 26 9 27 12 31 13 33 14 34 19 35 15 36 16 37
REMARK SMILES IDX 18 38 20 39 17 40 26 44 27 47 28 50 29 53 30 56 31 57 32 59
REMARK SMILES IDX 33 60 34 61 95 62 35 63 94 65 36 67 37 70 38 71 88 72 39 73
REMARK SMILES IDX 93 74 87 75 89 76 40 77 92 78 86 80 85 82 41 84 73 87 53 88
REMARK SMILES IDX 72 89 54 90 57 91 71 92 90 93 55 94 56 96 70 98 91 99 58 102
REMARK SMILES IDX 42 104 43 105 51 106 44 107 45 108 49 109 52 110 46 111
REMARK SMILES IDX 47 112 50 113 48 114 74 115 75 116 83 117 76 118 77 119
REMARK SMILES IDX 81 120 84 121 78 122 79 123 82 124 80 125 59 126 60 127
REMARK SMILES IDX 68 128 61 129 62 130 66 131 69 132 63 133 64 134 67 135
REMARK SMILES IDX 65 136
REMARK H PARENT 25 2 25 3 24 5 24 6 23 10 1 14 1 15 1 16 5 19 5 20 7 25 8 28
REMARK H PARENT 10 29 9 30 12 32 16 41 18 42 17 43 26 45 26 46 27 48 27 49
REMARK H PARENT 28 51 28 52 29 54 29 55 30 58 34 64 95 66 35 68 94 69 93 79
REMARK H PARENT 87 81 89 83 92 85 86 86 54 95 57 97 90 100 55 101 91 103
REMARK Flexibility Score: inf
ROOT
ATOM      1  C   UNL A   1      31.724  28.944  23.668  1.00  0.00    -0.036 C 
ATOM      2  H   UNL A   1      31.507  28.502  24.618  1.00  0.00     0.028 H 
ATOM      3  H   UNL A   1      31.433  29.972  23.624  1.00  0.00     0.028 H 
ENDROOT
BRANCH   1   4
ATOM      4  C   UNL A   1      30.922  28.199  22.590  1.00  0.00     0.018 C 
ATOM      5  H   UNL A   1      29.958  28.651  22.486  1.00  0.00     0.049 H 
ATOM      6  H   UNL A   1      31.442  28.254  21.656  1.00  0.00     0.049 H 
BRANCH   4   7
ATOM      7  N   UNL A   1      30.768  26.815  22.978  1.00  0.00    -0.351 N 
ATOM      8  C   UNL A   1      31.351  25.668  22.510  1.00  0.00     0.268 C 
ATOM      9  O   UNL A   1      30.837  24.597  22.842  1.00  0.00    -0.268 OA
ATOM     10  H   UNL A   1      30.128  26.672  23.712  1.00  0.00     0.163 HD
BRANCH   8  11
ATOM     11  C   UNL A   1      32.658  25.574  21.741  1.00  0.00     0.141 C 
ATOM     12  N   UNL A   1      33.895  25.537  22.140  1.00  0.00    -0.086 NA
BRANCH  11  13
ATOM     13  C   UNL A   1      32.465  25.569  20.237  1.00  0.00    -0.013 C 
ATOM     14  H   UNL A   1      31.611  24.974  19.989  1.00  0.00     0.030 H 
ATOM     15  H   UNL A   1      33.334  25.158  19.767  1.00  0.00     0.030 H 
ATOM     16  H   UNL A   1      32.314  26.571  19.894  1.00  0.00     0.030 H 
ENDBRANCH  11  13
BRANCH  12  17
ATOM     17  O   UNL A   1      34.092  25.441  23.509  1.00  0.00    -0.390 OA
BRANCH  17  18
ATOM     18  C   UNL A   1      34.299  24.060  23.882  1.00  0.00     0.144 C 
ATOM     19  H   UNL A   1      35.337  23.837  23.745  1.00  0.00     0.079 H 
ATOM     20  H   UNL A   1      33.639  23.496  23.257  1.00  0.00     0.079 H 
BRANCH  18  21
ATOM     21  C   UNL A   1      33.926  23.679  25.317  1.00  0.00     0.016 A 
ATOM     22  C   UNL A   1      32.583  23.748  25.744  1.00  0.00    -0.053 A 
ATOM     23  C   UNL A   1      34.872  23.102  26.199  1.00  0.00     0.045 A 
ATOM     24  C   UNL A   1      32.171  23.264  26.985  1.00  0.00    -0.062 A 
ATOM     25  H   UNL A   1      31.882  24.173  25.117  1.00  0.00     0.063 H 
ATOM     26  C   UNL A   1      34.430  22.602  27.442  1.00  0.00    -0.038 A 
ATOM     27  C   UNL A   1      33.094  22.678  27.832  1.00  0.00    -0.060 A 
ATOM     28  H   UNL A   1      31.182  23.341  27.270  1.00  0.00     0.062 H 
ATOM     29  H   UNL A   1      35.115  22.168  28.080  1.00  0.00     0.064 H 
ATOM     30  H   UNL A   1      32.797  22.301  28.745  1.00  0.00     0.062 H 
BRANCH  23  31
ATOM     31  N   UNL A   1      36.239  23.002  25.843  1.00  0.00    -0.353 N 
ATOM     32  H   UNL A   1      36.729  23.854  25.788  1.00  0.00     0.167 HD
BRANCH  31  33
ATOM     33  C   UNL A   1      36.998  21.836  25.552  1.00  0.00     0.076 A 
ATOM     34  C   UNL A   1      38.385  21.824  25.822  1.00  0.00     0.066 A 
ATOM     35  C   UNL A   1      36.420  20.640  25.080  1.00  0.00     0.066 A 
ATOM     36  Cl  UNL A   1      39.186  23.250  26.399  1.00  0.00    -0.082 Cl
ATOM     37  C   UNL A   1      39.153  20.669  25.649  1.00  0.00    -0.041 A 
ATOM     38  C   UNL A   1      37.192  19.483  24.907  1.00  0.00    -0.041 A 
ATOM     39  Cl  UNL A   1      34.754  20.545  24.609  1.00  0.00    -0.082 Cl
ATOM     40  C   UNL A   1      38.554  19.495  25.198  1.00  0.00    -0.059 A 
ATOM     41  H   UNL A   1      40.165  20.685  25.855  1.00  0.00     0.064 H 
ATOM     42  H   UNL A   1      36.748  18.618  24.560  1.00  0.00     0.064 H 
ATOM     43  H   UNL A   1      39.117  18.639  25.080  1.00  0.00     0.062 H 
ENDBRANCH  31  33
ENDBRANCH  23  31
ENDBRANCH  18  21
ENDBRANCH  17  18
ENDBRANCH  12  17
ENDBRANCH   8  11
ENDBRANCH   4   7
ENDBRANCH   1   4
BRANCH   1  44
ATOM     44  C   UNL A   1      33.241  28.893  23.443  1.00  0.00    -0.052 C 
ATOM     45  H   UNL A   1      33.556  29.843  23.066  1.00  0.00     0.027 H 
ATOM     46  H   UNL A   1      33.422  28.091  22.758  1.00  0.00     0.027 H 
BRANCH  44  47
ATOM     47  C   UNL A   1      34.057  28.583  24.703  1.00  0.00    -0.052 C 
ATOM     48  H   UNL A   1      34.420  29.509  25.100  1.00  0.00     0.027 H 
ATOM     49  H   UNL A   1      34.837  27.918  24.397  1.00  0.00     0.027 H 
BRANCH  47  50
ATOM     50  C   UNL A   1      33.289  27.860  25.813  1.00  0.00    -0.036 C 
ATOM     51  H   UNL A   1      33.498  26.813  25.737  1.00  0.00     0.028 H 
ATOM     52  H   UNL A   1      32.254  28.091  25.667  1.00  0.00     0.028 H 
BRANCH  50  53
ATOM     53  C   UNL A   1      33.642  28.315  27.225  1.00  0.00     0.018 C 
ATOM     54  H   UNL A   1      34.646  28.017  27.445  1.00  0.00     0.049 H 
ATOM     55  H   UNL A   1      32.951  27.862  27.906  1.00  0.00     0.049 H 
BRANCH  53  56
ATOM     56  N   UNL A   1      33.536  29.760  27.365  1.00  0.00    -0.352 N 
ATOM     57  C   UNL A   1      34.393  30.639  27.979  1.00  0.00     0.251 C 
ATOM     58  H   UNL A   1      32.735  30.165  26.961  1.00  0.00     0.163 HD
ATOM     59  O   UNL A   1      34.037  31.788  28.219  1.00  0.00    -0.269 OA
BRANCH  57  60
ATOM     60  C   UNL A   1      35.752  30.198  28.358  1.00  0.00     0.039 A 
ATOM     61  C   UNL A   1      36.791  30.324  27.431  1.00  0.00    -0.049 A 
ATOM     62  C   UNL A   1      35.993  29.632  29.613  1.00  0.00    -0.049 A 
ATOM     63  C   UNL A   1      38.082  29.928  27.782  1.00  0.00    -0.053 A 
ATOM     64  H   UNL A   1      36.603  30.709  26.492  1.00  0.00     0.063 H 
ATOM     65  C   UNL A   1      37.292  29.299  29.985  1.00  0.00    -0.053 A 
ATOM     66  H   UNL A   1      35.209  29.461  30.263  1.00  0.00     0.063 H 
ATOM     67  C   UNL A   1      38.347  29.436  29.070  1.00  0.00    -0.014 A 
ATOM     68  H   UNL A   1      38.846  29.998  27.092  1.00  0.00     0.063 H 
ATOM     69  H   UNL A   1      37.480  28.950  30.938  1.00  0.00     0.063 H 
BRANCH  67  70
ATOM     70  C   UNL A   1      39.718  29.042  29.477  1.00  0.00     0.031 A 
ATOM     71  C   UNL A   1      40.523  29.940  30.374  1.00  0.00     0.074 A 
ATOM     72  C   UNL A   1      40.257  27.911  28.987  1.00  0.00     0.049 A 
ATOM     73  N   UNL A   1      41.762  29.811  30.780  1.00  0.00    -0.248 NA
ATOM     74  C   UNL A   1      39.858  31.160  30.857  1.00  0.00    -0.034 C 
ATOM     75  C   UNL A   1      39.589  26.981  28.076  1.00  0.00    -0.036 A 
ATOM     76  N   UNL A   1      41.496  27.353  29.182  1.00  0.00    -0.354 N 
ATOM     77  C   UNL A   1      42.026  30.938  31.545  1.00  0.00     0.074 A 
ATOM     78  C   UNL A   1      40.838  31.764  31.510  1.00  0.00    -0.034 C 
ATOM     79  H   UNL A   1      38.880  31.465  30.722  1.00  0.00     0.065 H 
ATOM     80  C   UNL A   1      40.415  25.956  27.811  1.00  0.00    -0.036 A 
ATOM     81  H   UNL A   1      38.636  27.095  27.697  1.00  0.00     0.065 H 
ATOM     82  C   UNL A   1      41.682  26.175  28.502  1.00  0.00     0.049 A 
ATOM     83  H   UNL A   1      42.186  27.760  29.756  1.00  0.00     0.167 HD
ATOM     84  C   UNL A   1      43.153  31.248  32.232  1.00  0.00     0.037 A 
ATOM     85  H   UNL A   1      40.765  32.701  31.938  1.00  0.00     0.065 H 
ATOM     86  H   UNL A   1      40.190  25.144  27.215  1.00  0.00     0.065 H 
ATOM     87  C   UNL A   1      42.758  25.367  28.440  1.00  0.00     0.037 A 
ATOM     88  C   UNL A   1      44.321  30.410  32.287  1.00  0.00     0.049 A 
ATOM     89  C   UNL A   1      43.993  25.729  29.219  1.00  0.00     0.074 A 
ATOM     90  C   UNL A   1      45.490  30.604  33.000  1.00  0.00    -0.036 A 
ATOM     91  N   UNL A   1      44.465  29.213  31.600  1.00  0.00    -0.354 N 
ATOM     92  N   UNL A   1      44.214  26.770  29.984  1.00  0.00    -0.248 NA
ATOM     93  C   UNL A   1      45.129  24.801  29.127  1.00  0.00    -0.034 C 
ATOM     94  C   UNL A   1      46.360  29.546  32.711  1.00  0.00    -0.036 A 
ATOM     95  H   UNL A   1      45.688  31.392  33.636  1.00  0.00     0.065 H 
ATOM     96  C   UNL A   1      45.713  28.667  31.857  1.00  0.00     0.049 A 
ATOM     97  H   UNL A   1      43.782  28.810  31.017  1.00  0.00     0.167 HD
ATOM     98  C   UNL A   1      45.498  26.611  30.485  1.00  0.00     0.074 A 
ATOM     99  C   UNL A   1      46.004  25.365  29.947  1.00  0.00    -0.034 C 
ATOM    100  H   UNL A   1      45.221  23.937  28.570  1.00  0.00     0.065 H 
ATOM    101  H   UNL A   1      47.320  29.439  33.072  1.00  0.00     0.065 H 
ATOM    102  C   UNL A   1      46.196  27.424  31.315  1.00  0.00     0.037 A 
ATOM    103  H   UNL A   1      46.929  24.967  30.175  1.00  0.00     0.065 H 
BRANCH  84 104
ATOM    104  C   UNL A   1      43.175  32.550  32.980  1.00  0.00     0.064 A 
ATOM    105  C   UNL A   1      43.611  33.739  32.377  1.00  0.00     0.173 A 
ATOM    106  C   UNL A   1      42.721  32.617  34.306  1.00  0.00     0.173 A 
ATOM    107  F   UNL A   1      44.066  33.728  31.115  1.00  0.00    -0.203 F 
ATOM    108  C   UNL A   1      43.620  34.940  33.082  1.00  0.00     0.198 A 
ATOM    109  C   UNL A   1      42.701  33.824  34.998  1.00  0.00     0.198 A 
ATOM    110  F   UNL A   1      42.287  31.510  34.929  1.00  0.00    -0.203 F 
ATOM    111  F   UNL A   1      44.087  36.053  32.500  1.00  0.00    -0.200 F 
ATOM    112  C   UNL A   1      43.158  34.984  34.388  1.00  0.00     0.200 A 
ATOM    113  F   UNL A   1      42.242  33.867  36.256  1.00  0.00    -0.200 F 
ATOM    114  F   UNL A   1      43.160  36.142  35.063  1.00  0.00    -0.200 F 
ENDBRANCH  84 104
BRANCH  87 115
ATOM    115  C   UNL A   1      42.706  24.126  27.626  1.00  0.00     0.064 A 
ATOM    116  C   UNL A   1      42.355  22.899  28.206  1.00  0.00     0.173 A 
ATOM    117  C   UNL A   1      43.005  24.139  26.257  1.00  0.00     0.173 A 
ATOM    118  F   UNL A   1      42.082  22.834  29.518  1.00  0.00    -0.203 F 
ATOM    119  C   UNL A   1      42.325  21.729  27.451  1.00  0.00     0.198 A 
ATOM    120  C   UNL A   1      42.948  22.973  25.496  1.00  0.00     0.198 A 
ATOM    121  F   UNL A   1      43.346  25.288  25.655  1.00  0.00    -0.203 F 
ATOM    122  F   UNL A   1      42.031  20.562  28.041  1.00  0.00    -0.200 F 
ATOM    123  C   UNL A   1      42.614  21.768  26.095  1.00  0.00     0.200 A 
ATOM    124  F   UNL A   1      43.217  23.019  24.185  1.00  0.00    -0.200 F 
ATOM    125  F   UNL A   1      42.583  20.643  25.369  1.00  0.00    -0.200 F 
ENDBRANCH  87 115
BRANCH 102 126
ATOM    126  C   UNL A   1      47.571  26.976  31.717  1.00  0.00     0.064 A 
ATOM    127  C   UNL A   1      48.717  27.415  31.037  1.00  0.00     0.173 A 
ATOM    128  C   UNL A   1      47.747  26.131  32.825  1.00  0.00     0.173 A 
ATOM    129  F   UNL A   1      48.599  28.210  29.963  1.00  0.00    -0.203 F 
ATOM    130  C   UNL A   1      49.986  27.005  31.435  1.00  0.00     0.198 A 
ATOM    131  C   UNL A   1      49.019  25.748  33.238  1.00  0.00     0.198 A 
ATOM    132  F   UNL A   1      46.685  25.689  33.513  1.00  0.00    -0.203 F 
ATOM    133  F   UNL A   1      51.063  27.399  30.741  1.00  0.00    -0.200 F 
ATOM    134  C   UNL A   1      50.137  26.179  32.538  1.00  0.00     0.200 A 
ATOM    135  F   UNL A   1      49.164  24.959  34.312  1.00  0.00    -0.200 F 
ATOM    136  F   UNL A   1      51.360  25.791  32.925  1.00  0.00    -0.200 F 
ENDBRANCH 102 126
ENDBRANCH  67  70
ENDBRANCH  57  60
ENDBRANCH  53  56
ENDBRANCH  50  53
ENDBRANCH  47  50
ENDBRANCH  44  47
ENDBRANCH   1  44
TORSDOF 19
ENDMDL
