MODEL 1
REMARK VINA RESULT:     -13.0      0.000      0.000
REMARK SMILES Cc1ccc(S(=O)(=O)n2cc(C(=O)C(=O)NCC(=O)N[C@H](Cc3c[nH]c4ccccc34)C(=O)NCCCCCCNC(=O)c3ccc(-c4c5nc(c(-c6c(F)c(F)c(F)c(F)c6F)c6ccc([nH]6)c(-c6c(F)c(F)c(F)c(F)c6F)c6nc(c(-c7c(F)c(F)c(F)c(F)c7F)c7ccc4[nH]7)C=C6)C=C5)cc3)c3ccccc32)cc1
REMARK SMILES IDX 32 1 33 2 34 3 21 5 20 7 18 8 19 9 17 11 16 14 14 15 15 16
REMARK SMILES IDX 12 18 13 19 11 20 9 21 10 22 112 23 107 25 111 26 108 27
REMARK SMILES IDX 110 28 109 30 6 34 7 35 8 36 5 37 2 38 3 39 114 40 4 41
REMARK SMILES IDX 113 43 1 47 22 51 23 54 24 55 31 56 25 57 26 59 30 60 27 62
REMARK SMILES IDX 29 63 28 65 35 69 36 72 37 75 38 78 39 81 40 84 41 87 42 88
REMARK SMILES IDX 43 90 44 91 45 92 106 93 46 94 105 96 47 98 48 101 49 102
REMARK SMILES IDX 99 103 50 104 104 105 98 106 100 107 51 108 103 109 97 111
REMARK SMILES IDX 96 113 52 115 84 118 64 119 83 120 65 121 68 122 82 123
REMARK SMILES IDX 101 124 66 125 67 127 81 129 102 130 69 133 53 135 54 136
REMARK SMILES IDX 62 137 55 138 56 139 60 140 63 141 57 142 58 143 61 144
REMARK SMILES IDX 59 145 85 146 86 147 94 148 87 149 88 150 92 151 95 152
REMARK SMILES IDX 89 153 90 154 93 155 91 156 70 157 71 158 79 159 72 160
REMARK SMILES IDX 73 161 77 162 80 163 74 164 75 165 78 166 76 167
REMARK H PARENT 34 4 21 6 20 10 17 12 17 13 16 17 10 24 111 29 108 31 110 32
REMARK H PARENT 109 33 3 42 114 44 4 45 113 46 1 48 1 49 1 50 22 52 22 53
REMARK H PARENT 24 58 25 61 30 64 27 66 29 67 28 68 35 70 35 71 36 73 36 74
REMARK H PARENT 37 76 37 77 38 79 38 80 39 82 39 83 40 85 40 86 41 89 45 95
REMARK H PARENT 106 97 46 99 105 100 104 110 98 112 100 114 103 116 97 117
REMARK H PARENT 65 126 68 128 101 131 66 132 102 134
REMARK Flexibility Score: inf
ROOT
ATOM      1  C   UNL A   1      33.494  26.759  24.796  1.00  0.00     0.242 C 
ATOM      2  O   UNL A   1      34.113  25.840  24.246  1.00  0.00    -0.273 OA
ATOM      3  N   UNL A   1      34.106  27.317  25.871  1.00  0.00    -0.354 N 
ATOM      4  H   UNL A   1      35.053  27.064  25.961  1.00  0.00     0.163 HD
ENDROOT
BRANCH   1   5
ATOM      5  C   UNL A   1      32.113  27.176  24.267  1.00  0.00     0.112 C 
ATOM      6  H   UNL A   1      31.518  27.399  25.128  1.00  0.00     0.064 H 
BRANCH   5   7
ATOM      7  N   UNL A   1      31.581  26.041  23.494  1.00  0.00    -0.342 N 
ATOM      8  C   UNL A   1      30.690  25.080  23.873  1.00  0.00     0.240 C 
ATOM      9  O   UNL A   1      30.519  24.145  23.084  1.00  0.00    -0.273 OA
ATOM     10  H   UNL A   1      31.917  25.965  22.571  1.00  0.00     0.164 HD
BRANCH   8  11
ATOM     11  C   UNL A   1      29.788  25.243  25.115  1.00  0.00     0.097 C 
ATOM     12  H   UNL A   1      30.215  26.016  25.719  1.00  0.00     0.059 H 
ATOM     13  H   UNL A   1      28.816  25.445  24.713  1.00  0.00     0.059 H 
BRANCH  11  14
ATOM     14  N   UNL A   1      29.585  24.083  25.980  1.00  0.00    -0.340 N 
ATOM     15  C   UNL A   1      30.471  23.502  26.876  1.00  0.00     0.292 C 
ATOM     16  O   UNL A   1      30.146  22.578  27.611  1.00  0.00    -0.265 OA
ATOM     17  H   UNL A   1      28.701  23.655  25.919  1.00  0.00     0.164 HD
BRANCH  15  18
ATOM     18  C   UNL A   1      31.889  24.057  26.973  1.00  0.00     0.252 C 
ATOM     19  O   UNL A   1      31.978  25.268  27.172  1.00  0.00    -0.283 OA
BRANCH  18  20
ATOM     20  C   UNL A   1      33.062  23.232  26.652  1.00  0.00     0.054 A 
ATOM     21  N   UNL A   1      35.111  22.286  26.463  1.00  0.00    -0.240 N 
ATOM     22  C   UNL A   1      34.400  23.332  27.054  1.00  0.00     0.033 A 
ATOM     23  C   UNL A   1      34.168  21.408  25.896  1.00  0.00     0.065 A 
ATOM     24  H   UNL A   1      34.792  24.054  27.679  1.00  0.00     0.084 H 
ATOM     25  C   UNL A   1      33.012  22.160  25.712  1.00  0.00     0.012 A 
ATOM     26  C   UNL A   1      34.338  20.157  25.268  1.00  0.00    -0.037 A 
ATOM     27  C   UNL A   1      32.081  21.743  24.737  1.00  0.00    -0.052 A 
ATOM     28  C   UNL A   1      33.450  19.811  24.251  1.00  0.00    -0.060 A 
ATOM     29  H   UNL A   1      35.095  19.518  25.553  1.00  0.00     0.065 H 
ATOM     30  C   UNL A   1      32.355  20.614  23.961  1.00  0.00    -0.061 A 
ATOM     31  H   UNL A   1      31.204  22.268  24.598  1.00  0.00     0.063 H 
ATOM     32  H   UNL A   1      33.608  18.949  23.708  1.00  0.00     0.062 H 
ATOM     33  H   UNL A   1      31.740  20.375  23.167  1.00  0.00     0.062 H 
BRANCH  21  34
ATOM     34  S   UNL A   1      36.512  22.446  25.428  1.00  0.00     0.268 S 
ATOM     35  O   UNL A   1      36.717  23.885  25.384  1.00  0.00    -0.201 OA
ATOM     36  O   UNL A   1      36.099  21.708  24.240  1.00  0.00    -0.201 OA
BRANCH  34  37
ATOM     37  C   UNL A   1      38.109  21.770  25.698  1.00  0.00     0.088 A 
ATOM     38  C   UNL A   1      40.347  20.091  26.061  1.00  0.00    -0.051 A 
ATOM     39  C   UNL A   1      39.239  19.611  25.378  1.00  0.00    -0.058 A 
ATOM     40  C   UNL A   1      40.333  21.421  26.540  1.00  0.00    -0.058 A 
ATOM     41  C   UNL A   1      38.152  20.444  25.193  1.00  0.00    -0.041 A 
ATOM     42  H   UNL A   1      39.226  18.646  25.014  1.00  0.00     0.063 H 
ATOM     43  C   UNL A   1      39.209  22.273  26.367  1.00  0.00    -0.041 A 
ATOM     44  H   UNL A   1      41.165  21.784  27.030  1.00  0.00     0.063 H 
ATOM     45  H   UNL A   1      37.339  20.088  24.666  1.00  0.00     0.064 H 
ATOM     46  H   UNL A   1      39.215  23.239  26.731  1.00  0.00     0.064 H 
BRANCH  38  47
ATOM     47  C   UNL A   1      41.476  19.127  26.298  1.00  0.00    -0.040 C 
ATOM     48  H   UNL A   1      42.315  19.653  26.704  1.00  0.00     0.028 H 
ATOM     49  H   UNL A   1      41.755  18.670  25.371  1.00  0.00     0.028 H 
ATOM     50  H   UNL A   1      41.161  18.372  26.987  1.00  0.00     0.028 H 
ENDBRANCH  38  47
ENDBRANCH  34  37
ENDBRANCH  21  34
ENDBRANCH  18  20
ENDBRANCH  15  18
ENDBRANCH  11  14
ENDBRANCH   8  11
ENDBRANCH   5   7
BRANCH   5  51
ATOM     51  C   UNL A   1      32.003  28.515  23.500  1.00  0.00     0.004 C 
ATOM     52  H   UNL A   1      31.690  28.269  22.507  1.00  0.00     0.034 H 
ATOM     53  H   UNL A   1      32.974  28.941  23.645  1.00  0.00     0.034 H 
BRANCH  51  54
ATOM     54  C   UNL A   1      31.091  29.626  23.970  1.00  0.00    -0.020 A 
ATOM     55  C   UNL A   1      31.179  30.440  25.082  1.00  0.00     0.005 A 
ATOM     56  C   UNL A   1      29.898  30.064  23.280  1.00  0.00     0.003 A 
ATOM     57  N   UNL A   1      30.278  31.462  24.963  1.00  0.00    -0.361 N 
ATOM     58  H   UNL A   1      31.822  30.298  25.877  1.00  0.00     0.082 H 
ATOM     59  C   UNL A   1      29.473  31.252  23.877  1.00  0.00     0.046 A 
ATOM     60  C   UNL A   1      29.149  29.577  22.187  1.00  0.00    -0.053 A 
ATOM     61  H   UNL A   1      30.219  32.235  25.569  1.00  0.00     0.166 HD
ATOM     62  C   UNL A   1      28.402  32.016  23.405  1.00  0.00    -0.038 A 
ATOM     63  C   UNL A   1      28.027  30.294  21.742  1.00  0.00    -0.062 A 
ATOM     64  H   UNL A   1      29.424  28.699  21.718  1.00  0.00     0.063 H 
ATOM     65  C   UNL A   1      27.677  31.508  22.328  1.00  0.00    -0.060 A 
ATOM     66  H   UNL A   1      28.158  32.921  23.835  1.00  0.00     0.064 H 
ATOM     67  H   UNL A   1      27.455  29.918  20.971  1.00  0.00     0.062 H 
ATOM     68  H   UNL A   1      26.870  32.038  21.961  1.00  0.00     0.062 H 
ENDBRANCH  51  54
ENDBRANCH   5  51
ENDBRANCH   1   5
BRANCH   3  69
ATOM     69  C   UNL A   1      33.644  28.214  26.910  1.00  0.00     0.017 C 
ATOM     70  H   UNL A   1      33.400  27.639  27.779  1.00  0.00     0.049 H 
ATOM     71  H   UNL A   1      32.789  28.738  26.538  1.00  0.00     0.049 H 
BRANCH  69  72
ATOM     72  C   UNL A   1      34.703  29.250  27.288  1.00  0.00    -0.036 C 
ATOM     73  H   UNL A   1      35.376  29.353  26.463  1.00  0.00     0.028 H 
ATOM     74  H   UNL A   1      35.173  28.887  28.178  1.00  0.00     0.028 H 
BRANCH  72  75
ATOM     75  C   UNL A   1      34.154  30.644  27.632  1.00  0.00    -0.052 C 
ATOM     76  H   UNL A   1      33.725  30.594  28.610  1.00  0.00     0.027 H 
ATOM     77  H   UNL A   1      33.453  30.878  26.859  1.00  0.00     0.027 H 
BRANCH  75  78
ATOM     78  C   UNL A   1      35.176  31.789  27.625  1.00  0.00    -0.052 C 
ATOM     79  H   UNL A   1      35.325  32.091  26.610  1.00  0.00     0.027 H 
ATOM     80  H   UNL A   1      36.056  31.398  28.093  1.00  0.00     0.027 H 
BRANCH  78  81
ATOM     81  C   UNL A   1      34.787  33.026  28.433  1.00  0.00    -0.036 C 
ATOM     82  H   UNL A   1      33.897  32.799  28.984  1.00  0.00     0.028 H 
ATOM     83  H   UNL A   1      34.648  33.821  27.731  1.00  0.00     0.028 H 
BRANCH  81  84
ATOM     84  C   UNL A   1      35.853  33.489  29.417  1.00  0.00     0.018 C 
ATOM     85  H   UNL A   1      35.796  34.554  29.499  1.00  0.00     0.049 H 
ATOM     86  H   UNL A   1      36.796  33.159  29.033  1.00  0.00     0.049 H 
BRANCH  84  87
ATOM     87  N   UNL A   1      35.712  32.919  30.742  1.00  0.00    -0.352 N 
ATOM     88  C   UNL A   1      36.083  31.675  31.228  1.00  0.00     0.251 C 
ATOM     89  H   UNL A   1      35.284  33.510  31.403  1.00  0.00     0.163 HD
ATOM     90  O   UNL A   1      35.659  31.308  32.302  1.00  0.00    -0.269 OA
BRANCH  88  91
ATOM     91  C   UNL A   1      37.132  30.876  30.531  1.00  0.00     0.039 A 
ATOM     92  C   UNL A   1      37.208  29.514  30.869  1.00  0.00    -0.049 A 
ATOM     93  C   UNL A   1      38.137  31.449  29.760  1.00  0.00    -0.049 A 
ATOM     94  C   UNL A   1      38.393  28.813  30.657  1.00  0.00    -0.053 A 
ATOM     95  H   UNL A   1      36.388  29.034  31.272  1.00  0.00     0.063 H 
ATOM     96  C   UNL A   1      39.341  30.790  29.628  1.00  0.00    -0.053 A 
ATOM     97  H   UNL A   1      37.983  32.356  29.292  1.00  0.00     0.063 H 
ATOM     98  C   UNL A   1      39.487  29.500  30.142  1.00  0.00    -0.014 A 
ATOM     99  H   UNL A   1      38.457  27.807  30.878  1.00  0.00     0.063 H 
ATOM    100  H   UNL A   1      40.132  31.250  29.149  1.00  0.00     0.063 H 
BRANCH  98 101
ATOM    101  C   UNL A   1      40.850  29.005  30.199  1.00  0.00     0.031 A 
ATOM    102  C   UNL A   1      41.237  27.800  29.446  1.00  0.00     0.074 A 
ATOM    103  C   UNL A   1      41.778  29.743  30.848  1.00  0.00     0.049 A 
ATOM    104  N   UNL A   1      42.263  27.074  29.735  1.00  0.00    -0.248 NA
ATOM    105  C   UNL A   1      40.473  27.293  28.310  1.00  0.00    -0.034 C 
ATOM    106  C   UNL A   1      43.229  29.610  30.778  1.00  0.00    -0.036 A 
ATOM    107  N   UNL A   1      41.562  30.686  31.867  1.00  0.00    -0.354 N 
ATOM    108  C   UNL A   1      42.446  26.184  28.705  1.00  0.00     0.074 A 
ATOM    109  C   UNL A   1      41.277  26.320  27.867  1.00  0.00    -0.034 C 
ATOM    110  H   UNL A   1      39.558  27.603  27.946  1.00  0.00     0.065 H 
ATOM    111  C   UNL A   1      43.770  30.189  31.862  1.00  0.00    -0.036 A 
ATOM    112  H   UNL A   1      43.754  29.147  30.020  1.00  0.00     0.065 H 
ATOM    113  C   UNL A   1      42.673  30.575  32.733  1.00  0.00     0.049 A 
ATOM    114  H   UNL A   1      40.795  31.297  31.959  1.00  0.00     0.167 HD
ATOM    115  C   UNL A   1      43.627  25.515  28.603  1.00  0.00     0.037 A 
ATOM    116  H   UNL A   1      41.087  25.741  27.034  1.00  0.00     0.065 H 
ATOM    117  H   UNL A   1      44.775  30.334  32.043  1.00  0.00     0.065 H 
ATOM    118  C   UNL A   1      42.522  30.155  34.023  1.00  0.00     0.037 A 
ATOM    119  C   UNL A   1      44.527  25.854  29.697  1.00  0.00     0.049 A 
ATOM    120  C   UNL A   1      43.284  28.890  34.341  1.00  0.00     0.074 A 
ATOM    121  C   UNL A   1      45.537  26.794  29.812  1.00  0.00    -0.036 A 
ATOM    122  N   UNL A   1      44.212  25.451  30.990  1.00  0.00    -0.354 N 
ATOM    123  N   UNL A   1      43.683  28.039  33.438  1.00  0.00    -0.248 NA
ATOM    124  C   UNL A   1      43.634  28.474  35.697  1.00  0.00    -0.034 C 
ATOM    125  C   UNL A   1      45.790  27.001  31.190  1.00  0.00    -0.036 A 
ATOM    126  H   UNL A   1      46.022  27.262  29.030  1.00  0.00     0.065 H 
ATOM    127  C   UNL A   1      44.953  26.167  31.910  1.00  0.00     0.049 A 
ATOM    128  H   UNL A   1      43.555  24.755  31.216  1.00  0.00     0.167 HD
ATOM    129  C   UNL A   1      44.312  26.986  34.049  1.00  0.00     0.074 A 
ATOM    130  C   UNL A   1      44.268  27.310  35.462  1.00  0.00    -0.034 C 
ATOM    131  H   UNL A   1      43.446  28.946  36.595  1.00  0.00     0.065 H 
ATOM    132  H   UNL A   1      46.479  27.659  31.587  1.00  0.00     0.065 H 
ATOM    133  C   UNL A   1      44.808  25.933  33.336  1.00  0.00     0.037 A 
ATOM    134  H   UNL A   1      44.674  26.717  36.201  1.00  0.00     0.065 H 
BRANCH 115 135
ATOM    135  C   UNL A   1      44.042  24.785  27.357  1.00  0.00     0.064 A 
ATOM    136  C   UNL A   1      43.614  23.463  27.111  1.00  0.00     0.173 A 
ATOM    137  C   UNL A   1      44.900  25.331  26.387  1.00  0.00     0.173 A 
ATOM    138  F   UNL A   1      42.754  22.842  27.928  1.00  0.00    -0.203 F 
ATOM    139  C   UNL A   1      44.077  22.720  26.024  1.00  0.00     0.198 A 
ATOM    140  C   UNL A   1      45.403  24.571  25.327  1.00  0.00     0.198 A 
ATOM    141  F   UNL A   1      45.257  26.623  26.436  1.00  0.00    -0.203 F 
ATOM    142  F   UNL A   1      43.643  21.465  25.843  1.00  0.00    -0.200 F 
ATOM    143  C   UNL A   1      44.996  23.262  25.149  1.00  0.00     0.200 A 
ATOM    144  F   UNL A   1      46.293  25.112  24.483  1.00  0.00    -0.200 F 
ATOM    145  F   UNL A   1      45.478  22.532  24.135  1.00  0.00    -0.200 F 
ENDBRANCH 115 135
BRANCH 118 146
ATOM    146  C   UNL A   1      41.204  30.532  34.603  1.00  0.00     0.064 A 
ATOM    147  C   UNL A   1      41.063  31.831  35.131  1.00  0.00     0.173 A 
ATOM    148  C   UNL A   1      40.035  29.833  34.283  1.00  0.00     0.173 A 
ATOM    149  F   UNL A   1      42.154  32.545  35.452  1.00  0.00    -0.203 F 
ATOM    150  C   UNL A   1      39.817  32.449  35.210  1.00  0.00     0.198 A 
ATOM    151  C   UNL A   1      38.785  30.452  34.377  1.00  0.00     0.198 A 
ATOM    152  F   UNL A   1      40.103  28.599  33.764  1.00  0.00    -0.203 F 
ATOM    153  F   UNL A   1      39.732  33.730  35.597  1.00  0.00    -0.200 F 
ATOM    154  C   UNL A   1      38.683  31.769  34.803  1.00  0.00     0.200 A 
ATOM    155  F   UNL A   1      37.688  29.802  33.964  1.00  0.00    -0.200 F 
ATOM    156  F   UNL A   1      37.497  32.393  34.785  1.00  0.00    -0.200 F 
ENDBRANCH 118 146
BRANCH 133 157
ATOM    157  C   UNL A   1      45.294  24.623  33.905  1.00  0.00     0.064 A 
ATOM    158  C   UNL A   1      44.472  23.502  34.099  1.00  0.00     0.173 A 
ATOM    159  C   UNL A   1      46.678  24.411  34.126  1.00  0.00     0.173 A 
ATOM    160  F   UNL A   1      43.164  23.541  33.813  1.00  0.00    -0.203 F 
ATOM    161  C   UNL A   1      44.985  22.278  34.536  1.00  0.00     0.198 A 
ATOM    162  C   UNL A   1      47.193  23.172  34.505  1.00  0.00     0.198 A 
ATOM    163  F   UNL A   1      47.576  25.392  33.953  1.00  0.00    -0.203 F 
ATOM    164  F   UNL A   1      44.152  21.248  34.744  1.00  0.00    -0.200 F 
ATOM    165  C   UNL A   1      46.343  22.109  34.725  1.00  0.00     0.200 A 
ATOM    166  F   UNL A   1      48.518  23.012  34.630  1.00  0.00    -0.200 F 
ATOM    167  F   UNL A   1      46.835  20.920  35.097  1.00  0.00    -0.200 F 
ENDBRANCH 133 157
ENDBRANCH  98 101
ENDBRANCH  88  91
ENDBRANCH  84  87
ENDBRANCH  81  84
ENDBRANCH  78  81
ENDBRANCH  75  78
ENDBRANCH  72  75
ENDBRANCH  69  72
ENDBRANCH   3  69
TORSDOF 23
ENDMDL
MODEL 2
REMARK VINA RESULT:     -12.4      1.595      3.192
REMARK SMILES Cc1ccc(S(=O)(=O)n2cc(C(=O)C(=O)NCC(=O)N[C@H](Cc3c[nH]c4ccccc34)C(=O)NCCCCCCNC(=O)c3ccc(-c4c5nc(c(-c6c(F)c(F)c(F)c(F)c6F)c6ccc([nH]6)c(-c6c(F)c(F)c(F)c(F)c6F)c6nc(c(-c7c(F)c(F)c(F)c(F)c7F)c7ccc4[nH]7)C=C6)C=C5)cc3)c3ccccc32)cc1
REMARK SMILES IDX 32 1 33 2 34 3 21 5 20 7 18 8 19 9 17 11 16 14 14 15 15 16
REMARK SMILES IDX 12 18 13 19 11 20 9 21 10 22 112 23 107 25 111 26 108 27
REMARK SMILES IDX 110 28 109 30 6 34 7 35 8 36 5 37 2 38 3 39 114 40 4 41
REMARK SMILES IDX 113 43 1 47 22 51 23 54 24 55 31 56 25 57 26 59 30 60 27 62
REMARK SMILES IDX 29 63 28 65 35 69 36 72 37 75 38 78 39 81 40 84 41 87 42 88
REMARK SMILES IDX 43 90 44 91 45 92 106 93 46 94 105 96 47 98 48 101 49 102
REMARK SMILES IDX 99 103 50 104 104 105 98 106 100 107 51 108 103 109 97 111
REMARK SMILES IDX 96 113 52 115 84 118 64 119 83 120 65 121 68 122 82 123
REMARK SMILES IDX 101 124 66 125 67 127 81 129 102 130 69 133 53 135 54 136
REMARK SMILES IDX 62 137 55 138 56 139 60 140 63 141 57 142 58 143 61 144
REMARK SMILES IDX 59 145 85 146 86 147 94 148 87 149 88 150 92 151 95 152
REMARK SMILES IDX 89 153 90 154 93 155 91 156 70 157 71 158 79 159 72 160
REMARK SMILES IDX 73 161 77 162 80 163 74 164 75 165 78 166 76 167
REMARK H PARENT 34 4 21 6 20 10 17 12 17 13 16 17 10 24 111 29 108 31 110 32
REMARK H PARENT 109 33 3 42 114 44 4 45 113 46 1 48 1 49 1 50 22 52 22 53
REMARK H PARENT 24 58 25 61 30 64 27 66 29 67 28 68 35 70 35 71 36 73 36 74
REMARK H PARENT 37 76 37 77 38 79 38 80 39 82 39 83 40 85 40 86 41 89 45 95
REMARK H PARENT 106 97 46 99 105 100 104 110 98 112 100 114 103 116 97 117
REMARK H PARENT 65 126 68 128 101 131 66 132 102 134
REMARK Flexibility Score: inf
ROOT
ATOM      1  C   UNL A   1      33.996  28.656  24.791  1.00  0.00     0.242 C 
ATOM      2  O   UNL A   1      34.613  28.669  23.720  1.00  0.00    -0.273 OA
ATOM      3  N   UNL A   1      34.584  29.325  25.815  1.00  0.00    -0.354 N 
ATOM      4  H   UNL A   1      35.325  29.907  25.531  1.00  0.00     0.163 HD
ENDROOT
BRANCH   1   5
ATOM      5  C   UNL A   1      32.668  27.890  24.901  1.00  0.00     0.112 C 
ATOM      6  H   UNL A   1      32.777  27.016  24.293  1.00  0.00     0.064 H 
BRANCH   5   7
ATOM      7  N   UNL A   1      31.606  28.786  24.413  1.00  0.00    -0.342 N 
ATOM      8  C   UNL A   1      30.979  28.802  23.202  1.00  0.00     0.240 C 
ATOM      9  O   UNL A   1      30.223  29.754  22.985  1.00  0.00    -0.273 OA
ATOM     10  H   UNL A   1      31.305  29.471  25.054  1.00  0.00     0.164 HD
BRANCH   8  11
ATOM     11  C   UNL A   1      31.041  27.603  22.230  1.00  0.00     0.097 C 
ATOM     12  H   UNL A   1      30.634  27.930  21.296  1.00  0.00     0.059 H 
ATOM     13  H   UNL A   1      32.074  27.324  22.219  1.00  0.00     0.059 H 
BRANCH  11  14
ATOM     14  N   UNL A   1      30.340  26.376  22.600  1.00  0.00    -0.340 N 
ATOM     15  C   UNL A   1      30.850  25.094  22.742  1.00  0.00     0.292 C 
ATOM     16  O   UNL A   1      30.168  24.160  23.145  1.00  0.00    -0.265 OA
ATOM     17  H   UNL A   1      29.375  26.472  22.771  1.00  0.00     0.164 HD
BRANCH  15  18
ATOM     18  C   UNL A   1      32.320  24.847  22.418  1.00  0.00     0.252 C 
ATOM     19  O   UNL A   1      32.731  25.350  21.373  1.00  0.00    -0.283 OA
BRANCH  18  20
ATOM     20  C   UNL A   1      33.132  23.905  23.202  1.00  0.00     0.054 A 
ATOM     21  N   UNL A   1      34.643  22.873  24.537  1.00  0.00    -0.240 N 
ATOM     22  C   UNL A   1      34.255  24.109  24.014  1.00  0.00     0.033 A 
ATOM     23  C   UNL A   1      33.619  21.954  24.240  1.00  0.00     0.065 A 
ATOM     24  H   UNL A   1      34.715  25.015  24.196  1.00  0.00     0.084 H 
ATOM     25  C   UNL A   1      32.925  22.495  23.162  1.00  0.00     0.012 A 
ATOM     26  C   UNL A   1      33.459  20.605  24.614  1.00  0.00    -0.037 A 
ATOM     27  C   UNL A   1      32.192  21.627  22.324  1.00  0.00    -0.052 A 
ATOM     28  C   UNL A   1      32.802  19.754  23.725  1.00  0.00    -0.060 A 
ATOM     29  H   UNL A   1      33.816  20.257  25.516  1.00  0.00     0.065 H 
ATOM     30  C   UNL A   1      32.209  20.252  22.574  1.00  0.00    -0.061 A 
ATOM     31  H   UNL A   1      31.648  22.005  21.533  1.00  0.00     0.063 H 
ATOM     32  H   UNL A   1      32.756  18.744  23.926  1.00  0.00     0.062 H 
ATOM     33  H   UNL A   1      31.777  19.603  21.897  1.00  0.00     0.062 H 
BRANCH  21  34
ATOM     34  S   UNL A   1      36.216  22.129  24.364  1.00  0.00     0.268 S 
ATOM     35  O   UNL A   1      36.659  22.609  23.064  1.00  0.00    -0.201 OA
ATOM     36  O   UNL A   1      35.912  20.720  24.581  1.00  0.00    -0.201 OA
BRANCH  34  37
ATOM     37  C   UNL A   1      37.604  22.332  25.418  1.00  0.00     0.088 A 
ATOM     38  C   UNL A   1      39.738  23.320  26.979  1.00  0.00    -0.051 A 
ATOM     39  C   UNL A   1      38.671  24.153  26.678  1.00  0.00    -0.058 A 
ATOM     40  C   UNL A   1      39.717  21.986  26.511  1.00  0.00    -0.058 A 
ATOM     41  C   UNL A   1      37.624  23.658  25.924  1.00  0.00    -0.041 A 
ATOM     42  H   UNL A   1      38.659  25.129  27.011  1.00  0.00     0.063 H 
ATOM     43  C   UNL A   1      38.650  21.479  25.721  1.00  0.00    -0.041 A 
ATOM     44  H   UNL A   1      40.501  21.360  26.752  1.00  0.00     0.063 H 
ATOM     45  H   UNL A   1      36.823  24.277  25.721  1.00  0.00     0.064 H 
ATOM     46  H   UNL A   1      38.657  20.504  25.382  1.00  0.00     0.064 H 
BRANCH  38  47
ATOM     47  C   UNL A   1      40.884  23.923  27.741  1.00  0.00    -0.040 C 
ATOM     48  H   UNL A   1      41.516  23.142  28.111  1.00  0.00     0.028 H 
ATOM     49  H   UNL A   1      40.504  24.494  28.563  1.00  0.00     0.028 H 
ATOM     50  H   UNL A   1      41.447  24.561  27.094  1.00  0.00     0.028 H 
ENDBRANCH  38  47
ENDBRANCH  34  37
ENDBRANCH  21  34
ENDBRANCH  18  20
ENDBRANCH  15  18
ENDBRANCH  11  14
ENDBRANCH   8  11
ENDBRANCH   5   7
BRANCH   5  51
ATOM     51  C   UNL A   1      32.314  27.240  26.260  1.00  0.00     0.004 C 
ATOM     52  H   UNL A   1      31.942  28.027  26.883  1.00  0.00     0.034 H 
ATOM     53  H   UNL A   1      33.232  26.760  26.529  1.00  0.00     0.034 H 
BRANCH  51  54
ATOM     54  C   UNL A   1      31.317  26.109  26.363  1.00  0.00    -0.020 A 
ATOM     55  C   UNL A   1      29.958  26.094  26.116  1.00  0.00     0.005 A 
ATOM     56  C   UNL A   1      31.640  24.753  26.750  1.00  0.00     0.003 A 
ATOM     57  N   UNL A   1      29.520  24.799  26.094  1.00  0.00    -0.361 N 
ATOM     58  H   UNL A   1      29.368  26.928  25.972  1.00  0.00     0.082 H 
ATOM     59  C   UNL A   1      30.523  23.959  26.490  1.00  0.00     0.046 A 
ATOM     60  C   UNL A   1      32.786  24.119  27.277  1.00  0.00    -0.053 A 
ATOM     61  H   UNL A   1      28.615  24.514  25.831  1.00  0.00     0.166 HD
ATOM     62  C   UNL A   1      30.507  22.570  26.649  1.00  0.00    -0.038 A 
ATOM     63  C   UNL A   1      32.766  22.736  27.510  1.00  0.00    -0.062 A 
ATOM     64  H   UNL A   1      33.634  24.669  27.489  1.00  0.00     0.063 H 
ATOM     65  C   UNL A   1      31.651  21.971  27.176  1.00  0.00    -0.060 A 
ATOM     66  H   UNL A   1      29.682  22.009  26.386  1.00  0.00     0.064 H 
ATOM     67  H   UNL A   1      33.588  22.279  27.933  1.00  0.00     0.062 H 
ATOM     68  H   UNL A   1      31.671  20.949  27.321  1.00  0.00     0.062 H 
ENDBRANCH  51  54
ENDBRANCH   5  51
ENDBRANCH   1   5
BRANCH   3  69
ATOM     69  C   UNL A   1      34.337  29.355  27.242  1.00  0.00     0.017 C 
ATOM     70  H   UNL A   1      33.979  28.394  27.551  1.00  0.00     0.049 H 
ATOM     71  H   UNL A   1      33.614  30.119  27.436  1.00  0.00     0.049 H 
BRANCH  69  72
ATOM     72  C   UNL A   1      35.599  29.688  28.036  1.00  0.00    -0.036 C 
ATOM     73  H   UNL A   1      36.408  29.117  27.630  1.00  0.00     0.028 H 
ATOM     74  H   UNL A   1      35.382  29.451  29.057  1.00  0.00     0.028 H 
BRANCH  72  75
ATOM     75  C   UNL A   1      36.006  31.170  28.019  1.00  0.00    -0.052 C 
ATOM     76  H   UNL A   1      36.554  31.348  27.117  1.00  0.00     0.027 H 
ATOM     77  H   UNL A   1      36.573  31.325  28.912  1.00  0.00     0.027 H 
BRANCH  75  78
ATOM     78  C   UNL A   1      34.855  32.183  28.078  1.00  0.00    -0.052 C 
ATOM     79  H   UNL A   1      33.937  31.645  27.972  1.00  0.00     0.027 H 
ATOM     80  H   UNL A   1      35.039  32.881  27.287  1.00  0.00     0.027 H 
BRANCH  78  81
ATOM     81  C   UNL A   1      34.771  33.013  29.358  1.00  0.00    -0.036 C 
ATOM     82  H   UNL A   1      33.773  33.389  29.448  1.00  0.00     0.028 H 
ATOM     83  H   UNL A   1      35.500  33.790  29.270  1.00  0.00     0.028 H 
BRANCH  81  84
ATOM     84  C   UNL A   1      35.106  32.238  30.626  1.00  0.00     0.018 C 
ATOM     85  H   UNL A   1      35.645  31.357  30.350  1.00  0.00     0.049 H 
ATOM     86  H   UNL A   1      34.178  32.016  31.111  1.00  0.00     0.049 H 
BRANCH  84  87
ATOM     87  N   UNL A   1      35.909  32.988  31.572  1.00  0.00    -0.352 N 
ATOM     88  C   UNL A   1      37.136  32.691  32.143  1.00  0.00     0.251 C 
ATOM     89  H   UNL A   1      35.518  33.846  31.857  1.00  0.00     0.163 HD
ATOM     90  O   UNL A   1      37.521  33.338  33.092  1.00  0.00    -0.269 OA
BRANCH  88  91
ATOM     91  C   UNL A   1      38.055  31.715  31.488  1.00  0.00     0.039 A 
ATOM     92  C   UNL A   1      38.066  30.414  32.017  1.00  0.00    -0.049 A 
ATOM     93  C   UNL A   1      39.019  32.086  30.557  1.00  0.00    -0.049 A 
ATOM     94  C   UNL A   1      39.172  29.593  31.814  1.00  0.00    -0.053 A 
ATOM     95  H   UNL A   1      37.256  30.067  32.555  1.00  0.00     0.063 H 
ATOM     96  C   UNL A   1      40.156  31.317  30.425  1.00  0.00    -0.053 A 
ATOM     97  H   UNL A   1      38.886  32.927  29.974  1.00  0.00     0.063 H 
ATOM     98  C   UNL A   1      40.258  30.105  31.112  1.00  0.00    -0.014 A 
ATOM     99  H   UNL A   1      39.186  28.626  32.176  1.00  0.00     0.063 H 
ATOM    100  H   UNL A   1      40.928  31.635  29.818  1.00  0.00     0.063 H 
BRANCH  98 101
ATOM    101  C   UNL A   1      41.582  29.510  31.127  1.00  0.00     0.031 A 
ATOM    102  C   UNL A   1      41.893  28.362  30.259  1.00  0.00     0.074 A 
ATOM    103  C   UNL A   1      42.551  30.111  31.853  1.00  0.00     0.049 A 
ATOM    104  N   UNL A   1      42.861  27.539  30.480  1.00  0.00    -0.248 NA
ATOM    105  C   UNL A   1      41.110  28.028  29.072  1.00  0.00    -0.034 C 
ATOM    106  C   UNL A   1      43.990  29.882  31.780  1.00  0.00    -0.036 A 
ATOM    107  N   UNL A   1      42.388  30.960  32.961  1.00  0.00    -0.354 N 
ATOM    108  C   UNL A   1      42.994  26.746  29.367  1.00  0.00     0.074 A 
ATOM    109  C   UNL A   1      41.850  27.049  28.538  1.00  0.00    -0.034 C 
ATOM    110  H   UNL A   1      40.225  28.437  28.736  1.00  0.00     0.065 H 
ATOM    111  C   UNL A   1      44.555  30.309  32.921  1.00  0.00    -0.036 A 
ATOM    112  H   UNL A   1      44.491  29.461  30.982  1.00  0.00     0.065 H 
ATOM    113  C   UNL A   1      43.476  30.683  33.818  1.00  0.00     0.049 A 
ATOM    114  H   UNL A   1      41.665  31.612  33.109  1.00  0.00     0.167 HD
ATOM    115  C   UNL A   1      44.127  26.008  29.205  1.00  0.00     0.037 A 
ATOM    116  H   UNL A   1      41.631  26.571  27.650  1.00  0.00     0.065 H 
ATOM    117  H   UNL A   1      45.565  30.363  33.121  1.00  0.00     0.065 H 
ATOM    118  C   UNL A   1      43.278  30.148  35.058  1.00  0.00     0.037 A 
ATOM    119  C   UNL A   1      45.033  26.170  30.333  1.00  0.00     0.049 A 
ATOM    120  C   UNL A   1      43.944  28.806  35.252  1.00  0.00     0.074 A 
ATOM    121  C   UNL A   1      46.106  27.019  30.549  1.00  0.00    -0.036 A 
ATOM    122  N   UNL A   1      44.673  25.663  31.577  1.00  0.00    -0.354 N 
ATOM    123  N   UNL A   1      44.295  28.024  34.270  1.00  0.00    -0.248 NA
ATOM    124  C   UNL A   1      44.246  28.232  36.561  1.00  0.00    -0.034 C 
ATOM    125  C   UNL A   1      46.354  27.068  31.942  1.00  0.00    -0.036 A 
ATOM    126  H   UNL A   1      46.634  27.526  29.822  1.00  0.00     0.065 H 
ATOM    127  C   UNL A   1      45.450  26.228  32.569  1.00  0.00     0.049 A 
ATOM    128  H   UNL A   1      43.965  24.996  31.728  1.00  0.00     0.167 HD
ATOM    129  C   UNL A   1      44.839  26.872  34.776  1.00  0.00     0.074 A 
ATOM    130  C   UNL A   1      44.798  27.055  36.214  1.00  0.00    -0.034 C 
ATOM    131  H   UNL A   1      44.079  28.624  37.501  1.00  0.00     0.065 H 
ATOM    132  H   UNL A   1      47.082  27.632  32.409  1.00  0.00     0.065 H 
ATOM    133  C   UNL A   1      45.269  25.863  33.963  1.00  0.00     0.037 A 
ATOM    134  H   UNL A   1      45.152  26.363  36.892  1.00  0.00     0.065 H 
BRANCH 115 135
ATOM    135  C   UNL A   1      44.506  25.378  27.894  1.00  0.00     0.064 A 
ATOM    136  C   UNL A   1      45.000  26.159  26.827  1.00  0.00     0.173 A 
ATOM    137  C   UNL A   1      44.361  24.007  27.622  1.00  0.00     0.173 A 
ATOM    138  F   UNL A   1      45.235  27.469  26.969  1.00  0.00    -0.203 F 
ATOM    139  C   UNL A   1      45.248  25.621  25.563  1.00  0.00     0.198 A 
ATOM    140  C   UNL A   1      44.562  23.478  26.343  1.00  0.00     0.198 A 
ATOM    141  F   UNL A   1      44.038  23.144  28.596  1.00  0.00    -0.203 F 
ATOM    142  F   UNL A   1      45.711  26.411  24.584  1.00  0.00    -0.200 F 
ATOM    143  C   UNL A   1      45.000  24.287  25.311  1.00  0.00     0.200 A 
ATOM    144  F   UNL A   1      44.318  22.180  26.113  1.00  0.00    -0.200 F 
ATOM    145  F   UNL A   1      45.191  23.783  24.086  1.00  0.00    -0.200 F 
ENDBRANCH 115 135
BRANCH 118 146
ATOM    146  C   UNL A   1      41.983  30.558  35.665  1.00  0.00     0.064 A 
ATOM    147  C   UNL A   1      41.919  31.816  36.296  1.00  0.00     0.173 A 
ATOM    148  C   UNL A   1      40.774  29.962  35.287  1.00  0.00     0.173 A 
ATOM    149  F   UNL A   1      43.050  32.433  36.676  1.00  0.00    -0.203 F 
ATOM    150  C   UNL A   1      40.714  32.503  36.423  1.00  0.00     0.198 A 
ATOM    151  C   UNL A   1      39.565  30.648  35.430  1.00  0.00     0.198 A 
ATOM    152  F   UNL A   1      40.769  28.772  34.670  1.00  0.00    -0.203 F 
ATOM    153  F   UNL A   1      40.705  33.751  36.913  1.00  0.00    -0.200 F 
ATOM    154  C   UNL A   1      39.542  31.930  35.960  1.00  0.00     0.200 A 
ATOM    155  F   UNL A   1      38.432  30.103  34.964  1.00  0.00    -0.200 F 
ATOM    156  F   UNL A   1      38.397  32.627  35.991  1.00  0.00    -0.200 F 
ENDBRANCH 118 146
BRANCH 133 157
ATOM    157  C   UNL A   1      45.654  24.471  34.400  1.00  0.00     0.064 A 
ATOM    158  C   UNL A   1      44.778  23.374  34.374  1.00  0.00     0.173 A 
ATOM    159  C   UNL A   1      47.002  24.169  34.715  1.00  0.00     0.173 A 
ATOM    160  F   UNL A   1      43.505  23.509  33.981  1.00  0.00    -0.203 F 
ATOM    161  C   UNL A   1      45.204  22.082  34.694  1.00  0.00     0.198 A 
ATOM    162  C   UNL A   1      47.435  22.870  34.975  1.00  0.00     0.198 A 
ATOM    163  F   UNL A   1      47.946  25.121  34.751  1.00  0.00    -0.203 F 
ATOM    164  F   UNL A   1      44.321  21.075  34.693  1.00  0.00    -0.200 F 
ATOM    165  C   UNL A   1      46.533  21.828  34.981  1.00  0.00     0.200 A 
ATOM    166  F   UNL A   1      48.736  22.634  35.197  1.00  0.00    -0.200 F 
ATOM    167  F   UNL A   1      46.945  20.580  35.239  1.00  0.00    -0.200 F 
ENDBRANCH 133 157
ENDBRANCH  98 101
ENDBRANCH  88  91
ENDBRANCH  84  87
ENDBRANCH  81  84
ENDBRANCH  78  81
ENDBRANCH  75  78
ENDBRANCH  72  75
ENDBRANCH  69  72
ENDBRANCH   3  69
TORSDOF 23
ENDMDL
MODEL 3
REMARK VINA RESULT:     -12.1      3.677     10.032
REMARK SMILES Cc1ccc(S(=O)(=O)n2cc(C(=O)C(=O)NCC(=O)N[C@H](Cc3c[nH]c4ccccc34)C(=O)NCCCCCCNC(=O)c3ccc(-c4c5nc(c(-c6c(F)c(F)c(F)c(F)c6F)c6ccc([nH]6)c(-c6c(F)c(F)c(F)c(F)c6F)c6nc(c(-c7c(F)c(F)c(F)c(F)c7F)c7ccc4[nH]7)C=C6)C=C5)cc3)c3ccccc32)cc1
REMARK SMILES IDX 32 1 33 2 34 3 21 5 20 7 18 8 19 9 17 11 16 14 14 15 15 16
REMARK SMILES IDX 12 18 13 19 11 20 9 21 10 22 112 23 107 25 111 26 108 27
REMARK SMILES IDX 110 28 109 30 6 34 7 35 8 36 5 37 2 38 3 39 114 40 4 41
REMARK SMILES IDX 113 43 1 47 22 51 23 54 24 55 31 56 25 57 26 59 30 60 27 62
REMARK SMILES IDX 29 63 28 65 35 69 36 72 37 75 38 78 39 81 40 84 41 87 42 88
REMARK SMILES IDX 43 90 44 91 45 92 106 93 46 94 105 96 47 98 48 101 49 102
REMARK SMILES IDX 99 103 50 104 104 105 98 106 100 107 51 108 103 109 97 111
REMARK SMILES IDX 96 113 52 115 84 118 64 119 83 120 65 121 68 122 82 123
REMARK SMILES IDX 101 124 66 125 67 127 81 129 102 130 69 133 53 135 54 136
REMARK SMILES IDX 62 137 55 138 56 139 60 140 63 141 57 142 58 143 61 144
REMARK SMILES IDX 59 145 85 146 86 147 94 148 87 149 88 150 92 151 95 152
REMARK SMILES IDX 89 153 90 154 93 155 91 156 70 157 71 158 79 159 72 160
REMARK SMILES IDX 73 161 77 162 80 163 74 164 75 165 78 166 76 167
REMARK H PARENT 34 4 21 6 20 10 17 12 17 13 16 17 10 24 111 29 108 31 110 32
REMARK H PARENT 109 33 3 42 114 44 4 45 113 46 1 48 1 49 1 50 22 52 22 53
REMARK H PARENT 24 58 25 61 30 64 27 66 29 67 28 68 35 70 35 71 36 73 36 74
REMARK H PARENT 37 76 37 77 38 79 38 80 39 82 39 83 40 85 40 86 41 89 45 95
REMARK H PARENT 106 97 46 99 105 100 104 110 98 112 100 114 103 116 97 117
REMARK H PARENT 65 126 68 128 101 131 66 132 102 134
REMARK Flexibility Score: inf
ROOT
ATOM      1  C   UNL A   1      43.340  22.466  28.075  1.00  0.00     0.242 C 
ATOM      2  O   UNL A   1      43.372  22.577  29.306  1.00  0.00    -0.273 OA
ATOM      3  N   UNL A   1      44.541  22.543  27.448  1.00  0.00    -0.354 N 
ATOM      4  H   UNL A   1      45.310  22.474  28.059  1.00  0.00     0.163 HD
ENDROOT
BRANCH   1   5
ATOM      5  C   UNL A   1      41.993  22.285  27.357  1.00  0.00     0.112 C 
ATOM      6  H   UNL A   1      41.243  22.313  28.120  1.00  0.00     0.064 H 
BRANCH   5   7
ATOM      7  N   UNL A   1      42.041  20.988  26.662  1.00  0.00    -0.342 N 
ATOM      8  C   UNL A   1      41.020  20.257  26.128  1.00  0.00     0.240 C 
ATOM      9  O   UNL A   1      41.305  19.124  25.728  1.00  0.00    -0.273 OA
ATOM     10  H   UNL A   1      42.938  20.592  26.568  1.00  0.00     0.164 HD
BRANCH   8  11
ATOM     11  C   UNL A   1      39.632  20.871  25.844  1.00  0.00     0.097 C 
ATOM     12  H   UNL A   1      39.301  21.338  26.748  1.00  0.00     0.059 H 
ATOM     13  H   UNL A   1      39.796  21.525  25.013  1.00  0.00     0.059 H 
BRANCH  11  14
ATOM     14  N   UNL A   1      38.560  19.984  25.399  1.00  0.00    -0.340 N 
ATOM     15  C   UNL A   1      37.250  20.300  25.074  1.00  0.00     0.292 C 
ATOM     16  O   UNL A   1      36.468  19.470  24.626  1.00  0.00    -0.265 OA
ATOM     17  H   UNL A   1      38.801  19.033  25.318  1.00  0.00     0.164 HD
BRANCH  15  18
ATOM     18  C   UNL A   1      36.776  21.740  25.246  1.00  0.00     0.252 C 
ATOM     19  O   UNL A   1      37.487  22.458  25.948  1.00  0.00    -0.283 OA
BRANCH  18  20
ATOM     20  C   UNL A   1      35.456  22.177  24.769  1.00  0.00     0.054 A 
ATOM     21  N   UNL A   1      33.662  22.893  23.587  1.00  0.00    -0.240 N 
ATOM     22  C   UNL A   1      35.021  22.584  23.501  1.00  0.00     0.033 A 
ATOM     23  C   UNL A   1      33.210  22.447  24.843  1.00  0.00     0.065 A 
ATOM     24  H   UNL A   1      35.604  22.645  22.651  1.00  0.00     0.084 H 
ATOM     25  C   UNL A   1      34.345  22.358  25.644  1.00  0.00     0.012 A 
ATOM     26  C   UNL A   1      31.915  22.424  25.399  1.00  0.00    -0.037 A 
ATOM     27  C   UNL A   1      34.191  22.431  27.045  1.00  0.00    -0.052 A 
ATOM     28  C   UNL A   1      31.794  22.581  26.779  1.00  0.00    -0.060 A 
ATOM     29  H   UNL A   1      31.084  22.294  24.804  1.00  0.00     0.065 H 
ATOM     30  C   UNL A   1      32.919  22.624  27.590  1.00  0.00    -0.061 A 
ATOM     31  H   UNL A   1      35.013  22.342  27.663  1.00  0.00     0.063 H 
ATOM     32  H   UNL A   1      30.858  22.667  27.202  1.00  0.00     0.062 H 
ATOM     33  H   UNL A   1      32.816  22.800  28.602  1.00  0.00     0.062 H 
BRANCH  21  34
ATOM     34  S   UNL A   1      32.924  24.423  23.168  1.00  0.00     0.268 S 
ATOM     35  O   UNL A   1      31.752  24.017  22.408  1.00  0.00    -0.201 OA
ATOM     36  O   UNL A   1      34.027  25.130  22.530  1.00  0.00    -0.201 OA
BRANCH  34  37
ATOM     37  C   UNL A   1      32.340  25.654  24.275  1.00  0.00     0.088 A 
ATOM     38  C   UNL A   1      31.944  27.444  26.419  1.00  0.00    -0.051 A 
ATOM     39  C   UNL A   1      33.213  26.937  26.181  1.00  0.00    -0.058 A 
ATOM     40  C   UNL A   1      30.883  27.065  25.565  1.00  0.00    -0.058 A 
ATOM     41  C   UNL A   1      33.401  26.071  25.120  1.00  0.00    -0.041 A 
ATOM     42  H   UNL A   1      34.005  27.201  26.786  1.00  0.00     0.063 H 
ATOM     43  C   UNL A   1      31.071  26.161  24.485  1.00  0.00    -0.041 A 
ATOM     44  H   UNL A   1      29.944  27.458  25.731  1.00  0.00     0.063 H 
ATOM     45  H   UNL A   1      34.351  25.713  24.935  1.00  0.00     0.064 H 
ATOM     46  H   UNL A   1      30.281  25.890  23.877  1.00  0.00     0.064 H 
BRANCH  38  47
ATOM     47  C   UNL A   1      31.775  28.326  27.625  1.00  0.00    -0.040 C 
ATOM     48  H   UNL A   1      30.984  29.025  27.447  1.00  0.00     0.028 H 
ATOM     49  H   UNL A   1      32.686  28.857  27.809  1.00  0.00     0.028 H 
ATOM     50  H   UNL A   1      31.535  27.725  28.476  1.00  0.00     0.028 H 
ENDBRANCH  38  47
ENDBRANCH  34  37
ENDBRANCH  21  34
ENDBRANCH  18  20
ENDBRANCH  15  18
ENDBRANCH  11  14
ENDBRANCH   8  11
ENDBRANCH   5   7
BRANCH   5  51
ATOM     51  C   UNL A   1      41.498  23.429  26.440  1.00  0.00     0.004 C 
ATOM     52  H   UNL A   1      40.942  22.965  25.653  1.00  0.00     0.034 H 
ATOM     53  H   UNL A   1      42.409  23.937  26.199  1.00  0.00     0.034 H 
BRANCH  51  54
ATOM     54  C   UNL A   1      40.634  24.550  26.967  1.00  0.00    -0.020 A 
ATOM     55  C   UNL A   1      39.299  24.826  26.747  1.00  0.00     0.005 A 
ATOM     56  C   UNL A   1      41.085  25.591  27.866  1.00  0.00     0.003 A 
ATOM     57  N   UNL A   1      38.886  25.787  27.627  1.00  0.00    -0.361 N 
ATOM     58  H   UNL A   1      38.707  24.377  26.030  1.00  0.00     0.082 H 
ATOM     59  C   UNL A   1      39.959  26.282  28.316  1.00  0.00     0.046 A 
ATOM     60  C   UNL A   1      42.343  25.997  28.361  1.00  0.00    -0.053 A 
ATOM     61  H   UNL A   1      37.954  26.080  27.748  1.00  0.00     0.166 HD
ATOM     62  C   UNL A   1      40.005  27.294  29.279  1.00  0.00    -0.038 A 
ATOM     63  C   UNL A   1      42.417  27.058  29.276  1.00  0.00    -0.062 A 
ATOM     64  H   UNL A   1      43.203  25.517  28.052  1.00  0.00     0.063 H 
ATOM     65  C   UNL A   1      41.262  27.679  29.745  1.00  0.00    -0.060 A 
ATOM     66  H   UNL A   1      39.145  27.739  29.632  1.00  0.00     0.064 H 
ATOM     67  H   UNL A   1      43.339  27.383  29.605  1.00  0.00     0.062 H 
ATOM     68  H   UNL A   1      41.337  28.433  30.447  1.00  0.00     0.062 H 
ENDBRANCH  51  54
ENDBRANCH   5  51
ENDBRANCH   1   5
BRANCH   3  69
ATOM     69  C   UNL A   1      44.917  22.703  26.058  1.00  0.00     0.017 C 
ATOM     70  H   UNL A   1      44.043  22.599  25.449  1.00  0.00     0.049 H 
ATOM     71  H   UNL A   1      45.644  21.955  25.824  1.00  0.00     0.049 H 
BRANCH  69  72
ATOM     72  C   UNL A   1      45.544  24.071  25.787  1.00  0.00    -0.036 C 
ATOM     73  H   UNL A   1      46.215  23.971  24.960  1.00  0.00     0.028 H 
ATOM     74  H   UNL A   1      46.028  24.364  26.695  1.00  0.00     0.028 H 
BRANCH  72  75
ATOM     75  C   UNL A   1      44.544  25.190  25.456  1.00  0.00    -0.052 C 
ATOM     76  H   UNL A   1      43.822  25.227  26.245  1.00  0.00     0.027 H 
ATOM     77  H   UNL A   1      44.134  24.939  24.501  1.00  0.00     0.027 H 
BRANCH  75  78
ATOM     78  C   UNL A   1      45.138  26.596  25.295  1.00  0.00    -0.052 C 
ATOM     79  H   UNL A   1      44.849  26.968  24.335  1.00  0.00     0.027 H 
ATOM     80  H   UNL A   1      46.195  26.482  25.414  1.00  0.00     0.027 H 
BRANCH  78  81
ATOM     81  C   UNL A   1      44.707  27.618  26.346  1.00  0.00    -0.036 C 
ATOM     82  H   UNL A   1      43.817  27.257  26.819  1.00  0.00     0.028 H 
ATOM     83  H   UNL A   1      44.556  28.543  25.832  1.00  0.00     0.028 H 
BRANCH  81  84
ATOM     84  C   UNL A   1      45.749  27.880  27.425  1.00  0.00     0.018 C 
ATOM     85  H   UNL A   1      45.379  27.496  28.352  1.00  0.00     0.049 H 
ATOM     86  H   UNL A   1      45.908  28.939  27.456  1.00  0.00     0.049 H 
BRANCH  84  87
ATOM     87  N   UNL A   1      47.035  27.268  27.156  1.00  0.00    -0.352 N 
ATOM     88  C   UNL A   1      47.869  26.531  27.981  1.00  0.00     0.251 C 
ATOM     89  H   UNL A   1      47.370  27.397  26.239  1.00  0.00     0.163 HD
ATOM     90  O   UNL A   1      49.009  26.314  27.631  1.00  0.00    -0.269 OA
BRANCH  88  91
ATOM     91  C   UNL A   1      47.324  25.856  29.195  1.00  0.00     0.039 A 
ATOM     92  C   UNL A   1      46.047  25.284  29.071  1.00  0.00    -0.049 A 
ATOM     93  C   UNL A   1      47.913  25.959  30.450  1.00  0.00    -0.049 A 
ATOM     94  C   UNL A   1      45.274  25.063  30.210  1.00  0.00    -0.053 A 
ATOM     95  H   UNL A   1      45.681  25.029  28.141  1.00  0.00     0.063 H 
ATOM     96  C   UNL A   1      47.124  25.827  31.574  1.00  0.00    -0.053 A 
ATOM     97  H   UNL A   1      48.925  26.131  30.540  1.00  0.00     0.063 H 
ATOM     98  C   UNL A   1      45.786  25.450  31.443  1.00  0.00    -0.014 A 
ATOM     99  H   UNL A   1      44.343  24.623  30.138  1.00  0.00     0.063 H 
ATOM    100  H   UNL A   1      47.523  26.006  32.509  1.00  0.00     0.063 H 
BRANCH  98 101
ATOM    101  C   UNL A   1      44.978  25.605  32.639  1.00  0.00     0.031 A 
ATOM    102  C   UNL A   1      44.400  26.915  32.984  1.00  0.00     0.074 A 
ATOM    103  C   UNL A   1      44.660  24.500  33.351  1.00  0.00     0.049 A 
ATOM    104  N   UNL A   1      44.028  27.242  34.174  1.00  0.00    -0.248 NA
ATOM    105  C   UNL A   1      44.220  27.986  32.007  1.00  0.00    -0.034 C 
ATOM    106  C   UNL A   1      43.636  24.369  34.382  1.00  0.00    -0.036 A 
ATOM    107  N   UNL A   1      45.354  23.279  33.389  1.00  0.00    -0.354 N 
ATOM    108  C   UNL A   1      43.341  28.428  34.084  1.00  0.00     0.074 A 
ATOM    109  C   UNL A   1      43.532  28.881  32.725  1.00  0.00    -0.034 C 
ATOM    110  H   UNL A   1      44.538  28.038  31.028  1.00  0.00     0.065 H 
ATOM    111  C   UNL A   1      43.921  23.298  35.141  1.00  0.00    -0.036 A 
ATOM    112  H   UNL A   1      42.826  24.996  34.506  1.00  0.00     0.065 H 
ATOM    113  C   UNL A   1      45.217  22.803  34.713  1.00  0.00     0.049 A 
ATOM    114  H   UNL A   1      45.836  22.845  32.648  1.00  0.00     0.167 HD
ATOM    115  C   UNL A   1      42.577  28.838  35.133  1.00  0.00     0.037 A 
ATOM    116  H   UNL A   1      43.182  29.779  32.356  1.00  0.00     0.065 H 
ATOM    117  H   UNL A   1      43.329  22.902  35.887  1.00  0.00     0.065 H 
ATOM    118  C   UNL A   1      46.304  22.668  35.529  1.00  0.00     0.037 A 
ATOM    119  C   UNL A   1      42.664  27.908  36.250  1.00  0.00     0.049 A 
ATOM    120  C   UNL A   1      46.232  23.512  36.779  1.00  0.00     0.074 A 
ATOM    121  C   UNL A   1      41.879  26.831  36.626  1.00  0.00    -0.036 A 
ATOM    122  N   UNL A   1      43.861  27.787  36.946  1.00  0.00    -0.354 N 
ATOM    123  N   UNL A   1      45.476  24.568  36.896  1.00  0.00    -0.248 NA
ATOM    124  C   UNL A   1      47.018  23.249  37.982  1.00  0.00    -0.034 C 
ATOM    125  C   UNL A   1      42.635  26.024  37.511  1.00  0.00    -0.036 A 
ATOM    126  H   UNL A   1      40.911  26.648  36.318  1.00  0.00     0.065 H 
ATOM    127  C   UNL A   1      43.868  26.625  37.693  1.00  0.00     0.049 A 
ATOM    128  H   UNL A   1      44.599  28.437  36.911  1.00  0.00     0.167 HD
ATOM    129  C   UNL A   1      45.663  25.128  38.133  1.00  0.00     0.074 A 
ATOM    130  C   UNL A   1      46.627  24.259  38.780  1.00  0.00    -0.034 C 
ATOM    131  H   UNL A   1      47.692  22.491  38.169  1.00  0.00     0.065 H 
ATOM    132  H   UNL A   1      42.321  25.141  37.944  1.00  0.00     0.065 H 
ATOM    133  C   UNL A   1      45.012  26.266  38.513  1.00  0.00     0.037 A 
ATOM    134  H   UNL A   1      46.974  24.400  39.741  1.00  0.00     0.065 H 
BRANCH 115 135
ATOM    135  C   UNL A   1      41.548  29.927  35.012  1.00  0.00     0.064 A 
ATOM    136  C   UNL A   1      40.405  29.762  34.202  1.00  0.00     0.173 A 
ATOM    137  C   UNL A   1      41.663  31.176  35.646  1.00  0.00     0.173 A 
ATOM    138  F   UNL A   1      40.146  28.603  33.584  1.00  0.00    -0.203 F 
ATOM    139  C   UNL A   1      39.495  30.797  33.978  1.00  0.00     0.198 A 
ATOM    140  C   UNL A   1      40.781  32.228  35.382  1.00  0.00     0.198 A 
ATOM    141  F   UNL A   1      42.627  31.401  36.551  1.00  0.00    -0.203 F 
ATOM    142  F   UNL A   1      38.429  30.586  33.193  1.00  0.00    -0.200 F 
ATOM    143  C   UNL A   1      39.699  32.039  34.542  1.00  0.00     0.200 A 
ATOM    144  F   UNL A   1      40.990  33.429  35.939  1.00  0.00    -0.200 F 
ATOM    145  F   UNL A   1      38.853  33.046  34.288  1.00  0.00    -0.200 F 
ENDBRANCH 115 135
BRANCH 118 146
ATOM    146  C   UNL A   1      47.550  22.343  34.783  1.00  0.00     0.064 A 
ATOM    147  C   UNL A   1      48.456  23.391  34.526  1.00  0.00     0.173 A 
ATOM    148  C   UNL A   1      48.034  21.033  34.698  1.00  0.00     0.173 A 
ATOM    149  F   UNL A   1      48.043  24.667  34.597  1.00  0.00    -0.203 F 
ATOM    150  C   UNL A   1      49.812  23.143  34.325  1.00  0.00     0.198 A 
ATOM    151  C   UNL A   1      49.393  20.788  34.481  1.00  0.00     0.198 A 
ATOM    152  F   UNL A   1      47.224  19.994  34.944  1.00  0.00    -0.203 F 
ATOM    153  F   UNL A   1      50.668  24.169  34.210  1.00  0.00    -0.200 F 
ATOM    154  C   UNL A   1      50.284  21.842  34.334  1.00  0.00     0.200 A 
ATOM    155  F   UNL A   1      49.854  19.530  34.510  1.00  0.00    -0.200 F 
ATOM    156  F   UNL A   1      51.599  21.605  34.239  1.00  0.00    -0.200 F 
ENDBRANCH 118 146
BRANCH 133 157
ATOM    157  C   UNL A   1      45.314  27.099  39.733  1.00  0.00     0.064 A 
ATOM    158  C   UNL A   1      44.709  26.900  40.984  1.00  0.00     0.173 A 
ATOM    159  C   UNL A   1      46.370  28.045  39.709  1.00  0.00     0.173 A 
ATOM    160  F   UNL A   1      43.778  25.954  41.164  1.00  0.00    -0.203 F 
ATOM    161  C   UNL A   1      45.090  27.631  42.113  1.00  0.00     0.198 A 
ATOM    162  C   UNL A   1      46.786  28.728  40.850  1.00  0.00     0.198 A 
ATOM    163  F   UNL A   1      47.047  28.312  38.584  1.00  0.00    -0.203 F 
ATOM    164  F   UNL A   1      44.454  27.432  43.276  1.00  0.00    -0.200 F 
ATOM    165  C   UNL A   1      46.135  28.533  42.050  1.00  0.00     0.200 A 
ATOM    166  F   UNL A   1      47.837  29.558  40.783  1.00  0.00    -0.200 F 
ATOM    167  F   UNL A   1      46.528  29.194  43.145  1.00  0.00    -0.200 F 
ENDBRANCH 133 157
ENDBRANCH  98 101
ENDBRANCH  88  91
ENDBRANCH  84  87
ENDBRANCH  81  84
ENDBRANCH  78  81
ENDBRANCH  75  78
ENDBRANCH  72  75
ENDBRANCH  69  72
ENDBRANCH   3  69
TORSDOF 23
ENDMDL
MODEL 4
REMARK VINA RESULT:     -12.1      4.120     10.085
REMARK SMILES Cc1ccc(S(=O)(=O)n2cc(C(=O)C(=O)NCC(=O)N[C@H](Cc3c[nH]c4ccccc34)C(=O)NCCCCCCNC(=O)c3ccc(-c4c5nc(c(-c6c(F)c(F)c(F)c(F)c6F)c6ccc([nH]6)c(-c6c(F)c(F)c(F)c(F)c6F)c6nc(c(-c7c(F)c(F)c(F)c(F)c7F)c7ccc4[nH]7)C=C6)C=C5)cc3)c3ccccc32)cc1
REMARK SMILES IDX 32 1 33 2 34 3 21 5 20 7 18 8 19 9 17 11 16 14 14 15 15 16
REMARK SMILES IDX 12 18 13 19 11 20 9 21 10 22 112 23 107 25 111 26 108 27
REMARK SMILES IDX 110 28 109 30 6 34 7 35 8 36 5 37 2 38 3 39 114 40 4 41
REMARK SMILES IDX 113 43 1 47 22 51 23 54 24 55 31 56 25 57 26 59 30 60 27 62
REMARK SMILES IDX 29 63 28 65 35 69 36 72 37 75 38 78 39 81 40 84 41 87 42 88
REMARK SMILES IDX 43 90 44 91 45 92 106 93 46 94 105 96 47 98 48 101 49 102
REMARK SMILES IDX 99 103 50 104 104 105 98 106 100 107 51 108 103 109 97 111
REMARK SMILES IDX 96 113 52 115 84 118 64 119 83 120 65 121 68 122 82 123
REMARK SMILES IDX 101 124 66 125 67 127 81 129 102 130 69 133 53 135 54 136
REMARK SMILES IDX 62 137 55 138 56 139 60 140 63 141 57 142 58 143 61 144
REMARK SMILES IDX 59 145 85 146 86 147 94 148 87 149 88 150 92 151 95 152
REMARK SMILES IDX 89 153 90 154 93 155 91 156 70 157 71 158 79 159 72 160
REMARK SMILES IDX 73 161 77 162 80 163 74 164 75 165 78 166 76 167
REMARK H PARENT 34 4 21 6 20 10 17 12 17 13 16 17 10 24 111 29 108 31 110 32
REMARK H PARENT 109 33 3 42 114 44 4 45 113 46 1 48 1 49 1 50 22 52 22 53
REMARK H PARENT 24 58 25 61 30 64 27 66 29 67 28 68 35 70 35 71 36 73 36 74
REMARK H PARENT 37 76 37 77 38 79 38 80 39 82 39 83 40 85 40 86 41 89 45 95
REMARK H PARENT 106 97 46 99 105 100 104 110 98 112 100 114 103 116 97 117
REMARK H PARENT 65 126 68 128 101 131 66 132 102 134
REMARK Flexibility Score: inf
ROOT
ATOM      1  C   UNL A   1      37.140  32.721  30.591  1.00  0.00     0.242 C 
ATOM      2  O   UNL A   1      37.544  33.883  30.722  1.00  0.00    -0.273 OA
ATOM      3  N   UNL A   1      38.090  31.757  30.679  1.00  0.00    -0.354 N 
ATOM      4  H   UNL A   1      38.949  32.080  31.035  1.00  0.00     0.163 HD
ENDROOT
BRANCH   1   5
ATOM      5  C   UNL A   1      35.651  32.455  30.321  1.00  0.00     0.112 C 
ATOM      6  H   UNL A   1      35.586  31.441  29.982  1.00  0.00     0.064 H 
BRANCH   5   7
ATOM      7  N   UNL A   1      35.213  33.420  29.299  1.00  0.00    -0.342 N 
ATOM      8  C   UNL A   1      34.503  33.203  28.154  1.00  0.00     0.240 C 
ATOM      9  O   UNL A   1      34.392  34.162  27.384  1.00  0.00    -0.273 OA
ATOM     10  H   UNL A   1      35.470  34.356  29.465  1.00  0.00     0.164 HD
BRANCH   8  11
ATOM     11  C   UNL A   1      33.704  31.902  27.919  1.00  0.00     0.097 C 
ATOM     12  H   UNL A   1      32.996  31.816  28.716  1.00  0.00     0.059 H 
ATOM     13  H   UNL A   1      33.293  32.017  26.937  1.00  0.00     0.059 H 
BRANCH  11  14
ATOM     14  N   UNL A   1      34.439  30.641  27.856  1.00  0.00    -0.340 N 
ATOM     15  C   UNL A   1      34.158  29.508  27.106  1.00  0.00     0.292 C 
ATOM     16  O   UNL A   1      34.908  28.540  27.077  1.00  0.00    -0.265 OA
ATOM     17  H   UNL A   1      35.242  30.587  28.423  1.00  0.00     0.164 HD
BRANCH  15  18
ATOM     18  C   UNL A   1      32.888  29.482  26.262  1.00  0.00     0.252 C 
ATOM     19  O   UNL A   1      32.303  30.557  26.139  1.00  0.00    -0.283 OA
BRANCH  18  20
ATOM     20  C   UNL A   1      32.301  28.218  25.796  1.00  0.00     0.054 A 
ATOM     21  N   UNL A   1      31.180  26.266  25.539  1.00  0.00    -0.240 N 
ATOM     22  C   UNL A   1      31.444  27.308  26.430  1.00  0.00     0.033 A 
ATOM     23  C   UNL A   1      31.677  26.656  24.281  1.00  0.00     0.065 A 
ATOM     24  H   UNL A   1      31.071  27.394  27.389  1.00  0.00     0.084 H 
ATOM     25  C   UNL A   1      32.633  27.634  24.538  1.00  0.00     0.012 A 
ATOM     26  C   UNL A   1      31.592  26.026  23.023  1.00  0.00    -0.037 A 
ATOM     27  C   UNL A   1      33.644  27.862  23.579  1.00  0.00    -0.052 A 
ATOM     28  C   UNL A   1      32.647  26.204  22.130  1.00  0.00    -0.060 A 
ATOM     29  H   UNL A   1      30.774  25.451  22.771  1.00  0.00     0.065 H 
ATOM     30  C   UNL A   1      33.682  27.082  22.420  1.00  0.00    -0.061 A 
ATOM     31  H   UNL A   1      34.349  28.598  23.733  1.00  0.00     0.063 H 
ATOM     32  H   UNL A   1      32.659  25.678  21.243  1.00  0.00     0.062 H 
ATOM     33  H   UNL A   1      34.485  27.160  21.777  1.00  0.00     0.062 H 
BRANCH  21  34
ATOM     34  S   UNL A   1      31.475  24.566  25.824  1.00  0.00     0.268 S 
ATOM     35  O   UNL A   1      30.597  23.921  24.859  1.00  0.00    -0.201 OA
ATOM     36  O   UNL A   1      31.232  24.450  27.257  1.00  0.00    -0.201 OA
BRANCH  34  37
ATOM     37  C   UNL A   1      33.005  23.718  25.680  1.00  0.00     0.088 A 
ATOM     38  C   UNL A   1      35.086  21.898  25.116  1.00  0.00    -0.051 A 
ATOM     39  C   UNL A   1      33.944  21.894  24.328  1.00  0.00    -0.058 A 
ATOM     40  C   UNL A   1      35.185  22.833  26.172  1.00  0.00    -0.058 A 
ATOM     41  C   UNL A   1      32.936  22.798  24.602  1.00  0.00    -0.041 A 
ATOM     42  H   UNL A   1      33.849  21.225  23.549  1.00  0.00     0.063 H 
ATOM     43  C   UNL A   1      34.141  23.751  26.468  1.00  0.00    -0.041 A 
ATOM     44  H   UNL A   1      36.042  22.849  26.745  1.00  0.00     0.063 H 
ATOM     45  H   UNL A   1      32.098  22.803  23.999  1.00  0.00     0.064 H 
ATOM     46  H   UNL A   1      34.229  24.421  27.248  1.00  0.00     0.064 H 
BRANCH  38  47
ATOM     47  C   UNL A   1      36.124  20.851  24.824  1.00  0.00    -0.040 C 
ATOM     48  H   UNL A   1      36.581  20.537  25.739  1.00  0.00     0.028 H 
ATOM     49  H   UNL A   1      36.870  21.262  24.174  1.00  0.00     0.028 H 
ATOM     50  H   UNL A   1      35.661  20.012  24.349  1.00  0.00     0.028 H 
ENDBRANCH  38  47
ENDBRANCH  34  37
ENDBRANCH  21  34
ENDBRANCH  18  20
ENDBRANCH  15  18
ENDBRANCH  11  14
ENDBRANCH   8  11
ENDBRANCH   5   7
BRANCH   5  51
ATOM     51  C   UNL A   1      34.690  32.403  31.533  1.00  0.00     0.004 C 
ATOM     52  H   UNL A   1      34.984  31.554  32.114  1.00  0.00     0.034 H 
ATOM     53  H   UNL A   1      33.729  32.398  31.062  1.00  0.00     0.034 H 
BRANCH  51  54
ATOM     54  C   UNL A   1      34.569  33.558  32.499  1.00  0.00    -0.020 A 
ATOM     55  C   UNL A   1      34.899  33.639  33.837  1.00  0.00     0.005 A 
ATOM     56  C   UNL A   1      34.064  34.871  32.160  1.00  0.00     0.003 A 
ATOM     57  N   UNL A   1      34.855  34.947  34.233  1.00  0.00    -0.361 N 
ATOM     58  H   UNL A   1      35.141  32.838  34.443  1.00  0.00     0.082 H 
ATOM     59  C   UNL A   1      34.336  35.721  33.233  1.00  0.00     0.046 A 
ATOM     60  C   UNL A   1      33.421  35.425  31.032  1.00  0.00    -0.053 A 
ATOM     61  H   UNL A   1      35.154  35.282  35.110  1.00  0.00     0.166 HD
ATOM     62  C   UNL A   1      34.079  37.095  33.216  1.00  0.00    -0.038 A 
ATOM     63  C   UNL A   1      33.090  36.789  31.025  1.00  0.00    -0.062 A 
ATOM     64  H   UNL A   1      33.196  34.832  30.218  1.00  0.00     0.063 H 
ATOM     65  C   UNL A   1      33.438  37.614  32.091  1.00  0.00    -0.060 A 
ATOM     66  H   UNL A   1      34.352  37.702  34.004  1.00  0.00     0.064 H 
ATOM     67  H   UNL A   1      32.584  37.185  30.219  1.00  0.00     0.062 H 
ATOM     68  H   UNL A   1      33.218  38.622  32.050  1.00  0.00     0.062 H 
ENDBRANCH  51  54
ENDBRANCH   5  51
ENDBRANCH   1   5
BRANCH   3  69
ATOM     69  C   UNL A   1      38.092  30.345  30.354  1.00  0.00     0.017 C 
ATOM     70  H   UNL A   1      37.215  29.893  30.769  1.00  0.00     0.049 H 
ATOM     71  H   UNL A   1      38.981  29.913  30.762  1.00  0.00     0.049 H 
BRANCH  69  72
ATOM     72  C   UNL A   1      38.102  30.103  28.844  1.00  0.00    -0.036 C 
ATOM     73  H   UNL A   1      38.828  30.756  28.408  1.00  0.00     0.028 H 
ATOM     74  H   UNL A   1      37.104  30.288  28.505  1.00  0.00     0.028 H 
BRANCH  72  75
ATOM     75  C   UNL A   1      38.438  28.665  28.419  1.00  0.00    -0.052 C 
ATOM     76  H   UNL A   1      38.991  28.715  27.504  1.00  0.00     0.027 H 
ATOM     77  H   UNL A   1      37.499  28.161  28.335  1.00  0.00     0.027 H 
BRANCH  75  78
ATOM     78  C   UNL A   1      39.262  27.843  29.421  1.00  0.00    -0.052 C 
ATOM     79  H   UNL A   1      38.905  28.070  30.404  1.00  0.00     0.027 H 
ATOM     80  H   UNL A   1      40.282  28.120  29.257  1.00  0.00     0.027 H 
BRANCH  78  81
ATOM     81  C   UNL A   1      39.204  26.328  29.236  1.00  0.00    -0.036 C 
ATOM     82  H   UNL A   1      38.185  26.017  29.335  1.00  0.00     0.028 H 
ATOM     83  H   UNL A   1      39.842  25.902  29.981  1.00  0.00     0.028 H 
BRANCH  81  84
ATOM     84  C   UNL A   1      39.721  25.844  27.887  1.00  0.00     0.018 C 
ATOM     85  H   UNL A   1      40.437  26.553  27.527  1.00  0.00     0.049 H 
ATOM     86  H   UNL A   1      38.873  25.756  27.241  1.00  0.00     0.049 H 
BRANCH  84  87
ATOM     87  N   UNL A   1      40.352  24.540  27.937  1.00  0.00    -0.352 N 
ATOM     88  C   UNL A   1      41.688  24.184  27.834  1.00  0.00     0.251 C 
ATOM     89  H   UNL A   1      39.732  23.786  28.065  1.00  0.00     0.163 HD
ATOM     90  O   UNL A   1      41.979  23.021  27.662  1.00  0.00    -0.269 OA
BRANCH  88  91
ATOM     91  C   UNL A   1      42.758  25.184  28.116  1.00  0.00     0.039 A 
ATOM     92  C   UNL A   1      43.400  25.079  29.361  1.00  0.00    -0.049 A 
ATOM     93  C   UNL A   1      42.983  26.301  27.319  1.00  0.00    -0.049 A 
ATOM     94  C   UNL A   1      44.043  26.190  29.904  1.00  0.00    -0.053 A 
ATOM     95  H   UNL A   1      43.395  24.183  29.872  1.00  0.00     0.063 H 
ATOM     96  C   UNL A   1      43.538  27.429  27.885  1.00  0.00    -0.053 A 
ATOM     97  H   UNL A   1      42.737  26.286  26.317  1.00  0.00     0.063 H 
ATOM     98  C   UNL A   1      44.001  27.389  29.201  1.00  0.00    -0.014 A 
ATOM     99  H   UNL A   1      44.539  26.123  30.807  1.00  0.00     0.063 H 
ATOM    100  H   UNL A   1      43.613  28.300  27.335  1.00  0.00     0.063 H 
BRANCH  98 101
ATOM    101  C   UNL A   1      44.310  28.679  29.791  1.00  0.00     0.031 A 
ATOM    102  C   UNL A   1      43.243  29.502  30.387  1.00  0.00     0.074 A 
ATOM    103  C   UNL A   1      45.607  29.046  29.896  1.00  0.00     0.049 A 
ATOM    104  N   UNL A   1      43.334  30.776  30.560  1.00  0.00    -0.248 NA
ATOM    105  C   UNL A   1      41.961  28.950  30.815  1.00  0.00    -0.034 C 
ATOM    106  C   UNL A   1      46.164  30.124  30.706  1.00  0.00    -0.036 A 
ATOM    107  N   UNL A   1      46.689  28.594  29.123  1.00  0.00    -0.354 N 
ATOM    108  C   UNL A   1      42.270  31.167  31.335  1.00  0.00     0.074 A 
ATOM    109  C   UNL A   1      41.412  30.008  31.424  1.00  0.00    -0.034 C 
ATOM    110  H   UNL A   1      41.580  28.001  30.683  1.00  0.00     0.065 H 
ATOM    111  C   UNL A   1      47.370  30.456  30.215  1.00  0.00    -0.036 A 
ATOM    112  H   UNL A   1      45.707  30.560  31.522  1.00  0.00     0.065 H 
ATOM    113  C   UNL A   1      47.551  29.705  28.985  1.00  0.00     0.049 A 
ATOM    114  H   UNL A   1      46.820  27.691  28.753  1.00  0.00     0.167 HD
ATOM    115  C   UNL A   1      42.289  32.394  31.924  1.00  0.00     0.037 A 
ATOM    116  H   UNL A   1      40.494  29.997  31.896  1.00  0.00     0.065 H 
ATOM    117  H   UNL A   1      48.040  31.119  30.633  1.00  0.00     0.065 H 
ATOM    118  C   UNL A   1      47.790  30.265  27.763  1.00  0.00     0.037 A 
ATOM    119  C   UNL A   1      43.492  33.135  31.572  1.00  0.00     0.049 A 
ATOM    120  C   UNL A   1      47.373  31.713  27.668  1.00  0.00     0.074 A 
ATOM    121  C   UNL A   1      44.720  33.266  32.199  1.00  0.00    -0.036 A 
ATOM    122  N   UNL A   1      43.667  33.570  30.264  1.00  0.00    -0.354 N 
ATOM    123  N   UNL A   1      46.501  32.269  28.462  1.00  0.00    -0.248 NA
ATOM    124  C   UNL A   1      47.884  32.640  26.661  1.00  0.00    -0.034 C 
ATOM    125  C   UNL A   1      45.655  33.728  31.241  1.00  0.00    -0.036 A 
ATOM    126  H   UNL A   1      44.919  33.064  33.191  1.00  0.00     0.065 H 
ATOM    127  C   UNL A   1      44.989  33.903  30.041  1.00  0.00     0.049 A 
ATOM    128  H   UNL A   1      42.951  33.632  29.592  1.00  0.00     0.167 HD
ATOM    129  C   UNL A   1      46.317  33.576  28.095  1.00  0.00     0.074 A 
ATOM    130  C   UNL A   1      47.215  33.765  26.972  1.00  0.00    -0.034 C 
ATOM    131  H   UNL A   1      48.575  32.476  25.913  1.00  0.00     0.065 H 
ATOM    132  H   UNL A   1      46.658  33.903  31.410  1.00  0.00     0.065 H 
ATOM    133  C   UNL A   1      45.434  34.388  28.746  1.00  0.00     0.037 A 
ATOM    134  H   UNL A   1      47.326  34.658  26.468  1.00  0.00     0.065 H 
BRANCH 115 135
ATOM    135  C   UNL A   1      41.348  32.778  33.032  1.00  0.00     0.064 A 
ATOM    136  C   UNL A   1      41.406  32.141  34.290  1.00  0.00     0.173 A 
ATOM    137  C   UNL A   1      40.337  33.744  32.891  1.00  0.00     0.173 A 
ATOM    138  F   UNL A   1      42.354  31.239  34.575  1.00  0.00    -0.203 F 
ATOM    139  C   UNL A   1      40.471  32.392  35.296  1.00  0.00     0.198 A 
ATOM    140  C   UNL A   1      39.371  33.959  33.879  1.00  0.00     0.198 A 
ATOM    141  F   UNL A   1      40.272  34.515  31.796  1.00  0.00    -0.203 F 
ATOM    142  F   UNL A   1      40.570  31.753  36.470  1.00  0.00    -0.200 F 
ATOM    143  C   UNL A   1      39.435  33.278  35.080  1.00  0.00     0.200 A 
ATOM    144  F   UNL A   1      38.372  34.824  33.656  1.00  0.00    -0.200 F 
ATOM    145  F   UNL A   1      38.511  33.482  36.027  1.00  0.00    -0.200 F 
ENDBRANCH 115 135
BRANCH 118 146
ATOM    146  C   UNL A   1      47.722  29.277  26.652  1.00  0.00     0.064 A 
ATOM    147  C   UNL A   1      48.814  28.405  26.476  1.00  0.00     0.173 A 
ATOM    148  C   UNL A   1      46.503  28.914  26.068  1.00  0.00     0.173 A 
ATOM    149  F   UNL A   1      50.005  28.705  27.019  1.00  0.00    -0.203 F 
ATOM    150  C   UNL A   1      48.659  27.166  25.859  1.00  0.00     0.198 A 
ATOM    151  C   UNL A   1      46.356  27.676  25.436  1.00  0.00     0.198 A 
ATOM    152  F   UNL A   1      45.423  29.695  26.210  1.00  0.00    -0.203 F 
ATOM    153  F   UNL A   1      49.689  26.306  25.821  1.00  0.00    -0.200 F 
ATOM    154  C   UNL A   1      47.422  26.790  25.367  1.00  0.00     0.200 A 
ATOM    155  F   UNL A   1      45.153  27.302  24.978  1.00  0.00    -0.200 F 
ATOM    156  F   UNL A   1      47.246  25.561  24.862  1.00  0.00    -0.200 F 
ENDBRANCH 118 146
BRANCH 133 157
ATOM    157  C   UNL A   1      44.972  35.749  28.288  1.00  0.00     0.064 A 
ATOM    158  C   UNL A   1      45.747  36.915  28.399  1.00  0.00     0.173 A 
ATOM    159  C   UNL A   1      43.763  35.886  27.561  1.00  0.00     0.173 A 
ATOM    160  F   UNL A   1      46.962  36.892  28.963  1.00  0.00    -0.203 F 
ATOM    161  C   UNL A   1      45.320  38.138  27.873  1.00  0.00     0.198 A 
ATOM    162  C   UNL A   1      43.370  37.094  26.987  1.00  0.00     0.198 A 
ATOM    163  F   UNL A   1      42.942  34.846  27.361  1.00  0.00    -0.203 F 
ATOM    164  F   UNL A   1      46.078  39.230  28.040  1.00  0.00    -0.200 F 
ATOM    165  C   UNL A   1      44.142  38.224  27.156  1.00  0.00     0.200 A 
ATOM    166  F   UNL A   1      42.252  37.147  26.249  1.00  0.00    -0.200 F 
ATOM    167  F   UNL A   1      43.762  39.387  26.613  1.00  0.00    -0.200 F 
ENDBRANCH 133 157
ENDBRANCH  98 101
ENDBRANCH  88  91
ENDBRANCH  84  87
ENDBRANCH  81  84
ENDBRANCH  78  81
ENDBRANCH  75  78
ENDBRANCH  72  75
ENDBRANCH  69  72
ENDBRANCH   3  69
TORSDOF 23
ENDMDL
MODEL 5
REMARK VINA RESULT:     -12.0      2.060      3.847
REMARK SMILES Cc1ccc(S(=O)(=O)n2cc(C(=O)C(=O)NCC(=O)N[C@H](Cc3c[nH]c4ccccc34)C(=O)NCCCCCCNC(=O)c3ccc(-c4c5nc(c(-c6c(F)c(F)c(F)c(F)c6F)c6ccc([nH]6)c(-c6c(F)c(F)c(F)c(F)c6F)c6nc(c(-c7c(F)c(F)c(F)c(F)c7F)c7ccc4[nH]7)C=C6)C=C5)cc3)c3ccccc32)cc1
REMARK SMILES IDX 32 1 33 2 34 3 21 5 20 7 18 8 19 9 17 11 16 14 14 15 15 16
REMARK SMILES IDX 12 18 13 19 11 20 9 21 10 22 112 23 107 25 111 26 108 27
REMARK SMILES IDX 110 28 109 30 6 34 7 35 8 36 5 37 2 38 3 39 114 40 4 41
REMARK SMILES IDX 113 43 1 47 22 51 23 54 24 55 31 56 25 57 26 59 30 60 27 62
REMARK SMILES IDX 29 63 28 65 35 69 36 72 37 75 38 78 39 81 40 84 41 87 42 88
REMARK SMILES IDX 43 90 44 91 45 92 106 93 46 94 105 96 47 98 48 101 49 102
REMARK SMILES IDX 99 103 50 104 104 105 98 106 100 107 51 108 103 109 97 111
REMARK SMILES IDX 96 113 52 115 84 118 64 119 83 120 65 121 68 122 82 123
REMARK SMILES IDX 101 124 66 125 67 127 81 129 102 130 69 133 53 135 54 136
REMARK SMILES IDX 62 137 55 138 56 139 60 140 63 141 57 142 58 143 61 144
REMARK SMILES IDX 59 145 85 146 86 147 94 148 87 149 88 150 92 151 95 152
REMARK SMILES IDX 89 153 90 154 93 155 91 156 70 157 71 158 79 159 72 160
REMARK SMILES IDX 73 161 77 162 80 163 74 164 75 165 78 166 76 167
REMARK H PARENT 34 4 21 6 20 10 17 12 17 13 16 17 10 24 111 29 108 31 110 32
REMARK H PARENT 109 33 3 42 114 44 4 45 113 46 1 48 1 49 1 50 22 52 22 53
REMARK H PARENT 24 58 25 61 30 64 27 66 29 67 28 68 35 70 35 71 36 73 36 74
REMARK H PARENT 37 76 37 77 38 79 38 80 39 82 39 83 40 85 40 86 41 89 45 95
REMARK H PARENT 106 97 46 99 105 100 104 110 98 112 100 114 103 116 97 117
REMARK H PARENT 65 126 68 128 101 131 66 132 102 134
REMARK Flexibility Score: inf
ROOT
ATOM      1  C   UNL A   1      33.683  28.980  25.101  1.00  0.00     0.242 C 
ATOM      2  O   UNL A   1      34.685  28.679  24.442  1.00  0.00    -0.273 OA
ATOM      3  N   UNL A   1      33.812  30.071  25.898  1.00  0.00    -0.354 N 
ATOM      4  H   UNL A   1      34.615  30.608  25.705  1.00  0.00     0.163 HD
ENDROOT
BRANCH   1   5
ATOM      5  C   UNL A   1      32.414  28.119  25.003  1.00  0.00     0.112 C 
ATOM      6  H   UNL A   1      32.703  27.219  24.501  1.00  0.00     0.064 H 
BRANCH   5   7
ATOM      7  N   UNL A   1      31.419  28.893  24.243  1.00  0.00    -0.342 N 
ATOM      8  C   UNL A   1      31.007  28.737  22.952  1.00  0.00     0.240 C 
ATOM      9  O   UNL A   1      30.265  29.616  22.500  1.00  0.00    -0.273 OA
ATOM     10  H   UNL A   1      30.990  29.629  24.738  1.00  0.00     0.164 HD
BRANCH   8  11
ATOM     11  C   UNL A   1      31.275  27.441  22.156  1.00  0.00     0.097 C 
ATOM     12  H   UNL A   1      31.025  27.638  21.135  1.00  0.00     0.059 H 
ATOM     13  H   UNL A   1      32.303  27.217  22.352  1.00  0.00     0.059 H 
BRANCH  11  14
ATOM     14  N   UNL A   1      30.561  26.228  22.548  1.00  0.00    -0.340 N 
ATOM     15  C   UNL A   1      31.051  24.938  22.686  1.00  0.00     0.292 C 
ATOM     16  O   UNL A   1      30.362  24.018  23.109  1.00  0.00    -0.265 OA
ATOM     17  H   UNL A   1      29.602  26.342  22.741  1.00  0.00     0.164 HD
BRANCH  15  18
ATOM     18  C   UNL A   1      32.509  24.663  22.330  1.00  0.00     0.252 C 
ATOM     19  O   UNL A   1      32.872  25.047  21.219  1.00  0.00    -0.283 OA
BRANCH  18  20
ATOM     20  C   UNL A   1      33.362  23.821  23.180  1.00  0.00     0.054 A 
ATOM     21  N   UNL A   1      34.938  22.954  24.557  1.00  0.00    -0.240 N 
ATOM     22  C   UNL A   1      34.518  24.120  23.914  1.00  0.00     0.033 A 
ATOM     23  C   UNL A   1      33.910  22.004  24.414  1.00  0.00     0.065 A 
ATOM     24  H   UNL A   1      34.978  25.042  23.969  1.00  0.00     0.084 H 
ATOM     25  C   UNL A   1      33.164  22.415  23.313  1.00  0.00     0.012 A 
ATOM     26  C   UNL A   1      33.776  20.707  24.948  1.00  0.00    -0.037 A 
ATOM     27  C   UNL A   1      32.402  21.454  22.615  1.00  0.00    -0.052 A 
ATOM     28  C   UNL A   1      33.088  19.758  24.194  1.00  0.00    -0.060 A 
ATOM     29  H   UNL A   1      34.175  20.467  25.868  1.00  0.00     0.065 H 
ATOM     30  C   UNL A   1      32.440  20.117  23.020  1.00  0.00    -0.061 A 
ATOM     31  H   UNL A   1      31.821  21.736  21.810  1.00  0.00     0.063 H 
ATOM     32  H   UNL A   1      33.058  18.777  24.512  1.00  0.00     0.062 H 
ATOM     33  H   UNL A   1      31.985  19.393  22.442  1.00  0.00     0.062 H 
BRANCH  21  34
ATOM     34  S   UNL A   1      36.508  22.199  24.402  1.00  0.00     0.268 S 
ATOM     35  O   UNL A   1      36.929  22.603  23.069  1.00  0.00    -0.201 OA
ATOM     36  O   UNL A   1      36.207  20.805  24.704  1.00  0.00    -0.201 OA
BRANCH  34  37
ATOM     37  C   UNL A   1      37.913  22.461  25.419  1.00  0.00     0.088 A 
ATOM     38  C   UNL A   1      40.161  22.203  27.106  1.00  0.00    -0.051 A 
ATOM     39  C   UNL A   1      39.769  21.127  26.324  1.00  0.00    -0.058 A 
ATOM     40  C   UNL A   1      39.433  23.413  27.020  1.00  0.00    -0.058 A 
ATOM     41  C   UNL A   1      38.675  21.266  25.490  1.00  0.00    -0.041 A 
ATOM     42  H   UNL A   1      40.285  20.235  26.364  1.00  0.00     0.063 H 
ATOM     43  C   UNL A   1      38.297  23.552  26.178  1.00  0.00    -0.041 A 
ATOM     44  H   UNL A   1      39.737  24.219  27.587  1.00  0.00     0.063 H 
ATOM     45  H   UNL A   1      38.400  20.468  24.896  1.00  0.00     0.064 H 
ATOM     46  H   UNL A   1      37.774  24.441  26.135  1.00  0.00     0.064 H 
BRANCH  38  47
ATOM     47  C   UNL A   1      41.312  21.983  28.047  1.00  0.00    -0.040 C 
ATOM     48  H   UNL A   1      41.602  22.918  28.480  1.00  0.00     0.028 H 
ATOM     49  H   UNL A   1      42.139  21.568  27.507  1.00  0.00     0.028 H 
ATOM     50  H   UNL A   1      41.016  21.307  28.820  1.00  0.00     0.028 H 
ENDBRANCH  38  47
ENDBRANCH  34  37
ENDBRANCH  21  34
ENDBRANCH  18  20
ENDBRANCH  15  18
ENDBRANCH  11  14
ENDBRANCH   8  11
ENDBRANCH   5   7
BRANCH   5  51
ATOM     51  C   UNL A   1      31.832  27.531  26.310  1.00  0.00     0.004 C 
ATOM     52  H   UNL A   1      31.249  28.310  26.757  1.00  0.00     0.034 H 
ATOM     53  H   UNL A   1      32.710  27.188  26.817  1.00  0.00     0.034 H 
BRANCH  51  54
ATOM     54  C   UNL A   1      30.959  26.297  26.306  1.00  0.00    -0.020 A 
ATOM     55  C   UNL A   1      29.627  26.149  25.977  1.00  0.00     0.005 A 
ATOM     56  C   UNL A   1      31.407  24.966  26.656  1.00  0.00     0.003 A 
ATOM     57  N   UNL A   1      29.333  24.817  25.875  1.00  0.00    -0.361 N 
ATOM     58  H   UNL A   1      28.957  26.922  25.833  1.00  0.00     0.082 H 
ATOM     59  C   UNL A   1      30.399  24.070  26.296  1.00  0.00     0.046 A 
ATOM     60  C   UNL A   1      32.584  24.433  27.224  1.00  0.00    -0.053 A 
ATOM     61  H   UNL A   1      28.481  24.450  25.546  1.00  0.00     0.166 HD
ATOM     62  C   UNL A   1      30.526  22.682  26.395  1.00  0.00    -0.038 A 
ATOM     63  C   UNL A   1      32.702  23.046  27.397  1.00  0.00    -0.062 A 
ATOM     64  H   UNL A   1      33.354  25.060  27.509  1.00  0.00     0.063 H 
ATOM     65  C   UNL A   1      31.697  22.184  26.966  1.00  0.00    -0.060 A 
ATOM     66  H   UNL A   1      29.783  22.050  26.060  1.00  0.00     0.064 H 
ATOM     67  H   UNL A   1      33.544  22.659  27.850  1.00  0.00     0.062 H 
ATOM     68  H   UNL A   1      31.820  21.164  27.069  1.00  0.00     0.062 H 
ENDBRANCH  51  54
ENDBRANCH   5  51
ENDBRANCH   1   5
BRANCH   3  69
ATOM     69  C   UNL A   1      33.003  30.603  26.975  1.00  0.00     0.017 C 
ATOM     70  H   UNL A   1      32.397  29.816  27.374  1.00  0.00     0.049 H 
ATOM     71  H   UNL A   1      32.401  31.393  26.577  1.00  0.00     0.049 H 
BRANCH  69  72
ATOM     72  C   UNL A   1      33.857  31.185  28.102  1.00  0.00    -0.036 C 
ATOM     73  H   UNL A   1      34.679  30.522  28.271  1.00  0.00     0.028 H 
ATOM     74  H   UNL A   1      33.210  31.284  28.948  1.00  0.00     0.028 H 
BRANCH  72  75
ATOM     75  C   UNL A   1      34.424  32.588  27.830  1.00  0.00    -0.052 C 
ATOM     76  H   UNL A   1      34.784  32.605  26.823  1.00  0.00     0.027 H 
ATOM     77  H   UNL A   1      35.182  32.741  28.568  1.00  0.00     0.027 H 
BRANCH  75  78
ATOM     78  C   UNL A   1      33.440  33.754  27.997  1.00  0.00    -0.052 C 
ATOM     79  H   UNL A   1      32.463  33.342  28.139  1.00  0.00     0.027 H 
ATOM     80  H   UNL A   1      33.534  34.345  27.110  1.00  0.00     0.027 H 
BRANCH  78  81
ATOM     81  C   UNL A   1      33.728  34.698  29.162  1.00  0.00    -0.036 C 
ATOM     82  H   UNL A   1      32.854  35.291  29.338  1.00  0.00     0.028 H 
ATOM     83  H   UNL A   1      34.576  35.285  28.881  1.00  0.00     0.028 H 
BRANCH  81  84
ATOM     84  C   UNL A   1      34.095  33.992  30.461  1.00  0.00     0.018 C 
ATOM     85  H   UNL A   1      34.657  33.114  30.221  1.00  0.00     0.049 H 
ATOM     86  H   UNL A   1      33.177  33.765  30.963  1.00  0.00     0.049 H 
BRANCH  84  87
ATOM     87  N   UNL A   1      34.882  34.806  31.366  1.00  0.00    -0.352 N 
ATOM     88  C   UNL A   1      36.091  34.544  31.989  1.00  0.00     0.251 C 
ATOM     89  H   UNL A   1      34.494  35.688  31.572  1.00  0.00     0.163 HD
ATOM     90  O   UNL A   1      36.460  35.260  32.894  1.00  0.00    -0.269 OA
BRANCH  88  91
ATOM     91  C   UNL A   1      37.015  33.511  31.437  1.00  0.00     0.039 A 
ATOM     92  C   UNL A   1      37.033  32.271  32.097  1.00  0.00    -0.049 A 
ATOM     93  C   UNL A   1      37.977  33.790  30.472  1.00  0.00    -0.049 A 
ATOM     94  C   UNL A   1      38.144  31.439  31.977  1.00  0.00    -0.053 A 
ATOM     95  H   UNL A   1      36.225  31.977  32.668  1.00  0.00     0.063 H 
ATOM     96  C   UNL A   1      39.117  33.017  30.418  1.00  0.00    -0.053 A 
ATOM     97  H   UNL A   1      37.839  34.565  29.806  1.00  0.00     0.063 H 
ATOM     98  C   UNL A   1      39.226  31.883  31.225  1.00  0.00    -0.014 A 
ATOM     99  H   UNL A   1      38.162  30.515  32.436  1.00  0.00     0.063 H 
ATOM    100  H   UNL A   1      39.887  33.275  29.781  1.00  0.00     0.063 H 
BRANCH  98 101
ATOM    101  C   UNL A   1      40.553  31.299  31.300  1.00  0.00     0.031 A 
ATOM    102  C   UNL A   1      40.892  30.112  30.496  1.00  0.00     0.074 A 
ATOM    103  C   UNL A   1      41.501  31.942  32.018  1.00  0.00     0.049 A 
ATOM    104  N   UNL A   1      41.860  29.309  30.779  1.00  0.00    -0.248 NA
ATOM    105  C   UNL A   1      40.140  29.716  29.309  1.00  0.00    -0.034 C 
ATOM    106  C   UNL A   1      42.943  31.720  31.990  1.00  0.00    -0.036 A 
ATOM    107  N   UNL A   1      41.306  32.842  33.080  1.00  0.00    -0.354 N 
ATOM    108  C   UNL A   1      42.025  28.463  29.709  1.00  0.00     0.074 A 
ATOM    109  C   UNL A   1      40.898  28.718  28.841  1.00  0.00    -0.034 C 
ATOM    110  H   UNL A   1      39.261  30.101  28.933  1.00  0.00     0.065 H 
ATOM    111  C   UNL A   1      43.478  32.206  33.121  1.00  0.00    -0.036 A 
ATOM    112  H   UNL A   1      43.465  31.265  31.225  1.00  0.00     0.065 H 
ATOM    113  C   UNL A   1      42.376  32.615  33.974  1.00  0.00     0.049 A 
ATOM    114  H   UNL A   1      40.576  33.495  33.179  1.00  0.00     0.167 HD
ATOM    115  C   UNL A   1      43.165  27.727  29.610  1.00  0.00     0.037 A 
ATOM    116  H   UNL A   1      40.703  28.196  27.971  1.00  0.00     0.065 H 
ATOM    117  H   UNL A   1      44.483  32.277  33.343  1.00  0.00     0.065 H 
ATOM    118  C   UNL A   1      42.152  32.139  35.234  1.00  0.00     0.037 A 
ATOM    119  C   UNL A   1      44.044  27.951  30.750  1.00  0.00     0.049 A 
ATOM    120  C   UNL A   1      42.822  30.813  35.508  1.00  0.00     0.074 A 
ATOM    121  C   UNL A   1      45.106  28.817  30.949  1.00  0.00    -0.036 A 
ATOM    122  N   UNL A   1      43.658  27.502  32.007  1.00  0.00    -0.354 N 
ATOM    123  N   UNL A   1      43.201  29.987  34.574  1.00  0.00    -0.248 NA
ATOM    124  C   UNL A   1      43.097  30.305  36.850  1.00  0.00    -0.034 C 
ATOM    125  C   UNL A   1      45.321  28.936  32.343  1.00  0.00    -0.036 A 
ATOM    126  H   UNL A   1      45.647  29.293  30.210  1.00  0.00     0.065 H 
ATOM    127  C   UNL A   1      44.408  28.120  32.989  1.00  0.00     0.049 A 
ATOM    128  H   UNL A   1      42.952  26.838  32.174  1.00  0.00     0.167 HD
ATOM    129  C   UNL A   1      43.741  28.866  35.147  1.00  0.00     0.074 A 
ATOM    130  C   UNL A   1      43.665  29.118  36.573  1.00  0.00    -0.034 C 
ATOM    131  H   UNL A   1      42.906  30.741  37.765  1.00  0.00     0.065 H 
ATOM    132  H   UNL A   1      46.034  29.527  32.799  1.00  0.00     0.065 H 
ATOM    133  C   UNL A   1      44.196  27.822  34.395  1.00  0.00     0.037 A 
ATOM    134  H   UNL A   1      44.007  28.462  37.292  1.00  0.00     0.065 H 
BRANCH 115 135
ATOM    135  C   UNL A   1      43.580  27.038  28.340  1.00  0.00     0.064 A 
ATOM    136  C   UNL A   1      44.482  27.647  27.442  1.00  0.00     0.173 A 
ATOM    137  C   UNL A   1      43.081  25.787  27.939  1.00  0.00     0.173 A 
ATOM    138  F   UNL A   1      45.072  28.815  27.726  1.00  0.00    -0.203 F 
ATOM    139  C   UNL A   1      44.793  27.085  26.203  1.00  0.00     0.198 A 
ATOM    140  C   UNL A   1      43.352  25.248  26.677  1.00  0.00     0.198 A 
ATOM    141  F   UNL A   1      42.331  25.048  28.769  1.00  0.00    -0.203 F 
ATOM    142  F   UNL A   1      45.652  27.711  25.386  1.00  0.00    -0.200 F 
ATOM    143  C   UNL A   1      44.204  25.901  25.806  1.00  0.00     0.200 A 
ATOM    144  F   UNL A   1      42.775  24.097  26.306  1.00  0.00    -0.200 F 
ATOM    145  F   UNL A   1      44.464  25.388  24.597  1.00  0.00    -0.200 F 
ENDBRANCH 115 135
BRANCH 118 146
ATOM    146  C   UNL A   1      40.840  32.568  35.790  1.00  0.00     0.064 A 
ATOM    147  C   UNL A   1      39.774  31.647  35.751  1.00  0.00     0.173 A 
ATOM    148  C   UNL A   1      40.738  33.639  36.684  1.00  0.00     0.173 A 
ATOM    149  F   UNL A   1      39.825  30.599  34.913  1.00  0.00    -0.203 F 
ATOM    150  C   UNL A   1      38.720  31.722  36.658  1.00  0.00     0.198 A 
ATOM    151  C   UNL A   1      39.670  33.719  37.582  1.00  0.00     0.198 A 
ATOM    152  F   UNL A   1      41.725  34.542  36.777  1.00  0.00    -0.203 F 
ATOM    153  F   UNL A   1      37.787  30.758  36.678  1.00  0.00    -0.200 F 
ATOM    154  C   UNL A   1      38.685  32.742  37.593  1.00  0.00     0.200 A 
ATOM    155  F   UNL A   1      39.646  34.694  38.502  1.00  0.00    -0.200 F 
ATOM    156  F   UNL A   1      37.726  32.761  38.529  1.00  0.00    -0.200 F 
ENDBRANCH 118 146
BRANCH 133 157
ATOM    157  C   UNL A   1      44.580  26.456  34.907  1.00  0.00     0.064 A 
ATOM    158  C   UNL A   1      45.795  26.175  35.552  1.00  0.00     0.173 A 
ATOM    159  C   UNL A   1      43.634  25.399  34.901  1.00  0.00     0.173 A 
ATOM    160  F   UNL A   1      46.725  27.123  35.725  1.00  0.00    -0.203 F 
ATOM    161  C   UNL A   1      46.068  24.918  36.098  1.00  0.00     0.198 A 
ATOM    162  C   UNL A   1      43.888  24.166  35.499  1.00  0.00     0.198 A 
ATOM    163  F   UNL A   1      42.425  25.543  34.339  1.00  0.00    -0.203 F 
ATOM    164  F   UNL A   1      47.259  24.689  36.668  1.00  0.00    -0.200 F 
ATOM    165  C   UNL A   1      45.111  23.920  36.084  1.00  0.00     0.200 A 
ATOM    166  F   UNL A   1      42.929  23.229  35.525  1.00  0.00    -0.200 F 
ATOM    167  F   UNL A   1      45.360  22.734  36.653  1.00  0.00    -0.200 F 
ENDBRANCH 133 157
ENDBRANCH  98 101
ENDBRANCH  88  91
ENDBRANCH  84  87
ENDBRANCH  81  84
ENDBRANCH  78  81
ENDBRANCH  75  78
ENDBRANCH  72  75
ENDBRANCH  69  72
ENDBRANCH   3  69
TORSDOF 23
ENDMDL
MODEL 6
REMARK VINA RESULT:     -11.9      5.088     10.373
REMARK SMILES Cc1ccc(S(=O)(=O)n2cc(C(=O)C(=O)NCC(=O)N[C@H](Cc3c[nH]c4ccccc34)C(=O)NCCCCCCNC(=O)c3ccc(-c4c5nc(c(-c6c(F)c(F)c(F)c(F)c6F)c6ccc([nH]6)c(-c6c(F)c(F)c(F)c(F)c6F)c6nc(c(-c7c(F)c(F)c(F)c(F)c7F)c7ccc4[nH]7)C=C6)C=C5)cc3)c3ccccc32)cc1
REMARK SMILES IDX 32 1 33 2 34 3 21 5 20 7 18 8 19 9 17 11 16 14 14 15 15 16
REMARK SMILES IDX 12 18 13 19 11 20 9 21 10 22 112 23 107 25 111 26 108 27
REMARK SMILES IDX 110 28 109 30 6 34 7 35 8 36 5 37 2 38 3 39 114 40 4 41
REMARK SMILES IDX 113 43 1 47 22 51 23 54 24 55 31 56 25 57 26 59 30 60 27 62
REMARK SMILES IDX 29 63 28 65 35 69 36 72 37 75 38 78 39 81 40 84 41 87 42 88
REMARK SMILES IDX 43 90 44 91 45 92 106 93 46 94 105 96 47 98 48 101 49 102
REMARK SMILES IDX 99 103 50 104 104 105 98 106 100 107 51 108 103 109 97 111
REMARK SMILES IDX 96 113 52 115 84 118 64 119 83 120 65 121 68 122 82 123
REMARK SMILES IDX 101 124 66 125 67 127 81 129 102 130 69 133 53 135 54 136
REMARK SMILES IDX 62 137 55 138 56 139 60 140 63 141 57 142 58 143 61 144
REMARK SMILES IDX 59 145 85 146 86 147 94 148 87 149 88 150 92 151 95 152
REMARK SMILES IDX 89 153 90 154 93 155 91 156 70 157 71 158 79 159 72 160
REMARK SMILES IDX 73 161 77 162 80 163 74 164 75 165 78 166 76 167
REMARK H PARENT 34 4 21 6 20 10 17 12 17 13 16 17 10 24 111 29 108 31 110 32
REMARK H PARENT 109 33 3 42 114 44 4 45 113 46 1 48 1 49 1 50 22 52 22 53
REMARK H PARENT 24 58 25 61 30 64 27 66 29 67 28 68 35 70 35 71 36 73 36 74
REMARK H PARENT 37 76 37 77 38 79 38 80 39 82 39 83 40 85 40 86 41 89 45 95
REMARK H PARENT 106 97 46 99 105 100 104 110 98 112 100 114 103 116 97 117
REMARK H PARENT 65 126 68 128 101 131 66 132 102 134
REMARK Flexibility Score: inf
ROOT
ATOM      1  C   UNL A   1      38.998  29.530  29.190  1.00  0.00     0.242 C 
ATOM      2  O   UNL A   1      39.323  28.407  28.786  1.00  0.00    -0.273 OA
ATOM      3  N   UNL A   1      40.025  30.350  29.532  1.00  0.00    -0.354 N 
ATOM      4  H   UNL A   1      40.904  30.028  29.229  1.00  0.00     0.163 HD
ENDROOT
BRANCH   1   5
ATOM      5  C   UNL A   1      37.512  29.903  29.301  1.00  0.00     0.112 C 
ATOM      6  H   UNL A   1      37.461  30.966  29.184  1.00  0.00     0.064 H 
BRANCH   5   7
ATOM      7  N   UNL A   1      37.049  29.461  30.627  1.00  0.00    -0.342 N 
ATOM      8  C   UNL A   1      36.922  30.177  31.781  1.00  0.00     0.240 C 
ATOM      9  O   UNL A   1      36.653  29.536  32.801  1.00  0.00    -0.273 OA
ATOM     10  H   UNL A   1      36.794  28.511  30.689  1.00  0.00     0.164 HD
BRANCH   8  11
ATOM     11  C   UNL A   1      36.908  31.722  31.790  1.00  0.00     0.097 C 
ATOM     12  H   UNL A   1      37.880  32.046  32.098  1.00  0.00     0.059 H 
ATOM     13  H   UNL A   1      36.619  31.990  30.795  1.00  0.00     0.059 H 
BRANCH  11  14
ATOM     14  N   UNL A   1      35.936  32.400  32.643  1.00  0.00    -0.340 N 
ATOM     15  C   UNL A   1      36.093  32.862  33.942  1.00  0.00     0.292 C 
ATOM     16  O   UNL A   1      35.220  33.497  34.521  1.00  0.00    -0.265 OA
ATOM     17  H   UNL A   1      35.049  32.550  32.242  1.00  0.00     0.164 HD
BRANCH  15  18
ATOM     18  C   UNL A   1      37.412  32.599  34.661  1.00  0.00     0.252 C 
ATOM     19  O   UNL A   1      37.459  31.572  35.338  1.00  0.00    -0.283 OA
BRANCH  18  20
ATOM     20  C   UNL A   1      38.482  33.606  34.699  1.00  0.00     0.054 A 
ATOM     21  N   UNL A   1      40.184  35.036  34.267  1.00  0.00    -0.240 N 
ATOM     22  C   UNL A   1      39.362  34.057  33.707  1.00  0.00     0.033 A 
ATOM     23  C   UNL A   1      39.651  35.357  35.530  1.00  0.00     0.065 A 
ATOM     24  H   UNL A   1      39.397  33.723  32.731  1.00  0.00     0.084 H 
ATOM     25  C   UNL A   1      38.874  34.264  35.902  1.00  0.00     0.012 A 
ATOM     26  C   UNL A   1      40.032  36.340  36.465  1.00  0.00    -0.037 A 
ATOM     27  C   UNL A   1      38.622  34.049  37.274  1.00  0.00    -0.052 A 
ATOM     28  C   UNL A   1      39.845  36.061  37.818  1.00  0.00    -0.060 A 
ATOM     29  H   UNL A   1      40.436  37.238  36.159  1.00  0.00     0.065 H 
ATOM     30  C   UNL A   1      39.183  34.910  38.221  1.00  0.00    -0.061 A 
ATOM     31  H   UNL A   1      38.028  33.261  37.576  1.00  0.00     0.063 H 
ATOM     32  H   UNL A   1      40.203  36.717  38.528  1.00  0.00     0.062 H 
ATOM     33  H   UNL A   1      39.104  34.687  39.226  1.00  0.00     0.062 H 
BRANCH  21  34
ATOM     34  S   UNL A   1      41.932  35.008  34.320  1.00  0.00     0.268 S 
ATOM     35  O   UNL A   1      42.276  36.421  34.340  1.00  0.00    -0.201 OA
ATOM     36  O   UNL A   1      42.259  34.171  33.172  1.00  0.00    -0.201 OA
BRANCH  34  37
ATOM     37  C   UNL A   1      42.943  34.280  35.557  1.00  0.00     0.088 A 
ATOM     38  C   UNL A   1      44.947  32.929  37.012  1.00  0.00    -0.051 A 
ATOM     39  C   UNL A   1      45.238  33.423  35.748  1.00  0.00    -0.058 A 
ATOM     40  C   UNL A   1      43.655  33.136  37.547  1.00  0.00    -0.058 A 
ATOM     41  C   UNL A   1      44.254  34.095  35.048  1.00  0.00    -0.041 A 
ATOM     42  H   UNL A   1      46.174  33.289  35.337  1.00  0.00     0.063 H 
ATOM     43  C   UNL A   1      42.637  33.810  36.822  1.00  0.00    -0.041 A 
ATOM     44  H   UNL A   1      43.446  32.786  38.495  1.00  0.00     0.063 H 
ATOM     45  H   UNL A   1      44.482  34.478  34.117  1.00  0.00     0.064 H 
ATOM     46  H   UNL A   1      41.697  33.945  37.227  1.00  0.00     0.064 H 
BRANCH  38  47
ATOM     47  C   UNL A   1      46.026  32.145  37.705  1.00  0.00    -0.040 C 
ATOM     48  H   UNL A   1      46.590  32.797  38.339  1.00  0.00     0.028 H 
ATOM     49  H   UNL A   1      46.676  31.708  36.974  1.00  0.00     0.028 H 
ATOM     50  H   UNL A   1      45.582  31.371  38.294  1.00  0.00     0.028 H 
ENDBRANCH  38  47
ENDBRANCH  34  37
ENDBRANCH  21  34
ENDBRANCH  18  20
ENDBRANCH  15  18
ENDBRANCH  11  14
ENDBRANCH   8  11
ENDBRANCH   5   7
BRANCH   5  51
ATOM     51  C   UNL A   1      36.563  29.454  28.164  1.00  0.00     0.004 C 
ATOM     52  H   UNL A   1      36.229  28.471  28.421  1.00  0.00     0.034 H 
ATOM     53  H   UNL A   1      37.174  29.581  27.294  1.00  0.00     0.034 H 
BRANCH  51  54
ATOM     54  C   UNL A   1      35.325  30.243  27.806  1.00  0.00    -0.020 A 
ATOM     55  C   UNL A   1      34.128  29.824  27.260  1.00  0.00     0.005 A 
ATOM     56  C   UNL A   1      35.167  31.668  28.000  1.00  0.00     0.003 A 
ATOM     57  N   UNL A   1      33.214  30.837  27.349  1.00  0.00    -0.361 N 
ATOM     58  H   UNL A   1      33.952  28.893  26.850  1.00  0.00     0.082 H 
ATOM     59  C   UNL A   1      33.824  31.980  27.786  1.00  0.00     0.046 A 
ATOM     60  C   UNL A   1      36.034  32.722  28.361  1.00  0.00    -0.053 A 
ATOM     61  H   UNL A   1      32.257  30.755  27.131  1.00  0.00     0.166 HD
ATOM     62  C   UNL A   1      33.284  33.254  27.984  1.00  0.00    -0.038 A 
ATOM     63  C   UNL A   1      35.524  34.022  28.497  1.00  0.00    -0.062 A 
ATOM     64  H   UNL A   1      37.037  32.538  28.525  1.00  0.00     0.063 H 
ATOM     65  C   UNL A   1      34.164  34.277  28.336  1.00  0.00    -0.060 A 
ATOM     66  H   UNL A   1      32.273  33.431  27.876  1.00  0.00     0.064 H 
ATOM     67  H   UNL A   1      36.164  34.799  28.720  1.00  0.00     0.062 H 
ATOM     68  H   UNL A   1      33.804  35.234  28.476  1.00  0.00     0.062 H 
ENDBRANCH  51  54
ENDBRANCH   5  51
ENDBRANCH   1   5
BRANCH   3  69
ATOM     69  C   UNL A   1      40.083  31.604  30.253  1.00  0.00     0.017 C 
ATOM     70  H   UNL A   1      39.090  31.889  30.532  1.00  0.00     0.049 H 
ATOM     71  H   UNL A   1      40.530  32.334  29.611  1.00  0.00     0.049 H 
BRANCH  69  72
ATOM     72  C   UNL A   1      40.938  31.502  31.516  1.00  0.00    -0.036 C 
ATOM     73  H   UNL A   1      40.657  32.298  32.173  1.00  0.00     0.028 H 
ATOM     74  H   UNL A   1      41.956  31.556  31.194  1.00  0.00     0.028 H 
BRANCH  72  75
ATOM     75  C   UNL A   1      40.802  30.178  32.287  1.00  0.00    -0.052 C 
ATOM     76  H   UNL A   1      41.761  29.704  32.292  1.00  0.00     0.027 H 
ATOM     77  H   UNL A   1      40.043  29.624  31.777  1.00  0.00     0.027 H 
BRANCH  75  78
ATOM     78  C   UNL A   1      40.327  30.294  33.741  1.00  0.00    -0.052 C 
ATOM     79  H   UNL A   1      40.227  29.304  34.134  1.00  0.00     0.027 H 
ATOM     80  H   UNL A   1      39.406  30.839  33.705  1.00  0.00     0.027 H 
BRANCH  78  81
ATOM     81  C   UNL A   1      41.244  31.082  34.675  1.00  0.00    -0.036 C 
ATOM     82  H   UNL A   1      40.924  30.911  35.682  1.00  0.00     0.028 H 
ATOM     83  H   UNL A   1      41.171  32.108  34.385  1.00  0.00     0.028 H 
BRANCH  81  84
ATOM     84  C   UNL A   1      42.715  30.701  34.571  1.00  0.00     0.018 C 
ATOM     85  H   UNL A   1      43.291  31.598  34.484  1.00  0.00     0.049 H 
ATOM     86  H   UNL A   1      42.814  30.067  33.713  1.00  0.00     0.049 H 
BRANCH  84  87
ATOM     87  N   UNL A   1      43.206  29.951  35.710  1.00  0.00    -0.352 N 
ATOM     88  C   UNL A   1      43.374  28.586  35.882  1.00  0.00     0.251 C 
ATOM     89  H   UNL A   1      43.461  30.499  36.487  1.00  0.00     0.163 HD
ATOM     90  O   UNL A   1      43.571  28.149  36.995  1.00  0.00    -0.269 OA
BRANCH  88  91
ATOM     91  C   UNL A   1      43.496  27.687  34.698  1.00  0.00     0.039 A 
ATOM     92  C   UNL A   1      44.779  27.559  34.139  1.00  0.00    -0.049 A 
ATOM     93  C   UNL A   1      42.398  27.167  34.022  1.00  0.00    -0.049 A 
ATOM     94  C   UNL A   1      44.920  27.153  32.814  1.00  0.00    -0.053 A 
ATOM     95  H   UNL A   1      45.614  27.765  34.709  1.00  0.00     0.063 H 
ATOM     96  C   UNL A   1      42.520  26.851  32.685  1.00  0.00    -0.053 A 
ATOM     97  H   UNL A   1      41.503  27.021  34.514  1.00  0.00     0.063 H 
ATOM     98  C   UNL A   1      43.771  26.915  32.068  1.00  0.00    -0.014 A 
ATOM     99  H   UNL A   1      45.856  27.031  32.397  1.00  0.00     0.063 H 
ATOM    100  H   UNL A   1      41.689  26.566  32.143  1.00  0.00     0.063 H 
BRANCH  98 101
ATOM    101  C   UNL A   1      43.753  26.833  30.619  1.00  0.00     0.031 A 
ATOM    102  C   UNL A   1      44.091  25.571  29.939  1.00  0.00     0.074 A 
ATOM    103  C   UNL A   1      43.296  27.895  29.919  1.00  0.00     0.049 A 
ATOM    104  N   UNL A   1      44.486  25.502  28.714  1.00  0.00    -0.248 NA
ATOM    105  C   UNL A   1      44.038  24.272  30.603  1.00  0.00    -0.034 C 
ATOM    106  C   UNL A   1      42.905  27.934  28.513  1.00  0.00    -0.036 A 
ATOM    107  N   UNL A   1      43.257  29.239  30.330  1.00  0.00    -0.354 N 
ATOM    108  C   UNL A   1      44.490  24.177  28.352  1.00  0.00     0.074 A 
ATOM    109  C   UNL A   1      44.256  23.444  29.575  1.00  0.00    -0.034 C 
ATOM    110  H   UNL A   1      43.875  24.052  31.598  1.00  0.00     0.065 H 
ATOM    111  C   UNL A   1      42.943  29.207  28.088  1.00  0.00    -0.036 A 
ATOM    112  H   UNL A   1      42.643  27.117  27.941  1.00  0.00     0.065 H 
ATOM    113  C   UNL A   1      43.506  30.001  29.166  1.00  0.00     0.049 A 
ATOM    114  H   UNL A   1      43.091  29.578  31.239  1.00  0.00     0.167 HD
ATOM    115  C   UNL A   1      44.564  23.845  27.034  1.00  0.00     0.037 A 
ATOM    116  H   UNL A   1      44.258  22.414  29.646  1.00  0.00     0.065 H 
ATOM    117  H   UNL A   1      42.630  29.556  27.169  1.00  0.00     0.065 H 
ATOM    118  C   UNL A   1      44.625  30.775  29.057  1.00  0.00     0.037 A 
ATOM    119  C   UNL A   1      44.675  25.029  26.193  1.00  0.00     0.049 A 
ATOM    120  C   UNL A   1      45.522  30.383  27.906  1.00  0.00     0.074 A 
ATOM    121  C   UNL A   1      43.728  25.789  25.528  1.00  0.00    -0.036 A 
ATOM    122  N   UNL A   1      45.834  25.795  26.243  1.00  0.00    -0.354 N 
ATOM    123  N   UNL A   1      45.503  29.209  27.341  1.00  0.00    -0.248 NA
ATOM    124  C   UNL A   1      46.522  31.272  27.319  1.00  0.00    -0.034 C 
ATOM    125  C   UNL A   1      44.305  27.047  25.229  1.00  0.00    -0.036 A 
ATOM    126  H   UNL A   1      42.769  25.491  25.291  1.00  0.00     0.065 H 
ATOM    127  C   UNL A   1      45.611  27.040  25.687  1.00  0.00     0.049 A 
ATOM    128  H   UNL A   1      46.691  25.493  26.620  1.00  0.00     0.167 HD
ATOM    129  C   UNL A   1      46.455  29.160  26.357  1.00  0.00     0.074 A 
ATOM    130  C   UNL A   1      47.057  30.480  26.373  1.00  0.00    -0.034 C 
ATOM    131  H   UNL A   1      46.755  32.247  27.564  1.00  0.00     0.065 H 
ATOM    132  H   UNL A   1      43.834  27.832  24.752  1.00  0.00     0.065 H 
ATOM    133  C   UNL A   1      46.669  28.032  25.619  1.00  0.00     0.037 A 
ATOM    134  H   UNL A   1      47.810  30.776  25.732  1.00  0.00     0.065 H 
BRANCH 115 135
ATOM    135  C   UNL A   1      44.248  22.467  26.524  1.00  0.00     0.064 A 
ATOM    136  C   UNL A   1      45.191  21.736  25.771  1.00  0.00     0.173 A 
ATOM    137  C   UNL A   1      43.008  21.834  26.716  1.00  0.00     0.173 A 
ATOM    138  F   UNL A   1      46.429  22.200  25.559  1.00  0.00    -0.203 F 
ATOM    139  C   UNL A   1      44.885  20.506  25.186  1.00  0.00     0.198 A 
ATOM    140  C   UNL A   1      42.684  20.627  26.088  1.00  0.00     0.198 A 
ATOM    141  F   UNL A   1      42.085  22.364  27.532  1.00  0.00    -0.203 F 
ATOM    142  F   UNL A   1      45.818  19.858  24.475  1.00  0.00    -0.200 F 
ATOM    143  C   UNL A   1      43.622  19.966  25.318  1.00  0.00     0.200 A 
ATOM    144  F   UNL A   1      41.455  20.113  26.227  1.00  0.00    -0.200 F 
ATOM    145  F   UNL A   1      43.314  18.810  24.715  1.00  0.00    -0.200 F 
ENDBRANCH 115 135
BRANCH 118 146
ATOM    146  C   UNL A   1      45.092  31.305  30.367  1.00  0.00     0.064 A 
ATOM    147  C   UNL A   1      46.186  30.667  30.985  1.00  0.00     0.173 A 
ATOM    148  C   UNL A   1      44.777  32.602  30.788  1.00  0.00     0.173 A 
ATOM    149  F   UNL A   1      46.532  29.423  30.614  1.00  0.00    -0.203 F 
ATOM    150  C   UNL A   1      47.006  31.344  31.884  1.00  0.00     0.198 A 
ATOM    151  C   UNL A   1      45.594  33.272  31.702  1.00  0.00     0.198 A 
ATOM    152  F   UNL A   1      43.756  33.266  30.229  1.00  0.00    -0.203 F 
ATOM    153  F   UNL A   1      48.112  30.750  32.356  1.00  0.00    -0.200 F 
ATOM    154  C   UNL A   1      46.726  32.658  32.218  1.00  0.00     0.200 A 
ATOM    155  F   UNL A   1      45.336  34.551  32.011  1.00  0.00    -0.200 F 
ATOM    156  F   UNL A   1      47.566  33.343  33.006  1.00  0.00    -0.200 F 
ENDBRANCH 118 146
BRANCH 133 157
ATOM    157  C   UNL A   1      47.832  27.783  24.691  1.00  0.00     0.064 A 
ATOM    158  C   UNL A   1      49.095  27.347  25.121  1.00  0.00     0.173 A 
ATOM    159  C   UNL A   1      47.647  27.827  23.286  1.00  0.00     0.173 A 
ATOM    160  F   UNL A   1      49.360  27.153  26.419  1.00  0.00    -0.203 F 
ATOM    161  C   UNL A   1      50.115  27.034  24.218  1.00  0.00     0.198 A 
ATOM    162  C   UNL A   1      48.648  27.457  22.389  1.00  0.00     0.198 A 
ATOM    163  F   UNL A   1      46.480  28.203  22.744  1.00  0.00    -0.203 F 
ATOM    164  F   UNL A   1      51.317  26.660  24.679  1.00  0.00    -0.200 F 
ATOM    165  C   UNL A   1      49.888  27.076  22.855  1.00  0.00     0.200 A 
ATOM    166  F   UNL A   1      48.392  27.451  21.073  1.00  0.00    -0.200 F 
ATOM    167  F   UNL A   1      50.853  26.728  21.994  1.00  0.00    -0.200 F 
ENDBRANCH 133 157
ENDBRANCH  98 101
ENDBRANCH  88  91
ENDBRANCH  84  87
ENDBRANCH  81  84
ENDBRANCH  78  81
ENDBRANCH  75  78
ENDBRANCH  72  75
ENDBRANCH  69  72
ENDBRANCH   3  69
TORSDOF 23
ENDMDL
MODEL 7
REMARK VINA RESULT:     -11.8      3.932      7.868
REMARK SMILES Cc1ccc(S(=O)(=O)n2cc(C(=O)C(=O)NCC(=O)N[C@H](Cc3c[nH]c4ccccc34)C(=O)NCCCCCCNC(=O)c3ccc(-c4c5nc(c(-c6c(F)c(F)c(F)c(F)c6F)c6ccc([nH]6)c(-c6c(F)c(F)c(F)c(F)c6F)c6nc(c(-c7c(F)c(F)c(F)c(F)c7F)c7ccc4[nH]7)C=C6)C=C5)cc3)c3ccccc32)cc1
REMARK SMILES IDX 32 1 33 2 34 3 21 5 20 7 18 8 19 9 17 11 16 14 14 15 15 16
REMARK SMILES IDX 12 18 13 19 11 20 9 21 10 22 112 23 107 25 111 26 108 27
REMARK SMILES IDX 110 28 109 30 6 34 7 35 8 36 5 37 2 38 3 39 114 40 4 41
REMARK SMILES IDX 113 43 1 47 22 51 23 54 24 55 31 56 25 57 26 59 30 60 27 62
REMARK SMILES IDX 29 63 28 65 35 69 36 72 37 75 38 78 39 81 40 84 41 87 42 88
REMARK SMILES IDX 43 90 44 91 45 92 106 93 46 94 105 96 47 98 48 101 49 102
REMARK SMILES IDX 99 103 50 104 104 105 98 106 100 107 51 108 103 109 97 111
REMARK SMILES IDX 96 113 52 115 84 118 64 119 83 120 65 121 68 122 82 123
REMARK SMILES IDX 101 124 66 125 67 127 81 129 102 130 69 133 53 135 54 136
REMARK SMILES IDX 62 137 55 138 56 139 60 140 63 141 57 142 58 143 61 144
REMARK SMILES IDX 59 145 85 146 86 147 94 148 87 149 88 150 92 151 95 152
REMARK SMILES IDX 89 153 90 154 93 155 91 156 70 157 71 158 79 159 72 160
REMARK SMILES IDX 73 161 77 162 80 163 74 164 75 165 78 166 76 167
REMARK H PARENT 34 4 21 6 20 10 17 12 17 13 16 17 10 24 111 29 108 31 110 32
REMARK H PARENT 109 33 3 42 114 44 4 45 113 46 1 48 1 49 1 50 22 52 22 53
REMARK H PARENT 24 58 25 61 30 64 27 66 29 67 28 68 35 70 35 71 36 73 36 74
REMARK H PARENT 37 76 37 77 38 79 38 80 39 82 39 83 40 85 40 86 41 89 45 95
REMARK H PARENT 106 97 46 99 105 100 104 110 98 112 100 114 103 116 97 117
REMARK H PARENT 65 126 68 128 101 131 66 132 102 134
REMARK Flexibility Score: inf
ROOT
ATOM      1  C   UNL A   1      33.405  27.806  25.060  1.00  0.00     0.242 C 
ATOM      2  O   UNL A   1      33.887  27.167  24.116  1.00  0.00    -0.273 OA
ATOM      3  N   UNL A   1      34.303  28.407  25.881  1.00  0.00    -0.354 N 
ATOM      4  H   UNL A   1      35.217  28.432  25.514  1.00  0.00     0.163 HD
ENDROOT
BRANCH   1   5
ATOM      5  C   UNL A   1      31.881  27.854  25.253  1.00  0.00     0.112 C 
ATOM      6  H   UNL A   1      31.709  27.744  26.304  1.00  0.00     0.064 H 
BRANCH   5   7
ATOM      7  N   UNL A   1      31.307  26.747  24.469  1.00  0.00    -0.342 N 
ATOM      8  C   UNL A   1      30.486  25.737  24.876  1.00  0.00     0.240 C 
ATOM      9  O   UNL A   1      30.263  24.843  24.054  1.00  0.00    -0.273 OA
ATOM     10  H   UNL A   1      31.550  26.736  23.515  1.00  0.00     0.164 HD
BRANCH   8  11
ATOM     11  C   UNL A   1      29.709  25.798  26.210  1.00  0.00     0.097 C 
ATOM     12  H   UNL A   1      30.391  26.138  26.959  1.00  0.00     0.059 H 
ATOM     13  H   UNL A   1      28.879  26.442  26.004  1.00  0.00     0.059 H 
BRANCH  11  14
ATOM     14  N   UNL A   1      29.095  24.570  26.710  1.00  0.00    -0.340 N 
ATOM     15  C   UNL A   1      29.711  23.399  27.128  1.00  0.00     0.292 C 
ATOM     16  O   UNL A   1      29.082  22.466  27.612  1.00  0.00    -0.265 OA
ATOM     17  H   UNL A   1      28.112  24.573  26.756  1.00  0.00     0.164 HD
BRANCH  15  18
ATOM     18  C   UNL A   1      31.228  23.285  27.014  1.00  0.00     0.252 C 
ATOM     19  O   UNL A   1      31.878  23.939  27.829  1.00  0.00    -0.283 OA
BRANCH  18  20
ATOM     20  C   UNL A   1      31.864  22.598  25.882  1.00  0.00     0.054 A 
ATOM     21  N   UNL A   1      32.461  21.210  24.195  1.00  0.00    -0.240 N 
ATOM     22  C   UNL A   1      31.522  21.419  25.206  1.00  0.00     0.033 A 
ATOM     23  C   UNL A   1      33.235  22.381  24.094  1.00  0.00     0.065 A 
ATOM     24  H   UNL A   1      30.715  20.811  25.419  1.00  0.00     0.084 H 
ATOM     25  C   UNL A   1      33.100  23.031  25.317  1.00  0.00     0.012 A 
ATOM     26  C   UNL A   1      34.248  22.738  23.181  1.00  0.00    -0.037 A 
ATOM     27  C   UNL A   1      34.108  23.933  25.719  1.00  0.00    -0.052 A 
ATOM     28  C   UNL A   1      35.274  23.565  23.635  1.00  0.00    -0.060 A 
ATOM     29  H   UNL A   1      34.230  22.398  22.208  1.00  0.00     0.065 H 
ATOM     30  C   UNL A   1      35.226  24.126  24.903  1.00  0.00    -0.061 A 
ATOM     31  H   UNL A   1      34.020  24.447  26.610  1.00  0.00     0.063 H 
ATOM     32  H   UNL A   1      36.079  23.763  23.021  1.00  0.00     0.062 H 
ATOM     33  H   UNL A   1      36.021  24.688  25.247  1.00  0.00     0.062 H 
BRANCH  21  34
ATOM     34  S   UNL A   1      33.458  19.787  23.990  1.00  0.00     0.268 S 
ATOM     35  O   UNL A   1      34.764  20.241  24.441  1.00  0.00    -0.201 OA
ATOM     36  O   UNL A   1      33.221  19.447  22.592  1.00  0.00    -0.201 OA
BRANCH  34  37
ATOM     37  C   UNL A   1      33.236  18.221  24.752  1.00  0.00     0.088 A 
ATOM     38  C   UNL A   1      33.021  15.473  25.352  1.00  0.00    -0.051 A 
ATOM     39  C   UNL A   1      33.773  15.875  24.258  1.00  0.00    -0.058 A 
ATOM     40  C   UNL A   1      32.398  16.457  26.153  1.00  0.00    -0.058 A 
ATOM     41  C   UNL A   1      33.884  17.224  23.979  1.00  0.00    -0.041 A 
ATOM     42  H   UNL A   1      34.241  15.177  23.660  1.00  0.00     0.063 H 
ATOM     43  C   UNL A   1      32.495  17.843  25.857  1.00  0.00    -0.041 A 
ATOM     44  H   UNL A   1      31.855  16.159  26.978  1.00  0.00     0.063 H 
ATOM     45  H   UNL A   1      34.462  17.517  23.175  1.00  0.00     0.064 H 
ATOM     46  H   UNL A   1      32.026  18.547  26.450  1.00  0.00     0.064 H 
BRANCH  38  47
ATOM     47  C   UNL A   1      32.872  13.994  25.575  1.00  0.00    -0.040 C 
ATOM     48  H   UNL A   1      33.287  13.464  24.743  1.00  0.00     0.028 H 
ATOM     49  H   UNL A   1      31.833  13.751  25.670  1.00  0.00     0.028 H 
ATOM     50  H   UNL A   1      33.387  13.714  26.469  1.00  0.00     0.028 H 
ENDBRANCH  38  47
ENDBRANCH  34  37
ENDBRANCH  21  34
ENDBRANCH  18  20
ENDBRANCH  15  18
ENDBRANCH  11  14
ENDBRANCH   8  11
ENDBRANCH   5   7
BRANCH   5  51
ATOM     51  C   UNL A   1      31.158  29.198  24.994  1.00  0.00     0.004 C 
ATOM     52  H   UNL A   1      31.782  29.961  25.411  1.00  0.00     0.034 H 
ATOM     53  H   UNL A   1      30.195  29.025  25.428  1.00  0.00     0.034 H 
BRANCH  51  54
ATOM     54  C   UNL A   1      30.805  29.653  23.597  1.00  0.00    -0.020 A 
ATOM     55  C   UNL A   1      31.449  29.426  22.397  1.00  0.00     0.005 A 
ATOM     56  C   UNL A   1      29.645  30.446  23.253  1.00  0.00     0.003 A 
ATOM     57  N   UNL A   1      30.634  29.813  21.369  1.00  0.00    -0.361 N 
ATOM     58  H   UNL A   1      32.396  29.029  22.292  1.00  0.00     0.082 H 
ATOM     59  C   UNL A   1      29.530  30.451  21.862  1.00  0.00     0.046 A 
ATOM     60  C   UNL A   1      28.665  31.142  23.993  1.00  0.00    -0.053 A 
ATOM     61  H   UNL A   1      30.816  29.655  20.414  1.00  0.00     0.166 HD
ATOM     62  C   UNL A   1      28.463  31.037  21.176  1.00  0.00    -0.038 A 
ATOM     63  C   UNL A   1      27.624  31.798  23.318  1.00  0.00    -0.062 A 
ATOM     64  H   UNL A   1      28.714  31.169  25.024  1.00  0.00     0.063 H 
ATOM     65  C   UNL A   1      27.513  31.724  21.932  1.00  0.00    -0.060 A 
ATOM     66  H   UNL A   1      28.381  30.966  20.150  1.00  0.00     0.064 H 
ATOM     67  H   UNL A   1      26.932  32.342  23.856  1.00  0.00     0.062 H 
ATOM     68  H   UNL A   1      26.719  32.182  21.458  1.00  0.00     0.062 H 
ENDBRANCH  51  54
ENDBRANCH   5  51
ENDBRANCH   1   5
BRANCH   3  69
ATOM     69  C   UNL A   1      34.185  29.020  27.187  1.00  0.00     0.017 C 
ATOM     70  H   UNL A   1      33.879  28.275  27.893  1.00  0.00     0.049 H 
ATOM     71  H   UNL A   1      33.465  29.807  27.119  1.00  0.00     0.049 H 
BRANCH  69  72
ATOM     72  C   UNL A   1      35.506  29.629  27.658  1.00  0.00    -0.036 C 
ATOM     73  H   UNL A   1      36.199  29.586  26.845  1.00  0.00     0.028 H 
ATOM     74  H   UNL A   1      35.812  29.059  28.509  1.00  0.00     0.028 H 
BRANCH  72  75
ATOM     75  C   UNL A   1      35.415  31.089  28.130  1.00  0.00    -0.052 C 
ATOM     76  H   UNL A   1      34.384  31.312  28.307  1.00  0.00     0.027 H 
ATOM     77  H   UNL A   1      35.861  31.673  27.353  1.00  0.00     0.027 H 
BRANCH  75  78
ATOM     78  C   UNL A   1      36.197  31.432  29.406  1.00  0.00    -0.052 C 
ATOM     79  H   UNL A   1      35.667  32.207  29.918  1.00  0.00     0.027 H 
ATOM     80  H   UNL A   1      37.175  31.719  29.082  1.00  0.00     0.027 H 
BRANCH  78  81
ATOM     81  C   UNL A   1      36.402  30.276  30.383  1.00  0.00    -0.036 C 
ATOM     82  H   UNL A   1      35.800  29.452  30.060  1.00  0.00     0.028 H 
ATOM     83  H   UNL A   1      36.125  30.637  31.351  1.00  0.00     0.028 H 
BRANCH  81  84
ATOM     84  C   UNL A   1      37.845  29.799  30.491  1.00  0.00     0.018 C 
ATOM     85  H   UNL A   1      38.239  30.124  31.430  1.00  0.00     0.049 H 
ATOM     86  H   UNL A   1      38.374  30.217  29.659  1.00  0.00     0.049 H 
BRANCH  84  87
ATOM     87  N   UNL A   1      37.992  28.360  30.406  1.00  0.00    -0.352 N 
ATOM     88  C   UNL A   1      39.027  27.591  29.897  1.00  0.00     0.251 C 
ATOM     89  H   UNL A   1      37.234  27.845  30.767  1.00  0.00     0.163 HD
ATOM     90  O   UNL A   1      38.847  26.408  29.703  1.00  0.00    -0.269 OA
BRANCH  88  91
ATOM     91  C   UNL A   1      40.397  28.165  29.763  1.00  0.00     0.039 A 
ATOM     92  C   UNL A   1      40.842  28.421  28.455  1.00  0.00    -0.049 A 
ATOM     93  C   UNL A   1      41.293  28.248  30.822  1.00  0.00    -0.049 A 
ATOM     94  C   UNL A   1      42.208  28.499  28.192  1.00  0.00    -0.053 A 
ATOM     95  H   UNL A   1      40.160  28.551  27.692  1.00  0.00     0.063 H 
ATOM     96  C   UNL A   1      42.647  28.234  30.560  1.00  0.00    -0.053 A 
ATOM     97  H   UNL A   1      40.950  28.317  31.793  1.00  0.00     0.063 H 
ATOM     98  C   UNL A   1      43.098  28.287  29.239  1.00  0.00    -0.014 A 
ATOM     99  H   UNL A   1      42.551  28.709  27.241  1.00  0.00     0.063 H 
ATOM    100  H   UNL A   1      43.324  28.187  31.337  1.00  0.00     0.063 H 
BRANCH  98 101
ATOM    101  C   UNL A   1      44.508  27.993  29.053  1.00  0.00     0.031 A 
ATOM    102  C   UNL A   1      45.489  29.086  28.946  1.00  0.00     0.074 A 
ATOM    103  C   UNL A   1      44.911  26.704  29.111  1.00  0.00     0.049 A 
ATOM    104  N   UNL A   1      46.648  28.956  28.397  1.00  0.00    -0.248 NA
ATOM    105  C   UNL A   1      45.228  30.439  29.430  1.00  0.00    -0.034 C 
ATOM    106  C   UNL A   1      46.274  26.203  29.256  1.00  0.00    -0.036 A 
ATOM    107  N   UNL A   1      44.139  25.555  28.869  1.00  0.00    -0.354 N 
ATOM    108  C   UNL A   1      47.370  30.091  28.675  1.00  0.00     0.074 A 
ATOM    109  C   UNL A   1      46.429  31.008  29.274  1.00  0.00    -0.034 C 
ATOM    110  H   UNL A   1      44.353  30.845  29.795  1.00  0.00     0.065 H 
ATOM    111  C   UNL A   1      46.315  24.930  28.830  1.00  0.00    -0.036 A 
ATOM    112  H   UNL A   1      47.074  26.740  29.626  1.00  0.00     0.065 H 
ATOM    113  C   UNL A   1      45.015  24.629  28.258  1.00  0.00     0.049 A 
ATOM    114  H   UNL A   1      43.187  25.422  29.082  1.00  0.00     0.167 HD
ATOM    115  C   UNL A   1      48.718  30.087  28.485  1.00  0.00     0.037 A 
ATOM    116  H   UNL A   1      46.653  31.979  29.545  1.00  0.00     0.065 H 
ATOM    117  H   UNL A   1      47.118  24.287  28.898  1.00  0.00     0.065 H 
ATOM    118  C   UNL A   1      44.810  24.208  26.975  1.00  0.00     0.037 A 
ATOM    119  C   UNL A   1      49.177  28.814  27.947  1.00  0.00     0.049 A 
ATOM    120  C   UNL A   1      45.950  24.538  26.041  1.00  0.00     0.074 A 
ATOM    121  C   UNL A   1      49.671  27.672  28.555  1.00  0.00    -0.036 A 
ATOM    122  N   UNL A   1      48.819  28.451  26.653  1.00  0.00    -0.354 N 
ATOM    123  N   UNL A   1      46.825  25.476  26.270  1.00  0.00    -0.248 NA
ATOM    124  C   UNL A   1      46.180  23.856  24.769  1.00  0.00    -0.034 C 
ATOM    125  C   UNL A   1      49.553  26.600  27.637  1.00  0.00    -0.036 A 
ATOM    126  H   UNL A   1      50.058  27.612  29.509  1.00  0.00     0.065 H 
ATOM    127  C   UNL A   1      49.014  27.096  26.463  1.00  0.00     0.049 A 
ATOM    128  H   UNL A   1      48.477  29.071  25.970  1.00  0.00     0.167 HD
ATOM    129  C   UNL A   1      47.704  25.547  25.222  1.00  0.00     0.074 A 
ATOM    130  C   UNL A   1      47.267  24.505  24.313  1.00  0.00    -0.034 C 
ATOM    131  H   UNL A   1      45.650  23.084  24.337  1.00  0.00     0.065 H 
ATOM    132  H   UNL A   1      49.823  25.619  27.813  1.00  0.00     0.065 H 
ATOM    133  C   UNL A   1      48.713  26.466  25.190  1.00  0.00     0.037 A 
ATOM    134  H   UNL A   1      47.735  24.286  23.420  1.00  0.00     0.065 H 
BRANCH 115 135
ATOM    135  C   UNL A   1      49.622  31.143  29.058  1.00  0.00     0.064 A 
ATOM    136  C   UNL A   1      49.890  32.334  28.350  1.00  0.00     0.173 A 
ATOM    137  C   UNL A   1      50.287  31.009  30.288  1.00  0.00     0.173 A 
ATOM    138  F   UNL A   1      49.282  32.611  27.190  1.00  0.00    -0.203 F 
ATOM    139  C   UNL A   1      50.815  33.277  28.802  1.00  0.00     0.198 A 
ATOM    140  C   UNL A   1      51.250  31.928  30.717  1.00  0.00     0.198 A 
ATOM    141  F   UNL A   1      50.004  29.992  31.115  1.00  0.00    -0.203 F 
ATOM    142  F   UNL A   1      51.035  34.388  28.086  1.00  0.00    -0.200 F 
ATOM    143  C   UNL A   1      51.519  33.060  29.969  1.00  0.00     0.200 A 
ATOM    144  F   UNL A   1      51.925  31.705  31.853  1.00  0.00    -0.200 F 
ATOM    145  F   UNL A   1      52.442  33.940  30.377  1.00  0.00    -0.200 F 
ENDBRANCH 115 135
BRANCH 118 146
ATOM    146  C   UNL A   1      43.371  24.181  26.598  1.00  0.00     0.064 A 
ATOM    147  C   UNL A   1      42.558  23.181  27.166  1.00  0.00     0.173 A 
ATOM    148  C   UNL A   1      42.734  25.304  26.058  1.00  0.00     0.173 A 
ATOM    149  F   UNL A   1      43.120  22.084  27.701  1.00  0.00    -0.203 F 
ATOM    150  C   UNL A   1      41.184  23.359  27.307  1.00  0.00     0.198 A 
ATOM    151  C   UNL A   1      41.352  25.471  26.188  1.00  0.00     0.198 A 
ATOM    152  F   UNL A   1      43.453  26.296  25.515  1.00  0.00    -0.203 F 
ATOM    153  F   UNL A   1      40.457  22.444  27.967  1.00  0.00    -0.200 F 
ATOM    154  C   UNL A   1      40.587  24.518  26.846  1.00  0.00     0.200 A 
ATOM    155  F   UNL A   1      40.776  26.603  25.760  1.00  0.00    -0.200 F 
ATOM    156  F   UNL A   1      39.283  24.736  27.067  1.00  0.00    -0.200 F 
ENDBRANCH 118 146
BRANCH 133 157
ATOM    157  C   UNL A   1      49.579  26.797  24.000  1.00  0.00     0.064 A 
ATOM    158  C   UNL A   1      49.111  27.458  22.853  1.00  0.00     0.173 A 
ATOM    159  C   UNL A   1      50.980  26.590  24.056  1.00  0.00     0.173 A 
ATOM    160  F   UNL A   1      47.826  27.814  22.731  1.00  0.00    -0.203 F 
ATOM    161  C   UNL A   1      49.969  27.833  21.815  1.00  0.00     0.198 A 
ATOM    162  C   UNL A   1      51.839  27.019  23.046  1.00  0.00     0.198 A 
ATOM    163  F   UNL A   1      51.560  25.992  25.107  1.00  0.00    -0.203 F 
ATOM    164  F   UNL A   1      49.467  28.426  20.723  1.00  0.00    -0.200 F 
ATOM    165  C   UNL A   1      51.332  27.626  21.917  1.00  0.00     0.200 A 
ATOM    166  F   UNL A   1      53.163  26.860  23.186  1.00  0.00    -0.200 F 
ATOM    167  F   UNL A   1      52.155  28.031  20.942  1.00  0.00    -0.200 F 
ENDBRANCH 133 157
ENDBRANCH  98 101
ENDBRANCH  88  91
ENDBRANCH  84  87
ENDBRANCH  81  84
ENDBRANCH  78  81
ENDBRANCH  75  78
ENDBRANCH  72  75
ENDBRANCH  69  72
ENDBRANCH   3  69
TORSDOF 23
ENDMDL
MODEL 8
REMARK VINA RESULT:     -11.7      3.153      7.850
REMARK SMILES Cc1ccc(S(=O)(=O)n2cc(C(=O)C(=O)NCC(=O)N[C@H](Cc3c[nH]c4ccccc34)C(=O)NCCCCCCNC(=O)c3ccc(-c4c5nc(c(-c6c(F)c(F)c(F)c(F)c6F)c6ccc([nH]6)c(-c6c(F)c(F)c(F)c(F)c6F)c6nc(c(-c7c(F)c(F)c(F)c(F)c7F)c7ccc4[nH]7)C=C6)C=C5)cc3)c3ccccc32)cc1
REMARK SMILES IDX 32 1 33 2 34 3 21 5 20 7 18 8 19 9 17 11 16 14 14 15 15 16
REMARK SMILES IDX 12 18 13 19 11 20 9 21 10 22 112 23 107 25 111 26 108 27
REMARK SMILES IDX 110 28 109 30 6 34 7 35 8 36 5 37 2 38 3 39 114 40 4 41
REMARK SMILES IDX 113 43 1 47 22 51 23 54 24 55 31 56 25 57 26 59 30 60 27 62
REMARK SMILES IDX 29 63 28 65 35 69 36 72 37 75 38 78 39 81 40 84 41 87 42 88
REMARK SMILES IDX 43 90 44 91 45 92 106 93 46 94 105 96 47 98 48 101 49 102
REMARK SMILES IDX 99 103 50 104 104 105 98 106 100 107 51 108 103 109 97 111
REMARK SMILES IDX 96 113 52 115 84 118 64 119 83 120 65 121 68 122 82 123
REMARK SMILES IDX 101 124 66 125 67 127 81 129 102 130 69 133 53 135 54 136
REMARK SMILES IDX 62 137 55 138 56 139 60 140 63 141 57 142 58 143 61 144
REMARK SMILES IDX 59 145 85 146 86 147 94 148 87 149 88 150 92 151 95 152
REMARK SMILES IDX 89 153 90 154 93 155 91 156 70 157 71 158 79 159 72 160
REMARK SMILES IDX 73 161 77 162 80 163 74 164 75 165 78 166 76 167
REMARK H PARENT 34 4 21 6 20 10 17 12 17 13 16 17 10 24 111 29 108 31 110 32
REMARK H PARENT 109 33 3 42 114 44 4 45 113 46 1 48 1 49 1 50 22 52 22 53
REMARK H PARENT 24 58 25 61 30 64 27 66 29 67 28 68 35 70 35 71 36 73 36 74
REMARK H PARENT 37 76 37 77 38 79 38 80 39 82 39 83 40 85 40 86 41 89 45 95
REMARK H PARENT 106 97 46 99 105 100 104 110 98 112 100 114 103 116 97 117
REMARK H PARENT 65 126 68 128 101 131 66 132 102 134
REMARK Flexibility Score: inf
ROOT
ATOM      1  C   UNL A   1      37.895  29.929  29.428  1.00  0.00     0.242 C 
ATOM      2  O   UNL A   1      38.085  28.846  28.862  1.00  0.00    -0.273 OA
ATOM      3  N   UNL A   1      38.990  30.718  29.567  1.00  0.00    -0.354 N 
ATOM      4  H   UNL A   1      39.758  30.426  29.025  1.00  0.00     0.163 HD
ENDROOT
BRANCH   1   5
ATOM      5  C   UNL A   1      36.492  30.288  29.943  1.00  0.00     0.112 C 
ATOM      6  H   UNL A   1      35.878  29.430  29.760  1.00  0.00     0.064 H 
BRANCH   5   7
ATOM      7  N   UNL A   1      36.041  31.473  29.193  1.00  0.00    -0.342 N 
ATOM      8  C   UNL A   1      35.287  31.541  28.059  1.00  0.00     0.240 C 
ATOM      9  O   UNL A   1      35.171  32.655  27.540  1.00  0.00    -0.273 OA
ATOM     10  H   UNL A   1      36.326  32.340  29.565  1.00  0.00     0.164 HD
BRANCH   8  11
ATOM     11  C   UNL A   1      34.451  30.343  27.557  1.00  0.00     0.097 C 
ATOM     12  H   UNL A   1      35.055  29.805  26.858  1.00  0.00     0.059 H 
ATOM     13  H   UNL A   1      34.183  29.814  28.449  1.00  0.00     0.059 H 
BRANCH  11  14
ATOM     14  N   UNL A   1      33.173  30.616  26.904  1.00  0.00    -0.340 N 
ATOM     15  C   UNL A   1      32.505  29.860  25.952  1.00  0.00     0.292 C 
ATOM     16  O   UNL A   1      31.389  30.159  25.544  1.00  0.00    -0.265 OA
ATOM     17  H   UNL A   1      32.726  31.450  27.175  1.00  0.00     0.164 HD
BRANCH  15  18
ATOM     18  C   UNL A   1      33.168  28.593  25.421  1.00  0.00     0.252 C 
ATOM     19  O   UNL A   1      34.281  28.742  24.915  1.00  0.00    -0.283 OA
BRANCH  18  20
ATOM     20  C   UNL A   1      32.440  27.319  25.341  1.00  0.00     0.054 A 
ATOM     21  N   UNL A   1      31.220  25.447  25.709  1.00  0.00    -0.240 N 
ATOM     22  C   UNL A   1      31.730  26.599  26.310  1.00  0.00     0.033 A 
ATOM     23  C   UNL A   1      31.412  25.580  24.321  1.00  0.00     0.065 A 
ATOM     24  H   UNL A   1      31.604  26.873  27.298  1.00  0.00     0.084 H 
ATOM     25  C   UNL A   1      32.437  26.509  24.167  1.00  0.00     0.012 A 
ATOM     26  C   UNL A   1      31.002  24.757  23.253  1.00  0.00    -0.037 A 
ATOM     27  C   UNL A   1      33.193  26.492  22.975  1.00  0.00    -0.052 A 
ATOM     28  C   UNL A   1      31.815  24.699  22.122  1.00  0.00    -0.060 A 
ATOM     29  H   UNL A   1      30.127  24.214  23.306  1.00  0.00     0.065 H 
ATOM     30  C   UNL A   1      32.921  25.529  22.001  1.00  0.00    -0.061 A 
ATOM     31  H   UNL A   1      33.941  27.187  22.825  1.00  0.00     0.063 H 
ATOM     32  H   UNL A   1      31.593  24.033  21.368  1.00  0.00     0.062 H 
ATOM     33  H   UNL A   1      33.547  25.434  21.185  1.00  0.00     0.062 H 
BRANCH  21  34
ATOM     34  S   UNL A   1      31.513  23.800  26.221  1.00  0.00     0.268 S 
ATOM     35  O   UNL A   1      30.277  23.125  25.858  1.00  0.00    -0.201 OA
ATOM     36  O   UNL A   1      31.890  23.978  27.619  1.00  0.00    -0.201 OA
BRANCH  34  37
ATOM     37  C   UNL A   1      32.791  22.731  25.669  1.00  0.00     0.088 A 
ATOM     38  C   UNL A   1      35.207  21.331  25.263  1.00  0.00    -0.051 A 
ATOM     39  C   UNL A   1      34.968  21.938  26.487  1.00  0.00    -0.058 A 
ATOM     40  C   UNL A   1      34.219  21.414  24.254  1.00  0.00    -0.058 A 
ATOM     41  C   UNL A   1      33.777  22.610  26.682  1.00  0.00    -0.041 A 
ATOM     42  H   UNL A   1      35.671  21.889  27.241  1.00  0.00     0.063 H 
ATOM     43  C   UNL A   1      33.001  22.120  24.446  1.00  0.00    -0.041 A 
ATOM     44  H   UNL A   1      34.388  20.945  23.351  1.00  0.00     0.063 H 
ATOM     45  H   UNL A   1      33.597  23.042  27.603  1.00  0.00     0.064 H 
ATOM     46  H   UNL A   1      32.295  22.175  23.695  1.00  0.00     0.064 H 
BRANCH  38  47
ATOM     47  C   UNL A   1      36.544  20.672  25.073  1.00  0.00    -0.040 C 
ATOM     48  H   UNL A   1      36.762  20.601  24.028  1.00  0.00     0.028 H 
ATOM     49  H   UNL A   1      36.521  19.691  25.501  1.00  0.00     0.028 H 
ATOM     50  H   UNL A   1      37.300  21.254  25.557  1.00  0.00     0.028 H 
ENDBRANCH  38  47
ENDBRANCH  34  37
ENDBRANCH  21  34
ENDBRANCH  18  20
ENDBRANCH  15  18
ENDBRANCH  11  14
ENDBRANCH   8  11
ENDBRANCH   5   7
BRANCH   5  51
ATOM     51  C   UNL A   1      36.297  30.447  31.470  1.00  0.00     0.004 C 
ATOM     52  H   UNL A   1      37.252  30.264  31.916  1.00  0.00     0.034 H 
ATOM     53  H   UNL A   1      35.496  29.766  31.670  1.00  0.00     0.034 H 
BRANCH  51  54
ATOM     54  C   UNL A   1      35.785  31.734  32.075  1.00  0.00    -0.020 A 
ATOM     55  C   UNL A   1      34.781  32.580  31.650  1.00  0.00     0.005 A 
ATOM     56  C   UNL A   1      36.285  32.332  33.294  1.00  0.00     0.003 A 
ATOM     57  N   UNL A   1      34.498  33.478  32.642  1.00  0.00    -0.361 N 
ATOM     58  H   UNL A   1      34.317  32.542  30.728  1.00  0.00     0.082 H 
ATOM     59  C   UNL A   1      35.410  33.358  33.654  1.00  0.00     0.046 A 
ATOM     60  C   UNL A   1      37.387  32.083  34.141  1.00  0.00    -0.053 A 
ATOM     61  H   UNL A   1      33.749  34.116  32.630  1.00  0.00     0.166 HD
ATOM     62  C   UNL A   1      35.524  34.092  34.838  1.00  0.00    -0.038 A 
ATOM     63  C   UNL A   1      37.558  32.857  35.299  1.00  0.00    -0.062 A 
ATOM     64  H   UNL A   1      38.062  31.337  33.911  1.00  0.00     0.063 H 
ATOM     65  C   UNL A   1      36.625  33.829  35.653  1.00  0.00    -0.060 A 
ATOM     66  H   UNL A   1      34.822  34.800  35.100  1.00  0.00     0.064 H 
ATOM     67  H   UNL A   1      38.385  32.705  35.896  1.00  0.00     0.062 H 
ATOM     68  H   UNL A   1      36.750  34.362  36.528  1.00  0.00     0.062 H 
ENDBRANCH  51  54
ENDBRANCH   5  51
ENDBRANCH   1   5
BRANCH   3  69
ATOM     69  C   UNL A   1      39.253  31.906  30.354  1.00  0.00     0.017 C 
ATOM     70  H   UNL A   1      38.377  32.520  30.357  1.00  0.00     0.049 H 
ATOM     71  H   UNL A   1      40.083  32.416  29.913  1.00  0.00     0.049 H 
BRANCH  69  72
ATOM     72  C   UNL A   1      39.622  31.568  31.798  1.00  0.00    -0.036 C 
ATOM     73  H   UNL A   1      38.876  30.908  32.186  1.00  0.00     0.028 H 
ATOM     74  H   UNL A   1      39.678  32.501  32.319  1.00  0.00     0.028 H 
BRANCH  72  75
ATOM     75  C   UNL A   1      40.993  30.896  31.978  1.00  0.00    -0.052 C 
ATOM     76  H   UNL A   1      41.684  31.644  32.305  1.00  0.00     0.027 H 
ATOM     77  H   UNL A   1      41.231  30.466  31.029  1.00  0.00     0.027 H 
BRANCH  75  78
ATOM     78  C   UNL A   1      41.046  29.737  32.983  1.00  0.00    -0.052 C 
ATOM     79  H   UNL A   1      41.861  29.100  32.708  1.00  0.00     0.027 H 
ATOM     80  H   UNL A   1      40.089  29.260  32.930  1.00  0.00     0.027 H 
BRANCH  78  81
ATOM     81  C   UNL A   1      41.233  30.139  34.445  1.00  0.00    -0.036 C 
ATOM     82  H   UNL A   1      40.890  29.333  35.060  1.00  0.00     0.028 H 
ATOM     83  H   UNL A   1      40.674  31.039  34.591  1.00  0.00     0.028 H 
BRANCH  81  84
ATOM     84  C   UNL A   1      42.674  30.451  34.826  1.00  0.00     0.018 C 
ATOM     85  H   UNL A   1      42.744  31.493  35.057  1.00  0.00     0.049 H 
ATOM     86  H   UNL A   1      43.285  30.175  33.991  1.00  0.00     0.049 H 
BRANCH  84  87
ATOM     87  N   UNL A   1      43.153  29.696  35.967  1.00  0.00    -0.352 N 
ATOM     88  C   UNL A   1      43.443  28.346  36.093  1.00  0.00     0.251 C 
ATOM     89  H   UNL A   1      43.295  30.227  36.784  1.00  0.00     0.163 HD
ATOM     90  O   UNL A   1      43.600  27.875  37.199  1.00  0.00    -0.269 OA
BRANCH  88  91
ATOM     91  C   UNL A   1      43.739  27.523  34.886  1.00  0.00     0.039 A 
ATOM     92  C   UNL A   1      44.943  27.803  34.219  1.00  0.00    -0.049 A 
ATOM     93  C   UNL A   1      42.807  26.678  34.295  1.00  0.00    -0.049 A 
ATOM     94  C   UNL A   1      45.090  27.452  32.878  1.00  0.00    -0.053 A 
ATOM     95  H   UNL A   1      45.717  28.267  34.720  1.00  0.00     0.063 H 
ATOM     96  C   UNL A   1      42.906  26.406  32.947  1.00  0.00    -0.053 A 
ATOM     97  H   UNL A   1      42.050  26.260  34.858  1.00  0.00     0.063 H 
ATOM     98  C   UNL A   1      44.015  26.857  32.227  1.00  0.00    -0.014 A 
ATOM     99  H   UNL A   1      45.977  27.629  32.381  1.00  0.00     0.063 H 
ATOM    100  H   UNL A   1      42.164  25.868  32.471  1.00  0.00     0.063 H 
BRANCH  98 101
ATOM    101  C   UNL A   1      43.898  26.763  30.783  1.00  0.00     0.031 A 
ATOM    102  C   UNL A   1      44.132  25.480  30.098  1.00  0.00     0.074 A 
ATOM    103  C   UNL A   1      43.446  27.839  30.102  1.00  0.00     0.049 A 
ATOM    104  N   UNL A   1      44.443  25.381  28.851  1.00  0.00    -0.248 NA
ATOM    105  C   UNL A   1      44.063  24.191  30.781  1.00  0.00    -0.034 C 
ATOM    106  C   UNL A   1      42.966  27.883  28.724  1.00  0.00    -0.036 A 
ATOM    107  N   UNL A   1      43.496  29.186  30.498  1.00  0.00    -0.354 N 
ATOM    108  C   UNL A   1      44.361  24.054  28.506  1.00  0.00     0.074 A 
ATOM    109  C   UNL A   1      44.175  23.344  29.751  1.00  0.00    -0.034 C 
ATOM    110  H   UNL A   1      43.956  23.988  31.786  1.00  0.00     0.065 H 
ATOM    111  C   UNL A   1      43.034  29.149  28.282  1.00  0.00    -0.036 A 
ATOM    112  H   UNL A   1      42.630  27.073  28.180  1.00  0.00     0.065 H 
ATOM    113  C   UNL A   1      43.703  29.926  29.311  1.00  0.00     0.049 A 
ATOM    114  H   UNL A   1      43.406  29.541  31.411  1.00  0.00     0.167 HD
ATOM    115  C   UNL A   1      44.333  23.707  27.191  1.00  0.00     0.037 A 
ATOM    116  H   UNL A   1      44.133  22.316  29.835  1.00  0.00     0.065 H 
ATOM    117  H   UNL A   1      42.679  29.504  27.381  1.00  0.00     0.065 H 
ATOM    118  C   UNL A   1      44.847  30.645  29.120  1.00  0.00     0.037 A 
ATOM    119  C   UNL A   1      44.444  24.876  26.329  1.00  0.00     0.049 A 
ATOM    120  C   UNL A   1      45.648  30.201  27.918  1.00  0.00     0.074 A 
ATOM    121  C   UNL A   1      43.491  25.674  25.718  1.00  0.00    -0.036 A 
ATOM    122  N   UNL A   1      45.638  25.588  26.294  1.00  0.00    -0.354 N 
ATOM    123  N   UNL A   1      45.537  29.024  27.370  1.00  0.00    -0.248 NA
ATOM    124  C   UNL A   1      46.647  31.036  27.256  1.00  0.00    -0.034 C 
ATOM    125  C   UNL A   1      44.105  26.901  25.367  1.00  0.00    -0.036 A 
ATOM    126  H   UNL A   1      42.506  25.419  25.547  1.00  0.00     0.065 H 
ATOM    127  C   UNL A   1      45.436  26.837  25.739  1.00  0.00     0.049 A 
ATOM    128  H   UNL A   1      46.503  25.250  26.619  1.00  0.00     0.167 HD
ATOM    129  C   UNL A   1      46.420  28.921  26.327  1.00  0.00     0.074 A 
ATOM    130  C   UNL A   1      47.082  30.211  26.286  1.00  0.00    -0.034 C 
ATOM    131  H   UNL A   1      46.940  32.001  27.473  1.00  0.00     0.065 H 
ATOM    132  H   UNL A   1      43.641  27.702  24.912  1.00  0.00     0.065 H 
ATOM    133  C   UNL A   1      46.533  27.778  25.590  1.00  0.00     0.037 A 
ATOM    134  H   UNL A   1      47.804  30.466  25.595  1.00  0.00     0.065 H 
BRANCH 115 135
ATOM    135  C   UNL A   1      43.922  22.340  26.719  1.00  0.00     0.064 A 
ATOM    136  C   UNL A   1      44.785  21.552  25.929  1.00  0.00     0.173 A 
ATOM    137  C   UNL A   1      42.663  21.775  26.986  1.00  0.00     0.173 A 
ATOM    138  F   UNL A   1      46.032  21.950  25.645  1.00  0.00    -0.203 F 
ATOM    139  C   UNL A   1      44.387  20.333  25.380  1.00  0.00     0.198 A 
ATOM    140  C   UNL A   1      42.246  20.578  26.395  1.00  0.00     0.198 A 
ATOM    141  F   UNL A   1      41.813  22.362  27.840  1.00  0.00    -0.203 F 
ATOM    142  F   UNL A   1      45.246  19.629  24.631  1.00  0.00    -0.200 F 
ATOM    143  C   UNL A   1      43.107  19.860  25.586  1.00  0.00     0.200 A 
ATOM    144  F   UNL A   1      41.001  20.130  26.605  1.00  0.00    -0.200 F 
ATOM    145  F   UNL A   1      42.709  18.714  25.018  1.00  0.00    -0.200 F 
ENDBRANCH 115 135
BRANCH 118 146
ATOM    146  C   UNL A   1      45.423  31.164  30.390  1.00  0.00     0.064 A 
ATOM    147  C   UNL A   1      44.681  32.125  31.106  1.00  0.00     0.173 A 
ATOM    148  C   UNL A   1      46.419  30.467  31.083  1.00  0.00     0.173 A 
ATOM    149  F   UNL A   1      43.712  32.819  30.489  1.00  0.00    -0.203 F 
ATOM    150  C   UNL A   1      44.840  32.283  32.481  1.00  0.00     0.198 A 
ATOM    151  C   UNL A   1      46.585  30.641  32.459  1.00  0.00     0.198 A 
ATOM    152  F   UNL A   1      47.150  29.532  30.460  1.00  0.00    -0.203 F 
ATOM    153  F   UNL A   1      44.030  33.115  33.154  1.00  0.00    -0.200 F 
ATOM    154  C   UNL A   1      45.771  31.518  33.161  1.00  0.00     0.200 A 
ATOM    155  F   UNL A   1      47.472  29.885  33.123  1.00  0.00    -0.200 F 
ATOM    156  F   UNL A   1      45.857  31.598  34.496  1.00  0.00    -0.200 F 
ENDBRANCH 118 146
BRANCH 133 157
ATOM    157  C   UNL A   1      47.620  27.466  24.592  1.00  0.00     0.064 A 
ATOM    158  C   UNL A   1      47.567  27.833  23.238  1.00  0.00     0.173 A 
ATOM    159  C   UNL A   1      48.850  26.910  25.026  1.00  0.00     0.173 A 
ATOM    160  F   UNL A   1      46.503  28.471  22.732  1.00  0.00    -0.203 F 
ATOM    161  C   UNL A   1      48.639  27.610  22.370  1.00  0.00     0.198 A 
ATOM    162  C   UNL A   1      49.937  26.744  24.170  1.00  0.00     0.198 A 
ATOM    163  F   UNL A   1      49.042  26.538  26.299  1.00  0.00    -0.203 F 
ATOM    164  F   UNL A   1      48.524  27.944  21.077  1.00  0.00    -0.200 F 
ATOM    165  C   UNL A   1      49.827  27.080  22.837  1.00  0.00     0.200 A 
ATOM    166  F   UNL A   1      51.099  26.280  24.652  1.00  0.00    -0.200 F 
ATOM    167  F   UNL A   1      50.868  26.915  22.012  1.00  0.00    -0.200 F 
ENDBRANCH 133 157
ENDBRANCH  98 101
ENDBRANCH  88  91
ENDBRANCH  84  87
ENDBRANCH  81  84
ENDBRANCH  78  81
ENDBRANCH  75  78
ENDBRANCH  72  75
ENDBRANCH  69  72
ENDBRANCH   3  69
TORSDOF 23
ENDMDL
MODEL 9
REMARK VINA RESULT:     -11.6      6.333     12.395
REMARK SMILES Cc1ccc(S(=O)(=O)n2cc(C(=O)C(=O)NCC(=O)N[C@H](Cc3c[nH]c4ccccc34)C(=O)NCCCCCCNC(=O)c3ccc(-c4c5nc(c(-c6c(F)c(F)c(F)c(F)c6F)c6ccc([nH]6)c(-c6c(F)c(F)c(F)c(F)c6F)c6nc(c(-c7c(F)c(F)c(F)c(F)c7F)c7ccc4[nH]7)C=C6)C=C5)cc3)c3ccccc32)cc1
REMARK SMILES IDX 32 1 33 2 34 3 21 5 20 7 18 8 19 9 17 11 16 14 14 15 15 16
REMARK SMILES IDX 12 18 13 19 11 20 9 21 10 22 112 23 107 25 111 26 108 27
REMARK SMILES IDX 110 28 109 30 6 34 7 35 8 36 5 37 2 38 3 39 114 40 4 41
REMARK SMILES IDX 113 43 1 47 22 51 23 54 24 55 31 56 25 57 26 59 30 60 27 62
REMARK SMILES IDX 29 63 28 65 35 69 36 72 37 75 38 78 39 81 40 84 41 87 42 88
REMARK SMILES IDX 43 90 44 91 45 92 106 93 46 94 105 96 47 98 48 101 49 102
REMARK SMILES IDX 99 103 50 104 104 105 98 106 100 107 51 108 103 109 97 111
REMARK SMILES IDX 96 113 52 115 84 118 64 119 83 120 65 121 68 122 82 123
REMARK SMILES IDX 101 124 66 125 67 127 81 129 102 130 69 133 53 135 54 136
REMARK SMILES IDX 62 137 55 138 56 139 60 140 63 141 57 142 58 143 61 144
REMARK SMILES IDX 59 145 85 146 86 147 94 148 87 149 88 150 92 151 95 152
REMARK SMILES IDX 89 153 90 154 93 155 91 156 70 157 71 158 79 159 72 160
REMARK SMILES IDX 73 161 77 162 80 163 74 164 75 165 78 166 76 167
REMARK H PARENT 34 4 21 6 20 10 17 12 17 13 16 17 10 24 111 29 108 31 110 32
REMARK H PARENT 109 33 3 42 114 44 4 45 113 46 1 48 1 49 1 50 22 52 22 53
REMARK H PARENT 24 58 25 61 30 64 27 66 29 67 28 68 35 70 35 71 36 73 36 74
REMARK H PARENT 37 76 37 77 38 79 38 80 39 82 39 83 40 85 40 86 41 89 45 95
REMARK H PARENT 106 97 46 99 105 100 104 110 98 112 100 114 103 116 97 117
REMARK H PARENT 65 126 68 128 101 131 66 132 102 134
REMARK Flexibility Score: inf
ROOT
ATOM      1  C   UNL A   1      44.849  25.593  32.031  1.00  0.00     0.242 C 
ATOM      2  O   UNL A   1      46.001  25.994  31.828  1.00  0.00    -0.273 OA
ATOM      3  N   UNL A   1      44.634  25.014  33.240  1.00  0.00    -0.354 N 
ATOM      4  H   UNL A   1      45.364  25.163  33.884  1.00  0.00     0.163 HD
ENDROOT
BRANCH   1   5
ATOM      5  C   UNL A   1      43.781  25.744  30.936  1.00  0.00     0.112 C 
ATOM      6  H   UNL A   1      42.948  25.147  31.247  1.00  0.00     0.064 H 
BRANCH   5   7
ATOM      7  N   UNL A   1      44.377  25.267  29.677  1.00  0.00    -0.342 N 
ATOM      8  C   UNL A   1      44.257  24.051  29.072  1.00  0.00     0.240 C 
ATOM      9  O   UNL A   1      44.981  23.849  28.092  1.00  0.00    -0.273 OA
ATOM     10  H   UNL A   1      44.942  25.921  29.204  1.00  0.00     0.164 HD
BRANCH   8  11
ATOM     11  C   UNL A   1      43.141  23.052  29.450  1.00  0.00     0.097 C 
ATOM     12  H   UNL A   1      43.297  22.775  30.472  1.00  0.00     0.059 H 
ATOM     13  H   UNL A   1      42.233  23.578  29.241  1.00  0.00     0.059 H 
BRANCH  11  14
ATOM     14  N   UNL A   1      43.028  21.816  28.680  1.00  0.00    -0.340 N 
ATOM     15  C   UNL A   1      42.176  21.525  27.625  1.00  0.00     0.292 C 
ATOM     16  O   UNL A   1      42.242  20.473  27.002  1.00  0.00    -0.265 OA
ATOM     17  H   UNL A   1      43.639  21.091  28.946  1.00  0.00     0.164 HD
BRANCH  15  18
ATOM     18  C   UNL A   1      41.145  22.567  27.203  1.00  0.00     0.252 C 
ATOM     19  O   UNL A   1      39.977  22.182  27.164  1.00  0.00    -0.283 OA
BRANCH  18  20
ATOM     20  C   UNL A   1      41.549  23.884  26.689  1.00  0.00     0.054 A 
ATOM     21  N   UNL A   1      42.487  25.638  25.607  1.00  0.00    -0.240 N 
ATOM     22  C   UNL A   1      42.503  24.248  25.730  1.00  0.00     0.033 A 
ATOM     23  C   UNL A   1      41.361  26.107  26.309  1.00  0.00     0.065 A 
ATOM     24  H   UNL A   1      43.113  23.600  25.206  1.00  0.00     0.084 H 
ATOM     25  C   UNL A   1      41.037  25.105  27.219  1.00  0.00     0.012 A 
ATOM     26  C   UNL A   1      40.826  27.405  26.426  1.00  0.00    -0.037 A 
ATOM     27  C   UNL A   1      40.307  25.451  28.376  1.00  0.00    -0.052 A 
ATOM     28  C   UNL A   1      40.182  27.742  27.616  1.00  0.00    -0.060 A 
ATOM     29  H   UNL A   1      40.907  28.086  25.655  1.00  0.00     0.065 H 
ATOM     30  C   UNL A   1      39.959  26.786  28.597  1.00  0.00    -0.061 A 
ATOM     31  H   UNL A   1      40.032  24.723  29.053  1.00  0.00     0.063 H 
ATOM     32  H   UNL A   1      39.868  28.712  27.769  1.00  0.00     0.062 H 
ATOM     33  H   UNL A   1      39.534  27.063  29.497  1.00  0.00     0.062 H 
BRANCH  21  34
ATOM     34  S   UNL A   1      43.851  26.710  25.835  1.00  0.00     0.268 S 
ATOM     35  O   UNL A   1      43.891  26.879  27.279  1.00  0.00    -0.201 OA
ATOM     36  O   UNL A   1      43.513  27.823  24.956  1.00  0.00    -0.201 OA
BRANCH  34  37
ATOM     37  C   UNL A   1      45.517  26.415  25.368  1.00  0.00     0.088 A 
ATOM     38  C   UNL A   1      48.144  26.566  24.349  1.00  0.00    -0.051 A 
ATOM     39  C   UNL A   1      47.445  27.736  24.607  1.00  0.00    -0.058 A 
ATOM     40  C   UNL A   1      47.526  25.325  24.625  1.00  0.00    -0.058 A 
ATOM     41  C   UNL A   1      46.164  27.654  25.118  1.00  0.00    -0.041 A 
ATOM     42  H   UNL A   1      47.875  28.654  24.419  1.00  0.00     0.063 H 
ATOM     43  C   UNL A   1      46.203  25.237  25.134  1.00  0.00    -0.041 A 
ATOM     44  H   UNL A   1      48.054  24.455  24.453  1.00  0.00     0.063 H 
ATOM     45  H   UNL A   1      45.657  28.528  25.327  1.00  0.00     0.064 H 
ATOM     46  H   UNL A   1      45.765  24.321  25.322  1.00  0.00     0.064 H 
BRANCH  38  47
ATOM     47  C   UNL A   1      49.506  26.704  23.729  1.00  0.00    -0.040 C 
ATOM     48  H   UNL A   1      50.044  27.488  24.221  1.00  0.00     0.028 H 
ATOM     49  H   UNL A   1      49.402  26.941  22.690  1.00  0.00     0.028 H 
ATOM     50  H   UNL A   1      50.041  25.784  23.833  1.00  0.00     0.028 H 
ENDBRANCH  38  47
ENDBRANCH  34  37
ENDBRANCH  21  34
ENDBRANCH  18  20
ENDBRANCH  15  18
ENDBRANCH  11  14
ENDBRANCH   8  11
ENDBRANCH   5   7
BRANCH   5  51
ATOM     51  C   UNL A   1      43.091  27.120  30.779  1.00  0.00     0.004 C 
ATOM     52  H   UNL A   1      42.396  27.204  31.589  1.00  0.00     0.034 H 
ATOM     53  H   UNL A   1      42.714  27.073  29.778  1.00  0.00     0.034 H 
BRANCH  51  54
ATOM     54  C   UNL A   1      43.883  28.408  30.764  1.00  0.00    -0.020 A 
ATOM     55  C   UNL A   1      44.722  28.948  31.718  1.00  0.00     0.005 A 
ATOM     56  C   UNL A   1      43.909  29.350  29.667  1.00  0.00     0.003 A 
ATOM     57  N   UNL A   1      45.413  29.993  31.169  1.00  0.00    -0.361 N 
ATOM     58  H   UNL A   1      44.813  28.617  32.692  1.00  0.00     0.082 H 
ATOM     59  C   UNL A   1      44.928  30.269  29.920  1.00  0.00     0.046 A 
ATOM     60  C   UNL A   1      43.178  29.498  28.469  1.00  0.00    -0.053 A 
ATOM     61  H   UNL A   1      46.151  30.475  31.608  1.00  0.00     0.166 HD
ATOM     62  C   UNL A   1      45.310  31.270  29.021  1.00  0.00    -0.038 A 
ATOM     63  C   UNL A   1      43.499  30.539  27.585  1.00  0.00    -0.062 A 
ATOM     64  H   UNL A   1      42.412  28.843  28.243  1.00  0.00     0.063 H 
ATOM     65  C   UNL A   1      44.566  31.395  27.848  1.00  0.00    -0.060 A 
ATOM     66  H   UNL A   1      46.110  31.890  29.217  1.00  0.00     0.064 H 
ATOM     67  H   UNL A   1      42.939  30.673  26.730  1.00  0.00     0.062 H 
ATOM     68  H   UNL A   1      44.810  32.132  27.167  1.00  0.00     0.062 H 
ENDBRANCH  51  54
ENDBRANCH   5  51
ENDBRANCH   1   5
BRANCH   3  69
ATOM     69  C   UNL A   1      43.545  24.221  33.771  1.00  0.00     0.017 C 
ATOM     70  H   UNL A   1      42.740  24.222  33.065  1.00  0.00     0.049 H 
ATOM     71  H   UNL A   1      43.245  24.654  34.702  1.00  0.00     0.049 H 
BRANCH  69  72
ATOM     72  C   UNL A   1      43.963  22.775  34.037  1.00  0.00    -0.036 C 
ATOM     73  H   UNL A   1      43.689  22.188  33.186  1.00  0.00     0.028 H 
ATOM     74  H   UNL A   1      43.465  22.479  34.936  1.00  0.00     0.028 H 
BRANCH  72  75
ATOM     75  C   UNL A   1      45.465  22.570  34.293  1.00  0.00    -0.052 C 
ATOM     76  H   UNL A   1      45.706  23.046  35.220  1.00  0.00     0.027 H 
ATOM     77  H   UNL A   1      45.963  22.988  33.444  1.00  0.00     0.027 H 
BRANCH  75  78
ATOM     78  C   UNL A   1      45.939  21.113  34.376  1.00  0.00    -0.052 C 
ATOM     79  H   UNL A   1      46.890  21.103  34.866  1.00  0.00     0.027 H 
ATOM     80  H   UNL A   1      45.970  20.757  33.367  1.00  0.00     0.027 H 
BRANCH  78  81
ATOM     81  C   UNL A   1      45.012  20.159  35.128  1.00  0.00    -0.036 C 
ATOM     82  H   UNL A   1      44.161  19.962  34.508  1.00  0.00     0.028 H 
ATOM     83  H   UNL A   1      44.753  20.641  36.046  1.00  0.00     0.028 H 
BRANCH  81  84
ATOM     84  C   UNL A   1      45.653  18.827  35.497  1.00  0.00     0.018 C 
ATOM     85  H   UNL A   1      46.712  18.917  35.375  1.00  0.00     0.049 H 
ATOM     86  H   UNL A   1      45.229  18.087  34.850  1.00  0.00     0.049 H 
BRANCH  84  87
ATOM     87  N   UNL A   1      45.382  18.407  36.857  1.00  0.00    -0.352 N 
ATOM     88  C   UNL A   1      46.028  18.725  38.041  1.00  0.00     0.251 C 
ATOM     89  H   UNL A   1      44.616  17.795  36.956  1.00  0.00     0.163 HD
ATOM     90  O   UNL A   1      45.792  18.078  39.038  1.00  0.00    -0.269 OA
BRANCH  88  91
ATOM     91  C   UNL A   1      46.860  19.959  38.137  1.00  0.00     0.039 A 
ATOM     92  C   UNL A   1      46.403  20.955  39.016  1.00  0.00    -0.049 A 
ATOM     93  C   UNL A   1      47.905  20.241  37.263  1.00  0.00    -0.049 A 
ATOM     94  C   UNL A   1      46.810  22.275  38.839  1.00  0.00    -0.053 A 
ATOM     95  H   UNL A   1      45.769  20.709  39.792  1.00  0.00     0.063 H 
ATOM     96  C   UNL A   1      48.244  21.556  37.023  1.00  0.00    -0.053 A 
ATOM     97  H   UNL A   1      48.419  19.476  36.800  1.00  0.00     0.063 H 
ATOM     98  C   UNL A   1      47.641  22.574  37.764  1.00  0.00    -0.014 A 
ATOM     99  H   UNL A   1      46.502  23.014  39.491  1.00  0.00     0.063 H 
ATOM    100  H   UNL A   1      48.943  21.786  36.300  1.00  0.00     0.063 H 
BRANCH  98 101
ATOM    101  C   UNL A   1      47.853  23.919  37.259  1.00  0.00     0.031 A 
ATOM    102  C   UNL A   1      46.707  24.754  36.858  1.00  0.00     0.074 A 
ATOM    103  C   UNL A   1      49.104  24.429  37.289  1.00  0.00     0.049 A 
ATOM    104  N   UNL A   1      46.799  25.756  36.053  1.00  0.00    -0.248 NA
ATOM    105  C   UNL A   1      45.343  24.504  37.316  1.00  0.00    -0.034 C 
ATOM    106  C   UNL A   1      49.500  25.824  37.128  1.00  0.00    -0.036 A 
ATOM    107  N   UNL A   1      50.317  23.720  37.305  1.00  0.00    -0.354 N 
ATOM    108  C   UNL A   1      45.601  26.427  36.085  1.00  0.00     0.074 A 
ATOM    109  C   UNL A   1      44.708  25.582  36.843  1.00  0.00    -0.034 C 
ATOM    110  H   UNL A   1      44.971  23.710  37.858  1.00  0.00     0.065 H 
ATOM    111  C   UNL A   1      50.796  25.868  36.776  1.00  0.00    -0.036 A 
ATOM    112  H   UNL A   1      48.886  26.642  37.263  1.00  0.00     0.065 H 
ATOM    113  C   UNL A   1      51.224  24.499  36.552  1.00  0.00     0.049 A 
ATOM    114  H   UNL A   1      50.497  22.860  37.748  1.00  0.00     0.167 HD
ATOM    115  C   UNL A   1      45.528  27.687  35.576  1.00  0.00     0.037 A 
ATOM    116  H   UNL A   1      43.707  25.783  36.998  1.00  0.00     0.065 H 
ATOM    117  H   UNL A   1      51.377  26.715  36.682  1.00  0.00     0.065 H 
ATOM    118  C   UNL A   1      51.751  24.032  35.382  1.00  0.00     0.037 A 
ATOM    119  C   UNL A   1      46.804  28.109  35.014  1.00  0.00     0.049 A 
ATOM    120  C   UNL A   1      51.415  24.887  34.183  1.00  0.00     0.074 A 
ATOM    121  C   UNL A   1      47.863  28.825  35.547  1.00  0.00    -0.036 A 
ATOM    122  N   UNL A   1      47.284  27.487  33.867  1.00  0.00    -0.354 N 
ATOM    123  N   UNL A   1      50.406  25.711  34.142  1.00  0.00    -0.248 NA
ATOM    124  C   UNL A   1      52.171  24.865  32.933  1.00  0.00    -0.034 C 
ATOM    125  C   UNL A   1      49.005  28.583  34.745  1.00  0.00    -0.036 A 
ATOM    126  H   UNL A   1      47.827  29.431  36.381  1.00  0.00     0.065 H 
ATOM    127  C   UNL A   1      48.633  27.742  33.711  1.00  0.00     0.049 A 
ATOM    128  H   UNL A   1      46.740  26.942  33.254  1.00  0.00     0.167 HD
ATOM    129  C   UNL A   1      50.353  26.308  32.910  1.00  0.00     0.074 A 
ATOM    130  C   UNL A   1      51.486  25.756  32.193  1.00  0.00    -0.034 C 
ATOM    131  H   UNL A   1      53.006  24.313  32.684  1.00  0.00     0.065 H 
ATOM    132  H   UNL A   1      49.950  28.966  34.905  1.00  0.00     0.065 H 
ATOM    133  C   UNL A   1      49.374  27.201  32.584  1.00  0.00     0.037 A 
ATOM    134  H   UNL A   1      51.738  26.015  31.227  1.00  0.00     0.065 H 
BRANCH 115 135
ATOM    135  C   UNL A   1      44.376  28.611  35.854  1.00  0.00     0.064 A 
ATOM    136  C   UNL A   1      43.180  28.528  35.109  1.00  0.00     0.173 A 
ATOM    137  C   UNL A   1      44.414  29.629  36.822  1.00  0.00     0.173 A 
ATOM    138  F   UNL A   1      42.991  27.570  34.193  1.00  0.00    -0.203 F 
ATOM    139  C   UNL A   1      42.140  29.446  35.265  1.00  0.00     0.198 A 
ATOM    140  C   UNL A   1      43.395  30.579  36.943  1.00  0.00     0.198 A 
ATOM    141  F   UNL A   1      45.436  29.717  37.686  1.00  0.00    -0.203 F 
ATOM    142  F   UNL A   1      41.029  29.323  34.526  1.00  0.00    -0.200 F 
ATOM    143  C   UNL A   1      42.260  30.490  36.159  1.00  0.00     0.200 A 
ATOM    144  F   UNL A   1      43.524  31.587  37.817  1.00  0.00    -0.200 F 
ATOM    145  F   UNL A   1      41.283  31.400  36.273  1.00  0.00    -0.200 F 
ENDBRANCH 115 135
BRANCH 118 146
ATOM    146  C   UNL A   1      51.901  22.552  35.365  1.00  0.00     0.064 A 
ATOM    147  C   UNL A   1      50.988  21.805  34.595  1.00  0.00     0.173 A 
ATOM    148  C   UNL A   1      53.104  21.933  35.723  1.00  0.00     0.173 A 
ATOM    149  F   UNL A   1      49.821  22.354  34.221  1.00  0.00    -0.203 F 
ATOM    150  C   UNL A   1      51.320  20.547  34.096  1.00  0.00     0.198 A 
ATOM    151  C   UNL A   1      53.427  20.664  35.233  1.00  0.00     0.198 A 
ATOM    152  F   UNL A   1      54.019  22.596  36.444  1.00  0.00    -0.203 F 
ATOM    153  F   UNL A   1      50.480  19.917  33.262  1.00  0.00    -0.200 F 
ATOM    154  C   UNL A   1      52.553  19.992  34.391  1.00  0.00     0.200 A 
ATOM    155  F   UNL A   1      54.628  20.134  35.501  1.00  0.00    -0.200 F 
ATOM    156  F   UNL A   1      52.914  18.828  33.834  1.00  0.00    -0.200 F 
ENDBRANCH 118 146
BRANCH 133 157
ATOM    157  C   UNL A   1      49.073  27.730  31.204  1.00  0.00     0.064 A 
ATOM    158  C   UNL A   1      48.658  26.925  30.132  1.00  0.00     0.173 A 
ATOM    159  C   UNL A   1      49.044  29.127  30.965  1.00  0.00     0.173 A 
ATOM    160  F   UNL A   1      48.533  25.598  30.266  1.00  0.00    -0.203 F 
ATOM    161  C   UNL A   1      48.296  27.469  28.896  1.00  0.00     0.198 A 
ATOM    162  C   UNL A   1      48.625  29.668  29.751  1.00  0.00     0.198 A 
ATOM    163  F   UNL A   1      49.392  30.009  31.913  1.00  0.00    -0.203 F 
ATOM    164  F   UNL A   1      47.945  26.655  27.892  1.00  0.00    -0.200 F 
ATOM    165  C   UNL A   1      48.266  28.838  28.711  1.00  0.00     0.200 A 
ATOM    166  F   UNL A   1      48.549  30.999  29.607  1.00  0.00    -0.200 F 
ATOM    167  F   UNL A   1      47.871  29.356  27.541  1.00  0.00    -0.200 F 
ENDBRANCH 133 157
ENDBRANCH  98 101
ENDBRANCH  88  91
ENDBRANCH  84  87
ENDBRANCH  81  84
ENDBRANCH  78  81
ENDBRANCH  75  78
ENDBRANCH  72  75
ENDBRANCH  69  72
ENDBRANCH   3  69
TORSDOF 23
ENDMDL
MODEL 10
REMARK VINA RESULT:     -11.1      7.066     12.944
REMARK SMILES Cc1ccc(S(=O)(=O)n2cc(C(=O)C(=O)NCC(=O)N[C@H](Cc3c[nH]c4ccccc34)C(=O)NCCCCCCNC(=O)c3ccc(-c4c5nc(c(-c6c(F)c(F)c(F)c(F)c6F)c6ccc([nH]6)c(-c6c(F)c(F)c(F)c(F)c6F)c6nc(c(-c7c(F)c(F)c(F)c(F)c7F)c7ccc4[nH]7)C=C6)C=C5)cc3)c3ccccc32)cc1
REMARK SMILES IDX 32 1 33 2 34 3 21 5 20 7 18 8 19 9 17 11 16 14 14 15 15 16
REMARK SMILES IDX 12 18 13 19 11 20 9 21 10 22 112 23 107 25 111 26 108 27
REMARK SMILES IDX 110 28 109 30 6 34 7 35 8 36 5 37 2 38 3 39 114 40 4 41
REMARK SMILES IDX 113 43 1 47 22 51 23 54 24 55 31 56 25 57 26 59 30 60 27 62
REMARK SMILES IDX 29 63 28 65 35 69 36 72 37 75 38 78 39 81 40 84 41 87 42 88
REMARK SMILES IDX 43 90 44 91 45 92 106 93 46 94 105 96 47 98 48 101 49 102
REMARK SMILES IDX 99 103 50 104 104 105 98 106 100 107 51 108 103 109 97 111
REMARK SMILES IDX 96 113 52 115 84 118 64 119 83 120 65 121 68 122 82 123
REMARK SMILES IDX 101 124 66 125 67 127 81 129 102 130 69 133 53 135 54 136
REMARK SMILES IDX 62 137 55 138 56 139 60 140 63 141 57 142 58 143 61 144
REMARK SMILES IDX 59 145 85 146 86 147 94 148 87 149 88 150 92 151 95 152
REMARK SMILES IDX 89 153 90 154 93 155 91 156 70 157 71 158 79 159 72 160
REMARK SMILES IDX 73 161 77 162 80 163 74 164 75 165 78 166 76 167
REMARK H PARENT 34 4 21 6 20 10 17 12 17 13 16 17 10 24 111 29 108 31 110 32
REMARK H PARENT 109 33 3 42 114 44 4 45 113 46 1 48 1 49 1 50 22 52 22 53
REMARK H PARENT 24 58 25 61 30 64 27 66 29 67 28 68 35 70 35 71 36 73 36 74
REMARK H PARENT 37 76 37 77 38 79 38 80 39 82 39 83 40 85 40 86 41 89 45 95
REMARK H PARENT 106 97 46 99 105 100 104 110 98 112 100 114 103 116 97 117
REMARK H PARENT 65 126 68 128 101 131 66 132 102 134
REMARK Flexibility Score: inf
ROOT
ATOM      1  C   UNL A   1      45.084  35.893  29.385  1.00  0.00     0.242 C 
ATOM      2  O   UNL A   1      46.107  35.995  30.073  1.00  0.00    -0.273 OA
ATOM      3  N   UNL A   1      44.219  34.918  29.763  1.00  0.00    -0.354 N 
ATOM      4  H   UNL A   1      44.410  34.544  30.653  1.00  0.00     0.163 HD
ENDROOT
BRANCH   1   5
ATOM      5  C   UNL A   1      44.877  36.821  28.178  1.00  0.00     0.112 C 
ATOM      6  H   UNL A   1      44.154  36.340  27.552  1.00  0.00     0.064 H 
BRANCH   5   7
ATOM      7  N   UNL A   1      46.183  36.973  27.516  1.00  0.00    -0.342 N 
ATOM      8  C   UNL A   1      47.046  38.029  27.540  1.00  0.00     0.240 C 
ATOM      9  O   UNL A   1      48.014  37.968  26.775  1.00  0.00    -0.273 OA
ATOM     10  H   UNL A   1      46.476  36.201  26.978  1.00  0.00     0.164 HD
BRANCH   8  11
ATOM     11  C   UNL A   1      46.945  39.146  28.602  1.00  0.00     0.097 C 
ATOM     12  H   UNL A   1      46.153  39.799  28.302  1.00  0.00     0.059 H 
ATOM     13  H   UNL A   1      46.797  38.623  29.524  1.00  0.00     0.059 H 
BRANCH  11  14
ATOM     14  N   UNL A   1      48.122  39.978  28.845  1.00  0.00    -0.340 N 
ATOM     15  C   UNL A   1      48.180  41.327  29.165  1.00  0.00     0.292 C 
ATOM     16  O   UNL A   1      49.235  41.890  29.431  1.00  0.00    -0.265 OA
ATOM     17  H   UNL A   1      48.990  39.519  28.772  1.00  0.00     0.164 HD
BRANCH  15  18
ATOM     18  C   UNL A   1      46.883  42.127  29.220  1.00  0.00     0.252 C 
ATOM     19  O   UNL A   1      46.583  42.734  28.193  1.00  0.00    -0.283 OA
BRANCH  18  20
ATOM     20  C   UNL A   1      46.149  42.316  30.480  1.00  0.00     0.054 A 
ATOM     21  N   UNL A   1      45.482  42.703  32.609  1.00  0.00    -0.240 N 
ATOM     22  C   UNL A   1      46.594  42.640  31.768  1.00  0.00     0.033 A 
ATOM     23  C   UNL A   1      44.337  42.656  31.792  1.00  0.00     0.065 A 
ATOM     24  H   UNL A   1      47.575  42.805  32.047  1.00  0.00     0.084 H 
ATOM     25  C   UNL A   1      44.748  42.075  30.595  1.00  0.00     0.012 A 
ATOM     26  C   UNL A   1      42.971  42.780  32.115  1.00  0.00    -0.037 A 
ATOM     27  C   UNL A   1      43.784  41.440  29.785  1.00  0.00    -0.052 A 
ATOM     28  C   UNL A   1      42.050  42.072  31.344  1.00  0.00    -0.060 A 
ATOM     29  H   UNL A   1      42.662  43.377  32.897  1.00  0.00     0.065 H 
ATOM     30  C   UNL A   1      42.456  41.377  30.214  1.00  0.00    -0.061 A 
ATOM     31  H   UNL A   1      44.058  41.023  28.881  1.00  0.00     0.063 H 
ATOM     32  H   UNL A   1      41.055  42.065  31.617  1.00  0.00     0.062 H 
ATOM     33  H   UNL A   1      41.773  40.810  29.687  1.00  0.00     0.062 H 
BRANCH  21  34
ATOM     34  S   UNL A   1      45.240  41.774  34.071  1.00  0.00     0.268 S 
ATOM     35  O   UNL A   1      44.260  42.567  34.797  1.00  0.00    -0.201 OA
ATOM     36  O   UNL A   1      46.603  41.625  34.566  1.00  0.00    -0.201 OA
BRANCH  34  37
ATOM     37  C   UNL A   1      44.663  40.121  34.191  1.00  0.00     0.088 A 
ATOM     38  C   UNL A   1      43.558  37.565  33.735  1.00  0.00    -0.051 A 
ATOM     39  C   UNL A   1      44.006  38.316  32.658  1.00  0.00    -0.058 A 
ATOM     40  C   UNL A   1      43.688  38.095  35.039  1.00  0.00    -0.058 A 
ATOM     41  C   UNL A   1      44.558  39.561  32.891  1.00  0.00    -0.041 A 
ATOM     42  H   UNL A   1      43.927  37.951  31.697  1.00  0.00     0.063 H 
ATOM     43  C   UNL A   1      44.238  39.382  35.280  1.00  0.00    -0.041 A 
ATOM     44  H   UNL A   1      43.373  37.528  35.842  1.00  0.00     0.063 H 
ATOM     45  H   UNL A   1      44.908  40.107  32.088  1.00  0.00     0.064 H 
ATOM     46  H   UNL A   1      44.317  39.755  36.240  1.00  0.00     0.064 H 
BRANCH  38  47
ATOM     47  C   UNL A   1      42.902  36.248  33.426  1.00  0.00    -0.040 C 
ATOM     48  H   UNL A   1      41.900  36.419  33.092  1.00  0.00     0.028 H 
ATOM     49  H   UNL A   1      42.886  35.643  34.309  1.00  0.00     0.028 H 
ATOM     50  H   UNL A   1      43.453  35.746  32.660  1.00  0.00     0.028 H 
ENDBRANCH  38  47
ENDBRANCH  34  37
ENDBRANCH  21  34
ENDBRANCH  18  20
ENDBRANCH  15  18
ENDBRANCH  11  14
ENDBRANCH   8  11
ENDBRANCH   5   7
BRANCH   5  51
ATOM     51  C   UNL A   1      44.175  38.179  28.418  1.00  0.00     0.004 C 
ATOM     52  H   UNL A   1      44.953  38.908  28.514  1.00  0.00     0.034 H 
ATOM     53  H   UNL A   1      43.557  37.970  29.266  1.00  0.00     0.034 H 
BRANCH  51  54
ATOM     54  C   UNL A   1      43.184  38.745  27.428  1.00  0.00    -0.020 A 
ATOM     55  C   UNL A   1      41.892  38.355  27.138  1.00  0.00     0.005 A 
ATOM     56  C   UNL A   1      43.431  39.881  26.565  1.00  0.00     0.003 A 
ATOM     57  N   UNL A   1      41.295  39.311  26.364  1.00  0.00    -0.361 N 
ATOM     58  H   UNL A   1      41.447  37.479  27.456  1.00  0.00     0.082 H 
ATOM     59  C   UNL A   1      42.215  40.249  25.988  1.00  0.00     0.046 A 
ATOM     60  C   UNL A   1      44.571  40.647  26.237  1.00  0.00    -0.053 A 
ATOM     61  H   UNL A   1      40.342  39.322  26.114  1.00  0.00     0.166 HD
ATOM     62  C   UNL A   1      42.055  41.373  25.172  1.00  0.00    -0.038 A 
ATOM     63  C   UNL A   1      44.443  41.737  25.363  1.00  0.00    -0.062 A 
ATOM     64  H   UNL A   1      45.492  40.407  26.638  1.00  0.00     0.063 H 
ATOM     65  C   UNL A   1      43.199  42.108  24.860  1.00  0.00    -0.060 A 
ATOM     66  H   UNL A   1      41.128  41.649  24.815  1.00  0.00     0.064 H 
ATOM     67  H   UNL A   1      45.282  42.272  25.091  1.00  0.00     0.062 H 
ATOM     68  H   UNL A   1      43.121  42.936  24.248  1.00  0.00     0.062 H 
ENDBRANCH  51  54
ENDBRANCH   5  51
ENDBRANCH   1   5
BRANCH   3  69
ATOM     69  C   UNL A   1      43.070  34.318  29.116  1.00  0.00     0.017 C 
ATOM     70  H   UNL A   1      42.953  33.317  29.478  1.00  0.00     0.049 H 
ATOM     71  H   UNL A   1      43.240  34.332  28.061  1.00  0.00     0.049 H 
BRANCH  69  72
ATOM     72  C   UNL A   1      41.783  35.095  29.395  1.00  0.00    -0.036 C 
ATOM     73  H   UNL A   1      41.472  35.560  28.484  1.00  0.00     0.028 H 
ATOM     74  H   UNL A   1      42.018  35.794  30.171  1.00  0.00     0.028 H 
BRANCH  72  75
ATOM     75  C   UNL A   1      40.614  34.248  29.922  1.00  0.00    -0.052 C 
ATOM     76  H   UNL A   1      40.742  34.134  30.978  1.00  0.00     0.027 H 
ATOM     77  H   UNL A   1      40.654  33.329  29.376  1.00  0.00     0.027 H 
BRANCH  75  78
ATOM     78  C   UNL A   1      39.209  34.815  29.677  1.00  0.00    -0.052 C 
ATOM     79  H   UNL A   1      39.292  35.597  28.952  1.00  0.00     0.027 H 
ATOM     80  H   UNL A   1      38.858  35.148  30.632  1.00  0.00     0.027 H 
BRANCH  78  81
ATOM     81  C   UNL A   1      38.171  33.814  29.174  1.00  0.00    -0.036 C 
ATOM     82  H   UNL A   1      38.658  33.135  28.505  1.00  0.00     0.028 H 
ATOM     83  H   UNL A   1      37.399  34.381  28.700  1.00  0.00     0.028 H 
BRANCH  81  84
ATOM     84  C   UNL A   1      37.504  33.001  30.277  1.00  0.00     0.018 C 
ATOM     85  H   UNL A   1      37.489  33.591  31.169  1.00  0.00     0.049 H 
ATOM     86  H   UNL A   1      38.073  32.102  30.390  1.00  0.00     0.049 H 
BRANCH  84  87
ATOM     87  N   UNL A   1      36.144  32.605  29.968  1.00  0.00    -0.352 N 
ATOM     88  C   UNL A   1      35.667  31.552  29.203  1.00  0.00     0.251 C 
ATOM     89  H   UNL A   1      35.447  33.176  30.365  1.00  0.00     0.163 HD
ATOM     90  O   UNL A   1      34.501  31.539  28.875  1.00  0.00    -0.269 OA
BRANCH  88  91
ATOM     91  C   UNL A   1      36.526  30.360  28.944  1.00  0.00     0.039 A 
ATOM     92  C   UNL A   1      36.804  29.538  30.048  1.00  0.00    -0.049 A 
ATOM     93  C   UNL A   1      37.211  30.164  27.750  1.00  0.00    -0.049 A 
ATOM     94  C   UNL A   1      37.926  28.712  30.031  1.00  0.00    -0.053 A 
ATOM     95  H   UNL A   1      36.179  29.544  30.869  1.00  0.00     0.063 H 
ATOM     96  C   UNL A   1      38.372  29.419  27.757  1.00  0.00    -0.053 A 
ATOM     97  H   UNL A   1      36.856  30.569  26.871  1.00  0.00     0.063 H 
ATOM     98  C   UNL A   1      38.763  28.754  28.921  1.00  0.00    -0.014 A 
ATOM     99  H   UNL A   1      38.132  28.085  30.824  1.00  0.00     0.063 H 
ATOM    100  H   UNL A   1      38.949  29.352  26.904  1.00  0.00     0.063 H 
BRANCH  98 101
ATOM    101  C   UNL A   1      40.118  28.232  28.913  1.00  0.00     0.031 A 
ATOM    102  C   UNL A   1      40.370  26.819  28.584  1.00  0.00     0.074 A 
ATOM    103  C   UNL A   1      41.143  29.097  29.082  1.00  0.00     0.049 A 
ATOM    104  N   UNL A   1      41.438  26.184  28.929  1.00  0.00    -0.248 NA
ATOM    105  C   UNL A   1      39.415  25.990  27.855  1.00  0.00    -0.034 C 
ATOM    106  C   UNL A   1      42.558  28.864  28.813  1.00  0.00    -0.036 A 
ATOM    107  N   UNL A   1      41.109  30.349  29.719  1.00  0.00    -0.354 N 
ATOM    108  C   UNL A   1      41.436  24.979  28.270  1.00  0.00     0.074 A 
ATOM    109  C   UNL A   1      40.132  24.878  27.656  1.00  0.00    -0.034 C 
ATOM    110  H   UNL A   1      38.447  26.204  27.570  1.00  0.00     0.065 H 
ATOM    111  C   UNL A   1      43.284  29.756  29.507  1.00  0.00    -0.036 A 
ATOM    112  H   UNL A   1      42.938  28.134  28.191  1.00  0.00     0.065 H 
ATOM    113  C   UNL A   1      42.362  30.486  30.359  1.00  0.00     0.049 A 
ATOM    114  H   UNL A   1      40.368  30.997  29.718  1.00  0.00     0.167 HD
ATOM    115  C   UNL A   1      42.584  24.250  28.209  1.00  0.00     0.037 A 
ATOM    116  H   UNL A   1      39.798  24.055  27.131  1.00  0.00     0.065 H 
ATOM    117  H   UNL A   1      44.304  29.897  29.446  1.00  0.00     0.065 H 
ATOM    118  C   UNL A   1      42.453  30.557  31.720  1.00  0.00     0.037 A 
ATOM    119  C   UNL A   1      43.667  24.900  28.935  1.00  0.00     0.049 A 
ATOM    120  C   UNL A   1      43.271  29.443  32.330  1.00  0.00     0.074 A 
ATOM    121  C   UNL A   1      44.673  25.760  28.529  1.00  0.00    -0.036 A 
ATOM    122  N   UNL A   1      43.598  24.997  30.320  1.00  0.00    -0.354 N 
ATOM    123  N   UNL A   1      43.505  28.308  31.735  1.00  0.00    -0.248 NA
ATOM    124  C   UNL A   1      43.868  29.512  33.662  1.00  0.00    -0.034 C 
ATOM    125  C   UNL A   1      45.172  26.424  29.675  1.00  0.00    -0.036 A 
ATOM    126  H   UNL A   1      45.003  25.893  27.560  1.00  0.00     0.065 H 
ATOM    127  C   UNL A   1      44.489  25.947  30.780  1.00  0.00     0.049 A 
ATOM    128  H   UNL A   1      42.999  24.465  30.891  1.00  0.00     0.167 HD
ATOM    129  C   UNL A   1      44.244  27.503  32.563  1.00  0.00     0.074 A 
ATOM    130  C   UNL A   1      44.457  28.306  33.751  1.00  0.00    -0.034 C 
ATOM    131  H   UNL A   1      43.844  30.280  34.350  1.00  0.00     0.065 H 
ATOM    132  H   UNL A   1      45.917  27.139  29.685  1.00  0.00     0.065 H 
ATOM    133  C   UNL A   1      44.609  26.239  32.198  1.00  0.00     0.037 A 
ATOM    134  H   UNL A   1      44.997  27.989  34.571  1.00  0.00     0.065 H 
BRANCH 115 135
ATOM    135  C   UNL A   1      42.770  23.104  27.254  1.00  0.00     0.064 A 
ATOM    136  C   UNL A   1      42.205  21.838  27.517  1.00  0.00     0.173 A 
ATOM    137  C   UNL A   1      43.534  23.192  26.078  1.00  0.00     0.173 A 
ATOM    138  F   UNL A   1      41.411  21.632  28.575  1.00  0.00    -0.203 F 
ATOM    139  C   UNL A   1      42.458  20.728  26.710  1.00  0.00     0.198 A 
ATOM    140  C   UNL A   1      43.829  22.069  25.298  1.00  0.00     0.198 A 
ATOM    141  F   UNL A   1      44.001  24.373  25.648  1.00  0.00    -0.203 F 
ATOM    142  F   UNL A   1      41.901  19.547  27.011  1.00  0.00    -0.200 F 
ATOM    143  C   UNL A   1      43.295  20.835  25.618  1.00  0.00     0.200 A 
ATOM    144  F   UNL A   1      44.642  22.188  24.239  1.00  0.00    -0.200 F 
ATOM    145  F   UNL A   1      43.577  19.758  24.873  1.00  0.00    -0.200 F 
ENDBRANCH 115 135
BRANCH 118 146
ATOM    146  C   UNL A   1      41.261  31.189  32.347  1.00  0.00     0.064 A 
ATOM    147  C   UNL A   1      40.233  30.345  32.812  1.00  0.00     0.173 A 
ATOM    148  C   UNL A   1      41.303  32.495  32.850  1.00  0.00     0.173 A 
ATOM    149  F   UNL A   1      40.151  29.081  32.363  1.00  0.00    -0.203 F 
ATOM    150  C   UNL A   1      39.372  30.746  33.830  1.00  0.00     0.198 A 
ATOM    151  C   UNL A   1      40.426  32.898  33.861  1.00  0.00     0.198 A 
ATOM    152  F   UNL A   1      42.264  33.342  32.457  1.00  0.00    -0.203 F 
ATOM    153  F   UNL A   1      38.487  29.874  34.337  1.00  0.00    -0.200 F 
ATOM    154  C   UNL A   1      39.489  32.012  34.375  1.00  0.00     0.200 A 
ATOM    155  F   UNL A   1      40.553  34.117  34.404  1.00  0.00    -0.200 F 
ATOM    156  F   UNL A   1      38.728  32.366  35.419  1.00  0.00    -0.200 F 
ENDBRANCH 118 146
BRANCH 133 157
ATOM    157  C   UNL A   1      45.203  25.188  33.102  1.00  0.00     0.064 A 
ATOM    158  C   UNL A   1      46.578  25.057  33.351  1.00  0.00     0.173 A 
ATOM    159  C   UNL A   1      44.359  24.363  33.888  1.00  0.00     0.173 A 
ATOM    160  F   UNL A   1      47.472  25.858  32.757  1.00  0.00    -0.203 F 
ATOM    161  C   UNL A   1      47.077  24.131  34.272  1.00  0.00     0.198 A 
ATOM    162  C   UNL A   1      44.857  23.484  34.848  1.00  0.00     0.198 A 
ATOM    163  F   UNL A   1      43.024  24.407  33.767  1.00  0.00    -0.203 F 
ATOM    164  F   UNL A   1      48.401  24.017  34.445  1.00  0.00    -0.200 F 
ATOM    165  C   UNL A   1      46.218  23.357  35.029  1.00  0.00     0.200 A 
ATOM    166  F   UNL A   1      44.008  22.782  35.611  1.00  0.00    -0.200 F 
ATOM    167  F   UNL A   1      46.699  22.508  35.946  1.00  0.00    -0.200 F 
ENDBRANCH 133 157
ENDBRANCH  98 101
ENDBRANCH  88  91
ENDBRANCH  84  87
ENDBRANCH  81  84
ENDBRANCH  78  81
ENDBRANCH  75  78
ENDBRANCH  72  75
ENDBRANCH  69  72
ENDBRANCH   3  69
TORSDOF 23
ENDMDL
