MODEL 1
REMARK VINA RESULT:     -12.1      0.000      0.000
REMARK SMILES NS(=O)(=O)c1ccc(/N=N/c2ccc(O)c(C(=O)NCCCCCCNC(=O)c3ccc(-c4c5nc(c(-c6c(F)c(F)c(F)c(F)c6F)c6ccc([nH]6)c(-c6c(F)c(F)c(F)c(F)c6F)c6nc(c(-c7c(F)c(F)c(F)c(F)c7F)c7ccc4[nH]7)C=C6)C=C5)cc3)c2)cc1
REMARK SMILES IDX 21 1 20 4 19 7 17 8 18 9 16 11 11 12 12 13 92 14 13 15 14 18
REMARK SMILES IDX 10 20 9 21 8 22 5 23 6 24 94 25 7 26 93 28 2 32 3 33 4 34
REMARK SMILES IDX 1 35 15 38 22 40 23 43 24 46 25 49 26 52 27 53 28 55 29 56
REMARK SMILES IDX 30 57 91 58 31 59 90 61 32 63 33 66 34 67 84 68 35 69 89 70
REMARK SMILES IDX 83 71 85 72 36 73 88 74 82 76 81 78 37 80 69 83 49 84 68 85
REMARK SMILES IDX 50 86 53 87 67 88 86 89 51 90 52 92 66 94 87 95 54 98 38 100
REMARK SMILES IDX 39 101 47 102 40 103 41 104 45 105 48 106 42 107 43 108
REMARK SMILES IDX 46 109 44 110 70 111 71 112 79 113 72 114 73 115 77 116
REMARK SMILES IDX 80 117 74 118 75 119 78 120 76 121 55 122 56 123 64 124
REMARK SMILES IDX 57 125 58 126 62 127 65 128 59 129 60 130 63 131 61 132
REMARK H PARENT 21 2 21 3 20 5 20 6 19 10 12 16 92 17 13 19 6 27 94 29 7 30
REMARK H PARENT 93 31 1 36 1 37 15 39 22 41 22 42 23 44 23 45 24 47 24 48
REMARK H PARENT 25 50 25 51 26 54 30 60 91 62 31 64 90 65 89 75 83 77 85 79
REMARK H PARENT 88 81 82 82 50 91 53 93 86 96 51 97 87 99
REMARK Flexibility Score: inf
ROOT
ATOM      1  C   UNL A   1      34.608  29.167  27.347  1.00  0.00    -0.036 C 
ATOM      2  H   UNL A   1      35.636  29.365  27.123  1.00  0.00     0.028 H 
ATOM      3  H   UNL A   1      34.444  28.632  28.260  1.00  0.00     0.028 H 
ENDROOT
BRANCH   1   4
ATOM      4  C   UNL A   1      34.063  28.261  26.249  1.00  0.00     0.018 C 
ATOM      5  H   UNL A   1      34.605  27.339  26.275  1.00  0.00     0.049 H 
ATOM      6  H   UNL A   1      33.018  28.136  26.448  1.00  0.00     0.049 H 
BRANCH   4   7
ATOM      7  N   UNL A   1      34.167  28.813  24.909  1.00  0.00    -0.352 N 
ATOM      8  C   UNL A   1      33.304  28.730  23.839  1.00  0.00     0.255 C 
ATOM      9  O   UNL A   1      33.643  29.208  22.755  1.00  0.00    -0.269 OA
ATOM     10  H   UNL A   1      34.986  29.331  24.739  1.00  0.00     0.163 HD
BRANCH   8  11
ATOM     11  C   UNL A   1      32.009  28.007  23.911  1.00  0.00     0.083 A 
ATOM     12  C   UNL A   1      30.760  25.926  24.150  1.00  0.00     0.087 A 
ATOM     13  C   UNL A   1      29.604  26.584  23.720  1.00  0.00    -0.031 A 
ATOM     14  C   UNL A   1      31.930  26.679  24.335  1.00  0.00    -0.018 A 
ATOM     15  C   UNL A   1      29.631  27.952  23.431  1.00  0.00    -0.017 A 
ATOM     16  H   UNL A   1      28.724  26.057  23.615  1.00  0.00     0.065 H 
ATOM     17  H   UNL A   1      32.746  26.245  24.793  1.00  0.00     0.066 H 
ATOM     18  C   UNL A   1      30.832  28.654  23.512  1.00  0.00     0.128 A 
ATOM     19  H   UNL A   1      28.763  28.441  23.159  1.00  0.00     0.066 H 
BRANCH  12  20
ATOM     20  N   UNL A   1      30.740  24.519  24.312  1.00  0.00    -0.151 NA
ATOM     21  N   UNL A   1      31.900  24.063  24.176  1.00  0.00    -0.151 NA
BRANCH  21  22
ATOM     22  C   UNL A   1      31.942  22.663  24.106  1.00  0.00     0.086 A 
ATOM     23  C   UNL A   1      32.367  19.894  24.003  1.00  0.00     0.082 A 
ATOM     24  C   UNL A   1      32.354  20.545  25.239  1.00  0.00    -0.040 A 
ATOM     25  C   UNL A   1      32.165  20.611  22.820  1.00  0.00    -0.040 A 
ATOM     26  C   UNL A   1      32.145  21.928  25.282  1.00  0.00    -0.033 A 
ATOM     27  H   UNL A   1      32.497  20.012  26.110  1.00  0.00     0.064 H 
ATOM     28  C   UNL A   1      31.952  21.991  22.877  1.00  0.00    -0.033 A 
ATOM     29  H   UNL A   1      32.172  20.124  21.911  1.00  0.00     0.064 H 
ATOM     30  H   UNL A   1      32.141  22.413  26.193  1.00  0.00     0.065 H 
ATOM     31  H   UNL A   1      31.801  22.521  22.004  1.00  0.00     0.065 H 
BRANCH  23  32
ATOM     32  S   UNL A   1      32.707  18.160  23.880  1.00  0.00     0.238 S 
ATOM     33  O   UNL A   1      31.880  17.472  24.842  1.00  0.00    -0.207 OA
ATOM     34  O   UNL A   1      34.138  17.988  23.805  1.00  0.00    -0.207 OA
BRANCH  32  35
ATOM     35  N   UNL A   1      32.103  17.715  22.377  1.00  0.00    -0.225 NA
ATOM     36  H   UNL A   1      31.126  17.437  22.472  1.00  0.00     0.137 HD
ATOM     37  H   UNL A   1      32.644  16.932  22.010  1.00  0.00     0.137 HD
ENDBRANCH  32  35
ENDBRANCH  23  32
ENDBRANCH  21  22
ENDBRANCH  12  20
BRANCH  18  38
ATOM     38  O   UNL A   1      30.788  29.981  23.172  1.00  0.00    -0.507 OA
ATOM     39  H   UNL A   1      30.053  30.319  22.700  1.00  0.00     0.293 HD
ENDBRANCH  18  38
ENDBRANCH   8  11
ENDBRANCH   4   7
ENDBRANCH   1   4
BRANCH   1  40
ATOM     40  C   UNL A   1      33.910  30.513  27.541  1.00  0.00    -0.052 C 
ATOM     41  H   UNL A   1      34.405  31.228  26.917  1.00  0.00     0.027 H 
ATOM     42  H   UNL A   1      33.973  30.714  28.589  1.00  0.00     0.027 H 
BRANCH  40  43
ATOM     43  C   UNL A   1      32.416  30.568  27.210  1.00  0.00    -0.052 C 
ATOM     44  H   UNL A   1      31.895  30.022  27.970  1.00  0.00     0.027 H 
ATOM     45  H   UNL A   1      32.328  30.155  26.228  1.00  0.00     0.027 H 
BRANCH  43  46
ATOM     46  C   UNL A   1      31.786  31.958  27.125  1.00  0.00    -0.036 C 
ATOM     47  H   UNL A   1      31.292  32.153  28.053  1.00  0.00     0.028 H 
ATOM     48  H   UNL A   1      31.130  31.927  26.280  1.00  0.00     0.028 H 
BRANCH  46  49
ATOM     49  C   UNL A   1      32.749  33.108  26.858  1.00  0.00     0.018 C 
ATOM     50  H   UNL A   1      32.717  33.344  25.814  1.00  0.00     0.049 H 
ATOM     51  H   UNL A   1      33.722  32.789  27.168  1.00  0.00     0.049 H 
BRANCH  49  52
ATOM     52  N   UNL A   1      32.426  34.309  27.611  1.00  0.00    -0.352 N 
ATOM     53  C   UNL A   1      33.005  34.794  28.759  1.00  0.00     0.251 C 
ATOM     54  H   UNL A   1      31.689  34.850  27.248  1.00  0.00     0.163 HD
ATOM     55  O   UNL A   1      32.521  35.760  29.339  1.00  0.00    -0.269 OA
BRANCH  53  56
ATOM     56  C   UNL A   1      34.206  34.130  29.316  1.00  0.00     0.039 A 
ATOM     57  C   UNL A   1      35.470  34.554  28.895  1.00  0.00    -0.049 A 
ATOM     58  C   UNL A   1      34.086  33.095  30.245  1.00  0.00    -0.049 A 
ATOM     59  C   UNL A   1      36.616  33.981  29.452  1.00  0.00    -0.053 A 
ATOM     60  H   UNL A   1      35.557  35.287  28.173  1.00  0.00     0.063 H 
ATOM     61  C   UNL A   1      35.226  32.574  30.851  1.00  0.00    -0.053 A 
ATOM     62  H   UNL A   1      33.156  32.717  30.482  1.00  0.00     0.063 H 
ATOM     63  C   UNL A   1      36.503  33.008  30.457  1.00  0.00    -0.014 A 
ATOM     64  H   UNL A   1      37.550  34.274  29.124  1.00  0.00     0.063 H 
ATOM     65  H   UNL A   1      35.132  31.865  31.594  1.00  0.00     0.063 H 
BRANCH  63  66
ATOM     66  C   UNL A   1      37.697  32.399  31.096  1.00  0.00     0.031 A 
ATOM     67  C   UNL A   1      38.437  31.300  30.387  1.00  0.00     0.074 A 
ATOM     68  C   UNL A   1      38.062  32.768  32.339  1.00  0.00     0.049 A 
ATOM     69  N   UNL A   1      39.405  30.534  30.825  1.00  0.00    -0.248 NA
ATOM     70  C   UNL A   1      38.009  31.000  29.013  1.00  0.00    -0.034 C 
ATOM     71  C   UNL A   1      37.410  33.804  33.140  1.00  0.00    -0.036 A 
ATOM     72  N   UNL A   1      39.062  32.298  33.154  1.00  0.00    -0.354 N 
ATOM     73  C   UNL A   1      39.681  29.649  29.791  1.00  0.00     0.074 A 
ATOM     74  C   UNL A   1      38.747  29.939  28.724  1.00  0.00    -0.034 C 
ATOM     75  H   UNL A   1      37.313  31.488  28.426  1.00  0.00     0.065 H 
ATOM     76  C   UNL A   1      38.035  33.900  34.326  1.00  0.00    -0.036 A 
ATOM     77  H   UNL A   1      36.601  34.370  32.843  1.00  0.00     0.065 H 
ATOM     78  C   UNL A   1      39.101  32.905  34.386  1.00  0.00     0.049 A 
ATOM     79  H   UNL A   1      39.693  31.592  32.881  1.00  0.00     0.167 HD
ATOM     80  C   UNL A   1      40.638  28.693  29.729  1.00  0.00     0.037 A 
ATOM     81  H   UNL A   1      38.668  29.391  27.852  1.00  0.00     0.065 H 
ATOM     82  H   UNL A   1      37.797  34.570  35.074  1.00  0.00     0.065 H 
ATOM     83  C   UNL A   1      39.897  32.672  35.448  1.00  0.00     0.037 A 
ATOM     84  C   UNL A   1      41.586  28.432  30.779  1.00  0.00     0.049 A 
ATOM     85  C   UNL A   1      40.951  31.601  35.358  1.00  0.00     0.074 A 
ATOM     86  C   UNL A   1      42.626  27.518  30.796  1.00  0.00    -0.036 A 
ATOM     87  N   UNL A   1      41.614  29.092  31.998  1.00  0.00    -0.354 N 
ATOM     88  N   UNL A   1      41.224  30.793  34.363  1.00  0.00    -0.248 NA
ATOM     89  C   UNL A   1      41.806  31.408  36.537  1.00  0.00    -0.034 C 
ATOM     90  C   UNL A   1      43.253  27.595  32.043  1.00  0.00    -0.036 A 
ATOM     91  H   UNL A   1      42.891  26.889  30.021  1.00  0.00     0.065 H 
ATOM     92  C   UNL A   1      42.641  28.593  32.782  1.00  0.00     0.049 A 
ATOM     93  H   UNL A   1      40.995  29.809  32.267  1.00  0.00     0.167 HD
ATOM     94  C   UNL A   1      42.308  30.030  34.776  1.00  0.00     0.074 A 
ATOM     95  C   UNL A   1      42.639  30.466  36.117  1.00  0.00    -0.034 C 
ATOM     96  H   UNL A   1      41.769  31.882  37.454  1.00  0.00     0.065 H 
ATOM     97  H   UNL A   1      44.040  27.006  32.359  1.00  0.00     0.065 H 
ATOM     98  C   UNL A   1      42.971  29.058  34.104  1.00  0.00     0.037 A 
ATOM     99  H   UNL A   1      43.424  30.092  36.673  1.00  0.00     0.065 H 
BRANCH  80 100
ATOM    100  C   UNL A   1      40.706  27.855  28.486  1.00  0.00     0.064 A 
ATOM    101  C   UNL A   1      41.453  28.254  27.367  1.00  0.00     0.173 A 
ATOM    102  C   UNL A   1      40.040  26.620  28.422  1.00  0.00     0.173 A 
ATOM    103  F   UNL A   1      42.098  29.429  27.370  1.00  0.00    -0.203 F 
ATOM    104  C   UNL A   1      41.506  27.463  26.221  1.00  0.00     0.198 A 
ATOM    105  C   UNL A   1      40.123  25.818  27.289  1.00  0.00     0.198 A 
ATOM    106  F   UNL A   1      39.318  26.188  29.466  1.00  0.00    -0.203 F 
ATOM    107  F   UNL A   1      42.183  27.891  25.146  1.00  0.00    -0.200 F 
ATOM    108  C   UNL A   1      40.848  26.243  26.185  1.00  0.00     0.200 A 
ATOM    109  F   UNL A   1      39.498  24.633  27.261  1.00  0.00    -0.200 F 
ATOM    110  F   UNL A   1      40.906  25.481  25.085  1.00  0.00    -0.200 F 
ENDBRANCH  80 100
BRANCH  83 111
ATOM    111  C   UNL A   1      39.739  33.482  36.685  1.00  0.00     0.064 A 
ATOM    112  C   UNL A   1      38.834  33.098  37.685  1.00  0.00     0.173 A 
ATOM    113  C   UNL A   1      40.481  34.654  36.890  1.00  0.00     0.173 A 
ATOM    114  F   UNL A   1      38.086  31.996  37.522  1.00  0.00    -0.203 F 
ATOM    115  C   UNL A   1      38.663  33.865  38.834  1.00  0.00     0.198 A 
ATOM    116  C   UNL A   1      40.330  35.404  38.055  1.00  0.00     0.198 A 
ATOM    117  F   UNL A   1      41.358  35.065  35.963  1.00  0.00    -0.203 F 
ATOM    118  F   UNL A   1      37.757  33.499  39.753  1.00  0.00    -0.200 F 
ATOM    119  C   UNL A   1      39.415  35.015  39.022  1.00  0.00     0.200 A 
ATOM    120  F   UNL A   1      41.070  36.506  38.238  1.00  0.00    -0.200 F 
ATOM    121  F   UNL A   1      39.255  35.749  40.130  1.00  0.00    -0.200 F 
ENDBRANCH  83 111
BRANCH  98 122
ATOM    122  C   UNL A   1      44.159  28.434  34.776  1.00  0.00     0.064 A 
ATOM    123  C   UNL A   1      45.440  28.995  34.686  1.00  0.00     0.173 A 
ATOM    124  C   UNL A   1      43.993  27.297  35.583  1.00  0.00     0.173 A 
ATOM    125  F   UNL A   1      45.650  30.073  33.915  1.00  0.00    -0.203 F 
ATOM    126  C   UNL A   1      46.515  28.433  35.368  1.00  0.00     0.198 A 
ATOM    127  C   UNL A   1      45.065  26.754  36.285  1.00  0.00     0.198 A 
ATOM    128  F   UNL A   1      42.785  26.725  35.706  1.00  0.00    -0.203 F 
ATOM    129  F   UNL A   1      47.738  28.966  35.241  1.00  0.00    -0.200 F 
ATOM    130  C   UNL A   1      46.326  27.320  36.175  1.00  0.00     0.200 A 
ATOM    131  F   UNL A   1      44.876  25.687  37.074  1.00  0.00    -0.200 F 
ATOM    132  F   UNL A   1      47.360  26.792  36.843  1.00  0.00    -0.200 F 
ENDBRANCH  98 122
ENDBRANCH  63  66
ENDBRANCH  53  56
ENDBRANCH  49  52
ENDBRANCH  46  49
ENDBRANCH  43  46
ENDBRANCH  40  43
ENDBRANCH   1  40
TORSDOF 18
ENDMDL
MODEL 2
REMARK VINA RESULT:     -12.1      2.632      3.366
REMARK SMILES NS(=O)(=O)c1ccc(/N=N/c2ccc(O)c(C(=O)NCCCCCCNC(=O)c3ccc(-c4c5nc(c(-c6c(F)c(F)c(F)c(F)c6F)c6ccc([nH]6)c(-c6c(F)c(F)c(F)c(F)c6F)c6nc(c(-c7c(F)c(F)c(F)c(F)c7F)c7ccc4[nH]7)C=C6)C=C5)cc3)c2)cc1
REMARK SMILES IDX 21 1 20 4 19 7 17 8 18 9 16 11 11 12 12 13 92 14 13 15 14 18
REMARK SMILES IDX 10 20 9 21 8 22 5 23 6 24 94 25 7 26 93 28 2 32 3 33 4 34
REMARK SMILES IDX 1 35 15 38 22 40 23 43 24 46 25 49 26 52 27 53 28 55 29 56
REMARK SMILES IDX 30 57 91 58 31 59 90 61 32 63 33 66 34 67 84 68 35 69 89 70
REMARK SMILES IDX 83 71 85 72 36 73 88 74 82 76 81 78 37 80 69 83 49 84 68 85
REMARK SMILES IDX 50 86 53 87 67 88 86 89 51 90 52 92 66 94 87 95 54 98 38 100
REMARK SMILES IDX 39 101 47 102 40 103 41 104 45 105 48 106 42 107 43 108
REMARK SMILES IDX 46 109 44 110 70 111 71 112 79 113 72 114 73 115 77 116
REMARK SMILES IDX 80 117 74 118 75 119 78 120 76 121 55 122 56 123 64 124
REMARK SMILES IDX 57 125 58 126 62 127 65 128 59 129 60 130 63 131 61 132
REMARK H PARENT 21 2 21 3 20 5 20 6 19 10 12 16 92 17 13 19 6 27 94 29 7 30
REMARK H PARENT 93 31 1 36 1 37 15 39 22 41 22 42 23 44 23 45 24 47 24 48
REMARK H PARENT 25 50 25 51 26 54 30 60 91 62 31 64 90 65 89 75 83 77 85 79
REMARK H PARENT 88 81 82 82 50 91 53 93 86 96 51 97 87 99
REMARK Flexibility Score: inf
ROOT
ATOM      1  C   UNL A   1      32.071  28.329  27.400  1.00  0.00    -0.036 C 
ATOM      2  H   UNL A   1      32.681  28.028  28.225  1.00  0.00     0.028 H 
ATOM      3  H   UNL A   1      31.062  28.580  27.656  1.00  0.00     0.028 H 
ENDROOT
BRANCH   1   4
ATOM      4  C   UNL A   1      31.959  27.141  26.450  1.00  0.00     0.018 C 
ATOM      5  H   UNL A   1      31.643  27.505  25.495  1.00  0.00     0.049 H 
ATOM      6  H   UNL A   1      32.925  26.681  26.423  1.00  0.00     0.049 H 
BRANCH   4   7
ATOM      7  N   UNL A   1      31.023  26.117  26.880  1.00  0.00    -0.352 N 
ATOM      8  C   UNL A   1      30.854  24.821  26.444  1.00  0.00     0.255 C 
ATOM      9  O   UNL A   1      29.925  24.151  26.898  1.00  0.00    -0.269 OA
ATOM     10  H   UNL A   1      30.411  26.391  27.600  1.00  0.00     0.163 HD
BRANCH   8  11
ATOM     11  C   UNL A   1      31.696  24.220  25.378  1.00  0.00     0.083 A 
ATOM     12  C   UNL A   1      33.871  23.458  24.581  1.00  0.00     0.087 A 
ATOM     13  C   UNL A   1      33.360  23.400  23.280  1.00  0.00    -0.031 A 
ATOM     14  C   UNL A   1      32.994  23.774  25.630  1.00  0.00    -0.018 A 
ATOM     15  C   UNL A   1      32.017  23.701  23.030  1.00  0.00    -0.017 A 
ATOM     16  H   UNL A   1      33.978  23.131  22.499  1.00  0.00     0.065 H 
ATOM     17  H   UNL A   1      33.315  23.674  26.606  1.00  0.00     0.066 H 
ATOM     18  C   UNL A   1      31.196  24.124  24.073  1.00  0.00     0.128 A 
ATOM     19  H   UNL A   1      31.636  23.611  22.075  1.00  0.00     0.066 H 
BRANCH  12  20
ATOM     20  N   UNL A   1      35.259  23.274  24.791  1.00  0.00    -0.151 NA
ATOM     21  N   UNL A   1      35.589  22.117  24.442  1.00  0.00    -0.151 NA
BRANCH  21  22
ATOM     22  C   UNL A   1      36.897  21.775  24.814  1.00  0.00     0.086 A 
ATOM     23  C   UNL A   1      39.372  20.940  25.832  1.00  0.00     0.082 A 
ATOM     24  C   UNL A   1      38.571  20.034  25.133  1.00  0.00    -0.040 A 
ATOM     25  C   UNL A   1      38.951  22.260  26.022  1.00  0.00    -0.040 A 
ATOM     26  C   UNL A   1      37.336  20.457  24.631  1.00  0.00    -0.033 A 
ATOM     27  H   UNL A   1      38.888  19.063  24.988  1.00  0.00     0.064 H 
ATOM     28  C   UNL A   1      37.717  22.672  25.511  1.00  0.00    -0.033 A 
ATOM     29  H   UNL A   1      39.548  22.926  26.536  1.00  0.00     0.064 H 
ATOM     30  H   UNL A   1      36.739  19.787  24.120  1.00  0.00     0.065 H 
ATOM     31  H   UNL A   1      37.407  23.647  25.650  1.00  0.00     0.065 H 
BRANCH  23  32
ATOM     32  S   UNL A   1      40.908  20.441  26.559  1.00  0.00     0.238 S 
ATOM     33  O   UNL A   1      40.741  20.426  27.992  1.00  0.00    -0.207 OA
ATOM     34  O   UNL A   1      41.971  21.157  25.897  1.00  0.00    -0.207 OA
BRANCH  32  35
ATOM     35  N   UNL A   1      41.084  18.829  26.116  1.00  0.00    -0.225 NA
ATOM     36  H   UNL A   1      41.169  18.254  26.955  1.00  0.00     0.137 HD
ATOM     37  H   UNL A   1      41.921  18.722  25.545  1.00  0.00     0.137 HD
ENDBRANCH  32  35
ENDBRANCH  23  32
ENDBRANCH  21  22
ENDBRANCH  12  20
BRANCH  18  38
ATOM     38  O   UNL A   1      29.905  24.444  23.743  1.00  0.00    -0.507 OA
ATOM     39  H   UNL A   1      29.489  24.021  23.018  1.00  0.00     0.293 HD
ENDBRANCH  18  38
ENDBRANCH   8  11
ENDBRANCH   4   7
ENDBRANCH   1   4
BRANCH   1  40
ATOM     40  C   UNL A   1      32.669  29.615  26.827  1.00  0.00    -0.052 C 
ATOM     41  H   UNL A   1      33.496  29.339  26.207  1.00  0.00     0.027 H 
ATOM     42  H   UNL A   1      32.926  30.209  27.679  1.00  0.00     0.027 H 
BRANCH  40  43
ATOM     43  C   UNL A   1      31.736  30.495  25.991  1.00  0.00    -0.052 C 
ATOM     44  H   UNL A   1      30.793  29.994  25.920  1.00  0.00     0.027 H 
ATOM     45  H   UNL A   1      32.238  30.632  25.057  1.00  0.00     0.027 H 
BRANCH  43  46
ATOM     46  C   UNL A   1      31.472  31.905  26.520  1.00  0.00    -0.036 C 
ATOM     47  H   UNL A   1      30.645  31.852  27.197  1.00  0.00     0.028 H 
ATOM     48  H   UNL A   1      31.291  32.509  25.657  1.00  0.00     0.028 H 
BRANCH  46  49
ATOM     49  C   UNL A   1      32.632  32.568  27.252  1.00  0.00     0.018 C 
ATOM     50  H   UNL A   1      33.500  32.521  26.627  1.00  0.00     0.049 H 
ATOM     51  H   UNL A   1      32.772  32.042  28.173  1.00  0.00     0.049 H 
BRANCH  49  52
ATOM     52  N   UNL A   1      32.377  33.960  27.583  1.00  0.00    -0.352 N 
ATOM     53  C   UNL A   1      32.982  34.752  28.528  1.00  0.00     0.251 C 
ATOM     54  H   UNL A   1      31.671  34.397  27.054  1.00  0.00     0.163 HD
ATOM     55  O   UNL A   1      32.552  35.876  28.766  1.00  0.00    -0.269 OA
BRANCH  53  56
ATOM     56  C   UNL A   1      34.144  34.236  29.287  1.00  0.00     0.039 A 
ATOM     57  C   UNL A   1      33.917  33.428  30.405  1.00  0.00    -0.049 A 
ATOM     58  C   UNL A   1      35.449  34.549  28.900  1.00  0.00    -0.049 A 
ATOM     59  C   UNL A   1      35.001  32.883  31.100  1.00  0.00    -0.053 A 
ATOM     60  H   UNL A   1      32.953  33.235  30.719  1.00  0.00     0.063 H 
ATOM     61  C   UNL A   1      36.525  33.950  29.549  1.00  0.00    -0.053 A 
ATOM     62  H   UNL A   1      35.614  35.222  28.136  1.00  0.00     0.063 H 
ATOM     63  C   UNL A   1      36.312  33.115  30.658  1.00  0.00    -0.014 A 
ATOM     64  H   UNL A   1      34.836  32.307  31.941  1.00  0.00     0.063 H 
ATOM     65  H   UNL A   1      37.485  34.121  29.212  1.00  0.00     0.063 H 
BRANCH  63  66
ATOM     66  C   UNL A   1      37.488  32.527  31.350  1.00  0.00     0.031 A 
ATOM     67  C   UNL A   1      38.223  31.380  30.717  1.00  0.00     0.074 A 
ATOM     68  C   UNL A   1      37.838  32.962  32.576  1.00  0.00     0.049 A 
ATOM     69  N   UNL A   1      39.172  30.627  31.214  1.00  0.00    -0.248 NA
ATOM     70  C   UNL A   1      37.812  31.008  29.355  1.00  0.00    -0.034 C 
ATOM     71  C   UNL A   1      37.189  34.050  33.306  1.00  0.00    -0.036 A 
ATOM     72  N   UNL A   1      38.819  32.525  33.432  1.00  0.00    -0.354 N 
ATOM     73  C   UNL A   1      39.451  29.681  30.236  1.00  0.00     0.074 A 
ATOM     74  C   UNL A   1      38.539  29.922  29.139  1.00  0.00    -0.034 C 
ATOM     75  H   UNL A   1      37.132  31.471  28.731  1.00  0.00     0.065 H 
ATOM     76  C   UNL A   1      37.796  34.205  34.495  1.00  0.00    -0.036 A 
ATOM     77  H   UNL A   1      36.393  34.609  32.964  1.00  0.00     0.065 H 
ATOM     78  C   UNL A   1      38.847  33.201  34.628  1.00  0.00     0.049 A 
ATOM     79  H   UNL A   1      39.444  31.797  33.210  1.00  0.00     0.167 HD
ATOM     80  C   UNL A   1      40.396  28.710  30.244  1.00  0.00     0.037 A 
ATOM     81  H   UNL A   1      38.465  29.327  28.299  1.00  0.00     0.065 H 
ATOM     82  H   UNL A   1      37.557  34.920  35.200  1.00  0.00     0.065 H 
ATOM     83  C   UNL A   1      39.623  33.018  35.715  1.00  0.00     0.037 A 
ATOM     84  C   UNL A   1      41.323  28.496  31.322  1.00  0.00     0.049 A 
ATOM     85  C   UNL A   1      40.663  31.930  35.703  1.00  0.00     0.074 A 
ATOM     86  C   UNL A   1      42.349  27.571  31.408  1.00  0.00    -0.036 A 
ATOM     87  N   UNL A   1      41.342  29.225  32.502  1.00  0.00    -0.354 N 
ATOM     88  N   UNL A   1      40.939  31.063  34.760  1.00  0.00    -0.248 NA
ATOM     89  C   UNL A   1      41.497  31.793  36.905  1.00  0.00    -0.034 C 
ATOM     90  C   UNL A   1      42.958  27.710  32.659  1.00  0.00    -0.036 A 
ATOM     91  H   UNL A   1      42.617  26.895  30.675  1.00  0.00     0.065 H 
ATOM     92  C   UNL A   1      42.349  28.757  33.330  1.00  0.00     0.049 A 
ATOM     93  H   UNL A   1      40.729  29.964  32.720  1.00  0.00     0.167 HD
ATOM     94  C   UNL A   1      42.006  30.310  35.234  1.00  0.00     0.074 A 
ATOM     95  C   UNL A   1      42.323  30.817  36.553  1.00  0.00    -0.034 C 
ATOM     96  H   UNL A   1      41.452  32.319  37.793  1.00  0.00     0.065 H 
ATOM     97  H   UNL A   1      43.732  27.130  33.021  1.00  0.00     0.065 H 
ATOM     98  C   UNL A   1      42.665  29.292  34.629  1.00  0.00     0.037 A 
ATOM     99  H   UNL A   1      43.093  30.464  37.142  1.00  0.00     0.065 H 
BRANCH  80 100
ATOM    100  C   UNL A   1      40.470  27.801  29.052  1.00  0.00     0.064 A 
ATOM    101  C   UNL A   1      39.704  26.628  28.970  1.00  0.00     0.173 A 
ATOM    102  C   UNL A   1      41.294  28.122  27.962  1.00  0.00     0.173 A 
ATOM    103  F   UNL A   1      38.909  26.268  29.988  1.00  0.00    -0.203 F 
ATOM    104  C   UNL A   1      39.784  25.797  27.855  1.00  0.00     0.198 A 
ATOM    105  C   UNL A   1      41.346  27.306  26.836  1.00  0.00     0.198 A 
ATOM    106  F   UNL A   1      42.043  29.236  27.985  1.00  0.00    -0.203 F 
ATOM    107  F   UNL A   1      39.082  24.654  27.824  1.00  0.00    -0.200 F 
ATOM    108  C   UNL A   1      40.598  26.139  26.787  1.00  0.00     0.200 A 
ATOM    109  F   UNL A   1      42.123  27.646  25.798  1.00  0.00    -0.200 F 
ATOM    110  F   UNL A   1      40.669  25.341  25.713  1.00  0.00    -0.200 F 
ENDBRANCH  80 100
BRANCH  83 111
ATOM    111  C   UNL A   1      39.458  33.899  36.901  1.00  0.00     0.064 A 
ATOM    112  C   UNL A   1      38.709  33.479  38.010  1.00  0.00     0.173 A 
ATOM    113  C   UNL A   1      40.036  35.176  36.949  1.00  0.00     0.173 A 
ATOM    114  F   UNL A   1      38.119  32.275  38.000  1.00  0.00    -0.203 F 
ATOM    115  C   UNL A   1      38.529  34.309  39.114  1.00  0.00     0.198 A 
ATOM    116  C   UNL A   1      39.880  35.993  38.068  1.00  0.00     0.198 A 
ATOM    117  F   UNL A   1      40.760  35.625  35.913  1.00  0.00    -0.203 F 
ATOM    118  F   UNL A   1      37.771  33.899  40.140  1.00  0.00    -0.200 F 
ATOM    119  C   UNL A   1      39.119  35.563  39.145  1.00  0.00     0.200 A 
ATOM    120  F   UNL A   1      40.464  37.198  38.098  1.00  0.00    -0.200 F 
ATOM    121  F   UNL A   1      38.951  36.359  40.208  1.00  0.00    -0.200 F 
ENDBRANCH  83 111
BRANCH  98 122
ATOM    122  C   UNL A   1      43.833  28.691  35.355  1.00  0.00     0.064 A 
ATOM    123  C   UNL A   1      45.136  29.183  35.196  1.00  0.00     0.173 A 
ATOM    124  C   UNL A   1      43.629  27.655  36.279  1.00  0.00     0.173 A 
ATOM    125  F   UNL A   1      45.383  30.163  34.313  1.00  0.00    -0.203 F 
ATOM    126  C   UNL A   1      46.194  28.650  35.925  1.00  0.00     0.198 A 
ATOM    127  C   UNL A   1      44.685  27.143  37.027  1.00  0.00     0.198 A 
ATOM    128  F   UNL A   1      42.399  27.153  36.471  1.00  0.00    -0.203 F 
ATOM    129  F   UNL A   1      47.438  29.112  35.733  1.00  0.00    -0.200 F 
ATOM    130  C   UNL A   1      45.967  27.638  36.848  1.00  0.00     0.200 A 
ATOM    131  F   UNL A   1      44.460  26.175  37.927  1.00  0.00    -0.200 F 
ATOM    132  F   UNL A   1      46.986  27.139  37.560  1.00  0.00    -0.200 F 
ENDBRANCH  98 122
ENDBRANCH  63  66
ENDBRANCH  53  56
ENDBRANCH  49  52
ENDBRANCH  46  49
ENDBRANCH  43  46
ENDBRANCH  40  43
ENDBRANCH   1  40
TORSDOF 18
ENDMDL
MODEL 3
REMARK VINA RESULT:     -12.0      3.773      7.315
REMARK SMILES NS(=O)(=O)c1ccc(/N=N/c2ccc(O)c(C(=O)NCCCCCCNC(=O)c3ccc(-c4c5nc(c(-c6c(F)c(F)c(F)c(F)c6F)c6ccc([nH]6)c(-c6c(F)c(F)c(F)c(F)c6F)c6nc(c(-c7c(F)c(F)c(F)c(F)c7F)c7ccc4[nH]7)C=C6)C=C5)cc3)c2)cc1
REMARK SMILES IDX 21 1 20 4 19 7 17 8 18 9 16 11 11 12 12 13 92 14 13 15 14 18
REMARK SMILES IDX 10 20 9 21 8 22 5 23 6 24 94 25 7 26 93 28 2 32 3 33 4 34
REMARK SMILES IDX 1 35 15 38 22 40 23 43 24 46 25 49 26 52 27 53 28 55 29 56
REMARK SMILES IDX 30 57 91 58 31 59 90 61 32 63 33 66 34 67 84 68 35 69 89 70
REMARK SMILES IDX 83 71 85 72 36 73 88 74 82 76 81 78 37 80 69 83 49 84 68 85
REMARK SMILES IDX 50 86 53 87 67 88 86 89 51 90 52 92 66 94 87 95 54 98 38 100
REMARK SMILES IDX 39 101 47 102 40 103 41 104 45 105 48 106 42 107 43 108
REMARK SMILES IDX 46 109 44 110 70 111 71 112 79 113 72 114 73 115 77 116
REMARK SMILES IDX 80 117 74 118 75 119 78 120 76 121 55 122 56 123 64 124
REMARK SMILES IDX 57 125 58 126 62 127 65 128 59 129 60 130 63 131 61 132
REMARK H PARENT 21 2 21 3 20 5 20 6 19 10 12 16 92 17 13 19 6 27 94 29 7 30
REMARK H PARENT 93 31 1 36 1 37 15 39 22 41 22 42 23 44 23 45 24 47 24 48
REMARK H PARENT 25 50 25 51 26 54 30 60 91 62 31 64 90 65 89 75 83 77 85 79
REMARK H PARENT 88 81 82 82 50 91 53 93 86 96 51 97 87 99
REMARK Flexibility Score: inf
ROOT
ATOM      1  C   UNL A   1      34.059  27.098  25.864  1.00  0.00    -0.036 C 
ATOM      2  H   UNL A   1      33.145  27.042  26.417  1.00  0.00     0.028 H 
ATOM      3  H   UNL A   1      34.933  27.271  26.458  1.00  0.00     0.028 H 
ENDROOT
BRANCH   1   4
ATOM      4  C   UNL A   1      33.963  28.303  24.934  1.00  0.00     0.018 C 
ATOM      5  H   UNL A   1      34.957  28.610  24.681  1.00  0.00     0.049 H 
ATOM      6  H   UNL A   1      33.395  27.988  24.083  1.00  0.00     0.049 H 
BRANCH   4   7
ATOM      7  N   UNL A   1      33.265  29.443  25.501  1.00  0.00    -0.352 N 
ATOM      8  C   UNL A   1      31.942  29.816  25.410  1.00  0.00     0.255 C 
ATOM      9  O   UNL A   1      31.584  30.886  25.906  1.00  0.00    -0.269 OA
ATOM     10  H   UNL A   1      33.826  30.047  26.038  1.00  0.00     0.163 HD
BRANCH   8  11
ATOM     11  C   UNL A   1      30.937  29.021  24.660  1.00  0.00     0.083 A 
ATOM     12  C   UNL A   1      30.134  26.873  23.827  1.00  0.00     0.087 A 
ATOM     13  C   UNL A   1      29.247  27.547  22.982  1.00  0.00    -0.031 A 
ATOM     14  C   UNL A   1      30.899  27.627  24.731  1.00  0.00    -0.018 A 
ATOM     15  C   UNL A   1      29.165  28.943  23.004  1.00  0.00    -0.017 A 
ATOM     16  H   UNL A   1      28.646  27.010  22.338  1.00  0.00     0.065 H 
ATOM     17  H   UNL A   1      31.444  27.142  25.461  1.00  0.00     0.066 H 
ATOM     18  C   UNL A   1      30.018  29.674  23.829  1.00  0.00     0.128 A 
ATOM     19  H   UNL A   1      28.474  29.430  22.412  1.00  0.00     0.066 H 
BRANCH  12  20
ATOM     20  N   UNL A   1      30.292  25.472  23.696  1.00  0.00    -0.151 NA
ATOM     21  N   UNL A   1      30.744  24.997  24.764  1.00  0.00    -0.151 NA
BRANCH  21  22
ATOM     22  C   UNL A   1      31.132  23.654  24.655  1.00  0.00     0.086 A 
ATOM     23  C   UNL A   1      32.185  21.056  24.624  1.00  0.00     0.082 A 
ATOM     24  C   UNL A   1      31.492  21.508  25.750  1.00  0.00    -0.040 A 
ATOM     25  C   UNL A   1      32.351  21.888  23.512  1.00  0.00    -0.040 A 
ATOM     26  C   UNL A   1      30.973  22.807  25.760  1.00  0.00    -0.033 A 
ATOM     27  H   UNL A   1      31.365  20.890  26.566  1.00  0.00     0.064 H 
ATOM     28  C   UNL A   1      31.824  23.181  23.532  1.00  0.00    -0.033 A 
ATOM     29  H   UNL A   1      32.861  21.548  22.682  1.00  0.00     0.064 H 
ATOM     30  H   UNL A   1      30.467  23.145  26.593  1.00  0.00     0.065 H 
ATOM     31  H   UNL A   1      31.945  23.795  22.711  1.00  0.00     0.065 H 
BRANCH  23  32
ATOM     32  S   UNL A   1      32.933  19.452  24.586  1.00  0.00     0.238 S 
ATOM     33  O   UNL A   1      34.366  19.624  24.627  1.00  0.00    -0.207 OA
ATOM     34  O   UNL A   1      32.263  18.668  23.577  1.00  0.00    -0.207 OA
BRANCH  32  35
ATOM     35  N   UNL A   1      32.529  18.759  26.063  1.00  0.00    -0.225 NA
ATOM     36  H   UNL A   1      32.530  17.743  25.973  1.00  0.00     0.137 HD
ATOM     37  H   UNL A   1      31.600  19.073  26.343  1.00  0.00     0.137 HD
ENDBRANCH  32  35
ENDBRANCH  23  32
ENDBRANCH  21  22
ENDBRANCH  12  20
BRANCH  18  38
ATOM     38  O   UNL A   1      29.909  31.038  23.763  1.00  0.00    -0.507 OA
ATOM     39  H   UNL A   1      30.208  31.496  23.002  1.00  0.00     0.293 HD
ENDBRANCH  18  38
ENDBRANCH   8  11
ENDBRANCH   4   7
ENDBRANCH   1   4
BRANCH   1  40
ATOM     40  C   UNL A   1      34.286  25.737  25.206  1.00  0.00    -0.052 C 
ATOM     41  H   UNL A   1      35.270  25.738  24.789  1.00  0.00     0.027 H 
ATOM     42  H   UNL A   1      33.496  25.634  24.492  1.00  0.00     0.027 H 
BRANCH  40  43
ATOM     43  C   UNL A   1      34.169  24.507  26.111  1.00  0.00    -0.052 C 
ATOM     44  H   UNL A   1      33.198  24.083  25.959  1.00  0.00     0.027 H 
ATOM     45  H   UNL A   1      34.346  24.868  27.102  1.00  0.00     0.027 H 
BRANCH  43  46
ATOM     46  C   UNL A   1      35.199  23.398  25.893  1.00  0.00    -0.036 C 
ATOM     47  H   UNL A   1      34.931  22.871  25.002  1.00  0.00     0.028 H 
ATOM     48  H   UNL A   1      35.172  22.800  26.780  1.00  0.00     0.028 H 
BRANCH  46  49
ATOM     49  C   UNL A   1      36.645  23.855  25.748  1.00  0.00     0.018 C 
ATOM     50  H   UNL A   1      36.833  24.626  26.465  1.00  0.00     0.049 H 
ATOM     51  H   UNL A   1      36.771  24.203  24.743  1.00  0.00     0.049 H 
BRANCH  49  52
ATOM     52  N   UNL A   1      37.605  22.784  25.959  1.00  0.00    -0.352 N 
ATOM     53  C   UNL A   1      38.885  22.853  26.453  1.00  0.00     0.251 C 
ATOM     54  H   UNL A   1      37.293  21.884  25.714  1.00  0.00     0.163 HD
ATOM     55  O   UNL A   1      39.609  21.862  26.443  1.00  0.00    -0.269 OA
BRANCH  53  56
ATOM     56  C   UNL A   1      39.406  24.136  26.974  1.00  0.00     0.039 A 
ATOM     57  C   UNL A   1      40.038  25.019  26.093  1.00  0.00    -0.049 A 
ATOM     58  C   UNL A   1      39.276  24.467  28.325  1.00  0.00    -0.049 A 
ATOM     59  C   UNL A   1      40.484  26.261  26.553  1.00  0.00    -0.053 A 
ATOM     60  H   UNL A   1      40.176  24.754  25.104  1.00  0.00     0.063 H 
ATOM     61  C   UNL A   1      39.656  25.731  28.768  1.00  0.00    -0.053 A 
ATOM     62  H   UNL A   1      38.898  23.777  28.993  1.00  0.00     0.063 H 
ATOM     63  C   UNL A   1      40.269  26.638  27.888  1.00  0.00    -0.014 A 
ATOM     64  H   UNL A   1      40.973  26.903  25.910  1.00  0.00     0.063 H 
ATOM     65  H   UNL A   1      39.487  26.002  29.748  1.00  0.00     0.063 H 
BRANCH  63  66
ATOM     66  C   UNL A   1      40.700  27.962  28.407  1.00  0.00     0.031 A 
ATOM     67  C   UNL A   1      42.144  28.185  28.759  1.00  0.00     0.074 A 
ATOM     68  C   UNL A   1      39.789  28.926  28.641  1.00  0.00     0.049 A 
ATOM     69  N   UNL A   1      42.703  29.203  29.363  1.00  0.00    -0.248 NA
ATOM     70  C   UNL A   1      43.078  27.102  28.417  1.00  0.00    -0.034 C 
ATOM     71  C   UNL A   1      38.357  28.823  28.365  1.00  0.00    -0.036 A 
ATOM     72  N   UNL A   1      39.934  30.179  29.185  1.00  0.00    -0.354 N 
ATOM     73  C   UNL A   1      44.045  28.872  29.494  1.00  0.00     0.074 A 
ATOM     74  C   UNL A   1      44.208  27.539  28.953  1.00  0.00    -0.034 C 
ATOM     75  H   UNL A   1      42.900  26.228  27.897  1.00  0.00     0.065 H 
ATOM     76  C   UNL A   1      37.756  29.968  28.728  1.00  0.00    -0.036 A 
ATOM     77  H   UNL A   1      37.883  28.002  27.956  1.00  0.00     0.065 H 
ATOM     78  C   UNL A   1      38.751  30.868  29.303  1.00  0.00     0.049 A 
ATOM     79  H   UNL A   1      40.803  30.548  29.464  1.00  0.00     0.167 HD
ATOM     80  C   UNL A   1      45.054  29.618  30.002  1.00  0.00     0.037 A 
ATOM     81  H   UNL A   1      45.088  27.001  28.980  1.00  0.00     0.065 H 
ATOM     82  H   UNL A   1      36.751  30.177  28.619  1.00  0.00     0.065 H 
ATOM     83  C   UNL A   1      38.499  32.082  29.829  1.00  0.00     0.037 A 
ATOM     84  C   UNL A   1      44.894  30.955  30.507  1.00  0.00     0.049 A 
ATOM     85  C   UNL A   1      39.636  32.892  30.393  1.00  0.00     0.074 A 
ATOM     86  C   UNL A   1      45.861  31.814  31.000  1.00  0.00    -0.036 A 
ATOM     87  N   UNL A   1      43.685  31.631  30.577  1.00  0.00    -0.354 N 
ATOM     88  N   UNL A   1      40.905  32.581  30.481  1.00  0.00    -0.248 NA
ATOM     89  C   UNL A   1      39.305  34.219  30.932  1.00  0.00    -0.034 C 
ATOM     90  C   UNL A   1      45.230  32.993  31.409  1.00  0.00    -0.036 A 
ATOM     91  H   UNL A   1      46.873  31.618  31.055  1.00  0.00     0.065 H 
ATOM     92  C   UNL A   1      43.879  32.890  31.122  1.00  0.00     0.049 A 
ATOM     93  H   UNL A   1      42.818  31.271  30.283  1.00  0.00     0.167 HD
ATOM     94  C   UNL A   1      41.532  33.687  31.040  1.00  0.00     0.074 A 
ATOM     95  C   UNL A   1      40.501  34.676  31.278  1.00  0.00    -0.034 C 
ATOM     96  H   UNL A   1      38.384  34.676  31.017  1.00  0.00     0.065 H 
ATOM     97  H   UNL A   1      45.693  33.802  31.852  1.00  0.00     0.065 H 
ATOM     98  C   UNL A   1      42.843  33.869  31.327  1.00  0.00     0.037 A 
ATOM     99  H   UNL A   1      40.674  35.616  31.667  1.00  0.00     0.065 H 
BRANCH  80 100
ATOM    100  C   UNL A   1      46.424  29.003  30.042  1.00  0.00     0.064 A 
ATOM    101  C   UNL A   1      47.319  29.127  28.968  1.00  0.00     0.173 A 
ATOM    102  C   UNL A   1      46.859  28.307  31.180  1.00  0.00     0.173 A 
ATOM    103  F   UNL A   1      46.950  29.772  27.852  1.00  0.00    -0.203 F 
ATOM    104  C   UNL A   1      48.587  28.552  29.022  1.00  0.00     0.198 A 
ATOM    105  C   UNL A   1      48.137  27.762  31.243  1.00  0.00     0.198 A 
ATOM    106  F   UNL A   1      46.045  28.165  32.237  1.00  0.00    -0.203 F 
ATOM    107  F   UNL A   1      49.404  28.638  27.963  1.00  0.00    -0.200 F 
ATOM    108  C   UNL A   1      48.998  27.876  30.161  1.00  0.00     0.200 A 
ATOM    109  F   UNL A   1      48.538  27.122  32.350  1.00  0.00    -0.200 F 
ATOM    110  F   UNL A   1      50.219  27.329  30.213  1.00  0.00    -0.200 F 
ENDBRANCH  80 100
BRANCH  83 111
ATOM    111  C   UNL A   1      37.111  32.615  29.833  1.00  0.00     0.064 A 
ATOM    112  C   UNL A   1      36.269  32.422  30.938  1.00  0.00     0.173 A 
ATOM    113  C   UNL A   1      36.595  33.319  28.736  1.00  0.00     0.173 A 
ATOM    114  F   UNL A   1      36.711  31.734  32.002  1.00  0.00    -0.203 F 
ATOM    115  C   UNL A   1      34.960  32.896  30.939  1.00  0.00     0.198 A 
ATOM    116  C   UNL A   1      35.294  33.820  28.750  1.00  0.00     0.198 A 
ATOM    117  F   UNL A   1      37.359  33.529  27.653  1.00  0.00    -0.203 F 
ATOM    118  F   UNL A   1      34.163  32.657  31.990  1.00  0.00    -0.200 F 
ATOM    119  C   UNL A   1      34.475  33.600  29.847  1.00  0.00     0.200 A 
ATOM    120  F   UNL A   1      34.836  34.512  27.698  1.00  0.00    -0.200 F 
ATOM    121  F   UNL A   1      33.218  34.061  29.849  1.00  0.00    -0.200 F 
ENDBRANCH  83 111
BRANCH  98 122
ATOM    122  C   UNL A   1      43.257  35.203  31.877  1.00  0.00     0.064 A 
ATOM    123  C   UNL A   1      43.724  36.232  31.048  1.00  0.00     0.173 A 
ATOM    124  C   UNL A   1      43.113  35.474  33.246  1.00  0.00     0.173 A 
ATOM    125  F   UNL A   1      43.892  36.015  29.734  1.00  0.00    -0.203 F 
ATOM    126  C   UNL A   1      44.044  37.481  31.572  1.00  0.00     0.198 A 
ATOM    127  C   UNL A   1      43.408  36.733  33.763  1.00  0.00     0.198 A 
ATOM    128  F   UNL A   1      42.665  34.523  34.081  1.00  0.00    -0.203 F 
ATOM    129  F   UNL A   1      44.520  38.441  30.767  1.00  0.00    -0.200 F 
ATOM    130  C   UNL A   1      43.876  37.734  32.926  1.00  0.00     0.200 A 
ATOM    131  F   UNL A   1      43.232  36.978  35.068  1.00  0.00    -0.200 F 
ATOM    132  F   UNL A   1      44.169  38.943  33.424  1.00  0.00    -0.200 F 
ENDBRANCH  98 122
ENDBRANCH  63  66
ENDBRANCH  53  56
ENDBRANCH  49  52
ENDBRANCH  46  49
ENDBRANCH  43  46
ENDBRANCH  40  43
ENDBRANCH   1  40
TORSDOF 18
ENDMDL
MODEL 4
REMARK VINA RESULT:     -12.0      1.144      2.524
REMARK SMILES NS(=O)(=O)c1ccc(/N=N/c2ccc(O)c(C(=O)NCCCCCCNC(=O)c3ccc(-c4c5nc(c(-c6c(F)c(F)c(F)c(F)c6F)c6ccc([nH]6)c(-c6c(F)c(F)c(F)c(F)c6F)c6nc(c(-c7c(F)c(F)c(F)c(F)c7F)c7ccc4[nH]7)C=C6)C=C5)cc3)c2)cc1
REMARK SMILES IDX 21 1 20 4 19 7 17 8 18 9 16 11 11 12 12 13 92 14 13 15 14 18
REMARK SMILES IDX 10 20 9 21 8 22 5 23 6 24 94 25 7 26 93 28 2 32 3 33 4 34
REMARK SMILES IDX 1 35 15 38 22 40 23 43 24 46 25 49 26 52 27 53 28 55 29 56
REMARK SMILES IDX 30 57 91 58 31 59 90 61 32 63 33 66 34 67 84 68 35 69 89 70
REMARK SMILES IDX 83 71 85 72 36 73 88 74 82 76 81 78 37 80 69 83 49 84 68 85
REMARK SMILES IDX 50 86 53 87 67 88 86 89 51 90 52 92 66 94 87 95 54 98 38 100
REMARK SMILES IDX 39 101 47 102 40 103 41 104 45 105 48 106 42 107 43 108
REMARK SMILES IDX 46 109 44 110 70 111 71 112 79 113 72 114 73 115 77 116
REMARK SMILES IDX 80 117 74 118 75 119 78 120 76 121 55 122 56 123 64 124
REMARK SMILES IDX 57 125 58 126 62 127 65 128 59 129 60 130 63 131 61 132
REMARK H PARENT 21 2 21 3 20 5 20 6 19 10 12 16 92 17 13 19 6 27 94 29 7 30
REMARK H PARENT 93 31 1 36 1 37 15 39 22 41 22 42 23 44 23 45 24 47 24 48
REMARK H PARENT 25 50 25 51 26 54 30 60 91 62 31 64 90 65 89 75 83 77 85 79
REMARK H PARENT 88 81 82 82 50 91 53 93 86 96 51 97 87 99
REMARK Flexibility Score: inf
ROOT
ATOM      1  C   UNL A   1      31.779  28.307  27.316  1.00  0.00    -0.036 C 
ATOM      2  H   UNL A   1      32.334  28.009  28.181  1.00  0.00     0.028 H 
ATOM      3  H   UNL A   1      30.799  28.687  27.522  1.00  0.00     0.028 H 
ENDROOT
BRANCH   1   4
ATOM      4  C   UNL A   1      31.555  27.066  26.459  1.00  0.00     0.018 C 
ATOM      5  H   UNL A   1      32.432  26.906  25.866  1.00  0.00     0.049 H 
ATOM      6  H   UNL A   1      31.357  26.260  27.136  1.00  0.00     0.049 H 
BRANCH   4   7
ATOM      7  N   UNL A   1      30.412  27.151  25.568  1.00  0.00    -0.352 N 
ATOM      8  C   UNL A   1      30.261  26.730  24.265  1.00  0.00     0.255 C 
ATOM      9  O   UNL A   1      29.215  26.989  23.667  1.00  0.00    -0.269 OA
ATOM     10  H   UNL A   1      29.614  27.576  25.957  1.00  0.00     0.163 HD
BRANCH   8  11
ATOM     11  C   UNL A   1      31.347  26.050  23.514  1.00  0.00     0.083 A 
ATOM     12  C   UNL A   1      32.442  23.999  22.774  1.00  0.00     0.087 A 
ATOM     13  C   UNL A   1      33.557  24.749  22.389  1.00  0.00    -0.031 A 
ATOM     14  C   UNL A   1      31.307  24.681  23.242  1.00  0.00    -0.018 A 
ATOM     15  C   UNL A   1      33.557  26.141  22.517  1.00  0.00    -0.017 A 
ATOM     16  H   UNL A   1      34.387  24.271  22.006  1.00  0.00     0.065 H 
ATOM     17  H   UNL A   1      30.428  24.161  23.387  1.00  0.00     0.066 H 
ATOM     18  C   UNL A   1      32.462  26.784  23.091  1.00  0.00     0.128 A 
ATOM     19  H   UNL A   1      34.366  26.692  22.187  1.00  0.00     0.066 H 
BRANCH  12  20
ATOM     20  N   UNL A   1      32.514  22.585  22.756  1.00  0.00    -0.151 NA
ATOM     21  N   UNL A   1      32.007  22.124  23.805  1.00  0.00    -0.151 NA
BRANCH  21  22
ATOM     22  C   UNL A   1      32.226  20.749  23.971  1.00  0.00     0.086 A 
ATOM     23  C   UNL A   1      33.002  18.074  24.288  1.00  0.00     0.082 A 
ATOM     24  C   UNL A   1      33.039  18.938  25.384  1.00  0.00    -0.040 A 
ATOM     25  C   UNL A   1      32.575  18.531  23.037  1.00  0.00    -0.040 A 
ATOM     26  C   UNL A   1      32.655  20.272  25.218  1.00  0.00    -0.033 A 
ATOM     27  H   UNL A   1      33.348  18.595  26.307  1.00  0.00     0.064 H 
ATOM     28  C   UNL A   1      32.188  19.865  22.885  1.00  0.00    -0.033 A 
ATOM     29  H   UNL A   1      32.546  17.887  22.231  1.00  0.00     0.064 H 
ATOM     30  H   UNL A   1      32.688  20.915  26.025  1.00  0.00     0.065 H 
ATOM     31  H   UNL A   1      31.872  20.203  21.962  1.00  0.00     0.065 H 
BRANCH  23  32
ATOM     32  S   UNL A   1      33.553  16.396  24.418  1.00  0.00     0.238 S 
ATOM     33  O   UNL A   1      34.144  16.018  23.157  1.00  0.00    -0.207 OA
ATOM     34  O   UNL A   1      32.512  15.630  25.061  1.00  0.00    -0.207 OA
BRANCH  32  35
ATOM     35  N   UNL A   1      34.832  16.452  25.507  1.00  0.00    -0.225 NA
ATOM     36  H   UNL A   1      34.868  15.580  26.035  1.00  0.00     0.137 HD
ATOM     37  H   UNL A   1      34.697  17.232  26.151  1.00  0.00     0.137 HD
ENDBRANCH  32  35
ENDBRANCH  23  32
ENDBRANCH  21  22
ENDBRANCH  12  20
BRANCH  18  38
ATOM     38  O   UNL A   1      32.553  28.145  23.223  1.00  0.00    -0.507 OA
ATOM     39  H   UNL A   1      33.365  28.579  23.050  1.00  0.00     0.293 HD
ENDBRANCH  18  38
ENDBRANCH   8  11
ENDBRANCH   4   7
ENDBRANCH   1   4
BRANCH   1  40
ATOM     40  C   UNL A   1      32.529  29.469  26.663  1.00  0.00    -0.052 C 
ATOM     41  H   UNL A   1      33.221  29.054  25.961  1.00  0.00     0.027 H 
ATOM     42  H   UNL A   1      32.978  30.004  27.473  1.00  0.00     0.027 H 
BRANCH  40  43
ATOM     43  C   UNL A   1      31.681  30.505  25.920  1.00  0.00    -0.052 C 
ATOM     44  H   UNL A   1      30.736  30.053  25.700  1.00  0.00     0.027 H 
ATOM     45  H   UNL A   1      32.255  30.776  25.060  1.00  0.00     0.027 H 
BRANCH  43  46
ATOM     46  C   UNL A   1      31.407  31.817  26.656  1.00  0.00    -0.036 C 
ATOM     47  H   UNL A   1      30.779  31.599  27.494  1.00  0.00     0.028 H 
ATOM     48  H   UNL A   1      30.960  32.467  25.933  1.00  0.00     0.028 H 
BRANCH  46  49
ATOM     49  C   UNL A   1      32.634  32.558  27.173  1.00  0.00     0.018 C 
ATOM     50  H   UNL A   1      33.386  32.543  26.412  1.00  0.00     0.049 H 
ATOM     51  H   UNL A   1      32.955  32.060  28.064  1.00  0.00     0.049 H 
BRANCH  49  52
ATOM     52  N   UNL A   1      32.359  33.941  27.523  1.00  0.00    -0.352 N 
ATOM     53  C   UNL A   1      32.976  34.738  28.457  1.00  0.00     0.251 C 
ATOM     54  H   UNL A   1      31.629  34.367  27.020  1.00  0.00     0.163 HD
ATOM     55  O   UNL A   1      32.530  35.850  28.717  1.00  0.00    -0.269 OA
BRANCH  53  56
ATOM     56  C   UNL A   1      34.171  34.241  29.176  1.00  0.00     0.039 A 
ATOM     57  C   UNL A   1      33.996  33.500  30.349  1.00  0.00    -0.049 A 
ATOM     58  C   UNL A   1      35.456  34.506  28.698  1.00  0.00    -0.049 A 
ATOM     59  C   UNL A   1      35.108  32.972  31.010  1.00  0.00    -0.053 A 
ATOM     60  H   UNL A   1      33.048  33.344  30.727  1.00  0.00     0.063 H 
ATOM     61  C   UNL A   1      36.558  33.921  29.317  1.00  0.00    -0.053 A 
ATOM     62  H   UNL A   1      35.589  35.133  27.890  1.00  0.00     0.063 H 
ATOM     63  C   UNL A   1      36.396  33.153  30.482  1.00  0.00    -0.014 A 
ATOM     64  H   UNL A   1      34.983  32.446  31.889  1.00  0.00     0.063 H 
ATOM     65  H   UNL A   1      37.499  34.054  28.917  1.00  0.00     0.063 H 
BRANCH  63  66
ATOM     66  C   UNL A   1      37.599  32.580  31.138  1.00  0.00     0.031 A 
ATOM     67  C   UNL A   1      38.348  31.463  30.466  1.00  0.00     0.074 A 
ATOM     68  C   UNL A   1      37.965  32.999  32.365  1.00  0.00     0.049 A 
ATOM     69  N   UNL A   1      39.325  30.724  30.928  1.00  0.00    -0.248 NA
ATOM     70  C   UNL A   1      37.917  31.109  29.106  1.00  0.00    -0.034 C 
ATOM     71  C   UNL A   1      37.306  34.056  33.130  1.00  0.00    -0.036 A 
ATOM     72  N   UNL A   1      38.974  32.569  33.191  1.00  0.00    -0.354 N 
ATOM     73  C   UNL A   1      39.606  29.804  29.925  1.00  0.00     0.074 A 
ATOM     74  C   UNL A   1      38.665  30.045  28.853  1.00  0.00    -0.034 C 
ATOM     75  H   UNL A   1      37.214  31.568  28.505  1.00  0.00     0.065 H 
ATOM     76  C   UNL A   1      37.934  34.202  34.308  1.00  0.00    -0.036 A 
ATOM     77  H   UNL A   1      36.489  34.602  32.815  1.00  0.00     0.065 H 
ATOM     78  C   UNL A   1      39.011  33.221  34.400  1.00  0.00     0.049 A 
ATOM     79  H   UNL A   1      39.611  31.860  32.942  1.00  0.00     0.167 HD
ATOM     80  C   UNL A   1      40.573  28.857  29.895  1.00  0.00     0.037 A 
ATOM     81  H   UNL A   1      38.588  29.465  28.002  1.00  0.00     0.065 H 
ATOM     82  H   UNL A   1      37.693  34.897  35.032  1.00  0.00     0.065 H 
ATOM     83  C   UNL A   1      39.813  33.036  35.466  1.00  0.00     0.037 A 
ATOM     84  C   UNL A   1      41.528  28.644  30.949  1.00  0.00     0.049 A 
ATOM     85  C   UNL A   1      40.878  31.973  35.411  1.00  0.00     0.074 A 
ATOM     86  C   UNL A   1      42.577  27.742  30.995  1.00  0.00    -0.036 A 
ATOM     87  N   UNL A   1      41.554  29.349  32.143  1.00  0.00    -0.354 N 
ATOM     88  N   UNL A   1      41.155  31.132  34.445  1.00  0.00    -0.248 NA
ATOM     89  C   UNL A   1      41.740  31.832  36.593  1.00  0.00    -0.034 C 
ATOM     90  C   UNL A   1      43.209  27.871  32.235  1.00  0.00    -0.036 A 
ATOM     91  H   UNL A   1      42.845  27.088  30.243  1.00  0.00     0.065 H 
ATOM     92  C   UNL A   1      42.589  28.890  32.940  1.00  0.00     0.049 A 
ATOM     93  H   UNL A   1      40.929  30.069  32.388  1.00  0.00     0.167 HD
ATOM     94  C   UNL A   1      42.249  30.396  34.882  1.00  0.00     0.074 A 
ATOM     95  C   UNL A   1      42.581  30.884  36.204  1.00  0.00    -0.034 C 
ATOM     96  H   UNL A   1      41.702  32.340  37.491  1.00  0.00     0.065 H 
ATOM     97  H   UNL A   1      44.003  27.303  32.570  1.00  0.00     0.065 H 
ATOM     98  C   UNL A   1      42.919  29.407  34.243  1.00  0.00     0.037 A 
ATOM     99  H   UNL A   1      43.372  30.539  36.770  1.00  0.00     0.065 H 
BRANCH  80 100
ATOM    100  C   UNL A   1      40.644  27.974  28.683  1.00  0.00     0.064 A 
ATOM    101  C   UNL A   1      39.941  26.761  28.612  1.00  0.00     0.173 A 
ATOM    102  C   UNL A   1      41.399  28.359  27.564  1.00  0.00     0.173 A 
ATOM    103  F   UNL A   1      39.214  26.340  29.657  1.00  0.00    -0.203 F 
ATOM    104  C   UNL A   1      40.017  25.954  27.479  1.00  0.00     0.198 A 
ATOM    105  C   UNL A   1      41.446  27.566  26.422  1.00  0.00     0.198 A 
ATOM    106  F   UNL A   1      42.085  29.512  27.576  1.00  0.00    -0.203 F 
ATOM    107  F   UNL A   1      39.379  24.775  27.456  1.00  0.00    -0.200 F 
ATOM    108  C   UNL A   1      40.762  26.360  26.382  1.00  0.00     0.200 A 
ATOM    109  F   UNL A   1      42.155  27.967  25.357  1.00  0.00    -0.200 F 
ATOM    110  F   UNL A   1      40.828  25.586  25.291  1.00  0.00    -0.200 F 
ENDBRANCH  80 100
BRANCH  83 111
ATOM    111  C   UNL A   1      39.652  33.889  36.673  1.00  0.00     0.064 A 
ATOM    112  C   UNL A   1      40.301  35.128  36.770  1.00  0.00     0.173 A 
ATOM    113  C   UNL A   1      38.856  33.483  37.754  1.00  0.00     0.173 A 
ATOM    114  F   UNL A   1      41.092  35.548  35.771  1.00  0.00    -0.203 F 
ATOM    115  C   UNL A   1      40.175  35.920  37.908  1.00  0.00     0.198 A 
ATOM    116  C   UNL A   1      38.706  34.291  38.880  1.00  0.00     0.198 A 
ATOM    117  F   UNL A   1      38.216  32.305  37.711  1.00  0.00    -0.203 F 
ATOM    118  F   UNL A   1      40.844  37.079  37.993  1.00  0.00    -0.200 F 
ATOM    119  C   UNL A   1      39.373  35.504  38.960  1.00  0.00     0.200 A 
ATOM    120  F   UNL A   1      37.919  33.890  39.887  1.00  0.00    -0.200 F 
ATOM    121  F   UNL A   1      39.247  36.268  40.053  1.00  0.00    -0.200 F 
ENDBRANCH  83 111
BRANCH  98 122
ATOM    122  C   UNL A   1      44.116  28.820  34.932  1.00  0.00     0.064 A 
ATOM    123  C   UNL A   1      44.015  27.693  35.760  1.00  0.00     0.173 A 
ATOM    124  C   UNL A   1      45.394  29.353  34.699  1.00  0.00     0.173 A 
ATOM    125  F   UNL A   1      42.814  27.157  36.025  1.00  0.00    -0.203 F 
ATOM    126  C   UNL A   1      45.148  27.129  36.340  1.00  0.00     0.198 A 
ATOM    127  C   UNL A   1      46.527  28.769  35.258  1.00  0.00     0.198 A 
ATOM    128  F   UNL A   1      45.543  30.428  33.910  1.00  0.00    -0.203 F 
ATOM    129  F   UNL A   1      45.025  26.072  37.155  1.00  0.00    -0.200 F 
ATOM    130  C   UNL A   1      46.403  27.660  36.080  1.00  0.00     0.200 A 
ATOM    131  F   UNL A   1      47.739  29.277  34.994  1.00  0.00    -0.200 F 
ATOM    132  F   UNL A   1      47.493  27.105  36.627  1.00  0.00    -0.200 F 
ENDBRANCH  98 122
ENDBRANCH  63  66
ENDBRANCH  53  56
ENDBRANCH  49  52
ENDBRANCH  46  49
ENDBRANCH  43  46
ENDBRANCH  40  43
ENDBRANCH   1  40
TORSDOF 18
ENDMDL
MODEL 5
REMARK VINA RESULT:     -11.9      1.640      7.350
REMARK SMILES NS(=O)(=O)c1ccc(/N=N/c2ccc(O)c(C(=O)NCCCCCCNC(=O)c3ccc(-c4c5nc(c(-c6c(F)c(F)c(F)c(F)c6F)c6ccc([nH]6)c(-c6c(F)c(F)c(F)c(F)c6F)c6nc(c(-c7c(F)c(F)c(F)c(F)c7F)c7ccc4[nH]7)C=C6)C=C5)cc3)c2)cc1
REMARK SMILES IDX 21 1 20 4 19 7 17 8 18 9 16 11 11 12 12 13 92 14 13 15 14 18
REMARK SMILES IDX 10 20 9 21 8 22 5 23 6 24 94 25 7 26 93 28 2 32 3 33 4 34
REMARK SMILES IDX 1 35 15 38 22 40 23 43 24 46 25 49 26 52 27 53 28 55 29 56
REMARK SMILES IDX 30 57 91 58 31 59 90 61 32 63 33 66 34 67 84 68 35 69 89 70
REMARK SMILES IDX 83 71 85 72 36 73 88 74 82 76 81 78 37 80 69 83 49 84 68 85
REMARK SMILES IDX 50 86 53 87 67 88 86 89 51 90 52 92 66 94 87 95 54 98 38 100
REMARK SMILES IDX 39 101 47 102 40 103 41 104 45 105 48 106 42 107 43 108
REMARK SMILES IDX 46 109 44 110 70 111 71 112 79 113 72 114 73 115 77 116
REMARK SMILES IDX 80 117 74 118 75 119 78 120 76 121 55 122 56 123 64 124
REMARK SMILES IDX 57 125 58 126 62 127 65 128 59 129 60 130 63 131 61 132
REMARK H PARENT 21 2 21 3 20 5 20 6 19 10 12 16 92 17 13 19 6 27 94 29 7 30
REMARK H PARENT 93 31 1 36 1 37 15 39 22 41 22 42 23 44 23 45 24 47 24 48
REMARK H PARENT 25 50 25 51 26 54 30 60 91 62 31 64 90 65 89 75 83 77 85 79
REMARK H PARENT 88 81 82 82 50 91 53 93 86 96 51 97 87 99
REMARK Flexibility Score: inf
ROOT
ATOM      1  C   UNL A   1      33.567  31.221  27.661  1.00  0.00    -0.036 C 
ATOM      2  H   UNL A   1      32.977  31.094  28.545  1.00  0.00     0.028 H 
ATOM      3  H   UNL A   1      33.032  31.607  26.817  1.00  0.00     0.028 H 
ENDROOT
BRANCH   1   4
ATOM      4  C   UNL A   1      34.055  29.842  27.229  1.00  0.00     0.018 C 
ATOM      5  H   UNL A   1      35.026  29.684  27.650  1.00  0.00     0.049 H 
ATOM      6  H   UNL A   1      33.328  29.138  27.580  1.00  0.00     0.049 H 
BRANCH   4   7
ATOM      7  N   UNL A   1      34.147  29.663  25.790  1.00  0.00    -0.352 N 
ATOM      8  C   UNL A   1      33.803  28.589  25.000  1.00  0.00     0.255 C 
ATOM      9  O   UNL A   1      34.053  28.624  23.795  1.00  0.00    -0.269 OA
ATOM     10  H   UNL A   1      34.512  30.434  25.300  1.00  0.00     0.163 HD
BRANCH   8  11
ATOM     11  C   UNL A   1      33.217  27.342  25.557  1.00  0.00     0.083 A 
ATOM     12  C   UNL A   1      33.181  24.908  25.710  1.00  0.00     0.087 A 
ATOM     13  C   UNL A   1      31.929  24.978  26.328  1.00  0.00    -0.031 A 
ATOM     14  C   UNL A   1      33.853  26.106  25.423  1.00  0.00    -0.018 A 
ATOM     15  C   UNL A   1      31.341  26.216  26.605  1.00  0.00    -0.017 A 
ATOM     16  H   UNL A   1      31.435  24.109  26.583  1.00  0.00     0.065 H 
ATOM     17  H   UNL A   1      34.835  26.074  25.108  1.00  0.00     0.066 H 
ATOM     18  C   UNL A   1      31.977  27.390  26.206  1.00  0.00     0.128 A 
ATOM     19  H   UNL A   1      30.438  26.260  27.104  1.00  0.00     0.066 H 
BRANCH  12  20
ATOM     20  N   UNL A   1      33.697  23.647  25.324  1.00  0.00    -0.151 NA
ATOM     21  N   UNL A   1      32.832  23.022  24.665  1.00  0.00    -0.151 NA
BRANCH  21  22
ATOM     22  C   UNL A   1      33.176  21.684  24.426  1.00  0.00     0.086 A 
ATOM     23  C   UNL A   1      33.627  18.927  24.186  1.00  0.00     0.082 A 
ATOM     24  C   UNL A   1      32.530  19.506  23.543  1.00  0.00    -0.040 A 
ATOM     25  C   UNL A   1      34.503  19.712  24.943  1.00  0.00    -0.040 A 
ATOM     26  C   UNL A   1      32.309  20.882  23.671  1.00  0.00    -0.033 A 
ATOM     27  H   UNL A   1      31.890  18.926  22.979  1.00  0.00     0.064 H 
ATOM     28  C   UNL A   1      34.274  21.086  25.058  1.00  0.00    -0.033 A 
ATOM     29  H   UNL A   1      35.313  19.280  25.412  1.00  0.00     0.064 H 
ATOM     30  H   UNL A   1      31.496  21.312  23.202  1.00  0.00     0.065 H 
ATOM     31  H   UNL A   1      34.921  21.666  25.616  1.00  0.00     0.065 H 
BRANCH  23  32
ATOM     32  S   UNL A   1      33.911  17.180  24.127  1.00  0.00     0.238 S 
ATOM     33  O   UNL A   1      35.011  16.875  25.009  1.00  0.00    -0.207 OA
ATOM     34  O   UNL A   1      33.871  16.765  22.745  1.00  0.00    -0.207 OA
BRANCH  32  35
ATOM     35  N   UNL A   1      32.557  16.505  24.858  1.00  0.00    -0.225 NA
ATOM     36  H   UNL A   1      32.111  15.854  24.211  1.00  0.00     0.137 HD
ATOM     37  H   UNL A   1      31.898  17.243  25.103  1.00  0.00     0.137 HD
ENDBRANCH  32  35
ENDBRANCH  23  32
ENDBRANCH  21  22
ENDBRANCH  12  20
BRANCH  18  38
ATOM     38  O   UNL A   1      31.319  28.562  26.473  1.00  0.00    -0.507 OA
ATOM     39  H   UNL A   1      31.753  29.382  26.345  1.00  0.00     0.293 HD
ENDBRANCH  18  38
ENDBRANCH   8  11
ENDBRANCH   4   7
ENDBRANCH   1   4
BRANCH   1  40
ATOM     40  C   UNL A   1      34.640  32.267  27.967  1.00  0.00    -0.052 C 
ATOM     41  H   UNL A   1      34.838  32.802  27.062  1.00  0.00     0.027 H 
ATOM     42  H   UNL A   1      35.470  31.714  28.352  1.00  0.00     0.027 H 
BRANCH  40  43
ATOM     43  C   UNL A   1      34.307  33.297  29.051  1.00  0.00    -0.052 C 
ATOM     44  H   UNL A   1      35.180  33.896  29.208  1.00  0.00     0.027 H 
ATOM     45  H   UNL A   1      34.001  32.725  29.901  1.00  0.00     0.027 H 
BRANCH  43  46
ATOM     46  C   UNL A   1      33.142  34.243  28.759  1.00  0.00    -0.036 C 
ATOM     47  H   UNL A   1      32.293  33.899  29.312  1.00  0.00     0.028 H 
ATOM     48  H   UNL A   1      33.010  34.221  27.697  1.00  0.00     0.028 H 
BRANCH  46  49
ATOM     49  C   UNL A   1      33.370  35.706  29.115  1.00  0.00     0.018 C 
ATOM     50  H   UNL A   1      33.154  36.305  28.254  1.00  0.00     0.049 H 
ATOM     51  H   UNL A   1      34.389  35.805  29.426  1.00  0.00     0.049 H 
BRANCH  49  52
ATOM     52  N   UNL A   1      32.535  36.162  30.215  1.00  0.00    -0.352 N 
ATOM     53  C   UNL A   1      32.640  35.883  31.556  1.00  0.00     0.251 C 
ATOM     54  H   UNL A   1      31.791  36.754  29.962  1.00  0.00     0.163 HD
ATOM     55  O   UNL A   1      31.767  36.249  32.337  1.00  0.00    -0.269 OA
BRANCH  53  56
ATOM     56  C   UNL A   1      33.798  35.112  32.060  1.00  0.00     0.039 A 
ATOM     57  C   UNL A   1      33.587  33.825  32.565  1.00  0.00    -0.049 A 
ATOM     58  C   UNL A   1      35.085  35.655  32.038  1.00  0.00    -0.049 A 
ATOM     59  C   UNL A   1      34.675  33.058  32.991  1.00  0.00    -0.053 A 
ATOM     60  H   UNL A   1      32.630  33.442  32.624  1.00  0.00     0.063 H 
ATOM     61  C   UNL A   1      36.175  34.865  32.397  1.00  0.00    -0.053 A 
ATOM     62  H   UNL A   1      35.227  36.637  31.758  1.00  0.00     0.063 H 
ATOM     63  C   UNL A   1      35.980  33.562  32.882  1.00  0.00    -0.014 A 
ATOM     64  H   UNL A   1      34.518  32.119  33.387  1.00  0.00     0.063 H 
ATOM     65  H   UNL A   1      37.130  35.241  32.305  1.00  0.00     0.063 H 
BRANCH  63  66
ATOM     66  C   UNL A   1      37.164  32.765  33.294  1.00  0.00     0.031 A 
ATOM     67  C   UNL A   1      37.849  33.076  34.595  1.00  0.00     0.074 A 
ATOM     68  C   UNL A   1      37.672  31.830  32.468  1.00  0.00     0.049 A 
ATOM     69  N   UNL A   1      38.977  32.610  35.071  1.00  0.00    -0.248 NA
ATOM     70  C   UNL A   1      37.196  34.069  35.460  1.00  0.00    -0.034 C 
ATOM     71  C   UNL A   1      37.113  31.454  31.170  1.00  0.00    -0.036 A 
ATOM     72  N   UNL A   1      38.787  31.038  32.593  1.00  0.00    -0.354 N 
ATOM     73  C   UNL A   1      39.177  33.271  36.276  1.00  0.00     0.074 A 
ATOM     74  C   UNL A   1      38.084  34.206  36.434  1.00  0.00    -0.034 C 
ATOM     75  H   UNL A   1      36.285  34.539  35.340  1.00  0.00     0.065 H 
ATOM     76  C   UNL A   1      37.879  30.495  30.623  1.00  0.00    -0.036 A 
ATOM     77  H   UNL A   1      36.266  31.859  30.742  1.00  0.00     0.065 H 
ATOM     78  C   UNL A   1      39.005  30.221  31.510  1.00  0.00     0.049 A 
ATOM     79  H   UNL A   1      39.374  31.053  33.384  1.00  0.00     0.167 HD
ATOM     80  C   UNL A   1      40.173  33.102  37.177  1.00  0.00     0.037 A 
ATOM     81  H   UNL A   1      38.005  34.888  37.205  1.00  0.00     0.065 H 
ATOM     82  H   UNL A   1      37.699  30.028  29.720  1.00  0.00     0.065 H 
ATOM     83  C   UNL A   1      40.010  29.360  31.257  1.00  0.00     0.037 A 
ATOM     84  C   UNL A   1      41.239  32.147  37.032  1.00  0.00     0.049 A 
ATOM     85  C   UNL A   1      41.110  29.191  32.271  1.00  0.00     0.074 A 
ATOM     86  C   UNL A   1      42.271  31.864  37.911  1.00  0.00    -0.036 A 
ATOM     87  N   UNL A   1      41.406  31.313  35.936  1.00  0.00    -0.354 N 
ATOM     88  N   UNL A   1      41.271  29.798  33.422  1.00  0.00    -0.248 NA
ATOM     89  C   UNL A   1      42.167  28.221  31.954  1.00  0.00    -0.034 C 
ATOM     90  C   UNL A   1      43.087  30.891  37.326  1.00  0.00    -0.036 A 
ATOM     91  H   UNL A   1      42.412  32.297  38.837  1.00  0.00     0.065 H 
ATOM     92  C   UNL A   1      42.535  30.529  36.108  1.00  0.00     0.049 A 
ATOM     93  H   UNL A   1      40.812  31.284  35.152  1.00  0.00     0.167 HD
ATOM     94  C   UNL A   1      42.417  29.252  33.984  1.00  0.00     0.074 A 
ATOM     95  C   UNL A   1      42.917  28.269  33.046  1.00  0.00    -0.034 C 
ATOM     96  H   UNL A   1      42.292  27.650  31.103  1.00  0.00     0.065 H 
ATOM     97  H   UNL A   1      43.955  30.508  37.732  1.00  0.00     0.065 H 
ATOM     98  C   UNL A   1      43.001  29.538  35.173  1.00  0.00     0.037 A 
ATOM     99  H   UNL A   1      43.750  27.682  33.206  1.00  0.00     0.065 H 
BRANCH  80 100
ATOM    100  C   UNL A   1      40.160  33.971  38.401  1.00  0.00     0.064 A 
ATOM    101  C   UNL A   1      40.849  35.193  38.445  1.00  0.00     0.173 A 
ATOM    102  C   UNL A   1      39.423  33.594  39.535  1.00  0.00     0.173 A 
ATOM    103  F   UNL A   1      41.578  35.595  37.394  1.00  0.00    -0.203 F 
ATOM    104  C   UNL A   1      40.825  35.989  39.588  1.00  0.00     0.198 A 
ATOM    105  C   UNL A   1      39.375  34.407  40.663  1.00  0.00     0.198 A 
ATOM    106  F   UNL A   1      38.741  32.439  39.544  1.00  0.00    -0.203 F 
ATOM    107  F   UNL A   1      41.535  37.126  39.625  1.00  0.00    -0.200 F 
ATOM    108  C   UNL A   1      40.083  35.600  40.693  1.00  0.00     0.200 A 
ATOM    109  F   UNL A   1      38.645  34.037  41.724  1.00  0.00    -0.200 F 
ATOM    110  F   UNL A   1      40.056  36.369  41.789  1.00  0.00    -0.200 F 
ENDBRANCH  80 100
BRANCH  83 111
ATOM    111  C   UNL A   1      40.016  28.576  29.993  1.00  0.00     0.064 A 
ATOM    112  C   UNL A   1      39.417  27.309  29.930  1.00  0.00     0.173 A 
ATOM    113  C   UNL A   1      40.622  29.071  28.830  1.00  0.00     0.173 A 
ATOM    114  F   UNL A   1      38.845  26.785  31.024  1.00  0.00    -0.203 F 
ATOM    115  C   UNL A   1      39.441  26.560  28.757  1.00  0.00     0.198 A 
ATOM    116  C   UNL A   1      40.619  28.332  27.648  1.00  0.00     0.198 A 
ATOM    117  F   UNL A   1      41.210  30.276  28.839  1.00  0.00    -0.203 F 
ATOM    118  F   UNL A   1      38.902  25.332  28.737  1.00  0.00    -0.200 F 
ATOM    119  C   UNL A   1      40.037  27.073  27.614  1.00  0.00     0.200 A 
ATOM    120  F   UNL A   1      41.182  28.839  26.544  1.00  0.00    -0.200 F 
ATOM    121  F   UNL A   1      40.055  26.355  26.485  1.00  0.00    -0.200 F 
ENDBRANCH  83 111
BRANCH  98 122
ATOM    122  C   UNL A   1      44.213  28.742  35.562  1.00  0.00     0.064 A 
ATOM    123  C   UNL A   1      45.510  29.163  35.236  1.00  0.00     0.173 A 
ATOM    124  C   UNL A   1      44.073  27.580  36.336  1.00  0.00     0.173 A 
ATOM    125  F   UNL A   1      45.694  30.259  34.485  1.00  0.00    -0.203 F 
ATOM    126  C   UNL A   1      46.622  28.441  35.660  1.00  0.00     0.198 A 
ATOM    127  C   UNL A   1      45.188  26.876  36.782  1.00  0.00     0.198 A 
ATOM    128  F   UNL A   1      42.852  27.139  36.679  1.00  0.00    -0.203 F 
ATOM    129  F   UNL A   1      47.852  28.842  35.309  1.00  0.00    -0.200 F 
ATOM    130  C   UNL A   1      46.461  27.305  36.441  1.00  0.00     0.200 A 
ATOM    131  F   UNL A   1      45.029  25.787  37.547  1.00  0.00    -0.200 F 
ATOM    132  F   UNL A   1      47.535  26.623  36.861  1.00  0.00    -0.200 F 
ENDBRANCH  98 122
ENDBRANCH  63  66
ENDBRANCH  53  56
ENDBRANCH  49  52
ENDBRANCH  46  49
ENDBRANCH  43  46
ENDBRANCH  40  43
ENDBRANCH   1  40
TORSDOF 18
ENDMDL
MODEL 6
REMARK VINA RESULT:     -11.9      3.527      7.349
REMARK SMILES NS(=O)(=O)c1ccc(/N=N/c2ccc(O)c(C(=O)NCCCCCCNC(=O)c3ccc(-c4c5nc(c(-c6c(F)c(F)c(F)c(F)c6F)c6ccc([nH]6)c(-c6c(F)c(F)c(F)c(F)c6F)c6nc(c(-c7c(F)c(F)c(F)c(F)c7F)c7ccc4[nH]7)C=C6)C=C5)cc3)c2)cc1
REMARK SMILES IDX 21 1 20 4 19 7 17 8 18 9 16 11 11 12 12 13 92 14 13 15 14 18
REMARK SMILES IDX 10 20 9 21 8 22 5 23 6 24 94 25 7 26 93 28 2 32 3 33 4 34
REMARK SMILES IDX 1 35 15 38 22 40 23 43 24 46 25 49 26 52 27 53 28 55 29 56
REMARK SMILES IDX 30 57 91 58 31 59 90 61 32 63 33 66 34 67 84 68 35 69 89 70
REMARK SMILES IDX 83 71 85 72 36 73 88 74 82 76 81 78 37 80 69 83 49 84 68 85
REMARK SMILES IDX 50 86 53 87 67 88 86 89 51 90 52 92 66 94 87 95 54 98 38 100
REMARK SMILES IDX 39 101 47 102 40 103 41 104 45 105 48 106 42 107 43 108
REMARK SMILES IDX 46 109 44 110 70 111 71 112 79 113 72 114 73 115 77 116
REMARK SMILES IDX 80 117 74 118 75 119 78 120 76 121 55 122 56 123 64 124
REMARK SMILES IDX 57 125 58 126 62 127 65 128 59 129 60 130 63 131 61 132
REMARK H PARENT 21 2 21 3 20 5 20 6 19 10 12 16 92 17 13 19 6 27 94 29 7 30
REMARK H PARENT 93 31 1 36 1 37 15 39 22 41 22 42 23 44 23 45 24 47 24 48
REMARK H PARENT 25 50 25 51 26 54 30 60 91 62 31 64 90 65 89 75 83 77 85 79
REMARK H PARENT 88 81 82 82 50 91 53 93 86 96 51 97 87 99
REMARK Flexibility Score: inf
ROOT
ATOM      1  C   UNL A   1      32.920  26.105  26.304  1.00  0.00    -0.036 C 
ATOM      2  H   UNL A   1      32.175  25.346  26.179  1.00  0.00     0.028 H 
ATOM      3  H   UNL A   1      33.233  26.264  27.316  1.00  0.00     0.028 H 
ENDROOT
BRANCH   1   4
ATOM      4  C   UNL A   1      32.307  27.430  25.862  1.00  0.00     0.018 C 
ATOM      5  H   UNL A   1      32.328  28.102  26.694  1.00  0.00     0.049 H 
ATOM      6  H   UNL A   1      32.891  27.775  25.033  1.00  0.00     0.049 H 
BRANCH   4   7
ATOM      7  N   UNL A   1      30.937  27.330  25.392  1.00  0.00    -0.352 N 
ATOM      8  C   UNL A   1      30.423  26.750  24.253  1.00  0.00     0.255 C 
ATOM      9  O   UNL A   1      29.220  26.862  24.011  1.00  0.00    -0.269 OA
ATOM     10  H   UNL A   1      30.266  27.741  25.982  1.00  0.00     0.163 HD
BRANCH   8  11
ATOM     11  C   UNL A   1      31.277  26.063  23.250  1.00  0.00     0.083 A 
ATOM     12  C   UNL A   1      32.247  24.015  22.349  1.00  0.00     0.087 A 
ATOM     13  C   UNL A   1      33.132  24.784  21.587  1.00  0.00    -0.031 A 
ATOM     14  C   UNL A   1      31.261  24.675  23.097  1.00  0.00    -0.018 A 
ATOM     15  C   UNL A   1      33.065  26.181  21.615  1.00  0.00    -0.017 A 
ATOM     16  H   UNL A   1      33.840  24.318  20.999  1.00  0.00     0.065 H 
ATOM     17  H   UNL A   1      30.509  24.125  23.542  1.00  0.00     0.066 H 
ATOM     18  C   UNL A   1      32.151  26.814  22.455  1.00  0.00     0.128 A 
ATOM     19  H   UNL A   1      33.690  26.741  21.014  1.00  0.00     0.066 H 
BRANCH  12  20
ATOM     20  N   UNL A   1      32.418  22.610  22.404  1.00  0.00    -0.151 NA
ATOM     21  N   UNL A   1      32.135  22.197  23.553  1.00  0.00    -0.151 NA
BRANCH  21  22
ATOM     22  C   UNL A   1      32.480  20.853  23.761  1.00  0.00     0.086 A 
ATOM     23  C   UNL A   1      33.461  18.239  24.010  1.00  0.00     0.082 A 
ATOM     24  C   UNL A   1      33.917  19.234  24.878  1.00  0.00    -0.040 A 
ATOM     25  C   UNL A   1      32.516  18.537  23.022  1.00  0.00    -0.040 A 
ATOM     26  C   UNL A   1      33.426  20.537  24.746  1.00  0.00    -0.033 A 
ATOM     27  H   UNL A   1      34.608  19.009  25.610  1.00  0.00     0.064 H 
ATOM     28  C   UNL A   1      32.029  19.841  22.904  1.00  0.00    -0.033 A 
ATOM     29  H   UNL A   1      32.181  17.798  22.386  1.00  0.00     0.064 H 
ATOM     30  H   UNL A   1      33.765  21.275  25.382  1.00  0.00     0.065 H 
ATOM     31  H   UNL A   1      31.330  20.061  22.176  1.00  0.00     0.065 H 
BRANCH  23  32
ATOM     32  S   UNL A   1      34.106  16.591  24.077  1.00  0.00     0.238 S 
ATOM     33  O   UNL A   1      35.174  16.567  25.048  1.00  0.00    -0.207 OA
ATOM     34  O   UNL A   1      34.262  16.115  22.724  1.00  0.00    -0.207 OA
BRANCH  32  35
ATOM     35  N   UNL A   1      32.869  15.678  24.756  1.00  0.00    -0.225 NA
ATOM     36  H   UNL A   1      32.656  16.035  25.687  1.00  0.00     0.137 HD
ATOM     37  H   UNL A   1      33.163  14.704  24.824  1.00  0.00     0.137 HD
ENDBRANCH  32  35
ENDBRANCH  23  32
ENDBRANCH  21  22
ENDBRANCH  12  20
BRANCH  18  38
ATOM     38  O   UNL A   1      32.174  28.184  22.460  1.00  0.00    -0.507 OA
ATOM     39  H   UNL A   1      31.428  28.664  22.761  1.00  0.00     0.293 HD
ENDBRANCH  18  38
ENDBRANCH   8  11
ENDBRANCH   4   7
ENDBRANCH   1   4
BRANCH   1  40
ATOM     40  C   UNL A   1      34.176  25.646  25.564  1.00  0.00    -0.052 C 
ATOM     41  H   UNL A   1      35.019  26.088  26.052  1.00  0.00     0.027 H 
ATOM     42  H   UNL A   1      34.034  25.953  24.550  1.00  0.00     0.027 H 
BRANCH  40  43
ATOM     43  C   UNL A   1      34.421  24.136  25.494  1.00  0.00    -0.052 C 
ATOM     44  H   UNL A   1      34.420  23.854  24.462  1.00  0.00     0.027 H 
ATOM     45  H   UNL A   1      33.639  23.696  26.076  1.00  0.00     0.027 H 
BRANCH  43  46
ATOM     46  C   UNL A   1      35.723  23.626  26.113  1.00  0.00    -0.036 C 
ATOM     47  H   UNL A   1      35.628  22.570  26.256  1.00  0.00     0.028 H 
ATOM     48  H   UNL A   1      35.849  24.180  27.020  1.00  0.00     0.028 H 
BRANCH  46  49
ATOM     49  C   UNL A   1      36.987  23.875  25.300  1.00  0.00     0.018 C 
ATOM     50  H   UNL A   1      37.360  24.849  25.538  1.00  0.00     0.049 H 
ATOM     51  H   UNL A   1      36.723  23.788  24.266  1.00  0.00     0.049 H 
BRANCH  49  52
ATOM     52  N   UNL A   1      38.035  22.902  25.562  1.00  0.00    -0.352 N 
ATOM     53  C   UNL A   1      39.236  23.075  26.206  1.00  0.00     0.251 C 
ATOM     54  H   UNL A   1      37.858  21.992  25.233  1.00  0.00     0.163 HD
ATOM     55  O   UNL A   1      40.066  22.172  26.227  1.00  0.00    -0.269 OA
BRANCH  53  56
ATOM     56  C   UNL A   1      39.545  24.369  26.855  1.00  0.00     0.039 A 
ATOM     57  C   UNL A   1      39.122  24.584  28.170  1.00  0.00    -0.049 A 
ATOM     58  C   UNL A   1      40.245  25.365  26.171  1.00  0.00    -0.049 A 
ATOM     59  C   UNL A   1      39.455  25.775  28.822  1.00  0.00    -0.053 A 
ATOM     60  H   UNL A   1      38.564  23.866  28.660  1.00  0.00     0.063 H 
ATOM     61  C   UNL A   1      40.636  26.520  26.842  1.00  0.00    -0.053 A 
ATOM     62  H   UNL A   1      40.471  25.245  25.172  1.00  0.00     0.063 H 
ATOM     63  C   UNL A   1      40.241  26.740  28.172  1.00  0.00    -0.014 A 
ATOM     64  H   UNL A   1      39.122  25.946  29.783  1.00  0.00     0.063 H 
ATOM     65  H   UNL A   1      41.220  27.219  26.359  1.00  0.00     0.063 H 
BRANCH  63  66
ATOM     66  C   UNL A   1      40.642  28.003  28.841  1.00  0.00     0.031 A 
ATOM     67  C   UNL A   1      42.041  28.150  29.370  1.00  0.00     0.074 A 
ATOM     68  C   UNL A   1      39.734  28.976  29.051  1.00  0.00     0.049 A 
ATOM     69  N   UNL A   1      42.553  29.099  30.113  1.00  0.00    -0.248 NA
ATOM     70  C   UNL A   1      42.982  27.067  29.047  1.00  0.00    -0.034 C 
ATOM     71  C   UNL A   1      38.340  28.942  28.609  1.00  0.00    -0.036 A 
ATOM     72  N   UNL A   1      39.846  30.177  29.708  1.00  0.00    -0.354 N 
ATOM     73  C   UNL A   1      43.863  28.714  30.365  1.00  0.00     0.074 A 
ATOM     74  C   UNL A   1      44.054  27.423  29.739  1.00  0.00    -0.034 C 
ATOM     75  H   UNL A   1      42.843  26.243  28.440  1.00  0.00     0.065 H 
ATOM     76  C   UNL A   1      37.730  30.075  28.996  1.00  0.00    -0.036 A 
ATOM     77  H   UNL A   1      37.897  28.173  28.085  1.00  0.00     0.065 H 
ATOM     78  C   UNL A   1      38.675  30.894  29.748  1.00  0.00     0.049 A 
ATOM     79  H   UNL A   1      40.687  30.494  30.111  1.00  0.00     0.167 HD
ATOM     80  C   UNL A   1      44.826  29.384  31.041  1.00  0.00     0.037 A 
ATOM     81  H   UNL A   1      44.912  26.856  29.820  1.00  0.00     0.065 H 
ATOM     82  H   UNL A   1      36.749  30.325  28.792  1.00  0.00     0.065 H 
ATOM     83  C   UNL A   1      38.394  32.071  30.341  1.00  0.00     0.037 A 
ATOM     84  C   UNL A   1      44.642  30.682  31.632  1.00  0.00     0.049 A 
ATOM     85  C   UNL A   1      39.478  32.796  31.092  1.00  0.00     0.074 A 
ATOM     86  C   UNL A   1      45.567  31.468  32.298  1.00  0.00    -0.036 A 
ATOM     87  N   UNL A   1      43.449  31.391  31.622  1.00  0.00    -0.354 N 
ATOM     88  N   UNL A   1      40.722  32.437  31.295  1.00  0.00    -0.248 NA
ATOM     89  C   UNL A   1      39.121  34.087  31.696  1.00  0.00    -0.034 C 
ATOM     90  C   UNL A   1      44.922  32.631  32.729  1.00  0.00    -0.036 A 
ATOM     91  H   UNL A   1      46.561  31.234  32.449  1.00  0.00     0.065 H 
ATOM     92  C   UNL A   1      43.610  32.595  32.286  1.00  0.00     0.049 A 
ATOM     93  H   UNL A   1      42.612  31.083  31.205  1.00  0.00     0.167 HD
ATOM     94  C   UNL A   1      41.307  33.475  32.009  1.00  0.00     0.074 A 
ATOM     95  C   UNL A   1      40.280  34.475  32.210  1.00  0.00    -0.034 C 
ATOM     96  H   UNL A   1      38.207  34.566  31.716  1.00  0.00     0.065 H 
ATOM     97  H   UNL A   1      45.351  33.387  33.285  1.00  0.00     0.065 H 
ATOM     98  C   UNL A   1      42.582  33.590  32.454  1.00  0.00     0.037 A 
ATOM     99  H   UNL A   1      40.431  35.376  32.691  1.00  0.00     0.065 H 
BRANCH  80 100
ATOM    100  C   UNL A   1      46.166  28.723  31.183  1.00  0.00     0.064 A 
ATOM    101  C   UNL A   1      46.462  27.881  32.267  1.00  0.00     0.173 A 
ATOM    102  C   UNL A   1      47.158  28.907  30.207  1.00  0.00     0.173 A 
ATOM    103  F   UNL A   1      45.554  27.680  33.233  1.00  0.00    -0.203 F 
ATOM    104  C   UNL A   1      47.710  27.273  32.382  1.00  0.00     0.198 A 
ATOM    105  C   UNL A   1      48.392  28.272  30.309  1.00  0.00     0.198 A 
ATOM    106  F   UNL A   1      46.925  29.696  29.148  1.00  0.00    -0.203 F 
ATOM    107  F   UNL A   1      47.987  26.516  33.453  1.00  0.00    -0.200 F 
ATOM    108  C   UNL A   1      48.671  27.463  31.401  1.00  0.00     0.200 A 
ATOM    109  F   UNL A   1      49.314  28.444  29.353  1.00  0.00    -0.200 F 
ATOM    110  F   UNL A   1      49.868  26.872  31.511  1.00  0.00    -0.200 F 
ENDBRANCH  80 100
BRANCH  83 111
ATOM    111  C   UNL A   1      37.027  32.648  30.234  1.00  0.00     0.064 A 
ATOM    112  C   UNL A   1      36.653  33.407  29.115  1.00  0.00     0.173 A 
ATOM    113  C   UNL A   1      36.074  32.460  31.244  1.00  0.00     0.173 A 
ATOM    114  F   UNL A   1      37.539  33.633  28.134  1.00  0.00    -0.203 F 
ATOM    115  C   UNL A   1      35.384  33.972  29.020  1.00  0.00     0.198 A 
ATOM    116  C   UNL A   1      34.794  33.000  31.133  1.00  0.00     0.198 A 
ATOM    117  F   UNL A   1      36.383  31.743  32.335  1.00  0.00    -0.203 F 
ATOM    118  F   UNL A   1      35.068  34.731  27.962  1.00  0.00    -0.200 F 
ATOM    119  C   UNL A   1      34.452  33.763  30.027  1.00  0.00     0.200 A 
ATOM    120  F   UNL A   1      33.893  32.783  32.101  1.00  0.00    -0.200 F 
ATOM    121  F   UNL A   1      33.230  34.301  29.933  1.00  0.00    -0.200 F 
ENDBRANCH  83 111
BRANCH  98 122
ATOM    122  C   UNL A   1      42.963  34.862  33.153  1.00  0.00     0.064 A 
ATOM    123  C   UNL A   1      43.373  36.001  32.445  1.00  0.00     0.173 A 
ATOM    124  C   UNL A   1      42.844  34.961  34.548  1.00  0.00     0.173 A 
ATOM    125  F   UNL A   1      43.515  35.951  31.112  1.00  0.00    -0.203 F 
ATOM    126  C   UNL A   1      43.662  37.188  33.111  1.00  0.00     0.198 A 
ATOM    127  C   UNL A   1      43.107  36.158  35.207  1.00  0.00     0.198 A 
ATOM    128  F   UNL A   1      42.450  33.899  35.269  1.00  0.00    -0.203 F 
ATOM    129  F   UNL A   1      44.085  38.256  32.419  1.00  0.00    -0.200 F 
ATOM    130  C   UNL A   1      43.519  37.269  34.489  1.00  0.00     0.200 A 
ATOM    131  F   UNL A   1      42.956  36.236  36.536  1.00  0.00    -0.200 F 
ATOM    132  F   UNL A   1      43.783  38.419  35.124  1.00  0.00    -0.200 F 
ENDBRANCH  98 122
ENDBRANCH  63  66
ENDBRANCH  53  56
ENDBRANCH  49  52
ENDBRANCH  46  49
ENDBRANCH  43  46
ENDBRANCH  40  43
ENDBRANCH   1  40
TORSDOF 18
ENDMDL
MODEL 7
REMARK VINA RESULT:     -11.7      4.405      9.360
REMARK SMILES NS(=O)(=O)c1ccc(/N=N/c2ccc(O)c(C(=O)NCCCCCCNC(=O)c3ccc(-c4c5nc(c(-c6c(F)c(F)c(F)c(F)c6F)c6ccc([nH]6)c(-c6c(F)c(F)c(F)c(F)c6F)c6nc(c(-c7c(F)c(F)c(F)c(F)c7F)c7ccc4[nH]7)C=C6)C=C5)cc3)c2)cc1
REMARK SMILES IDX 21 1 20 4 19 7 17 8 18 9 16 11 11 12 12 13 92 14 13 15 14 18
REMARK SMILES IDX 10 20 9 21 8 22 5 23 6 24 94 25 7 26 93 28 2 32 3 33 4 34
REMARK SMILES IDX 1 35 15 38 22 40 23 43 24 46 25 49 26 52 27 53 28 55 29 56
REMARK SMILES IDX 30 57 91 58 31 59 90 61 32 63 33 66 34 67 84 68 35 69 89 70
REMARK SMILES IDX 83 71 85 72 36 73 88 74 82 76 81 78 37 80 69 83 49 84 68 85
REMARK SMILES IDX 50 86 53 87 67 88 86 89 51 90 52 92 66 94 87 95 54 98 38 100
REMARK SMILES IDX 39 101 47 102 40 103 41 104 45 105 48 106 42 107 43 108
REMARK SMILES IDX 46 109 44 110 70 111 71 112 79 113 72 114 73 115 77 116
REMARK SMILES IDX 80 117 74 118 75 119 78 120 76 121 55 122 56 123 64 124
REMARK SMILES IDX 57 125 58 126 62 127 65 128 59 129 60 130 63 131 61 132
REMARK H PARENT 21 2 21 3 20 5 20 6 19 10 12 16 92 17 13 19 6 27 94 29 7 30
REMARK H PARENT 93 31 1 36 1 37 15 39 22 41 22 42 23 44 23 45 24 47 24 48
REMARK H PARENT 25 50 25 51 26 54 30 60 91 62 31 64 90 65 89 75 83 77 85 79
REMARK H PARENT 88 81 82 82 50 91 53 93 86 96 51 97 87 99
REMARK Flexibility Score: inf
ROOT
ATOM      1  C   UNL A   1      32.801  26.825  26.189  1.00  0.00    -0.036 C 
ATOM      2  H   UNL A   1      32.079  26.170  26.630  1.00  0.00     0.028 H 
ATOM      3  H   UNL A   1      33.339  27.435  26.887  1.00  0.00     0.028 H 
ENDROOT
BRANCH   1   4
ATOM      4  C   UNL A   1      32.050  27.807  25.296  1.00  0.00     0.018 C 
ATOM      5  H   UNL A   1      32.042  28.761  25.781  1.00  0.00     0.049 H 
ATOM      6  H   UNL A   1      32.564  27.820  24.357  1.00  0.00     0.049 H 
BRANCH   4   7
ATOM      7  N   UNL A   1      30.677  27.429  25.013  1.00  0.00    -0.352 N 
ATOM      8  C   UNL A   1      30.163  26.582  24.056  1.00  0.00     0.255 C 
ATOM      9  O   UNL A   1      28.941  26.477  23.940  1.00  0.00    -0.269 OA
ATOM     10  H   UNL A   1      30.004  27.843  25.599  1.00  0.00     0.163 HD
BRANCH   8  11
ATOM     11  C   UNL A   1      31.023  25.850  23.091  1.00  0.00     0.083 A 
ATOM     12  C   UNL A   1      32.378  23.903  22.523  1.00  0.00     0.087 A 
ATOM     13  C   UNL A   1      32.904  24.603  21.432  1.00  0.00    -0.031 A 
ATOM     14  C   UNL A   1      31.364  24.509  23.280  1.00  0.00    -0.018 A 
ATOM     15  C   UNL A   1      32.463  25.898  21.140  1.00  0.00    -0.017 A 
ATOM     16  H   UNL A   1      33.623  24.162  20.839  1.00  0.00     0.065 H 
ATOM     17  H   UNL A   1      30.861  23.954  23.990  1.00  0.00     0.066 H 
ATOM     18  C   UNL A   1      31.539  26.521  21.975  1.00  0.00     0.128 A 
ATOM     19  H   UNL A   1      32.821  26.390  20.306  1.00  0.00     0.066 H 
BRANCH  12  20
ATOM     20  N   UNL A   1      32.931  22.648  22.875  1.00  0.00    -0.151 NA
ATOM     21  N   UNL A   1      32.060  21.756  22.759  1.00  0.00    -0.151 NA
BRANCH  21  22
ATOM     22  C   UNL A   1      32.455  20.520  23.290  1.00  0.00     0.086 A 
ATOM     23  C   UNL A   1      33.547  18.102  24.196  1.00  0.00     0.082 A 
ATOM     24  C   UNL A   1      33.869  19.293  24.850  1.00  0.00    -0.040 A 
ATOM     25  C   UNL A   1      32.680  18.106  23.098  1.00  0.00    -0.040 A 
ATOM     26  C   UNL A   1      33.323  20.496  24.390  1.00  0.00    -0.033 A 
ATOM     27  H   UNL A   1      34.502  19.286  25.664  1.00  0.00     0.064 H 
ATOM     28  C   UNL A   1      32.138  19.314  22.651  1.00  0.00    -0.033 A 
ATOM     29  H   UNL A   1      32.444  17.223  22.621  1.00  0.00     0.064 H 
ATOM     30  H   UNL A   1      33.564  21.379  24.867  1.00  0.00     0.065 H 
ATOM     31  H   UNL A   1      31.497  19.317  21.841  1.00  0.00     0.065 H 
BRANCH  23  32
ATOM     32  S   UNL A   1      34.270  16.560  24.682  1.00  0.00     0.238 S 
ATOM     33  O   UNL A   1      34.609  15.827  23.486  1.00  0.00    -0.207 OA
ATOM     34  O   UNL A   1      33.469  16.004  25.746  1.00  0.00    -0.207 OA
BRANCH  32  35
ATOM     35  N   UNL A   1      35.741  16.981  25.377  1.00  0.00    -0.225 NA
ATOM     36  H   UNL A   1      35.575  17.551  26.206  1.00  0.00     0.137 HD
ATOM     37  H   UNL A   1      36.295  17.513  24.705  1.00  0.00     0.137 HD
ENDBRANCH  32  35
ENDBRANCH  23  32
ENDBRANCH  21  22
ENDBRANCH  12  20
BRANCH  18  38
ATOM     38  O   UNL A   1      31.188  27.804  21.649  1.00  0.00    -0.507 OA
ATOM     39  H   UNL A   1      31.531  28.524  22.141  1.00  0.00     0.293 HD
ENDBRANCH  18  38
ENDBRANCH   8  11
ENDBRANCH   4   7
ENDBRANCH   1   4
BRANCH   1  40
ATOM     40  C   UNL A   1      33.864  25.956  25.517  1.00  0.00    -0.052 C 
ATOM     41  H   UNL A   1      34.821  26.364  25.766  1.00  0.00     0.027 H 
ATOM     42  H   UNL A   1      33.626  25.976  24.475  1.00  0.00     0.027 H 
BRANCH  40  43
ATOM     43  C   UNL A   1      33.881  24.473  25.896  1.00  0.00    -0.052 C 
ATOM     44  H   UNL A   1      33.024  24.014  25.449  1.00  0.00     0.027 H 
ATOM     45  H   UNL A   1      33.889  24.453  26.965  1.00  0.00     0.027 H 
BRANCH  43  46
ATOM     46  C   UNL A   1      35.111  23.672  25.467  1.00  0.00    -0.036 C 
ATOM     47  H   UNL A   1      35.787  24.344  24.980  1.00  0.00     0.028 H 
ATOM     48  H   UNL A   1      34.743  22.890  24.837  1.00  0.00     0.028 H 
BRANCH  46  49
ATOM     49  C   UNL A   1      35.873  22.975  26.587  1.00  0.00     0.018 C 
ATOM     50  H   UNL A   1      35.169  22.634  27.317  1.00  0.00     0.049 H 
ATOM     51  H   UNL A   1      36.562  23.685  26.995  1.00  0.00     0.049 H 
BRANCH  49  52
ATOM     52  N   UNL A   1      36.648  21.835  26.126  1.00  0.00    -0.352 N 
ATOM     53  C   UNL A   1      38.002  21.732  25.922  1.00  0.00     0.251 C 
ATOM     54  H   UNL A   1      36.128  21.022  25.933  1.00  0.00     0.163 HD
ATOM     55  O   UNL A   1      38.479  20.729  25.402  1.00  0.00    -0.269 OA
BRANCH  53  56
ATOM     56  C   UNL A   1      38.892  22.851  26.307  1.00  0.00     0.039 A 
ATOM     57  C   UNL A   1      38.686  24.109  25.731  1.00  0.00    -0.049 A 
ATOM     58  C   UNL A   1      39.926  22.661  27.227  1.00  0.00    -0.049 A 
ATOM     59  C   UNL A   1      39.477  25.191  26.125  1.00  0.00    -0.053 A 
ATOM     60  H   UNL A   1      37.952  24.237  25.016  1.00  0.00     0.063 H 
ATOM     61  C   UNL A   1      40.666  23.754  27.670  1.00  0.00    -0.053 A 
ATOM     62  H   UNL A   1      40.139  21.715  27.577  1.00  0.00     0.063 H 
ATOM     63  C   UNL A   1      40.453  25.029  27.120  1.00  0.00    -0.014 A 
ATOM     64  H   UNL A   1      39.343  26.114  25.683  1.00  0.00     0.063 H 
ATOM     65  H   UNL A   1      41.376  23.625  28.407  1.00  0.00     0.063 H 
BRANCH  63  66
ATOM     66  C   UNL A   1      41.292  26.162  27.588  1.00  0.00     0.031 A 
ATOM     67  C   UNL A   1      40.672  27.245  28.425  1.00  0.00     0.074 A 
ATOM     68  C   UNL A   1      42.575  26.263  27.192  1.00  0.00     0.049 A 
ATOM     69  N   UNL A   1      41.179  28.390  28.810  1.00  0.00    -0.248 NA
ATOM     70  C   UNL A   1      39.284  27.027  28.859  1.00  0.00    -0.034 C 
ATOM     71  C   UNL A   1      43.283  25.291  26.360  1.00  0.00    -0.036 A 
ATOM     72  N   UNL A   1      43.507  27.244  27.424  1.00  0.00    -0.354 N 
ATOM     73  C   UNL A   1      40.166  29.034  29.507  1.00  0.00     0.074 A 
ATOM     74  C   UNL A   1      39.001  28.178  29.451  1.00  0.00    -0.034 C 
ATOM     75  H   UNL A   1      38.686  26.195  28.735  1.00  0.00     0.065 H 
ATOM     76  C   UNL A   1      44.541  25.717  26.161  1.00  0.00    -0.036 A 
ATOM     77  H   UNL A   1      42.881  24.418  25.986  1.00  0.00     0.065 H 
ATOM     78  C   UNL A   1      44.716  27.011  26.814  1.00  0.00     0.049 A 
ATOM     79  H   UNL A   1      43.326  28.040  27.975  1.00  0.00     0.167 HD
ATOM     80  C   UNL A   1      40.209  30.224  30.152  1.00  0.00     0.037 A 
ATOM     81  H   UNL A   1      38.072  28.431  29.823  1.00  0.00     0.065 H 
ATOM     82  H   UNL A   1      45.268  25.210  25.631  1.00  0.00     0.065 H 
ATOM     83  C   UNL A   1      45.832  27.765  26.773  1.00  0.00     0.037 A 
ATOM     84  C   UNL A   1      41.379  31.056  30.235  1.00  0.00     0.049 A 
ATOM     85  C   UNL A   1      45.855  29.087  27.493  1.00  0.00     0.074 A 
ATOM     86  C   UNL A   1      41.541  32.257  30.904  1.00  0.00    -0.036 A 
ATOM     87  N   UNL A   1      42.595  30.767  29.632  1.00  0.00    -0.354 N 
ATOM     88  N   UNL A   1      44.901  29.670  28.177  1.00  0.00    -0.248 NA
ATOM     89  C   UNL A   1      47.106  29.855  27.436  1.00  0.00    -0.034 C 
ATOM     90  C   UNL A   1      42.839  32.717  30.668  1.00  0.00    -0.036 A 
ATOM     91  H   UNL A   1      40.824  32.730  31.477  1.00  0.00     0.065 H 
ATOM     92  C   UNL A   1      43.505  31.777  29.898  1.00  0.00     0.049 A 
ATOM     93  H   UNL A   1      42.783  29.965  29.094  1.00  0.00     0.167 HD
ATOM     94  C   UNL A   1      45.449  30.848  28.668  1.00  0.00     0.074 A 
ATOM     95  C   UNL A   1      46.817  30.901  28.199  1.00  0.00    -0.034 C 
ATOM     96  H   UNL A   1      47.981  29.638  26.934  1.00  0.00     0.065 H 
ATOM     97  H   UNL A   1      43.236  33.606  31.010  1.00  0.00     0.065 H 
ATOM     98  C   UNL A   1      44.871  31.798  29.442  1.00  0.00     0.037 A 
ATOM     99  H   UNL A   1      47.483  31.655  28.428  1.00  0.00     0.065 H 
BRANCH  80 100
ATOM    100  C   UNL A   1      38.950  30.701  30.817  1.00  0.00     0.064 A 
ATOM    101  C   UNL A   1      38.742  30.551  32.197  1.00  0.00     0.173 A 
ATOM    102  C   UNL A   1      37.951  31.346  30.071  1.00  0.00     0.173 A 
ATOM    103  F   UNL A   1      39.659  29.931  32.954  1.00  0.00    -0.203 F 
ATOM    104  C   UNL A   1      37.569  31.001  32.798  1.00  0.00     0.198 A 
ATOM    105  C   UNL A   1      36.795  31.824  30.681  1.00  0.00     0.198 A 
ATOM    106  F   UNL A   1      38.102  31.523  28.750  1.00  0.00    -0.203 F 
ATOM    107  F   UNL A   1      37.371  30.797  34.108  1.00  0.00    -0.200 F 
ATOM    108  C   UNL A   1      36.600  31.643  32.043  1.00  0.00     0.200 A 
ATOM    109  F   UNL A   1      35.867  32.457  29.952  1.00  0.00    -0.200 F 
ATOM    110  F   UNL A   1      35.476  32.081  32.624  1.00  0.00    -0.200 F 
ENDBRANCH  80 100
BRANCH  83 111
ATOM    111  C   UNL A   1      47.029  27.280  26.037  1.00  0.00     0.064 A 
ATOM    112  C   UNL A   1      48.034  26.557  26.695  1.00  0.00     0.173 A 
ATOM    113  C   UNL A   1      47.197  27.534  24.668  1.00  0.00     0.173 A 
ATOM    114  F   UNL A   1      47.928  26.309  28.009  1.00  0.00    -0.203 F 
ATOM    115  C   UNL A   1      49.170  26.122  26.016  1.00  0.00     0.198 A 
ATOM    116  C   UNL A   1      48.320  27.072  23.984  1.00  0.00     0.198 A 
ATOM    117  F   UNL A   1      46.265  28.223  23.993  1.00  0.00    -0.203 F 
ATOM    118  F   UNL A   1      50.136  25.472  26.680  1.00  0.00    -0.200 F 
ATOM    119  C   UNL A   1      49.309  26.374  24.660  1.00  0.00     0.200 A 
ATOM    120  F   UNL A   1      48.442  27.306  22.670  1.00  0.00    -0.200 F 
ATOM    121  F   UNL A   1      50.399  25.951  24.006  1.00  0.00    -0.200 F 
ENDBRANCH  83 111
BRANCH  98 122
ATOM    122  C   UNL A   1      45.725  32.951  29.883  1.00  0.00     0.064 A 
ATOM    123  C   UNL A   1      45.784  34.148  29.156  1.00  0.00     0.173 A 
ATOM    124  C   UNL A   1      46.435  32.878  31.091  1.00  0.00     0.173 A 
ATOM    125  F   UNL A   1      45.134  34.260  27.988  1.00  0.00    -0.203 F 
ATOM    126  C   UNL A   1      46.535  35.226  29.617  1.00  0.00     0.198 A 
ATOM    127  C   UNL A   1      47.162  33.968  31.562  1.00  0.00     0.198 A 
ATOM    128  F   UNL A   1      46.406  31.756  31.826  1.00  0.00    -0.203 F 
ATOM    129  F   UNL A   1      46.606  36.350  28.889  1.00  0.00    -0.200 F 
ATOM    130  C   UNL A   1      47.214  35.139  30.823  1.00  0.00     0.200 A 
ATOM    131  F   UNL A   1      47.806  33.885  32.735  1.00  0.00    -0.200 F 
ATOM    132  F   UNL A   1      47.922  36.185  31.271  1.00  0.00    -0.200 F 
ENDBRANCH  98 122
ENDBRANCH  63  66
ENDBRANCH  53  56
ENDBRANCH  49  52
ENDBRANCH  46  49
ENDBRANCH  43  46
ENDBRANCH  40  43
ENDBRANCH   1  40
TORSDOF 18
ENDMDL
MODEL 8
REMARK VINA RESULT:     -11.7      6.035     10.777
REMARK SMILES NS(=O)(=O)c1ccc(/N=N/c2ccc(O)c(C(=O)NCCCCCCNC(=O)c3ccc(-c4c5nc(c(-c6c(F)c(F)c(F)c(F)c6F)c6ccc([nH]6)c(-c6c(F)c(F)c(F)c(F)c6F)c6nc(c(-c7c(F)c(F)c(F)c(F)c7F)c7ccc4[nH]7)C=C6)C=C5)cc3)c2)cc1
REMARK SMILES IDX 21 1 20 4 19 7 17 8 18 9 16 11 11 12 12 13 92 14 13 15 14 18
REMARK SMILES IDX 10 20 9 21 8 22 5 23 6 24 94 25 7 26 93 28 2 32 3 33 4 34
REMARK SMILES IDX 1 35 15 38 22 40 23 43 24 46 25 49 26 52 27 53 28 55 29 56
REMARK SMILES IDX 30 57 91 58 31 59 90 61 32 63 33 66 34 67 84 68 35 69 89 70
REMARK SMILES IDX 83 71 85 72 36 73 88 74 82 76 81 78 37 80 69 83 49 84 68 85
REMARK SMILES IDX 50 86 53 87 67 88 86 89 51 90 52 92 66 94 87 95 54 98 38 100
REMARK SMILES IDX 39 101 47 102 40 103 41 104 45 105 48 106 42 107 43 108
REMARK SMILES IDX 46 109 44 110 70 111 71 112 79 113 72 114 73 115 77 116
REMARK SMILES IDX 80 117 74 118 75 119 78 120 76 121 55 122 56 123 64 124
REMARK SMILES IDX 57 125 58 126 62 127 65 128 59 129 60 130 63 131 61 132
REMARK H PARENT 21 2 21 3 20 5 20 6 19 10 12 16 92 17 13 19 6 27 94 29 7 30
REMARK H PARENT 93 31 1 36 1 37 15 39 22 41 22 42 23 44 23 45 24 47 24 48
REMARK H PARENT 25 50 25 51 26 54 30 60 91 62 31 64 90 65 89 75 83 77 85 79
REMARK H PARENT 88 81 82 82 50 91 53 93 86 96 51 97 87 99
REMARK Flexibility Score: inf
ROOT
ATOM      1  C   UNL A   1      38.652  20.983  25.376  1.00  0.00    -0.036 C 
ATOM      2  H   UNL A   1      39.071  20.609  24.465  1.00  0.00     0.028 H 
ATOM      3  H   UNL A   1      38.304  20.229  26.052  1.00  0.00     0.028 H 
ENDROOT
BRANCH   1   4
ATOM      4  C   UNL A   1      37.416  21.800  25.016  1.00  0.00     0.018 C 
ATOM      5  H   UNL A   1      37.737  22.688  24.513  1.00  0.00     0.049 H 
ATOM      6  H   UNL A   1      36.803  21.171  24.403  1.00  0.00     0.049 H 
BRANCH   4   7
ATOM      7  N   UNL A   1      36.602  22.190  26.154  1.00  0.00    -0.352 N 
ATOM      8  C   UNL A   1      35.249  22.429  26.246  1.00  0.00     0.255 C 
ATOM      9  O   UNL A   1      34.782  22.840  27.309  1.00  0.00    -0.269 OA
ATOM     10  H   UNL A   1      37.097  22.300  26.998  1.00  0.00     0.163 HD
BRANCH   8  11
ATOM     11  C   UNL A   1      34.333  22.294  25.084  1.00  0.00     0.083 A 
ATOM     12  C   UNL A   1      32.839  23.305  23.442  1.00  0.00     0.087 A 
ATOM     13  C   UNL A   1      32.359  22.033  23.115  1.00  0.00    -0.031 A 
ATOM     14  C   UNL A   1      33.898  23.405  24.358  1.00  0.00    -0.018 A 
ATOM     15  C   UNL A   1      32.890  20.893  23.728  1.00  0.00    -0.017 A 
ATOM     16  H   UNL A   1      31.607  21.934  22.415  1.00  0.00     0.065 H 
ATOM     17  H   UNL A   1      34.363  24.315  24.497  1.00  0.00     0.066 H 
ATOM     18  C   UNL A   1      33.861  21.028  24.717  1.00  0.00     0.128 A 
ATOM     19  H   UNL A   1      32.563  19.955  23.447  1.00  0.00     0.066 H 
BRANCH  12  20
ATOM     20  N   UNL A   1      32.199  24.448  22.907  1.00  0.00    -0.151 NA
ATOM     21  N   UNL A   1      31.777  25.171  23.839  1.00  0.00    -0.151 NA
BRANCH  21  22
ATOM     22  C   UNL A   1      30.945  26.213  23.403  1.00  0.00     0.086 A 
ATOM     23  C   UNL A   1      29.417  28.481  22.790  1.00  0.00     0.082 A 
ATOM     24  C   UNL A   1      30.749  28.414  22.376  1.00  0.00    -0.040 A 
ATOM     25  C   UNL A   1      28.839  27.425  23.501  1.00  0.00    -0.040 A 
ATOM     26  C   UNL A   1      31.507  27.280  22.690  1.00  0.00    -0.033 A 
ATOM     27  H   UNL A   1      31.170  29.191  21.845  1.00  0.00     0.064 H 
ATOM     28  C   UNL A   1      29.605  26.296  23.804  1.00  0.00    -0.033 A 
ATOM     29  H   UNL A   1      27.854  27.479  23.801  1.00  0.00     0.064 H 
ATOM     30  H   UNL A   1      32.494  27.230  22.391  1.00  0.00     0.065 H 
ATOM     31  H   UNL A   1      29.179  25.515  24.328  1.00  0.00     0.065 H 
BRANCH  23  32
ATOM     32  S   UNL A   1      28.433  29.923  22.493  1.00  0.00     0.238 S 
ATOM     33  O   UNL A   1      28.284  30.078  21.065  1.00  0.00    -0.207 OA
ATOM     34  O   UNL A   1      28.911  30.978  23.353  1.00  0.00    -0.207 OA
BRANCH  32  35
ATOM     35  N   UNL A   1      26.903  29.517  23.057  1.00  0.00    -0.225 NA
ATOM     36  H   UNL A   1      26.621  30.179  23.780  1.00  0.00     0.137 HD
ATOM     37  H   UNL A   1      26.923  28.576  23.448  1.00  0.00     0.137 HD
ENDBRANCH  32  35
ENDBRANCH  23  32
ENDBRANCH  21  22
ENDBRANCH  12  20
BRANCH  18  38
ATOM     38  O   UNL A   1      34.301  19.869  25.302  1.00  0.00    -0.507 OA
ATOM     39  H   UNL A   1      34.707  19.205  24.780  1.00  0.00     0.293 HD
ENDBRANCH  18  38
ENDBRANCH   8  11
ENDBRANCH   4   7
ENDBRANCH   1   4
BRANCH   1  40
ATOM     40  C   UNL A   1      39.764  21.713  26.131  1.00  0.00    -0.052 C 
ATOM     41  H   UNL A   1      39.306  22.284  26.910  1.00  0.00     0.027 H 
ATOM     42  H   UNL A   1      40.273  22.293  25.390  1.00  0.00     0.027 H 
BRANCH  40  43
ATOM     43  C   UNL A   1      40.848  20.841  26.771  1.00  0.00    -0.052 C 
ATOM     44  H   UNL A   1      40.512  20.572  27.751  1.00  0.00     0.027 H 
ATOM     45  H   UNL A   1      41.736  21.435  26.754  1.00  0.00     0.027 H 
BRANCH  43  46
ATOM     46  C   UNL A   1      41.209  19.550  26.034  1.00  0.00    -0.036 C 
ATOM     47  H   UNL A   1      41.302  19.781  24.994  1.00  0.00     0.028 H 
ATOM     48  H   UNL A   1      40.425  18.859  26.260  1.00  0.00     0.028 H 
BRANCH  46  49
ATOM     49  C   UNL A   1      42.499  18.871  26.478  1.00  0.00     0.018 C 
ATOM     50  H   UNL A   1      42.250  17.949  26.961  1.00  0.00     0.049 H 
ATOM     51  H   UNL A   1      43.004  19.545  27.139  1.00  0.00     0.049 H 
BRANCH  49  52
ATOM     52  N   UNL A   1      43.402  18.587  25.376  1.00  0.00    -0.352 N 
ATOM     53  C   UNL A   1      44.193  19.450  24.658  1.00  0.00     0.251 C 
ATOM     54  H   UNL A   1      43.455  17.641  25.108  1.00  0.00     0.163 HD
ATOM     55  O   UNL A   1      44.801  19.058  23.667  1.00  0.00    -0.269 OA
BRANCH  53  56
ATOM     56  C   UNL A   1      44.290  20.870  25.063  1.00  0.00     0.039 A 
ATOM     57  C   UNL A   1      44.935  21.190  26.261  1.00  0.00    -0.049 A 
ATOM     58  C   UNL A   1      43.745  21.881  24.268  1.00  0.00    -0.049 A 
ATOM     59  C   UNL A   1      45.090  22.528  26.633  1.00  0.00    -0.053 A 
ATOM     60  H   UNL A   1      45.296  20.439  26.872  1.00  0.00     0.063 H 
ATOM     61  C   UNL A   1      43.961  23.216  24.602  1.00  0.00    -0.053 A 
ATOM     62  H   UNL A   1      43.186  21.641  23.435  1.00  0.00     0.063 H 
ATOM     63  C   UNL A   1      44.630  23.553  25.790  1.00  0.00    -0.014 A 
ATOM     64  H   UNL A   1      45.543  22.765  27.529  1.00  0.00     0.063 H 
ATOM     65  H   UNL A   1      43.626  23.961  23.973  1.00  0.00     0.063 H 
BRANCH  63  66
ATOM     66  C   UNL A   1      44.804  24.987  26.135  1.00  0.00     0.031 A 
ATOM     67  C   UNL A   1      46.158  25.624  25.993  1.00  0.00     0.074 A 
ATOM     68  C   UNL A   1      43.777  25.688  26.653  1.00  0.00     0.049 A 
ATOM     69  N   UNL A   1      46.562  26.809  26.376  1.00  0.00    -0.248 NA
ATOM     70  C   UNL A   1      47.206  24.806  25.365  1.00  0.00    -0.034 C 
ATOM     71  C   UNL A   1      42.424  25.176  26.863  1.00  0.00    -0.036 A 
ATOM     72  N   UNL A   1      43.720  26.980  27.116  1.00  0.00    -0.354 N 
ATOM     73  C   UNL A   1      47.913  26.866  26.059  1.00  0.00     0.074 A 
ATOM     74  C   UNL A   1      48.272  25.581  25.499  1.00  0.00    -0.034 C 
ATOM     75  H   UNL A   1      47.132  23.870  24.935  1.00  0.00     0.065 H 
ATOM     76  C   UNL A   1      41.666  26.146  27.401  1.00  0.00    -0.036 A 
ATOM     77  H   UNL A   1      42.102  24.223  26.636  1.00  0.00     0.065 H 
ATOM     78  C   UNL A   1      42.489  27.333  27.613  1.00  0.00     0.049 A 
ATOM     79  H   UNL A   1      44.489  27.595  27.092  1.00  0.00     0.167 HD
ATOM     80  C   UNL A   1      48.772  27.902  26.205  1.00  0.00     0.037 A 
ATOM     81  H   UNL A   1      49.232  25.306  25.237  1.00  0.00     0.065 H 
ATOM     82  H   UNL A   1      40.662  26.065  27.627  1.00  0.00     0.065 H 
ATOM     83  C   UNL A   1      42.078  28.479  28.190  1.00  0.00     0.037 A 
ATOM     84  C   UNL A   1      48.403  29.189  26.731  1.00  0.00     0.049 A 
ATOM     85  C   UNL A   1      43.053  29.616  28.347  1.00  0.00     0.074 A 
ATOM     86  C   UNL A   1      49.187  30.321  26.876  1.00  0.00    -0.036 A 
ATOM     87  N   UNL A   1      47.137  29.518  27.192  1.00  0.00    -0.354 N 
ATOM     88  N   UNL A   1      44.319  29.669  28.013  1.00  0.00    -0.248 NA
ATOM     89  C   UNL A   1      42.543  30.850  28.960  1.00  0.00    -0.034 C 
ATOM     90  C   UNL A   1      48.407  31.319  27.467  1.00  0.00    -0.036 A 
ATOM     91  H   UNL A   1      50.177  30.410  26.596  1.00  0.00     0.065 H 
ATOM     92  C   UNL A   1      47.123  30.828  27.640  1.00  0.00     0.049 A 
ATOM     93  H   UNL A   1      46.363  28.910  27.201  1.00  0.00     0.167 HD
ATOM     94  C   UNL A   1      44.744  30.952  28.332  1.00  0.00     0.074 A 
ATOM     95  C   UNL A   1      43.603  31.644  28.893  1.00  0.00    -0.034 C 
ATOM     96  H   UNL A   1      41.605  31.048  29.343  1.00  0.00     0.065 H 
ATOM     97  H   UNL A   1      48.733  32.262  27.730  1.00  0.00     0.065 H 
ATOM     98  C   UNL A   1      45.970  31.507  28.172  1.00  0.00     0.037 A 
ATOM     99  H   UNL A   1      43.613  32.629  29.201  1.00  0.00     0.065 H 
BRANCH  80 100
ATOM    100  C   UNL A   1      50.200  27.686  25.795  1.00  0.00     0.064 A 
ATOM    101  C   UNL A   1      51.206  27.421  26.737  1.00  0.00     0.173 A 
ATOM    102  C   UNL A   1      50.563  27.712  24.439  1.00  0.00     0.173 A 
ATOM    103  F   UNL A   1      50.916  27.396  28.045  1.00  0.00    -0.203 F 
ATOM    104  C   UNL A   1      52.526  27.220  26.338  1.00  0.00     0.198 A 
ATOM    105  C   UNL A   1      51.876  27.479  24.043  1.00  0.00     0.198 A 
ATOM    106  F   UNL A   1      49.640  27.954  23.497  1.00  0.00    -0.203 F 
ATOM    107  F   UNL A   1      53.478  27.022  27.261  1.00  0.00    -0.200 F 
ATOM    108  C   UNL A   1      52.859  27.243  24.993  1.00  0.00     0.200 A 
ATOM    109  F   UNL A   1      52.194  27.486  22.741  1.00  0.00    -0.200 F 
ATOM    110  F   UNL A   1      54.128  27.043  24.612  1.00  0.00    -0.200 F 
ENDBRANCH  80 100
BRANCH  83 111
ATOM    111  C   UNL A   1      40.671  28.616  28.649  1.00  0.00     0.064 A 
ATOM    112  C   UNL A   1      40.314  28.320  29.973  1.00  0.00     0.173 A 
ATOM    113  C   UNL A   1      39.656  29.035  27.777  1.00  0.00     0.173 A 
ATOM    114  F   UNL A   1      41.246  27.893  30.837  1.00  0.00    -0.203 F 
ATOM    115  C   UNL A   1      38.993  28.422  30.402  1.00  0.00     0.198 A 
ATOM    116  C   UNL A   1      38.339  29.166  28.217  1.00  0.00     0.198 A 
ATOM    117  F   UNL A   1      39.945  29.328  26.501  1.00  0.00    -0.203 F 
ATOM    118  F   UNL A   1      38.673  28.089  31.661  1.00  0.00    -0.200 F 
ATOM    119  C   UNL A   1      38.007  28.850  29.526  1.00  0.00     0.200 A 
ATOM    120  F   UNL A   1      37.394  29.594  27.370  1.00  0.00    -0.200 F 
ATOM    121  F   UNL A   1      36.738  28.953  29.940  1.00  0.00    -0.200 F 
ENDBRANCH  83 111
BRANCH  98 122
ATOM    122  C   UNL A   1      46.135  32.950  28.551  1.00  0.00     0.064 A 
ATOM    123  C   UNL A   1      45.894  33.987  27.639  1.00  0.00     0.173 A 
ATOM    124  C   UNL A   1      46.468  33.297  29.870  1.00  0.00     0.173 A 
ATOM    125  F   UNL A   1      45.587  33.705  26.364  1.00  0.00    -0.203 F 
ATOM    126  C   UNL A   1      45.995  35.319  28.030  1.00  0.00     0.198 A 
ATOM    127  C   UNL A   1      46.540  34.629  30.264  1.00  0.00     0.198 A 
ATOM    128  F   UNL A   1      46.703  32.340  30.781  1.00  0.00    -0.203 F 
ATOM    129  F   UNL A   1      45.793  36.295  27.134  1.00  0.00    -0.200 F 
ATOM    130  C   UNL A   1      46.307  35.639  29.344  1.00  0.00     0.200 A 
ATOM    131  F   UNL A   1      46.829  34.935  31.537  1.00  0.00    -0.200 F 
ATOM    132  F   UNL A   1      46.386  36.923  29.720  1.00  0.00    -0.200 F 
ENDBRANCH  98 122
ENDBRANCH  63  66
ENDBRANCH  53  56
ENDBRANCH  49  52
ENDBRANCH  46  49
ENDBRANCH  43  46
ENDBRANCH  40  43
ENDBRANCH   1  40
TORSDOF 18
ENDMDL
MODEL 9
REMARK VINA RESULT:     -11.7      5.346     11.193
REMARK SMILES NS(=O)(=O)c1ccc(/N=N/c2ccc(O)c(C(=O)NCCCCCCNC(=O)c3ccc(-c4c5nc(c(-c6c(F)c(F)c(F)c(F)c6F)c6ccc([nH]6)c(-c6c(F)c(F)c(F)c(F)c6F)c6nc(c(-c7c(F)c(F)c(F)c(F)c7F)c7ccc4[nH]7)C=C6)C=C5)cc3)c2)cc1
REMARK SMILES IDX 21 1 20 4 19 7 17 8 18 9 16 11 11 12 12 13 92 14 13 15 14 18
REMARK SMILES IDX 10 20 9 21 8 22 5 23 6 24 94 25 7 26 93 28 2 32 3 33 4 34
REMARK SMILES IDX 1 35 15 38 22 40 23 43 24 46 25 49 26 52 27 53 28 55 29 56
REMARK SMILES IDX 30 57 91 58 31 59 90 61 32 63 33 66 34 67 84 68 35 69 89 70
REMARK SMILES IDX 83 71 85 72 36 73 88 74 82 76 81 78 37 80 69 83 49 84 68 85
REMARK SMILES IDX 50 86 53 87 67 88 86 89 51 90 52 92 66 94 87 95 54 98 38 100
REMARK SMILES IDX 39 101 47 102 40 103 41 104 45 105 48 106 42 107 43 108
REMARK SMILES IDX 46 109 44 110 70 111 71 112 79 113 72 114 73 115 77 116
REMARK SMILES IDX 80 117 74 118 75 119 78 120 76 121 55 122 56 123 64 124
REMARK SMILES IDX 57 125 58 126 62 127 65 128 59 129 60 130 63 131 61 132
REMARK H PARENT 21 2 21 3 20 5 20 6 19 10 12 16 92 17 13 19 6 27 94 29 7 30
REMARK H PARENT 93 31 1 36 1 37 15 39 22 41 22 42 23 44 23 45 24 47 24 48
REMARK H PARENT 25 50 25 51 26 54 30 60 91 62 31 64 90 65 89 75 83 77 85 79
REMARK H PARENT 88 81 82 82 50 91 53 93 86 96 51 97 87 99
REMARK Flexibility Score: inf
ROOT
ATOM      1  C   UNL A   1      38.593  34.532  31.255  1.00  0.00    -0.036 C 
ATOM      2  H   UNL A   1      38.511  35.383  30.611  1.00  0.00     0.028 H 
ATOM      3  H   UNL A   1      38.119  34.645  32.208  1.00  0.00     0.028 H 
ENDROOT
BRANCH   1   4
ATOM      4  C   UNL A   1      40.072  34.326  31.564  1.00  0.00     0.018 C 
ATOM      5  H   UNL A   1      40.290  33.282  31.476  1.00  0.00     0.049 H 
ATOM      6  H   UNL A   1      40.616  34.926  30.865  1.00  0.00     0.049 H 
BRANCH   4   7
ATOM      7  N   UNL A   1      40.473  34.765  32.889  1.00  0.00    -0.352 N 
ATOM      8  C   UNL A   1      40.257  34.195  34.124  1.00  0.00     0.255 C 
ATOM      9  O   UNL A   1      40.618  34.797  35.136  1.00  0.00    -0.269 OA
ATOM     10  H   UNL A   1      40.984  35.606  32.909  1.00  0.00     0.163 HD
BRANCH   8  11
ATOM     11  C   UNL A   1      39.522  32.915  34.295  1.00  0.00     0.083 A 
ATOM     12  C   UNL A   1      39.500  30.476  34.310  1.00  0.00     0.087 A 
ATOM     13  C   UNL A   1      38.103  30.501  34.286  1.00  0.00    -0.031 A 
ATOM     14  C   UNL A   1      40.189  31.694  34.416  1.00  0.00    -0.018 A 
ATOM     15  C   UNL A   1      37.413  31.717  34.314  1.00  0.00    -0.017 A 
ATOM     16  H   UNL A   1      37.576  29.615  34.248  1.00  0.00     0.065 H 
ATOM     17  H   UNL A   1      41.207  31.688  34.587  1.00  0.00     0.066 H 
ATOM     18  C   UNL A   1      38.122  32.916  34.303  1.00  0.00     0.128 A 
ATOM     19  H   UNL A   1      36.381  31.726  34.344  1.00  0.00     0.066 H 
BRANCH  12  20
ATOM     20  N   UNL A   1      40.177  29.243  34.151  1.00  0.00    -0.151 NA
ATOM     21  N   UNL A   1      40.961  29.065  35.112  1.00  0.00    -0.151 NA
BRANCH  21  22
ATOM     22  C   UNL A   1      41.827  27.976  34.930  1.00  0.00     0.086 A 
ATOM     23  C   UNL A   1      43.346  25.703  34.311  1.00  0.00     0.082 A 
ATOM     24  C   UNL A   1      43.475  26.854  33.530  1.00  0.00    -0.040 A 
ATOM     25  C   UNL A   1      42.469  25.679  35.400  1.00  0.00    -0.040 A 
ATOM     26  C   UNL A   1      42.711  27.983  33.842  1.00  0.00    -0.033 A 
ATOM     27  H   UNL A   1      44.128  26.871  32.731  1.00  0.00     0.064 H 
ATOM     28  C   UNL A   1      41.715  26.815  35.705  1.00  0.00    -0.033 A 
ATOM     29  H   UNL A   1      42.380  24.827  35.975  1.00  0.00     0.064 H 
ATOM     30  H   UNL A   1      42.800  28.833  33.263  1.00  0.00     0.065 H 
ATOM     31  H   UNL A   1      41.069  26.798  36.511  1.00  0.00     0.065 H 
BRANCH  23  32
ATOM     32  S   UNL A   1      44.226  24.218  33.915  1.00  0.00     0.238 S 
ATOM     33  O   UNL A   1      43.297  23.115  33.982  1.00  0.00    -0.207 OA
ATOM     34  O   UNL A   1      45.480  24.236  34.629  1.00  0.00    -0.207 OA
BRANCH  32  35
ATOM     35  N   UNL A   1      44.612  24.374  32.287  1.00  0.00    -0.225 NA
ATOM     36  H   UNL A   1      45.594  24.136  32.146  1.00  0.00     0.137 HD
ATOM     37  H   UNL A   1      44.451  25.336  31.989  1.00  0.00     0.137 HD
ENDBRANCH  32  35
ENDBRANCH  23  32
ENDBRANCH  21  22
ENDBRANCH  12  20
BRANCH  18  38
ATOM     38  O   UNL A   1      37.376  34.066  34.288  1.00  0.00    -0.507 OA
ATOM     39  H   UNL A   1      37.693  34.835  34.719  1.00  0.00     0.293 HD
ENDBRANCH  18  38
ENDBRANCH   8  11
ENDBRANCH   4   7
ENDBRANCH   1   4
BRANCH   1  40
ATOM     40  C   UNL A   1      37.862  33.370  30.581  1.00  0.00    -0.052 C 
ATOM     41  H   UNL A   1      36.893  33.294  31.028  1.00  0.00     0.027 H 
ATOM     42  H   UNL A   1      38.491  32.519  30.727  1.00  0.00     0.027 H 
BRANCH  40  43
ATOM     43  C   UNL A   1      37.665  33.468  29.065  1.00  0.00    -0.052 C 
ATOM     44  H   UNL A   1      38.215  32.668  28.614  1.00  0.00     0.027 H 
ATOM     45  H   UNL A   1      38.004  34.446  28.798  1.00  0.00     0.027 H 
BRANCH  43  46
ATOM     46  C   UNL A   1      36.225  33.384  28.557  1.00  0.00    -0.036 C 
ATOM     47  H   UNL A   1      36.240  32.883  27.612  1.00  0.00     0.028 H 
ATOM     48  H   UNL A   1      35.876  34.394  28.510  1.00  0.00     0.028 H 
BRANCH  46  49
ATOM     49  C   UNL A   1      35.244  32.648  29.460  1.00  0.00     0.018 C 
ATOM     50  H   UNL A   1      34.577  33.365  29.893  1.00  0.00     0.049 H 
ATOM     51  H   UNL A   1      35.817  32.134  30.203  1.00  0.00     0.049 H 
BRANCH  49  52
ATOM     52  N   UNL A   1      34.455  31.652  28.753  1.00  0.00    -0.352 N 
ATOM     53  C   UNL A   1      34.843  30.430  28.261  1.00  0.00     0.251 C 
ATOM     54  H   UNL A   1      33.511  31.887  28.609  1.00  0.00     0.163 HD
ATOM     55  O   UNL A   1      34.076  29.766  27.571  1.00  0.00    -0.269 OA
BRANCH  53  56
ATOM     56  C   UNL A   1      36.205  29.922  28.539  1.00  0.00     0.039 A 
ATOM     57  C   UNL A   1      37.183  30.029  27.546  1.00  0.00    -0.049 A 
ATOM     58  C   UNL A   1      36.515  29.340  29.770  1.00  0.00    -0.049 A 
ATOM     59  C   UNL A   1      38.490  29.608  27.809  1.00  0.00    -0.053 A 
ATOM     60  H   UNL A   1      36.942  30.416  26.620  1.00  0.00     0.063 H 
ATOM     61  C   UNL A   1      37.831  28.987  30.056  1.00  0.00    -0.053 A 
ATOM     62  H   UNL A   1      35.772  29.172  30.465  1.00  0.00     0.063 H 
ATOM     63  C   UNL A   1      38.831  29.112  29.077  1.00  0.00    -0.014 A 
ATOM     64  H   UNL A   1      39.207  29.663  27.070  1.00  0.00     0.063 H 
ATOM     65  H   UNL A   1      38.073  28.631  30.993  1.00  0.00     0.063 H 
BRANCH  63  66
ATOM     66  C   UNL A   1      40.215  28.686  29.406  1.00  0.00     0.031 A 
ATOM     67  C   UNL A   1      41.103  29.601  30.200  1.00  0.00     0.074 A 
ATOM     68  C   UNL A   1      40.699  27.526  28.920  1.00  0.00     0.049 A 
ATOM     69  N   UNL A   1      42.381  29.493  30.467  1.00  0.00    -0.248 NA
ATOM     70  C   UNL A   1      40.478  30.818  30.739  1.00  0.00    -0.034 C 
ATOM     71  C   UNL A   1      39.946  26.565  28.117  1.00  0.00    -0.036 A 
ATOM     72  N   UNL A   1      41.951  26.970  29.019  1.00  0.00    -0.354 N 
ATOM     73  C   UNL A   1      42.714  30.638  31.180  1.00  0.00     0.074 A 
ATOM     74  C   UNL A   1      41.519  31.449  31.262  1.00  0.00    -0.034 C 
ATOM     75  H   UNL A   1      39.487  31.107  30.715  1.00  0.00     0.065 H 
ATOM     76  C   UNL A   1      40.745  25.531  27.806  1.00  0.00    -0.036 A 
ATOM     77  H   UNL A   1      38.958  26.664  27.834  1.00  0.00     0.065 H 
ATOM     78  C   UNL A   1      42.077  25.777  28.349  1.00  0.00     0.049 A 
ATOM     79  H   UNL A   1      42.688  27.386  29.522  1.00  0.00     0.167 HD
ATOM     80  C   UNL A   1      43.904  30.972  31.733  1.00  0.00     0.037 A 
ATOM     81  H   UNL A   1      41.482  32.395  31.675  1.00  0.00     0.065 H 
ATOM     82  H   UNL A   1      40.461  24.696  27.268  1.00  0.00     0.065 H 
ATOM     83  C   UNL A   1      43.151  24.981  28.182  1.00  0.00     0.037 A 
ATOM     84  C   UNL A   1      45.080  30.146  31.678  1.00  0.00     0.049 A 
ATOM     85  C   UNL A   1      44.465  25.376  28.800  1.00  0.00     0.074 A 
ATOM     86  C   UNL A   1      46.322  30.373  32.246  1.00  0.00    -0.036 A 
ATOM     87  N   UNL A   1      45.157  28.928  31.019  1.00  0.00    -0.354 N 
ATOM     88  N   UNL A   1      44.759  26.443  29.501  1.00  0.00    -0.248 NA
ATOM     89  C   UNL A   1      45.596  24.458  28.606  1.00  0.00    -0.034 C 
ATOM     90  C   UNL A   1      47.163  29.313  31.893  1.00  0.00    -0.036 A 
ATOM     91  H   UNL A   1      46.581  31.184  32.829  1.00  0.00     0.065 H 
ATOM     92  C   UNL A   1      46.431  28.400  31.152  1.00  0.00     0.049 A 
ATOM     93  H   UNL A   1      44.417  28.502  30.530  1.00  0.00     0.167 HD
ATOM     94  C   UNL A   1      46.091  26.305  29.868  1.00  0.00     0.074 A 
ATOM     95  C   UNL A   1      46.551  25.051  29.308  1.00  0.00    -0.034 C 
ATOM     96  H   UNL A   1      45.636  23.579  28.065  1.00  0.00     0.065 H 
ATOM     97  H   UNL A   1      48.160  29.226  32.143  1.00  0.00     0.065 H 
ATOM     98  C   UNL A   1      46.862  27.139  30.607  1.00  0.00     0.037 A 
ATOM     99  H   UNL A   1      47.501  24.669  29.438  1.00  0.00     0.065 H 
BRANCH  80 100
ATOM    100  C   UNL A   1      43.995  32.293  32.442  1.00  0.00     0.064 A 
ATOM    101  C   UNL A   1      43.782  32.403  33.825  1.00  0.00     0.173 A 
ATOM    102  C   UNL A   1      44.332  33.458  31.736  1.00  0.00     0.173 A 
ATOM    103  F   UNL A   1      43.446  31.322  34.544  1.00  0.00    -0.203 F 
ATOM    104  C   UNL A   1      43.872  33.636  34.468  1.00  0.00     0.198 A 
ATOM    105  C   UNL A   1      44.453  34.682  32.388  1.00  0.00     0.198 A 
ATOM    106  F   UNL A   1      44.553  33.408  30.414  1.00  0.00    -0.203 F 
ATOM    107  F   UNL A   1      43.612  33.724  35.780  1.00  0.00    -0.200 F 
ATOM    108  C   UNL A   1      44.214  34.772  33.751  1.00  0.00     0.200 A 
ATOM    109  F   UNL A   1      44.798  35.777  31.696  1.00  0.00    -0.200 F 
ATOM    110  F   UNL A   1      44.307  35.955  34.373  1.00  0.00    -0.200 F 
ENDBRANCH  80 100
BRANCH  83 111
ATOM    111  C   UNL A   1      43.025  23.719  27.405  1.00  0.00     0.064 A 
ATOM    112  C   UNL A   1      43.388  23.668  26.052  1.00  0.00     0.173 A 
ATOM    113  C   UNL A   1      42.536  22.544  27.994  1.00  0.00     0.173 A 
ATOM    114  F   UNL A   1      43.840  24.772  25.439  1.00  0.00    -0.203 F 
ATOM    115  C   UNL A   1      43.249  22.496  25.312  1.00  0.00     0.198 A 
ATOM    116  C   UNL A   1      42.426  21.364  27.261  1.00  0.00     0.198 A 
ATOM    117  F   UNL A   1      42.174  22.541  29.286  1.00  0.00    -0.203 F 
ATOM    118  F   UNL A   1      43.560  22.489  24.008  1.00  0.00    -0.200 F 
ATOM    119  C   UNL A   1      42.774  21.343  25.918  1.00  0.00     0.200 A 
ATOM    120  F   UNL A   1      41.980  20.249  27.855  1.00  0.00    -0.200 F 
ATOM    121  F   UNL A   1      42.645  20.215  25.209  1.00  0.00    -0.200 F 
ENDBRANCH  83 111
BRANCH  98 122
ATOM    122  C   UNL A   1      48.267  26.705  30.906  1.00  0.00     0.064 A 
ATOM    123  C   UNL A   1      48.571  25.880  31.998  1.00  0.00     0.173 A 
ATOM    124  C   UNL A   1      49.313  27.064  30.041  1.00  0.00     0.173 A 
ATOM    125  F   UNL A   1      47.607  25.523  32.861  1.00  0.00    -0.203 F 
ATOM    126  C   UNL A   1      49.873  25.440  32.220  1.00  0.00     0.198 A 
ATOM    127  C   UNL A   1      50.608  26.600  30.251  1.00  0.00     0.198 A 
ATOM    128  F   UNL A   1      49.073  27.848  28.979  1.00  0.00    -0.203 F 
ATOM    129  F   UNL A   1      50.147  24.679  33.289  1.00  0.00    -0.200 F 
ATOM    130  C   UNL A   1      50.888  25.791  31.342  1.00  0.00     0.200 A 
ATOM    131  F   UNL A   1      51.584  26.929  29.393  1.00  0.00    -0.200 F 
ATOM    132  F   UNL A   1      52.136  25.352  31.550  1.00  0.00    -0.200 F 
ENDBRANCH  98 122
ENDBRANCH  63  66
ENDBRANCH  53  56
ENDBRANCH  49  52
ENDBRANCH  46  49
ENDBRANCH  43  46
ENDBRANCH  40  43
ENDBRANCH   1  40
TORSDOF 18
ENDMDL
MODEL 10
REMARK VINA RESULT:     -11.6      3.034      8.079
REMARK SMILES NS(=O)(=O)c1ccc(/N=N/c2ccc(O)c(C(=O)NCCCCCCNC(=O)c3ccc(-c4c5nc(c(-c6c(F)c(F)c(F)c(F)c6F)c6ccc([nH]6)c(-c6c(F)c(F)c(F)c(F)c6F)c6nc(c(-c7c(F)c(F)c(F)c(F)c7F)c7ccc4[nH]7)C=C6)C=C5)cc3)c2)cc1
REMARK SMILES IDX 21 1 20 4 19 7 17 8 18 9 16 11 11 12 12 13 92 14 13 15 14 18
REMARK SMILES IDX 10 20 9 21 8 22 5 23 6 24 94 25 7 26 93 28 2 32 3 33 4 34
REMARK SMILES IDX 1 35 15 38 22 40 23 43 24 46 25 49 26 52 27 53 28 55 29 56
REMARK SMILES IDX 30 57 91 58 31 59 90 61 32 63 33 66 34 67 84 68 35 69 89 70
REMARK SMILES IDX 83 71 85 72 36 73 88 74 82 76 81 78 37 80 69 83 49 84 68 85
REMARK SMILES IDX 50 86 53 87 67 88 86 89 51 90 52 92 66 94 87 95 54 98 38 100
REMARK SMILES IDX 39 101 47 102 40 103 41 104 45 105 48 106 42 107 43 108
REMARK SMILES IDX 46 109 44 110 70 111 71 112 79 113 72 114 73 115 77 116
REMARK SMILES IDX 80 117 74 118 75 119 78 120 76 121 55 122 56 123 64 124
REMARK SMILES IDX 57 125 58 126 62 127 65 128 59 129 60 130 63 131 61 132
REMARK H PARENT 21 2 21 3 20 5 20 6 19 10 12 16 92 17 13 19 6 27 94 29 7 30
REMARK H PARENT 93 31 1 36 1 37 15 39 22 41 22 42 23 44 23 45 24 47 24 48
REMARK H PARENT 25 50 25 51 26 54 30 60 91 62 31 64 90 65 89 75 83 77 85 79
REMARK H PARENT 88 81 82 82 50 91 53 93 86 96 51 97 87 99
REMARK Flexibility Score: inf
ROOT
ATOM      1  C   UNL A   1      30.682  26.153  25.824  1.00  0.00    -0.036 C 
ATOM      2  H   UNL A   1      31.533  25.775  25.295  1.00  0.00     0.028 H 
ATOM      3  H   UNL A   1      30.447  25.630  26.728  1.00  0.00     0.028 H 
ENDROOT
BRANCH   1   4
ATOM      4  C   UNL A   1      29.463  25.971  24.927  1.00  0.00     0.018 C 
ATOM      5  H   UNL A   1      29.494  24.982  24.518  1.00  0.00     0.049 H 
ATOM      6  H   UNL A   1      28.603  26.141  25.542  1.00  0.00     0.049 H 
BRANCH   4   7
ATOM      7  N   UNL A   1      29.380  26.916  23.827  1.00  0.00    -0.352 N 
ATOM      8  C   UNL A   1      30.269  27.184  22.810  1.00  0.00     0.255 C 
ATOM      9  O   UNL A   1      30.027  28.104  22.027  1.00  0.00    -0.269 OA
ATOM     10  H   UNL A   1      28.555  27.452  23.804  1.00  0.00     0.163 HD
BRANCH   8  11
ATOM     11  C   UNL A   1      31.561  26.464  22.667  1.00  0.00     0.083 A 
ATOM     12  C   UNL A   1      32.814  24.375  22.546  1.00  0.00     0.087 A 
ATOM     13  C   UNL A   1      34.001  25.091  22.731  1.00  0.00    -0.031 A 
ATOM     14  C   UNL A   1      31.614  25.092  22.416  1.00  0.00    -0.018 A 
ATOM     15  C   UNL A   1      33.981  26.486  22.836  1.00  0.00    -0.017 A 
ATOM     16  H   UNL A   1      34.899  24.587  22.789  1.00  0.00     0.065 H 
ATOM     17  H   UNL A   1      30.756  24.596  22.130  1.00  0.00     0.066 H 
ATOM     18  C   UNL A   1      32.764  27.164  22.820  1.00  0.00     0.128 A 
ATOM     19  H   UNL A   1      34.865  27.010  22.925  1.00  0.00     0.066 H 
BRANCH  12  20
ATOM     20  N   UNL A   1      32.844  22.960  22.571  1.00  0.00    -0.151 NA
ATOM     21  N   UNL A   1      32.570  22.553  23.725  1.00  0.00    -0.151 NA
BRANCH  21  22
ATOM     22  C   UNL A   1      32.786  21.178  23.896  1.00  0.00     0.086 A 
ATOM     23  C   UNL A   1      33.499  18.471  24.043  1.00  0.00     0.082 A 
ATOM     24  C   UNL A   1      34.140  19.400  24.866  1.00  0.00    -0.040 A 
ATOM     25  C   UNL A   1      32.501  18.880  23.152  1.00  0.00    -0.040 A 
ATOM     26  C   UNL A   1      33.781  20.750  24.784  1.00  0.00    -0.033 A 
ATOM     27  H   UNL A   1      34.870  19.094  25.527  1.00  0.00     0.064 H 
ATOM     28  C   UNL A   1      32.149  20.231  23.083  1.00  0.00    -0.033 A 
ATOM     29  H   UNL A   1      32.029  18.190  22.549  1.00  0.00     0.064 H 
ATOM     30  H   UNL A   1      34.258  21.439  25.387  1.00  0.00     0.065 H 
ATOM     31  H   UNL A   1      31.412  20.534  22.426  1.00  0.00     0.065 H 
BRANCH  23  32
ATOM     32  S   UNL A   1      33.966  16.763  24.044  1.00  0.00     0.238 S 
ATOM     33  O   UNL A   1      35.048  16.595  24.984  1.00  0.00    -0.207 OA
ATOM     34  O   UNL A   1      34.036  16.316  22.674  1.00  0.00    -0.207 OA
BRANCH  32  35
ATOM     35  N   UNL A   1      32.656  15.965  24.731  1.00  0.00    -0.225 NA
ATOM     36  H   UNL A   1      32.465  16.356  25.653  1.00  0.00     0.137 HD
ATOM     37  H   UNL A   1      32.871  14.972  24.821  1.00  0.00     0.137 HD
ENDBRANCH  32  35
ENDBRANCH  23  32
ENDBRANCH  21  22
ENDBRANCH  12  20
BRANCH  18  38
ATOM     38  O   UNL A   1      32.822  28.525  22.972  1.00  0.00    -0.507 OA
ATOM     39  H   UNL A   1      32.949  29.075  22.224  1.00  0.00     0.293 HD
ENDBRANCH  18  38
ENDBRANCH   8  11
ENDBRANCH   4   7
ENDBRANCH   1   4
BRANCH   1  40
ATOM     40  C   UNL A   1      31.009  27.581  26.261  1.00  0.00    -0.052 C 
ATOM     41  H   UNL A   1      30.166  27.953  26.806  1.00  0.00     0.027 H 
ATOM     42  H   UNL A   1      31.227  28.109  25.358  1.00  0.00     0.027 H 
BRANCH  40  43
ATOM     43  C   UNL A   1      32.247  27.765  27.142  1.00  0.00    -0.052 C 
ATOM     44  H   UNL A   1      32.141  27.122  27.991  1.00  0.00     0.027 H 
ATOM     45  H   UNL A   1      32.276  28.808  27.376  1.00  0.00     0.027 H 
BRANCH  43  46
ATOM     46  C   UNL A   1      33.598  27.458  26.494  1.00  0.00    -0.036 C 
ATOM     47  H   UNL A   1      33.416  26.872  25.618  1.00  0.00     0.028 H 
ATOM     48  H   UNL A   1      34.171  26.955  27.244  1.00  0.00     0.028 H 
BRANCH  46  49
ATOM     49  C   UNL A   1      34.428  28.667  26.083  1.00  0.00     0.018 C 
ATOM     50  H   UNL A   1      34.369  28.775  25.020  1.00  0.00     0.049 H 
ATOM     51  H   UNL A   1      35.431  28.494  26.414  1.00  0.00     0.049 H 
BRANCH  49  52
ATOM     52  N   UNL A   1      33.976  29.904  26.698  1.00  0.00    -0.352 N 
ATOM     53  C   UNL A   1      34.561  30.638  27.701  1.00  0.00     0.251 C 
ATOM     54  H   UNL A   1      33.132  30.267  26.345  1.00  0.00     0.163 HD
ATOM     55  O   UNL A   1      33.974  31.596  28.194  1.00  0.00    -0.269 OA
BRANCH  53  56
ATOM     56  C   UNL A   1      35.896  30.255  28.212  1.00  0.00     0.039 A 
ATOM     57  C   UNL A   1      35.991  29.636  29.462  1.00  0.00    -0.049 A 
ATOM     58  C   UNL A   1      37.049  30.507  27.464  1.00  0.00    -0.049 A 
ATOM     59  C   UNL A   1      37.236  29.213  29.936  1.00  0.00    -0.053 A 
ATOM     60  H   UNL A   1      35.144  29.492  30.035  1.00  0.00     0.063 H 
ATOM     61  C   UNL A   1      38.278  30.023  27.904  1.00  0.00    -0.053 A 
ATOM     62  H   UNL A   1      36.989  31.049  26.589  1.00  0.00     0.063 H 
ATOM     63  C   UNL A   1      38.385  29.376  29.146  1.00  0.00    -0.014 A 
ATOM     64  H   UNL A   1      37.312  28.779  30.869  1.00  0.00     0.063 H 
ATOM     65  H   UNL A   1      39.115  30.141  27.313  1.00  0.00     0.063 H 
BRANCH  63  66
ATOM     66  C   UNL A   1      39.721  28.912  29.601  1.00  0.00     0.031 A 
ATOM     67  C   UNL A   1      40.522  29.768  30.541  1.00  0.00     0.074 A 
ATOM     68  C   UNL A   1      40.246  27.774  29.106  1.00  0.00     0.049 A 
ATOM     69  N   UNL A   1      41.761  29.626  30.941  1.00  0.00    -0.248 NA
ATOM     70  C   UNL A   1      39.851  30.962  31.076  1.00  0.00    -0.034 C 
ATOM     71  C   UNL A   1      39.579  26.871  28.171  1.00  0.00    -0.036 A 
ATOM     72  N   UNL A   1      41.474  27.194  29.311  1.00  0.00    -0.354 N 
ATOM     73  C   UNL A   1      42.022  30.723  31.751  1.00  0.00     0.074 A 
ATOM     74  C   UNL A   1      40.832  31.546  31.747  1.00  0.00    -0.034 C 
ATOM     75  H   UNL A   1      38.871  31.266  30.959  1.00  0.00     0.065 H 
ATOM     76  C   UNL A   1      40.398  25.844  27.891  1.00  0.00    -0.036 A 
ATOM     77  H   UNL A   1      38.630  27.000  27.786  1.00  0.00     0.065 H 
ATOM     78  C   UNL A   1      41.664  26.039  28.593  1.00  0.00     0.049 A 
ATOM     79  H   UNL A   1      42.154  27.571  29.916  1.00  0.00     0.167 HD
ATOM     80  C   UNL A   1      43.146  31.008  32.451  1.00  0.00     0.037 A 
ATOM     81  H   UNL A   1      40.757  32.468  32.207  1.00  0.00     0.065 H 
ATOM     82  H   UNL A   1      40.170  25.045  27.278  1.00  0.00     0.065 H 
ATOM     83  C   UNL A   1      42.743  25.238  28.500  1.00  0.00     0.037 A 
ATOM     84  C   UNL A   1      44.313  30.170  32.480  1.00  0.00     0.049 A 
ATOM     85  C   UNL A   1      43.983  25.578  29.282  1.00  0.00     0.074 A 
ATOM     86  C   UNL A   1      45.486  30.345  33.194  1.00  0.00    -0.036 A 
ATOM     87  N   UNL A   1      44.453  28.989  31.765  1.00  0.00    -0.354 N 
ATOM     88  N   UNL A   1      44.206  26.600  30.071  1.00  0.00    -0.248 NA
ATOM     89  C   UNL A   1      45.121  24.655  29.162  1.00  0.00    -0.034 C 
ATOM     90  C   UNL A   1      46.352  29.295  32.876  1.00  0.00    -0.036 A 
ATOM     91  H   UNL A   1      45.685  31.119  33.848  1.00  0.00     0.065 H 
ATOM     92  C   UNL A   1      45.699  28.436  32.007  1.00  0.00     0.049 A 
ATOM     93  H   UNL A   1      43.769  28.602  31.173  1.00  0.00     0.167 HD
ATOM     94  C   UNL A   1      45.487  26.421  30.575  1.00  0.00     0.074 A 
ATOM     95  C   UNL A   1      45.997  25.195  29.998  1.00  0.00    -0.034 C 
ATOM     96  H   UNL A   1      45.214  23.808  28.579  1.00  0.00     0.065 H 
ATOM     97  H   UNL A   1      47.315  29.179  33.230  1.00  0.00     0.065 H 
ATOM     98  C   UNL A   1      46.178  27.201  31.442  1.00  0.00     0.037 A 
ATOM     99  H   UNL A   1      46.923  24.792  30.211  1.00  0.00     0.065 H 
BRANCH  80 100
ATOM    100  C   UNL A   1      43.168  32.285  33.241  1.00  0.00     0.064 A 
ATOM    101  C   UNL A   1      43.632  33.488  32.685  1.00  0.00     0.173 A 
ATOM    102  C   UNL A   1      42.691  32.315  34.560  1.00  0.00     0.173 A 
ATOM    103  F   UNL A   1      44.109  33.513  31.432  1.00  0.00    -0.203 F 
ATOM    104  C   UNL A   1      43.644  34.664  33.431  1.00  0.00     0.198 A 
ATOM    105  C   UNL A   1      42.675  33.499  35.291  1.00  0.00     0.198 A 
ATOM    106  F   UNL A   1      42.231  31.195  35.138  1.00  0.00    -0.203 F 
ATOM    107  F   UNL A   1      44.141  35.788  32.895  1.00  0.00    -0.200 F 
ATOM    108  C   UNL A   1      43.160  34.671  34.730  1.00  0.00     0.200 A 
ATOM    109  F   UNL A   1      42.193  33.507  36.542  1.00  0.00    -0.200 F 
ATOM    110  F   UNL A   1      43.167  35.805  35.444  1.00  0.00    -0.200 F 
ENDBRANCH  80 100
BRANCH  83 111
ATOM    111  C   UNL A   1      42.694  24.023  27.643  1.00  0.00     0.064 A 
ATOM    112  C   UNL A   1      42.301  22.786  28.172  1.00  0.00     0.173 A 
ATOM    113  C   UNL A   1      43.044  24.072  26.286  1.00  0.00     0.173 A 
ATOM    114  F   UNL A   1      41.978  22.685  29.470  1.00  0.00    -0.203 F 
ATOM    115  C   UNL A   1      42.277  21.639  27.381  1.00  0.00     0.198 A 
ATOM    116  C   UNL A   1      42.991  22.930  25.489  1.00  0.00     0.198 A 
ATOM    117  F   UNL A   1      43.429  25.231  25.733  1.00  0.00    -0.203 F 
ATOM    118  F   UNL A   1      41.941  20.460  27.924  1.00  0.00    -0.200 F 
ATOM    119  C   UNL A   1      42.617  21.713  26.039  1.00  0.00     0.200 A 
ATOM    120  F   UNL A   1      43.306  23.009  24.189  1.00  0.00    -0.200 F 
ATOM    121  F   UNL A   1      42.589  20.612  25.277  1.00  0.00    -0.200 F 
ENDBRANCH  83 111
BRANCH  98 122
ATOM    122  C   UNL A   1      47.538  26.730  31.870  1.00  0.00     0.064 A 
ATOM    123  C   UNL A   1      48.707  27.172  31.236  1.00  0.00     0.173 A 
ATOM    124  C   UNL A   1      47.671  25.881  32.979  1.00  0.00     0.173 A 
ATOM    125  F   UNL A   1      48.630  27.973  30.162  1.00  0.00    -0.203 F 
ATOM    126  C   UNL A   1      49.960  26.770  31.689  1.00  0.00     0.198 A 
ATOM    127  C   UNL A   1      48.927  25.504  33.447  1.00  0.00     0.198 A 
ATOM    128  F   UNL A   1      46.581  25.435  33.623  1.00  0.00    -0.203 F 
ATOM    129  F   UNL A   1      51.064  27.177  31.047  1.00  0.00    -0.200 F 
ATOM    130  C   UNL A   1      50.070  25.946  32.799  1.00  0.00     0.200 A 
ATOM    131  F   UNL A   1      49.029  24.718  34.528  1.00  0.00    -0.200 F 
ATOM    132  F   UNL A   1      51.278  25.574  33.243  1.00  0.00    -0.200 F 
ENDBRANCH  98 122
ENDBRANCH  63  66
ENDBRANCH  53  56
ENDBRANCH  49  52
ENDBRANCH  46  49
ENDBRANCH  43  46
ENDBRANCH  40  43
ENDBRANCH   1  40
TORSDOF 18
ENDMDL
