MODEL 1
REMARK VINA RESULT:     -11.6      0.000      0.000
REMARK SMILES C[C@@H](C(=O)NCCCCCCNC(=O)c1ccc(-c2c3nc(c(-c4c(F)c(F)c(F)c(F)c4F)c4ccc([nH]4)c(-c4c(F)c(F)c(F)c(F)c4F)c4nc(c(-c5c(F)c(F)c(F)c(F)c5F)c5ccc2[nH]5)C=C4)C=C3)cc1)c1ccc(NC2CCCC2)cc1F
REMARK SMILES IDX 8 1 7 4 6 7 5 10 3 11 4 12 2 14 1 16 78 20 79 21 89 22 80 23
REMARK SMILES IDX 88 25 90 26 81 27 82 30 83 32 84 33 87 34 85 36 86 39 9 46
REMARK SMILES IDX 10 49 11 52 12 55 13 56 14 58 15 59 16 60 77 61 17 62 76 64
REMARK SMILES IDX 18 66 19 69 20 70 70 71 21 72 75 73 69 74 71 75 22 76 74 77
REMARK SMILES IDX 68 79 67 81 23 83 55 86 35 87 54 88 36 89 39 90 53 91 72 92
REMARK SMILES IDX 37 93 38 95 52 97 73 98 40 101 24 103 25 104 33 105 26 106
REMARK SMILES IDX 27 107 31 108 34 109 28 110 29 111 32 112 30 113 56 114
REMARK SMILES IDX 57 115 65 116 58 117 59 118 63 119 66 120 60 121 61 122
REMARK SMILES IDX 64 123 62 124 41 125 42 126 50 127 43 128 44 129 48 130
REMARK SMILES IDX 51 131 45 132 46 133 49 134 47 135
REMARK H PARENT 8 2 8 3 7 5 7 6 6 8 6 9 5 13 2 15 1 17 1 18 1 19 79 24 80 28
REMARK H PARENT 88 29 82 31 83 35 84 37 84 38 87 40 87 41 85 42 85 43 86 44
REMARK H PARENT 86 45 9 47 9 48 10 50 10 51 11 53 11 54 12 57 16 63 77 65
REMARK H PARENT 17 67 76 68 75 78 69 80 71 82 74 84 68 85 36 94 39 96 72 99
REMARK H PARENT 37 100 73 102
REMARK Flexibility Score: inf
ROOT
ATOM      1  C   UNL A   1      34.019  27.788  24.756  1.00  0.00    -0.052 C 
ATOM      2  H   UNL A   1      33.921  27.223  23.853  1.00  0.00     0.027 H 
ATOM      3  H   UNL A   1      35.011  28.151  24.927  1.00  0.00     0.027 H 
ENDROOT
BRANCH   1   4
ATOM      4  C   UNL A   1      33.695  26.860  25.935  1.00  0.00    -0.036 C 
ATOM      5  H   UNL A   1      34.164  27.256  26.811  1.00  0.00     0.028 H 
ATOM      6  H   UNL A   1      32.629  26.826  26.013  1.00  0.00     0.028 H 
BRANCH   4   7
ATOM      7  C   UNL A   1      34.167  25.414  25.750  1.00  0.00     0.017 C 
ATOM      8  H   UNL A   1      35.056  25.256  26.323  1.00  0.00     0.049 H 
ATOM      9  H   UNL A   1      33.395  24.751  26.081  1.00  0.00     0.049 H 
BRANCH   7  10
ATOM     10  N   UNL A   1      34.445  25.154  24.352  1.00  0.00    -0.356 N 
ATOM     11  C   UNL A   1      33.728  24.431  23.442  1.00  0.00     0.227 C 
ATOM     12  O   UNL A   1      34.327  24.069  22.428  1.00  0.00    -0.274 OA
ATOM     13  H   UNL A   1      35.274  25.558  24.007  1.00  0.00     0.163 HD
BRANCH  11  14
ATOM     14  C   UNL A   1      32.237  24.134  23.700  1.00  0.00     0.063 C 
ATOM     15  H   UNL A   1      32.081  23.873  24.726  1.00  0.00     0.045 H 
BRANCH  14  16
ATOM     16  C   UNL A   1      31.841  22.935  22.832  1.00  0.00    -0.049 C 
ATOM     17  H   UNL A   1      31.730  23.250  21.817  1.00  0.00     0.024 H 
ATOM     18  H   UNL A   1      30.913  22.531  23.183  1.00  0.00     0.024 H 
ATOM     19  H   UNL A   1      32.601  22.184  22.892  1.00  0.00     0.024 H 
ENDBRANCH  14  16
BRANCH  14  20
ATOM     20  C   UNL A   1      31.350  25.370  23.528  1.00  0.00     0.000 A 
ATOM     21  C   UNL A   1      31.608  26.286  22.499  1.00  0.00    -0.053 A 
ATOM     22  C   UNL A   1      30.282  25.678  24.373  1.00  0.00     0.129 A 
ATOM     23  C   UNL A   1      30.766  27.383  22.264  1.00  0.00    -0.038 A 
ATOM     24  H   UNL A   1      32.437  26.151  21.899  1.00  0.00     0.063 H 
ATOM     25  C   UNL A   1      29.461  26.789  24.155  1.00  0.00    -0.003 A 
ATOM     26  F   UNL A   1      29.997  24.912  25.436  1.00  0.00    -0.207 F 
ATOM     27  C   UNL A   1      29.666  27.652  23.076  1.00  0.00     0.037 A 
ATOM     28  H   UNL A   1      30.967  28.008  21.468  1.00  0.00     0.064 H 
ATOM     29  H   UNL A   1      28.683  26.975  24.807  1.00  0.00     0.068 H 
BRANCH  27  30
ATOM     30  N   UNL A   1      28.773  28.682  22.872  1.00  0.00    -0.382 N 
ATOM     31  H   UNL A   1      27.831  28.463  23.055  1.00  0.00     0.160 HD
BRANCH  30  32
ATOM     32  C   UNL A   1      29.018  30.043  22.426  1.00  0.00     0.026 C 
ATOM     33  C   UNL A   1      28.115  30.512  21.291  1.00  0.00    -0.033 C 
ATOM     34  C   UNL A   1      28.922  31.103  23.523  1.00  0.00    -0.033 C 
ATOM     35  H   UNL A   1      30.027  29.964  22.080  1.00  0.00     0.053 H 
ATOM     36  C   UNL A   1      28.237  32.027  21.361  1.00  0.00    -0.051 C 
ATOM     37  H   UNL A   1      27.105  30.200  21.449  1.00  0.00     0.029 H 
ATOM     38  H   UNL A   1      28.394  30.112  20.339  1.00  0.00     0.029 H 
ATOM     39  C   UNL A   1      28.348  32.349  22.848  1.00  0.00    -0.051 C 
ATOM     40  H   UNL A   1      29.891  31.310  23.926  1.00  0.00     0.029 H 
ATOM     41  H   UNL A   1      28.306  30.776  24.335  1.00  0.00     0.029 H 
ATOM     42  H   UNL A   1      27.370  32.492  20.940  1.00  0.00     0.027 H 
ATOM     43  H   UNL A   1      29.079  32.388  20.809  1.00  0.00     0.027 H 
ATOM     44  H   UNL A   1      27.383  32.575  23.250  1.00  0.00     0.027 H 
ATOM     45  H   UNL A   1      28.975  33.200  23.012  1.00  0.00     0.027 H 
ENDBRANCH  30  32
ENDBRANCH  27  30
ENDBRANCH  14  20
ENDBRANCH  11  14
ENDBRANCH   7  10
ENDBRANCH   4   7
ENDBRANCH   1   4
BRANCH   1  46
ATOM     46  C   UNL A   1      33.128  29.027  24.639  1.00  0.00    -0.052 C 
ATOM     47  H   UNL A   1      32.763  29.078  23.635  1.00  0.00     0.027 H 
ATOM     48  H   UNL A   1      33.738  29.860  24.916  1.00  0.00     0.027 H 
BRANCH  46  49
ATOM     49  C   UNL A   1      31.921  29.053  25.582  1.00  0.00    -0.036 C 
ATOM     50  H   UNL A   1      31.631  28.042  25.777  1.00  0.00     0.028 H 
ATOM     51  H   UNL A   1      31.167  29.627  25.084  1.00  0.00     0.028 H 
BRANCH  49  52
ATOM     52  C   UNL A   1      32.161  29.742  26.924  1.00  0.00     0.018 C 
ATOM     53  H   UNL A   1      33.088  29.393  27.328  1.00  0.00     0.049 H 
ATOM     54  H   UNL A   1      31.338  29.502  27.565  1.00  0.00     0.049 H 
BRANCH  52  55
ATOM     55  N   UNL A   1      32.219  31.188  26.804  1.00  0.00    -0.352 N 
ATOM     56  C   UNL A   1      33.142  32.069  27.301  1.00  0.00     0.251 C 
ATOM     57  H   UNL A   1      31.485  31.595  26.289  1.00  0.00     0.163 HD
ATOM     58  O   UNL A   1      32.932  33.283  27.227  1.00  0.00    -0.269 OA
BRANCH  56  59
ATOM     59  C   UNL A   1      34.378  31.585  27.950  1.00  0.00     0.039 A 
ATOM     60  C   UNL A   1      35.389  32.507  28.231  1.00  0.00    -0.049 A 
ATOM     61  C   UNL A   1      34.564  30.231  28.250  1.00  0.00    -0.049 A 
ATOM     62  C   UNL A   1      36.563  32.085  28.858  1.00  0.00    -0.053 A 
ATOM     63  H   UNL A   1      35.269  33.499  27.975  1.00  0.00     0.063 H 
ATOM     64  C   UNL A   1      35.713  29.818  28.926  1.00  0.00    -0.053 A 
ATOM     65  H   UNL A   1      33.852  29.538  27.972  1.00  0.00     0.063 H 
ATOM     66  C   UNL A   1      36.723  30.741  29.234  1.00  0.00    -0.014 A 
ATOM     67  H   UNL A   1      37.317  32.763  29.046  1.00  0.00     0.063 H 
ATOM     68  H   UNL A   1      35.821  28.829  29.201  1.00  0.00     0.063 H 
BRANCH  66  69
ATOM     69  C   UNL A   1      37.943  30.304  29.958  1.00  0.00     0.031 A 
ATOM     70  C   UNL A   1      38.207  30.766  31.363  1.00  0.00     0.074 A 
ATOM     71  C   UNL A   1      38.832  29.508  29.333  1.00  0.00     0.049 A 
ATOM     72  N   UNL A   1      39.220  30.492  32.147  1.00  0.00    -0.248 NA
ATOM     73  C   UNL A   1      37.213  31.669  31.962  1.00  0.00    -0.034 C 
ATOM     74  C   UNL A   1      38.716  29.036  27.951  1.00  0.00    -0.036 A 
ATOM     75  N   UNL A   1      40.010  28.960  29.774  1.00  0.00    -0.354 N 
ATOM     76  C   UNL A   1      38.986  31.187  33.326  1.00  0.00     0.074 A 
ATOM     77  C   UNL A   1      37.762  31.935  33.139  1.00  0.00    -0.034 C 
ATOM     78  H   UNL A   1      36.321  32.007  31.568  1.00  0.00     0.065 H 
ATOM     79  C   UNL A   1      39.771  28.256  27.664  1.00  0.00    -0.036 A 
ATOM     80  H   UNL A   1      37.948  29.267  27.303  1.00  0.00     0.065 H 
ATOM     81  C   UNL A   1      40.646  28.189  28.832  1.00  0.00     0.049 A 
ATOM     82  H   UNL A   1      40.367  29.105  30.680  1.00  0.00     0.167 HD
ATOM     83  C   UNL A   1      39.713  31.182  34.469  1.00  0.00     0.037 A 
ATOM     84  H   UNL A   1      37.366  32.590  33.832  1.00  0.00     0.065 H 
ATOM     85  H   UNL A   1      39.937  27.780  26.764  1.00  0.00     0.065 H 
ATOM     86  C   UNL A   1      41.801  27.503  28.902  1.00  0.00     0.037 A 
ATOM     87  C   UNL A   1      40.923  30.425  34.662  1.00  0.00     0.049 A 
ATOM     88  C   UNL A   1      42.576  27.497  30.191  1.00  0.00     0.074 A 
ATOM     89  C   UNL A   1      41.712  30.332  35.796  1.00  0.00    -0.036 A 
ATOM     90  N   UNL A   1      41.518  29.629  33.695  1.00  0.00    -0.354 N 
ATOM     91  N   UNL A   1      42.312  28.113  31.318  1.00  0.00    -0.248 NA
ATOM     92  C   UNL A   1      43.803  26.688  30.222  1.00  0.00    -0.034 C 
ATOM     93  C   UNL A   1      42.799  29.498  35.507  1.00  0.00    -0.036 A 
ATOM     94  H   UNL A   1      41.530  30.795  36.700  1.00  0.00     0.065 H 
ATOM     95  C   UNL A   1      42.667  29.046  34.205  1.00  0.00     0.049 A 
ATOM     96  H   UNL A   1      41.174  29.497  32.782  1.00  0.00     0.167 HD
ATOM     97  C   UNL A   1      43.327  27.754  32.194  1.00  0.00     0.074 A 
ATOM     98  C   UNL A   1      44.199  26.847  31.477  1.00  0.00    -0.034 C 
ATOM     99  H   UNL A   1      44.241  26.140  29.465  1.00  0.00     0.065 H 
ATOM    100  H   UNL A   1      43.568  29.263  36.153  1.00  0.00     0.065 H 
ATOM    101  C   UNL A   1      43.522  28.146  33.476  1.00  0.00     0.037 A 
ATOM    102  H   UNL A   1      45.023  26.384  31.890  1.00  0.00     0.065 H 
BRANCH  83 103
ATOM    103  C   UNL A   1      39.209  32.008  35.614  1.00  0.00     0.064 A 
ATOM    104  C   UNL A   1      38.364  31.460  36.591  1.00  0.00     0.173 A 
ATOM    105  C   UNL A   1      39.614  33.343  35.768  1.00  0.00     0.173 A 
ATOM    106  F   UNL A   1      37.941  30.192  36.482  1.00  0.00    -0.203 F 
ATOM    107  C   UNL A   1      37.928  32.224  37.670  1.00  0.00     0.198 A 
ATOM    108  C   UNL A   1      39.194  34.096  36.862  1.00  0.00     0.198 A 
ATOM    109  F   UNL A   1      40.425  33.912  34.864  1.00  0.00    -0.203 F 
ATOM    110  F   UNL A   1      37.094  31.689  38.573  1.00  0.00    -0.200 F 
ATOM    111  C   UNL A   1      38.349  33.537  37.809  1.00  0.00     0.200 A 
ATOM    112  F   UNL A   1      39.610  35.363  37.001  1.00  0.00    -0.200 F 
ATOM    113  F   UNL A   1      37.937  34.268  38.854  1.00  0.00    -0.200 F 
ENDBRANCH  83 103
BRANCH  86 114
ATOM    114  C   UNL A   1      42.284  26.740  27.724  1.00  0.00     0.064 A 
ATOM    115  C   UNL A   1      41.837  25.435  27.477  1.00  0.00     0.173 A 
ATOM    116  C   UNL A   1      43.209  27.296  26.828  1.00  0.00     0.173 A 
ATOM    117  F   UNL A   1      40.969  24.854  28.318  1.00  0.00    -0.203 F 
ATOM    118  C   UNL A   1      42.316  24.704  26.391  1.00  0.00     0.198 A 
ATOM    119  C   UNL A   1      43.667  26.574  25.728  1.00  0.00     0.198 A 
ATOM    120  F   UNL A   1      43.662  28.544  27.019  1.00  0.00    -0.203 F 
ATOM    121  F   UNL A   1      41.909  23.442  26.205  1.00  0.00    -0.200 F 
ATOM    122  C   UNL A   1      43.227  25.277  25.517  1.00  0.00     0.200 A 
ATOM    123  F   UNL A   1      44.538  27.135  24.878  1.00  0.00    -0.200 F 
ATOM    124  F   UNL A   1      43.687  24.574  24.472  1.00  0.00    -0.200 F 
ENDBRANCH  86 114
BRANCH 101 125
ATOM    125  C   UNL A   1      44.717  27.580  34.186  1.00  0.00     0.064 A 
ATOM    126  C   UNL A   1      44.645  26.366  34.885  1.00  0.00     0.173 A 
ATOM    127  C   UNL A   1      45.949  28.249  34.150  1.00  0.00     0.173 A 
ATOM    128  F   UNL A   1      43.484  25.699  34.959  1.00  0.00    -0.203 F 
ATOM    129  C   UNL A   1      45.758  25.857  35.548  1.00  0.00     0.198 A 
ATOM    130  C   UNL A   1      47.066  27.723  34.793  1.00  0.00     0.198 A 
ATOM    131  F   UNL A   1      46.070  29.411  33.491  1.00  0.00    -0.203 F 
ATOM    132  F   UNL A   1      45.654  24.720  36.250  1.00  0.00    -0.200 F 
ATOM    133  C   UNL A   1      46.968  26.533  35.498  1.00  0.00     0.200 A 
ATOM    134  F   UNL A   1      48.237  28.373  34.739  1.00  0.00    -0.200 F 
ATOM    135  F   UNL A   1      48.037  26.041  36.138  1.00  0.00    -0.200 F 
ENDBRANCH 101 125
ENDBRANCH  66  69
ENDBRANCH  56  59
ENDBRANCH  52  55
ENDBRANCH  49  52
ENDBRANCH  46  49
ENDBRANCH   1  46
TORSDOF 17
ENDMDL
MODEL 2
REMARK VINA RESULT:     -11.6      5.008     10.761
REMARK SMILES C[C@@H](C(=O)NCCCCCCNC(=O)c1ccc(-c2c3nc(c(-c4c(F)c(F)c(F)c(F)c4F)c4ccc([nH]4)c(-c4c(F)c(F)c(F)c(F)c4F)c4nc(c(-c5c(F)c(F)c(F)c(F)c5F)c5ccc2[nH]5)C=C4)C=C3)cc1)c1ccc(NC2CCCC2)cc1F
REMARK SMILES IDX 8 1 7 4 6 7 5 10 3 11 4 12 2 14 1 16 78 20 79 21 89 22 80 23
REMARK SMILES IDX 88 25 90 26 81 27 82 30 83 32 84 33 87 34 85 36 86 39 9 46
REMARK SMILES IDX 10 49 11 52 12 55 13 56 14 58 15 59 16 60 77 61 17 62 76 64
REMARK SMILES IDX 18 66 19 69 20 70 70 71 21 72 75 73 69 74 71 75 22 76 74 77
REMARK SMILES IDX 68 79 67 81 23 83 55 86 35 87 54 88 36 89 39 90 53 91 72 92
REMARK SMILES IDX 37 93 38 95 52 97 73 98 40 101 24 103 25 104 33 105 26 106
REMARK SMILES IDX 27 107 31 108 34 109 28 110 29 111 32 112 30 113 56 114
REMARK SMILES IDX 57 115 65 116 58 117 59 118 63 119 66 120 60 121 61 122
REMARK SMILES IDX 64 123 62 124 41 125 42 126 50 127 43 128 44 129 48 130
REMARK SMILES IDX 51 131 45 132 46 133 49 134 47 135
REMARK H PARENT 8 2 8 3 7 5 7 6 6 8 6 9 5 13 2 15 1 17 1 18 1 19 79 24 80 28
REMARK H PARENT 88 29 82 31 83 35 84 37 84 38 87 40 87 41 85 42 85 43 86 44
REMARK H PARENT 86 45 9 47 9 48 10 50 10 51 11 53 11 54 12 57 16 63 77 65
REMARK H PARENT 17 67 76 68 75 78 69 80 71 82 74 84 68 85 36 94 39 96 72 99
REMARK H PARENT 37 100 73 102
REMARK Flexibility Score: inf
ROOT
ATOM      1  C   UNL A   1      36.515  21.735  25.156  1.00  0.00    -0.052 C 
ATOM      2  H   UNL A   1      35.631  22.016  25.689  1.00  0.00     0.027 H 
ATOM      3  H   UNL A   1      37.420  21.979  25.672  1.00  0.00     0.027 H 
ENDROOT
BRANCH   1   4
ATOM      4  C   UNL A   1      36.547  22.525  23.841  1.00  0.00    -0.036 C 
ATOM      5  H   UNL A   1      37.566  22.764  23.619  1.00  0.00     0.028 H 
ATOM      6  H   UNL A   1      36.095  21.901  23.099  1.00  0.00     0.028 H 
BRANCH   4   7
ATOM      7  C   UNL A   1      35.743  23.829  23.866  1.00  0.00     0.017 C 
ATOM      8  H   UNL A   1      36.407  24.656  23.727  1.00  0.00     0.049 H 
ATOM      9  H   UNL A   1      35.019  23.806  23.079  1.00  0.00     0.049 H 
BRANCH   7  10
ATOM     10  N   UNL A   1      35.059  23.971  25.135  1.00  0.00    -0.356 N 
ATOM     11  C   UNL A   1      33.729  24.144  25.392  1.00  0.00     0.227 C 
ATOM     12  O   UNL A   1      33.434  24.579  26.506  1.00  0.00    -0.274 OA
ATOM     13  H   UNL A   1      35.639  23.938  25.930  1.00  0.00     0.163 HD
BRANCH  11  14
ATOM     14  C   UNL A   1      32.686  23.771  24.320  1.00  0.00     0.063 C 
ATOM     15  H   UNL A   1      32.979  24.152  23.364  1.00  0.00     0.045 H 
BRANCH  14  16
ATOM     16  C   UNL A   1      31.356  24.426  24.712  1.00  0.00    -0.049 C 
ATOM     17  H   UNL A   1      31.257  24.423  25.777  1.00  0.00     0.024 H 
ATOM     18  H   UNL A   1      30.546  23.878  24.277  1.00  0.00     0.024 H 
ATOM     19  H   UNL A   1      31.336  25.435  24.354  1.00  0.00     0.024 H 
ENDBRANCH  14  16
BRANCH  14  20
ATOM     20  C   UNL A   1      32.607  22.262  24.072  1.00  0.00     0.000 A 
ATOM     21  C   UNL A   1      32.664  21.366  25.149  1.00  0.00    -0.053 A 
ATOM     22  C   UNL A   1      32.509  21.692  22.801  1.00  0.00     0.129 A 
ATOM     23  C   UNL A   1      32.512  19.984  24.963  1.00  0.00    -0.038 A 
ATOM     24  H   UNL A   1      32.822  21.731  26.102  1.00  0.00     0.063 H 
ATOM     25  C   UNL A   1      32.388  20.311  22.616  1.00  0.00    -0.003 A 
ATOM     26  F   UNL A   1      32.526  22.454  21.698  1.00  0.00    -0.207 F 
ATOM     27  C   UNL A   1      32.356  19.426  23.696  1.00  0.00     0.037 A 
ATOM     28  H   UNL A   1      32.516  19.363  25.787  1.00  0.00     0.064 H 
ATOM     29  H   UNL A   1      32.318  19.937  21.657  1.00  0.00     0.068 H 
BRANCH  27  30
ATOM     30  N   UNL A   1      32.154  18.085  23.448  1.00  0.00    -0.382 N 
ATOM     31  H   UNL A   1      31.332  17.869  22.950  1.00  0.00     0.160 HD
BRANCH  30  32
ATOM     32  C   UNL A   1      32.974  16.944  23.814  1.00  0.00     0.026 C 
ATOM     33  C   UNL A   1      34.470  17.228  23.876  1.00  0.00    -0.033 C 
ATOM     34  C   UNL A   1      32.602  16.289  25.145  1.00  0.00    -0.033 C 
ATOM     35  H   UNL A   1      32.763  16.275  23.005  1.00  0.00     0.053 H 
ATOM     36  C   UNL A   1      35.003  16.077  24.715  1.00  0.00    -0.051 C 
ATOM     37  H   UNL A   1      34.663  18.169  24.347  1.00  0.00     0.029 H 
ATOM     38  H   UNL A   1      34.926  17.292  22.910  1.00  0.00     0.029 H 
ATOM     39  C   UNL A   1      33.919  15.804  25.751  1.00  0.00    -0.051 C 
ATOM     40  H   UNL A   1      31.940  15.464  24.981  1.00  0.00     0.029 H 
ATOM     41  H   UNL A   1      32.097  16.974  25.793  1.00  0.00     0.029 H 
ATOM     42  H   UNL A   1      35.919  16.356  25.194  1.00  0.00     0.027 H 
ATOM     43  H   UNL A   1      35.217  15.213  24.120  1.00  0.00     0.027 H 
ATOM     44  H   UNL A   1      34.128  16.338  26.654  1.00  0.00     0.027 H 
ATOM     45  H   UNL A   1      33.872  14.763  25.994  1.00  0.00     0.027 H 
ENDBRANCH  30  32
ENDBRANCH  27  30
ENDBRANCH  14  20
ENDBRANCH  11  14
ENDBRANCH   7  10
ENDBRANCH   4   7
ENDBRANCH   1   4
BRANCH   1  46
ATOM     46  C   UNL A   1      36.510  20.213  25.001  1.00  0.00    -0.052 C 
ATOM     47  H   UNL A   1      35.907  19.969  24.152  1.00  0.00     0.027 H 
ATOM     48  H   UNL A   1      36.131  19.821  25.922  1.00  0.00     0.027 H 
BRANCH  46  49
ATOM     49  C   UNL A   1      37.887  19.573  24.802  1.00  0.00    -0.036 C 
ATOM     50  H   UNL A   1      38.202  19.770  23.798  1.00  0.00     0.028 H 
ATOM     51  H   UNL A   1      37.765  18.532  25.016  1.00  0.00     0.028 H 
BRANCH  49  52
ATOM     52  C   UNL A   1      38.978  20.074  25.746  1.00  0.00     0.018 C 
ATOM     53  H   UNL A   1      38.550  20.232  26.714  1.00  0.00     0.049 H 
ATOM     54  H   UNL A   1      39.370  20.983  25.337  1.00  0.00     0.049 H 
BRANCH  52  55
ATOM     55  N   UNL A   1      40.080  19.136  25.870  1.00  0.00    -0.352 N 
ATOM     56  C   UNL A   1      41.408  19.374  26.101  1.00  0.00     0.251 C 
ATOM     57  H   UNL A   1      39.834  18.187  25.775  1.00  0.00     0.163 HD
ATOM     58  O   UNL A   1      42.220  18.449  26.015  1.00  0.00    -0.269 OA
BRANCH  56  59
ATOM     59  C   UNL A   1      41.888  20.733  26.427  1.00  0.00     0.039 A 
ATOM     60  C   UNL A   1      42.117  21.629  25.379  1.00  0.00    -0.049 A 
ATOM     61  C   UNL A   1      42.148  21.120  27.746  1.00  0.00    -0.049 A 
ATOM     62  C   UNL A   1      42.555  22.925  25.654  1.00  0.00    -0.053 A 
ATOM     63  H   UNL A   1      41.962  21.332  24.403  1.00  0.00     0.063 H 
ATOM     64  C   UNL A   1      42.534  22.432  28.024  1.00  0.00    -0.053 A 
ATOM     65  H   UNL A   1      42.055  20.436  28.513  1.00  0.00     0.063 H 
ATOM     66  C   UNL A   1      42.742  23.346  26.981  1.00  0.00    -0.014 A 
ATOM     67  H   UNL A   1      42.743  23.579  24.878  1.00  0.00     0.063 H 
ATOM     68  H   UNL A   1      42.665  22.732  29.004  1.00  0.00     0.063 H 
BRANCH  66  69
ATOM     69  C   UNL A   1      43.146  24.743  27.277  1.00  0.00     0.031 A 
ATOM     70  C   UNL A   1      44.544  25.213  26.991  1.00  0.00     0.074 A 
ATOM     71  C   UNL A   1      42.254  25.584  27.836  1.00  0.00     0.049 A 
ATOM     72  N   UNL A   1      45.077  26.393  27.190  1.00  0.00    -0.248 NA
ATOM     73  C   UNL A   1      45.473  24.224  26.424  1.00  0.00    -0.034 C 
ATOM     74  C   UNL A   1      40.883  25.232  28.211  1.00  0.00    -0.036 A 
ATOM     75  N   UNL A   1      42.367  26.905  28.190  1.00  0.00    -0.354 N 
ATOM     76  C   UNL A   1      46.398  26.288  26.775  1.00  0.00     0.074 A 
ATOM     77  C   UNL A   1      46.601  24.917  26.360  1.00  0.00    -0.034 C 
ATOM     78  H   UNL A   1      45.293  23.246  26.148  1.00  0.00     0.065 H 
ATOM     79  C   UNL A   1      40.278  26.313  28.726  1.00  0.00    -0.036 A 
ATOM     80  H   UNL A   1      40.452  24.301  28.099  1.00  0.00     0.065 H 
ATOM     81  C   UNL A   1      41.221  27.428  28.736  1.00  0.00     0.049 A 
ATOM     82  H   UNL A   1      43.191  27.428  28.063  1.00  0.00     0.167 HD
ATOM     83  C   UNL A   1      47.346  27.253  26.723  1.00  0.00     0.037 A 
ATOM     84  H   UNL A   1      47.507  24.529  26.052  1.00  0.00     0.065 H 
ATOM     85  H   UNL A   1      39.302  26.352  29.061  1.00  0.00     0.065 H 
ATOM     86  C   UNL A   1      40.960  28.668  29.192  1.00  0.00     0.037 A 
ATOM     87  C   UNL A   1      47.141  28.622  27.121  1.00  0.00     0.049 A 
ATOM     88  C   UNL A   1      42.025  29.725  29.100  1.00  0.00     0.074 A 
ATOM     89  C   UNL A   1      48.032  29.679  27.073  1.00  0.00    -0.036 A 
ATOM     90  N   UNL A   1      45.955  29.122  27.638  1.00  0.00    -0.354 N 
ATOM     91  N   UNL A   1      43.252  29.625  28.650  1.00  0.00    -0.248 NA
ATOM     92  C   UNL A   1      41.664  31.071  29.565  1.00  0.00    -0.034 C 
ATOM     93  C   UNL A   1      47.395  30.814  27.587  1.00  0.00    -0.036 A 
ATOM     94  H   UNL A   1      49.001  29.638  26.719  1.00  0.00     0.065 H 
ATOM     95  C   UNL A   1      46.096  30.472  27.920  1.00  0.00     0.049 A 
ATOM     96  H   UNL A   1      45.136  28.596  27.784  1.00  0.00     0.167 HD
ATOM     97  C   UNL A   1      43.803  30.894  28.763  1.00  0.00     0.074 A 
ATOM     98  C   UNL A   1      42.768  31.754  29.300  1.00  0.00    -0.034 C 
ATOM     99  H   UNL A   1      40.781  31.399  29.988  1.00  0.00     0.065 H 
ATOM    100  H   UNL A   1      47.822  31.748  27.699  1.00  0.00     0.065 H 
ATOM    101  C   UNL A   1      45.055  31.310  28.455  1.00  0.00     0.037 A 
ATOM    102  H   UNL A   1      42.877  32.768  29.457  1.00  0.00     0.065 H 
BRANCH  83 103
ATOM    103  C   UNL A   1      48.696  26.869  26.195  1.00  0.00     0.064 A 
ATOM    104  C   UNL A   1      49.023  27.034  24.841  1.00  0.00     0.173 A 
ATOM    105  C   UNL A   1      49.690  26.380  27.057  1.00  0.00     0.173 A 
ATOM    106  F   UNL A   1      48.104  27.486  23.975  1.00  0.00    -0.203 F 
ATOM    107  C   UNL A   1      50.290  26.707  24.365  1.00  0.00     0.198 A 
ATOM    108  C   UNL A   1      50.964  26.078  26.581  1.00  0.00     0.198 A 
ATOM    109  F   UNL A   1      49.430  26.209  28.361  1.00  0.00    -0.203 F 
ATOM    110  F   UNL A   1      50.569  26.841  23.061  1.00  0.00    -0.200 F 
ATOM    111  C   UNL A   1      51.261  26.238  25.236  1.00  0.00     0.200 A 
ATOM    112  F   UNL A   1      51.905  25.633  27.426  1.00  0.00    -0.200 F 
ATOM    113  F   UNL A   1      52.483  25.933  24.778  1.00  0.00    -0.200 F 
ENDBRANCH  83 103
BRANCH  86 114
ATOM    114  C   UNL A   1      39.623  28.985  29.751  1.00  0.00     0.064 A 
ATOM    115  C   UNL A   1      38.597  29.481  28.934  1.00  0.00     0.173 A 
ATOM    116  C   UNL A   1      39.346  28.811  31.115  1.00  0.00     0.173 A 
ATOM    117  F   UNL A   1      38.823  29.685  27.628  1.00  0.00    -0.203 F 
ATOM    118  C   UNL A   1      37.353  29.814  29.464  1.00  0.00     0.198 A 
ATOM    119  C   UNL A   1      38.092  29.119  31.639  1.00  0.00     0.198 A 
ATOM    120  F   UNL A   1      40.293  28.333  31.937  1.00  0.00    -0.203 F 
ATOM    121  F   UNL A   1      36.406  30.330  28.670  1.00  0.00    -0.200 F 
ATOM    122  C   UNL A   1      37.101  29.628  30.815  1.00  0.00     0.200 A 
ATOM    123  F   UNL A   1      37.848  28.927  32.942  1.00  0.00    -0.200 F 
ATOM    124  F   UNL A   1      35.903  29.947  31.325  1.00  0.00    -0.200 F 
ENDBRANCH  86 114
BRANCH 101 125
ATOM    125  C   UNL A   1      45.365  32.761  28.678  1.00  0.00     0.064 A 
ATOM    126  C   UNL A   1      45.113  33.723  27.689  1.00  0.00     0.173 A 
ATOM    127  C   UNL A   1      45.901  33.196  29.899  1.00  0.00     0.173 A 
ATOM    128  F   UNL A   1      44.615  33.353  26.499  1.00  0.00    -0.203 F 
ATOM    129  C   UNL A   1      45.414  35.065  27.904  1.00  0.00     0.198 A 
ATOM    130  C   UNL A   1      46.177  34.542  30.120  1.00  0.00     0.198 A 
ATOM    131  F   UNL A   1      46.156  32.314  30.878  1.00  0.00    -0.203 F 
ATOM    132  F   UNL A   1      45.210  35.959  26.927  1.00  0.00    -0.200 F 
ATOM    133  C   UNL A   1      45.941  35.473  29.120  1.00  0.00     0.200 A 
ATOM    134  F   UNL A   1      46.680  34.937  31.297  1.00  0.00    -0.200 F 
ATOM    135  F   UNL A   1      46.232  36.765  29.324  1.00  0.00    -0.200 F 
ENDBRANCH 101 125
ENDBRANCH  66  69
ENDBRANCH  56  59
ENDBRANCH  52  55
ENDBRANCH  49  52
ENDBRANCH  46  49
ENDBRANCH   1  46
TORSDOF 17
ENDMDL
MODEL 3
REMARK VINA RESULT:     -11.6      5.075     10.695
REMARK SMILES C[C@@H](C(=O)NCCCCCCNC(=O)c1ccc(-c2c3nc(c(-c4c(F)c(F)c(F)c(F)c4F)c4ccc([nH]4)c(-c4c(F)c(F)c(F)c(F)c4F)c4nc(c(-c5c(F)c(F)c(F)c(F)c5F)c5ccc2[nH]5)C=C4)C=C3)cc1)c1ccc(NC2CCCC2)cc1F
REMARK SMILES IDX 8 1 7 4 6 7 5 10 3 11 4 12 2 14 1 16 78 20 79 21 89 22 80 23
REMARK SMILES IDX 88 25 90 26 81 27 82 30 83 32 84 33 87 34 85 36 86 39 9 46
REMARK SMILES IDX 10 49 11 52 12 55 13 56 14 58 15 59 16 60 77 61 17 62 76 64
REMARK SMILES IDX 18 66 19 69 20 70 70 71 21 72 75 73 69 74 71 75 22 76 74 77
REMARK SMILES IDX 68 79 67 81 23 83 55 86 35 87 54 88 36 89 39 90 53 91 72 92
REMARK SMILES IDX 37 93 38 95 52 97 73 98 40 101 24 103 25 104 33 105 26 106
REMARK SMILES IDX 27 107 31 108 34 109 28 110 29 111 32 112 30 113 56 114
REMARK SMILES IDX 57 115 65 116 58 117 59 118 63 119 66 120 60 121 61 122
REMARK SMILES IDX 64 123 62 124 41 125 42 126 50 127 43 128 44 129 48 130
REMARK SMILES IDX 51 131 45 132 46 133 49 134 47 135
REMARK H PARENT 8 2 8 3 7 5 7 6 6 8 6 9 5 13 2 15 1 17 1 18 1 19 79 24 80 28
REMARK H PARENT 88 29 82 31 83 35 84 37 84 38 87 40 87 41 85 42 85 43 86 44
REMARK H PARENT 86 45 9 47 9 48 10 50 10 51 11 53 11 54 12 57 16 63 77 65
REMARK H PARENT 17 67 76 68 75 78 69 80 71 82 74 84 68 85 36 94 39 96 72 99
REMARK H PARENT 37 100 73 102
REMARK Flexibility Score: inf
ROOT
ATOM      1  C   UNL A   1      36.982  21.925  24.838  1.00  0.00    -0.052 C 
ATOM      2  H   UNL A   1      36.416  22.415  25.602  1.00  0.00     0.027 H 
ATOM      3  H   UNL A   1      38.041  22.018  24.965  1.00  0.00     0.027 H 
ENDROOT
BRANCH   1   4
ATOM      4  C   UNL A   1      36.654  22.599  23.498  1.00  0.00    -0.036 C 
ATOM      5  H   UNL A   1      37.458  23.260  23.250  1.00  0.00     0.028 H 
ATOM      6  H   UNL A   1      36.526  21.813  22.784  1.00  0.00     0.028 H 
BRANCH   4   7
ATOM      7  C   UNL A   1      35.352  23.407  23.498  1.00  0.00     0.017 C 
ATOM      8  H   UNL A   1      35.528  24.361  23.048  1.00  0.00     0.049 H 
ATOM      9  H   UNL A   1      34.610  22.872  22.944  1.00  0.00     0.049 H 
BRANCH   7  10
ATOM     10  N   UNL A   1      34.882  23.598  24.855  1.00  0.00    -0.356 N 
ATOM     11  C   UNL A   1      33.614  23.815  25.314  1.00  0.00     0.227 C 
ATOM     12  O   UNL A   1      33.510  24.283  26.449  1.00  0.00    -0.274 OA
ATOM     13  H   UNL A   1      35.579  23.566  25.550  1.00  0.00     0.163 HD
BRANCH  11  14
ATOM     14  C   UNL A   1      32.405  23.447  24.431  1.00  0.00     0.063 C 
ATOM     15  H   UNL A   1      32.487  23.914  23.472  1.00  0.00     0.045 H 
BRANCH  14  16
ATOM     16  C   UNL A   1      31.142  23.980  25.119  1.00  0.00    -0.049 C 
ATOM     17  H   UNL A   1      30.279  23.533  24.675  1.00  0.00     0.024 H 
ATOM     18  H   UNL A   1      31.094  25.042  25.003  1.00  0.00     0.024 H 
ATOM     19  H   UNL A   1      31.174  23.737  26.161  1.00  0.00     0.024 H 
ENDBRANCH  14  16
BRANCH  14  20
ATOM     20  C   UNL A   1      32.361  21.958  24.079  1.00  0.00     0.000 A 
ATOM     21  C   UNL A   1      32.118  21.552  22.759  1.00  0.00    -0.053 A 
ATOM     22  C   UNL A   1      32.522  20.936  25.017  1.00  0.00     0.129 A 
ATOM     23  C   UNL A   1      32.153  20.200  22.388  1.00  0.00    -0.038 A 
ATOM     24  H   UNL A   1      31.907  22.265  22.043  1.00  0.00     0.063 H 
ATOM     25  C   UNL A   1      32.528  19.587  24.650  1.00  0.00    -0.003 A 
ATOM     26  F   UNL A   1      32.682  21.212  26.320  1.00  0.00    -0.207 F 
ATOM     27  C   UNL A   1      32.373  19.187  23.320  1.00  0.00     0.037 A 
ATOM     28  H   UNL A   1      32.012  19.947  21.398  1.00  0.00     0.064 H 
ATOM     29  H   UNL A   1      32.651  18.868  25.380  1.00  0.00     0.068 H 
BRANCH  27  30
ATOM     30  N   UNL A   1      32.468  17.846  23.016  1.00  0.00    -0.382 N 
ATOM     31  H   UNL A   1      31.876  17.537  22.293  1.00  0.00     0.160 HD
BRANCH  30  32
ATOM     32  C   UNL A   1      33.312  16.822  23.607  1.00  0.00     0.026 C 
ATOM     33  C   UNL A   1      34.699  17.300  24.018  1.00  0.00    -0.033 C 
ATOM     34  C   UNL A   1      32.713  16.126  24.829  1.00  0.00    -0.033 C 
ATOM     35  H   UNL A   1      33.391  16.131  22.793  1.00  0.00     0.053 H 
ATOM     36  C   UNL A   1      35.153  16.229  24.999  1.00  0.00    -0.051 C 
ATOM     37  H   UNL A   1      34.651  18.259  24.490  1.00  0.00     0.029 H 
ATOM     38  H   UNL A   1      35.365  17.422  23.190  1.00  0.00     0.029 H 
ATOM     39  C   UNL A   1      33.893  15.818  25.751  1.00  0.00    -0.051 C 
ATOM     40  H   UNL A   1      32.221  15.222  24.538  1.00  0.00     0.029 H 
ATOM     41  H   UNL A   1      31.983  16.740  25.314  1.00  0.00     0.029 H 
ATOM     42  H   UNL A   1      35.882  16.626  25.675  1.00  0.00     0.027 H 
ATOM     43  H   UNL A   1      35.613  15.400  24.502  1.00  0.00     0.027 H 
ATOM     44  H   UNL A   1      33.806  16.376  26.660  1.00  0.00     0.027 H 
ATOM     45  H   UNL A   1      33.920  14.781  26.009  1.00  0.00     0.027 H 
ENDBRANCH  30  32
ENDBRANCH  27  30
ENDBRANCH  14  20
ENDBRANCH  11  14
ENDBRANCH   7  10
ENDBRANCH   4   7
ENDBRANCH   1   4
BRANCH   1  46
ATOM     46  C   UNL A   1      36.674  20.428  24.906  1.00  0.00    -0.052 C 
ATOM     47  H   UNL A   1      36.130  20.162  24.023  1.00  0.00     0.027 H 
ATOM     48  H   UNL A   1      36.121  20.279  25.810  1.00  0.00     0.027 H 
BRANCH  46  49
ATOM     49  C   UNL A   1      37.898  19.513  25.001  1.00  0.00    -0.036 C 
ATOM     50  H   UNL A   1      38.209  19.271  24.006  1.00  0.00     0.028 H 
ATOM     51  H   UNL A   1      37.591  18.663  25.573  1.00  0.00     0.028 H 
BRANCH  49  52
ATOM     52  C   UNL A   1      39.097  20.108  25.737  1.00  0.00     0.018 C 
ATOM     53  H   UNL A   1      38.791  20.387  26.724  1.00  0.00     0.049 H 
ATOM     54  H   UNL A   1      39.436  20.955  25.177  1.00  0.00     0.049 H 
BRANCH  52  55
ATOM     55  N   UNL A   1      40.205  19.175  25.839  1.00  0.00    -0.352 N 
ATOM     56  C   UNL A   1      41.534  19.417  26.066  1.00  0.00     0.251 C 
ATOM     57  H   UNL A   1      39.965  18.226  25.730  1.00  0.00     0.163 HD
ATOM     58  O   UNL A   1      42.351  18.499  25.960  1.00  0.00    -0.269 OA
BRANCH  56  59
ATOM     59  C   UNL A   1      42.007  20.774  26.411  1.00  0.00     0.039 A 
ATOM     60  C   UNL A   1      42.221  21.689  25.376  1.00  0.00    -0.049 A 
ATOM     61  C   UNL A   1      42.276  21.141  27.734  1.00  0.00    -0.049 A 
ATOM     62  C   UNL A   1      42.654  22.983  25.670  1.00  0.00    -0.053 A 
ATOM     63  H   UNL A   1      42.061  21.407  24.397  1.00  0.00     0.063 H 
ATOM     64  C   UNL A   1      42.655  22.450  28.031  1.00  0.00    -0.053 A 
ATOM     65  H   UNL A   1      42.194  20.443  28.490  1.00  0.00     0.063 H 
ATOM     66  C   UNL A   1      42.848  23.382  27.001  1.00  0.00    -0.014 A 
ATOM     67  H   UNL A   1      42.831  23.651  24.903  1.00  0.00     0.063 H 
ATOM     68  H   UNL A   1      42.793  22.735  29.014  1.00  0.00     0.063 H 
BRANCH  66  69
ATOM     69  C   UNL A   1      43.246  24.777  27.318  1.00  0.00     0.031 A 
ATOM     70  C   UNL A   1      44.648  25.252  27.062  1.00  0.00     0.074 A 
ATOM     71  C   UNL A   1      42.343  25.612  27.869  1.00  0.00     0.049 A 
ATOM     72  N   UNL A   1      45.176  26.430  27.282  1.00  0.00    -0.248 NA
ATOM     73  C   UNL A   1      45.589  24.268  26.502  1.00  0.00    -0.034 C 
ATOM     74  C   UNL A   1      40.966  25.255  28.216  1.00  0.00    -0.036 A 
ATOM     75  N   UNL A   1      42.448  26.930  28.237  1.00  0.00    -0.354 N 
ATOM     76  C   UNL A   1      46.504  26.330  26.889  1.00  0.00     0.074 A 
ATOM     77  C   UNL A   1      46.717  24.963  26.464  1.00  0.00    -0.034 C 
ATOM     78  H   UNL A   1      45.414  23.293  26.214  1.00  0.00     0.065 H 
ATOM     79  C   UNL A   1      40.350  26.331  28.731  1.00  0.00    -0.036 A 
ATOM     80  H   UNL A   1      40.538  24.326  28.087  1.00  0.00     0.065 H 
ATOM     81  C   UNL A   1      41.292  27.447  28.768  1.00  0.00     0.049 A 
ATOM     82  H   UNL A   1      43.274  27.455  28.130  1.00  0.00     0.167 HD
ATOM     83  C   UNL A   1      47.453  27.296  26.863  1.00  0.00     0.037 A 
ATOM     84  H   UNL A   1      47.628  24.579  26.169  1.00  0.00     0.065 H 
ATOM     85  H   UNL A   1      39.369  26.366  29.048  1.00  0.00     0.065 H 
ATOM     86  C   UNL A   1      41.022  28.682  29.230  1.00  0.00     0.037 A 
ATOM     87  C   UNL A   1      47.238  28.661  27.270  1.00  0.00     0.049 A 
ATOM     88  C   UNL A   1      42.087  29.741  29.167  1.00  0.00     0.074 A 
ATOM     89  C   UNL A   1      48.130  29.719  27.248  1.00  0.00    -0.036 A 
ATOM     90  N   UNL A   1      46.044  29.155  27.771  1.00  0.00    -0.354 N 
ATOM     91  N   UNL A   1      43.322  29.647  28.739  1.00  0.00    -0.248 NA
ATOM     92  C   UNL A   1      41.716  31.082  29.639  1.00  0.00    -0.034 C 
ATOM     93  C   UNL A   1      47.482  30.849  27.761  1.00  0.00    -0.036 A 
ATOM     94  H   UNL A   1      49.105  29.683  26.911  1.00  0.00     0.065 H 
ATOM     95  C   UNL A   1      46.177  30.502  28.068  1.00  0.00     0.049 A 
ATOM     96  H   UNL A   1      45.222  28.628  27.897  1.00  0.00     0.167 HD
ATOM     97  C   UNL A   1      43.869  30.915  28.873  1.00  0.00     0.074 A 
ATOM     98  C   UNL A   1      42.824  31.769  29.400  1.00  0.00    -0.034 C 
ATOM     99  H   UNL A   1      40.825  31.406  30.049  1.00  0.00     0.065 H 
ATOM    100  H   UNL A   1      47.906  31.782  27.890  1.00  0.00     0.065 H 
ATOM    101  C   UNL A   1      45.126  31.335  28.592  1.00  0.00     0.037 A 
ATOM    102  H   UNL A   1      42.929  32.781  29.568  1.00  0.00     0.065 H 
BRANCH  83 103
ATOM    103  C   UNL A   1      48.812  26.918  26.356  1.00  0.00     0.064 A 
ATOM    104  C   UNL A   1      49.793  26.403  27.216  1.00  0.00     0.173 A 
ATOM    105  C   UNL A   1      49.123  27.021  24.991  1.00  0.00     0.173 A 
ATOM    106  F   UNL A   1      49.548  26.296  28.530  1.00  0.00    -0.203 F 
ATOM    107  C   UNL A   1      51.041  26.021  26.732  1.00  0.00     0.198 A 
ATOM    108  C   UNL A   1      50.364  26.615  24.507  1.00  0.00     0.198 A 
ATOM    109  F   UNL A   1      48.218  27.503  24.126  1.00  0.00    -0.203 F 
ATOM    110  F   UNL A   1      51.975  25.564  27.578  1.00  0.00    -0.200 F 
ATOM    111  C   UNL A   1      51.323  26.120  25.378  1.00  0.00     0.200 A 
ATOM    112  F   UNL A   1      50.632  26.703  23.196  1.00  0.00    -0.200 F 
ATOM    113  F   UNL A   1      52.521  25.743  24.912  1.00  0.00    -0.200 F 
ENDBRANCH  83 103
BRANCH  86 114
ATOM    114  C   UNL A   1      39.674  28.993  29.769  1.00  0.00     0.064 A 
ATOM    115  C   UNL A   1      39.372  28.784  31.122  1.00  0.00     0.173 A 
ATOM    116  C   UNL A   1      38.659  29.495  28.942  1.00  0.00     0.173 A 
ATOM    117  F   UNL A   1      40.305  28.286  31.946  1.00  0.00    -0.203 F 
ATOM    118  C   UNL A   1      38.098  29.042  31.622  1.00  0.00     0.198 A 
ATOM    119  C   UNL A   1      37.392  29.777  29.448  1.00  0.00     0.198 A 
ATOM    120  F   UNL A   1      38.901  29.717  27.641  1.00  0.00    -0.203 F 
ATOM    121  F   UNL A   1      37.822  28.789  32.908  1.00  0.00    -0.200 F 
ATOM    122  C   UNL A   1      37.111  29.542  30.785  1.00  0.00     0.200 A 
ATOM    123  F   UNL A   1      36.445  30.271  28.640  1.00  0.00    -0.200 F 
ATOM    124  F   UNL A   1      35.885  29.791  31.267  1.00  0.00    -0.200 F 
ENDBRANCH  86 114
BRANCH 101 125
ATOM    125  C   UNL A   1      45.430  32.784  28.834  1.00  0.00     0.064 A 
ATOM    126  C   UNL A   1      45.961  33.225  30.055  1.00  0.00     0.173 A 
ATOM    127  C   UNL A   1      45.207  33.737  27.829  1.00  0.00     0.173 A 
ATOM    128  F   UNL A   1      46.177  32.353  31.051  1.00  0.00    -0.203 F 
ATOM    129  C   UNL A   1      46.230  34.574  30.272  1.00  0.00     0.198 A 
ATOM    130  C   UNL A   1      45.500  35.081  28.041  1.00  0.00     0.198 A 
ATOM    131  F   UNL A   1      44.705  33.363  26.643  1.00  0.00    -0.203 F 
ATOM    132  F   UNL A   1      46.690  34.979  31.463  1.00  0.00    -0.200 F 
ATOM    133  C   UNL A   1      46.003  35.499  29.263  1.00  0.00     0.200 A 
ATOM    134  F   UNL A   1      45.289  35.973  27.064  1.00  0.00    -0.200 F 
ATOM    135  F   UNL A   1      46.261  36.797  29.475  1.00  0.00    -0.200 F 
ENDBRANCH 101 125
ENDBRANCH  66  69
ENDBRANCH  56  59
ENDBRANCH  52  55
ENDBRANCH  49  52
ENDBRANCH  46  49
ENDBRANCH   1  46
TORSDOF 17
ENDMDL
MODEL 4
REMARK VINA RESULT:     -11.5      2.588      8.622
REMARK SMILES C[C@@H](C(=O)NCCCCCCNC(=O)c1ccc(-c2c3nc(c(-c4c(F)c(F)c(F)c(F)c4F)c4ccc([nH]4)c(-c4c(F)c(F)c(F)c(F)c4F)c4nc(c(-c5c(F)c(F)c(F)c(F)c5F)c5ccc2[nH]5)C=C4)C=C3)cc1)c1ccc(NC2CCCC2)cc1F
REMARK SMILES IDX 8 1 7 4 6 7 5 10 3 11 4 12 2 14 1 16 78 20 79 21 89 22 80 23
REMARK SMILES IDX 88 25 90 26 81 27 82 30 83 32 84 33 87 34 85 36 86 39 9 46
REMARK SMILES IDX 10 49 11 52 12 55 13 56 14 58 15 59 16 60 77 61 17 62 76 64
REMARK SMILES IDX 18 66 19 69 20 70 70 71 21 72 75 73 69 74 71 75 22 76 74 77
REMARK SMILES IDX 68 79 67 81 23 83 55 86 35 87 54 88 36 89 39 90 53 91 72 92
REMARK SMILES IDX 37 93 38 95 52 97 73 98 40 101 24 103 25 104 33 105 26 106
REMARK SMILES IDX 27 107 31 108 34 109 28 110 29 111 32 112 30 113 56 114
REMARK SMILES IDX 57 115 65 116 58 117 59 118 63 119 66 120 60 121 61 122
REMARK SMILES IDX 64 123 62 124 41 125 42 126 50 127 43 128 44 129 48 130
REMARK SMILES IDX 51 131 45 132 46 133 49 134 47 135
REMARK H PARENT 8 2 8 3 7 5 7 6 6 8 6 9 5 13 2 15 1 17 1 18 1 19 79 24 80 28
REMARK H PARENT 88 29 82 31 83 35 84 37 84 38 87 40 87 41 85 42 85 43 86 44
REMARK H PARENT 86 45 9 47 9 48 10 50 10 51 11 53 11 54 12 57 16 63 77 65
REMARK H PARENT 17 67 76 68 75 78 69 80 71 82 74 84 68 85 36 94 39 96 72 99
REMARK H PARENT 37 100 73 102
REMARK Flexibility Score: inf
ROOT
ATOM      1  C   UNL A   1      32.414  30.101  26.439  1.00  0.00    -0.052 C 
ATOM      2  H   UNL A   1      32.946  29.591  25.663  1.00  0.00     0.027 H 
ATOM      3  H   UNL A   1      33.038  30.717  27.051  1.00  0.00     0.027 H 
ENDROOT
BRANCH   1   4
ATOM      4  C   UNL A   1      31.810  29.043  27.373  1.00  0.00    -0.036 C 
ATOM      5  H   UNL A   1      31.887  29.403  28.378  1.00  0.00     0.028 H 
ATOM      6  H   UNL A   1      30.797  28.901  27.059  1.00  0.00     0.028 H 
BRANCH   4   7
ATOM      7  C   UNL A   1      32.488  27.672  27.300  1.00  0.00     0.017 C 
ATOM      8  H   UNL A   1      33.263  27.700  26.563  1.00  0.00     0.049 H 
ATOM      9  H   UNL A   1      32.903  27.437  28.258  1.00  0.00     0.049 H 
BRANCH   7  10
ATOM     10  N   UNL A   1      31.522  26.654  26.941  1.00  0.00    -0.356 N 
ATOM     11  C   UNL A   1      31.658  25.581  26.107  1.00  0.00     0.227 C 
ATOM     12  O   UNL A   1      30.617  25.065  25.697  1.00  0.00    -0.274 OA
ATOM     13  H   UNL A   1      30.636  26.749  27.361  1.00  0.00     0.163 HD
BRANCH  11  14
ATOM     14  C   UNL A   1      33.064  25.059  25.751  1.00  0.00     0.063 C 
ATOM     15  H   UNL A   1      33.776  25.375  26.485  1.00  0.00     0.045 H 
BRANCH  14  16
ATOM     16  C   UNL A   1      33.462  25.668  24.401  1.00  0.00    -0.049 C 
ATOM     17  H   UNL A   1      34.377  26.209  24.510  1.00  0.00     0.024 H 
ATOM     18  H   UNL A   1      32.692  26.333  24.069  1.00  0.00     0.024 H 
ATOM     19  H   UNL A   1      33.592  24.886  23.682  1.00  0.00     0.024 H 
ENDBRANCH  14  16
BRANCH  14  20
ATOM     20  C   UNL A   1      33.163  23.532  25.818  1.00  0.00     0.000 A 
ATOM     21  C   UNL A   1      33.805  22.914  26.901  1.00  0.00    -0.053 A 
ATOM     22  C   UNL A   1      32.668  22.681  24.828  1.00  0.00     0.129 A 
ATOM     23  C   UNL A   1      33.841  21.519  27.034  1.00  0.00    -0.038 A 
ATOM     24  H   UNL A   1      34.263  23.500  27.617  1.00  0.00     0.063 H 
ATOM     25  C   UNL A   1      32.731  21.290  24.948  1.00  0.00    -0.003 A 
ATOM     26  F   UNL A   1      32.106  23.170  23.713  1.00  0.00    -0.207 F 
ATOM     27  C   UNL A   1      33.293  20.674  26.070  1.00  0.00     0.037 A 
ATOM     28  H   UNL A   1      34.284  21.105  27.868  1.00  0.00     0.064 H 
ATOM     29  H   UNL A   1      32.352  20.702  24.189  1.00  0.00     0.068 H 
BRANCH  27  30
ATOM     30  N   UNL A   1      33.251  19.300  26.162  1.00  0.00    -0.382 N 
ATOM     31  H   UNL A   1      33.341  18.937  27.073  1.00  0.00     0.160 HD
BRANCH  30  32
ATOM     32  C   UNL A   1      33.095  18.307  25.113  1.00  0.00     0.026 C 
ATOM     33  C   UNL A   1      34.390  17.910  24.415  1.00  0.00    -0.033 C 
ATOM     34  C   UNL A   1      32.424  17.007  25.556  1.00  0.00    -0.033 C 
ATOM     35  H   UNL A   1      32.460  18.833  24.430  1.00  0.00     0.053 H 
ATOM     36  C   UNL A   1      34.033  16.584  23.759  1.00  0.00    -0.051 C 
ATOM     37  H   UNL A   1      35.185  17.788  25.121  1.00  0.00     0.029 H 
ATOM     38  H   UNL A   1      34.735  18.644  23.719  1.00  0.00     0.029 H 
ATOM     39  C   UNL A   1      33.086  15.898  24.738  1.00  0.00    -0.051 C 
ATOM     40  H   UNL A   1      31.374  17.043  25.356  1.00  0.00     0.029 H 
ATOM     41  H   UNL A   1      32.539  16.843  26.608  1.00  0.00     0.029 H 
ATOM     42  H   UNL A   1      34.911  15.992  23.609  1.00  0.00     0.027 H 
ATOM     43  H   UNL A   1      33.585  16.721  22.797  1.00  0.00     0.027 H 
ATOM     44  H   UNL A   1      33.632  15.241  25.381  1.00  0.00     0.027 H 
ATOM     45  H   UNL A   1      32.356  15.313  24.221  1.00  0.00     0.027 H 
ENDBRANCH  30  32
ENDBRANCH  27  30
ENDBRANCH  14  20
ENDBRANCH  11  14
ENDBRANCH   7  10
ENDBRANCH   4   7
ENDBRANCH   1   4
BRANCH   1  46
ATOM     46  C   UNL A   1      31.402  31.041  25.780  1.00  0.00    -0.052 C 
ATOM     47  H   UNL A   1      30.455  30.543  25.756  1.00  0.00     0.027 H 
ATOM     48  H   UNL A   1      31.792  31.264  24.809  1.00  0.00     0.027 H 
BRANCH  46  49
ATOM     49  C   UNL A   1      31.211  32.389  26.481  1.00  0.00    -0.036 C 
ATOM     50  H   UNL A   1      30.390  32.295  27.161  1.00  0.00     0.028 H 
ATOM     51  H   UNL A   1      31.044  33.106  25.705  1.00  0.00     0.028 H 
BRANCH  49  52
ATOM     52  C   UNL A   1      32.421  32.889  27.267  1.00  0.00     0.018 C 
ATOM     53  H   UNL A   1      33.296  32.775  26.661  1.00  0.00     0.049 H 
ATOM     54  H   UNL A   1      32.487  32.311  28.165  1.00  0.00     0.049 H 
BRANCH  52  55
ATOM     55  N   UNL A   1      32.297  34.285  27.649  1.00  0.00    -0.352 N 
ATOM     56  C   UNL A   1      32.990  34.997  28.591  1.00  0.00     0.251 C 
ATOM     57  H   UNL A   1      31.614  34.794  27.157  1.00  0.00     0.163 HD
ATOM     58  O   UNL A   1      32.630  36.140  28.883  1.00  0.00    -0.269 OA
BRANCH  56  59
ATOM     59  C   UNL A   1      34.152  34.404  29.286  1.00  0.00     0.039 A 
ATOM     60  C   UNL A   1      33.942  33.764  30.510  1.00  0.00    -0.049 A 
ATOM     61  C   UNL A   1      35.446  34.502  28.762  1.00  0.00    -0.049 A 
ATOM     62  C   UNL A   1      35.016  33.180  31.184  1.00  0.00    -0.053 A 
ATOM     63  H   UNL A   1      32.994  33.724  30.916  1.00  0.00     0.063 H 
ATOM     64  C   UNL A   1      36.509  33.871  29.408  1.00  0.00    -0.053 A 
ATOM     65  H   UNL A   1      35.613  35.042  27.899  1.00  0.00     0.063 H 
ATOM     66  C   UNL A   1      36.304  33.205  30.625  1.00  0.00    -0.014 A 
ATOM     67  H   UNL A   1      34.862  32.726  32.098  1.00  0.00     0.063 H 
ATOM     68  H   UNL A   1      37.452  33.893  28.988  1.00  0.00     0.063 H 
BRANCH  66  69
ATOM     69  C   UNL A   1      37.434  32.529  31.310  1.00  0.00     0.031 A 
ATOM     70  C   UNL A   1      38.154  31.386  30.652  1.00  0.00     0.074 A 
ATOM     71  C   UNL A   1      37.793  32.930  32.545  1.00  0.00     0.049 A 
ATOM     72  N   UNL A   1      39.156  30.672  31.101  1.00  0.00    -0.248 NA
ATOM     73  C   UNL A   1      37.674  30.976  29.323  1.00  0.00    -0.034 C 
ATOM     74  C   UNL A   1      37.138  33.991  33.311  1.00  0.00    -0.036 A 
ATOM     75  N   UNL A   1      38.794  32.489  33.374  1.00  0.00    -0.354 N 
ATOM     76  C   UNL A   1      39.425  29.733  30.114  1.00  0.00     0.074 A 
ATOM     77  C   UNL A   1      38.450  29.933  29.064  1.00  0.00    -0.034 C 
ATOM     78  H   UNL A   1      36.928  31.393  28.745  1.00  0.00     0.065 H 
ATOM     79  C   UNL A   1      37.764  34.131  34.490  1.00  0.00    -0.036 A 
ATOM     80  H   UNL A   1      36.325  34.542  32.996  1.00  0.00     0.065 H 
ATOM     81  C   UNL A   1      38.850  33.158  34.572  1.00  0.00     0.049 A 
ATOM     82  H   UNL A   1      39.413  31.763  33.134  1.00  0.00     0.167 HD
ATOM     83  C   UNL A   1      40.411  28.805  30.076  1.00  0.00     0.037 A 
ATOM     84  H   UNL A   1      38.370  29.342  28.221  1.00  0.00     0.065 H 
ATOM     85  H   UNL A   1      37.518  34.817  35.222  1.00  0.00     0.065 H 
ATOM     86  C   UNL A   1      39.685  33.007  35.617  1.00  0.00     0.037 A 
ATOM     87  C   UNL A   1      41.393  28.615  31.113  1.00  0.00     0.049 A 
ATOM     88  C   UNL A   1      40.784  31.984  35.538  1.00  0.00     0.074 A 
ATOM     89  C   UNL A   1      42.449  27.722  31.150  1.00  0.00    -0.036 A 
ATOM     90  N   UNL A   1      41.437  29.335  32.297  1.00  0.00    -0.354 N 
ATOM     91  N   UNL A   1      41.062  31.142  34.573  1.00  0.00    -0.248 NA
ATOM     92  C   UNL A   1      41.694  31.900  36.689  1.00  0.00    -0.034 C 
ATOM     93  C   UNL A   1      43.119  27.883  32.368  1.00  0.00    -0.036 A 
ATOM     94  H   UNL A   1      42.701  27.052  30.406  1.00  0.00     0.065 H 
ATOM     95  C   UNL A   1      42.500  28.902  33.074  1.00  0.00     0.049 A 
ATOM     96  H   UNL A   1      40.807  30.049  32.549  1.00  0.00     0.167 HD
ATOM     97  C   UNL A   1      42.185  30.442  34.991  1.00  0.00     0.074 A 
ATOM     98  C   UNL A   1      42.553  30.975  36.287  1.00  0.00    -0.034 C 
ATOM     99  H   UNL A   1      41.671  32.425  37.578  1.00  0.00     0.065 H 
ATOM    100  H   UNL A   1      43.933  27.336  32.687  1.00  0.00     0.065 H 
ATOM    101  C   UNL A   1      42.850  29.443  34.361  1.00  0.00     0.037 A 
ATOM    102  H   UNL A   1      43.378  30.672  36.827  1.00  0.00     0.065 H 
BRANCH  83 103
ATOM    103  C   UNL A   1      40.493  27.931  28.861  1.00  0.00     0.064 A 
ATOM    104  C   UNL A   1      39.785  26.722  28.784  1.00  0.00     0.173 A 
ATOM    105  C   UNL A   1      41.242  28.327  27.742  1.00  0.00     0.173 A 
ATOM    106  F   UNL A   1      39.065  26.295  29.831  1.00  0.00    -0.203 F 
ATOM    107  C   UNL A   1      39.838  25.933  27.638  1.00  0.00     0.198 A 
ATOM    108  C   UNL A   1      41.273  27.546  26.589  1.00  0.00     0.198 A 
ATOM    109  F   UNL A   1      41.932  29.477  27.763  1.00  0.00    -0.203 F 
ATOM    110  F   UNL A   1      39.182  24.765  27.600  1.00  0.00    -0.200 F 
ATOM    111  C   UNL A   1      40.575  26.349  26.540  1.00  0.00     0.200 A 
ATOM    112  F   UNL A   1      41.977  27.954  25.524  1.00  0.00    -0.200 F 
ATOM    113  F   UNL A   1      40.617  25.593  25.434  1.00  0.00    -0.200 F 
ENDBRANCH  83 103
BRANCH  86 114
ATOM    114  C   UNL A   1      39.531  33.863  36.819  1.00  0.00     0.064 A 
ATOM    115  C   UNL A   1      38.778  33.433  37.921  1.00  0.00     0.173 A 
ATOM    116  C   UNL A   1      40.124  35.132  36.888  1.00  0.00     0.173 A 
ATOM    117  F   UNL A   1      38.174  32.236  37.892  1.00  0.00    -0.203 F 
ATOM    118  C   UNL A   1      38.603  34.250  39.035  1.00  0.00     0.198 A 
ATOM    119  C   UNL A   1      39.971  35.938  38.014  1.00  0.00     0.198 A 
ATOM    120  F   UNL A   1      40.860  35.586  35.862  1.00  0.00    -0.203 F 
ATOM    121  F   UNL A   1      37.839  33.834  40.054  1.00  0.00    -0.200 F 
ATOM    122  C   UNL A   1      39.203  35.500  39.082  1.00  0.00     0.200 A 
ATOM    123  F   UNL A   1      40.562  37.139  38.061  1.00  0.00    -0.200 F 
ATOM    124  F   UNL A   1      39.035  36.285  40.155  1.00  0.00    -0.200 F 
ENDBRANCH  86 114
BRANCH 101 125
ATOM    125  C   UNL A   1      44.050  28.877  35.061  1.00  0.00     0.064 A 
ATOM    126  C   UNL A   1      45.328  29.424  34.878  1.00  0.00     0.173 A 
ATOM    127  C   UNL A   1      43.916  27.789  35.936  1.00  0.00     0.173 A 
ATOM    128  F   UNL A   1      45.508  30.454  34.039  1.00  0.00    -0.203 F 
ATOM    129  C   UNL A   1      46.436  28.883  35.525  1.00  0.00     0.198 A 
ATOM    130  C   UNL A   1      45.022  27.267  36.601  1.00  0.00     0.198 A 
ATOM    131  F   UNL A   1      42.713  27.234  36.147  1.00  0.00    -0.203 F 
ATOM    132  F   UNL A   1      47.655  29.390  35.298  1.00  0.00    -0.200 F 
ATOM    133  C   UNL A   1      46.281  27.809  36.389  1.00  0.00     0.200 A 
ATOM    134  F   UNL A   1      44.871  26.234  37.441  1.00  0.00    -0.200 F 
ATOM    135  F   UNL A   1      47.349  27.288  37.009  1.00  0.00    -0.200 F 
ENDBRANCH 101 125
ENDBRANCH  66  69
ENDBRANCH  56  59
ENDBRANCH  52  55
ENDBRANCH  49  52
ENDBRANCH  46  49
ENDBRANCH   1  46
TORSDOF 17
ENDMDL
MODEL 5
REMARK VINA RESULT:     -11.5      2.234      4.485
REMARK SMILES C[C@@H](C(=O)NCCCCCCNC(=O)c1ccc(-c2c3nc(c(-c4c(F)c(F)c(F)c(F)c4F)c4ccc([nH]4)c(-c4c(F)c(F)c(F)c(F)c4F)c4nc(c(-c5c(F)c(F)c(F)c(F)c5F)c5ccc2[nH]5)C=C4)C=C3)cc1)c1ccc(NC2CCCC2)cc1F
REMARK SMILES IDX 8 1 7 4 6 7 5 10 3 11 4 12 2 14 1 16 78 20 79 21 89 22 80 23
REMARK SMILES IDX 88 25 90 26 81 27 82 30 83 32 84 33 87 34 85 36 86 39 9 46
REMARK SMILES IDX 10 49 11 52 12 55 13 56 14 58 15 59 16 60 77 61 17 62 76 64
REMARK SMILES IDX 18 66 19 69 20 70 70 71 21 72 75 73 69 74 71 75 22 76 74 77
REMARK SMILES IDX 68 79 67 81 23 83 55 86 35 87 54 88 36 89 39 90 53 91 72 92
REMARK SMILES IDX 37 93 38 95 52 97 73 98 40 101 24 103 25 104 33 105 26 106
REMARK SMILES IDX 27 107 31 108 34 109 28 110 29 111 32 112 30 113 56 114
REMARK SMILES IDX 57 115 65 116 58 117 59 118 63 119 66 120 60 121 61 122
REMARK SMILES IDX 64 123 62 124 41 125 42 126 50 127 43 128 44 129 48 130
REMARK SMILES IDX 51 131 45 132 46 133 49 134 47 135
REMARK H PARENT 8 2 8 3 7 5 7 6 6 8 6 9 5 13 2 15 1 17 1 18 1 19 79 24 80 28
REMARK H PARENT 88 29 82 31 83 35 84 37 84 38 87 40 87 41 85 42 85 43 86 44
REMARK H PARENT 86 45 9 47 9 48 10 50 10 51 11 53 11 54 12 57 16 63 77 65
REMARK H PARENT 17 67 76 68 75 78 69 80 71 82 74 84 68 85 36 94 39 96 72 99
REMARK H PARENT 37 100 73 102
REMARK Flexibility Score: inf
ROOT
ATOM      1  C   UNL A   1      32.242  29.493  26.500  1.00  0.00    -0.052 C 
ATOM      2  H   UNL A   1      32.635  29.967  27.375  1.00  0.00     0.027 H 
ATOM      3  H   UNL A   1      31.576  28.683  26.717  1.00  0.00     0.027 H 
ENDROOT
BRANCH   1   4
ATOM      4  C   UNL A   1      33.417  28.883  25.724  1.00  0.00    -0.036 C 
ATOM      5  H   UNL A   1      33.262  29.070  24.682  1.00  0.00     0.028 H 
ATOM      6  H   UNL A   1      34.305  29.345  26.101  1.00  0.00     0.028 H 
BRANCH   4   7
ATOM      7  C   UNL A   1      33.590  27.374  25.919  1.00  0.00     0.017 C 
ATOM      8  H   UNL A   1      33.773  26.913  24.971  1.00  0.00     0.049 H 
ATOM      9  H   UNL A   1      34.417  27.201  26.576  1.00  0.00     0.049 H 
BRANCH   7  10
ATOM     10  N   UNL A   1      32.394  26.804  26.505  1.00  0.00    -0.356 N 
ATOM     11  C   UNL A   1      31.438  26.012  25.936  1.00  0.00     0.227 C 
ATOM     12  O   UNL A   1      30.358  25.939  26.524  1.00  0.00    -0.274 OA
ATOM     13  H   UNL A   1      32.248  27.019  27.455  1.00  0.00     0.163 HD
BRANCH  11  14
ATOM     14  C   UNL A   1      31.754  25.242  24.637  1.00  0.00     0.063 C 
ATOM     15  H   UNL A   1      32.553  25.717  24.107  1.00  0.00     0.045 H 
BRANCH  14  16
ATOM     16  C   UNL A   1      30.501  25.279  23.754  1.00  0.00    -0.049 C 
ATOM     17  H   UNL A   1      29.882  24.437  23.978  1.00  0.00     0.024 H 
ATOM     18  H   UNL A   1      30.789  25.247  22.724  1.00  0.00     0.024 H 
ATOM     19  H   UNL A   1      29.958  26.182  23.943  1.00  0.00     0.024 H 
ENDBRANCH  14  16
BRANCH  14  20
ATOM     20  C   UNL A   1      32.309  23.840  24.901  1.00  0.00     0.000 A 
ATOM     21  C   UNL A   1      31.479  22.839  25.425  1.00  0.00    -0.053 A 
ATOM     22  C   UNL A   1      33.641  23.482  24.677  1.00  0.00     0.129 A 
ATOM     23  C   UNL A   1      31.935  21.524  25.601  1.00  0.00    -0.038 A 
ATOM     24  H   UNL A   1      30.509  23.075  25.689  1.00  0.00     0.063 H 
ATOM     25  C   UNL A   1      34.101  22.177  24.881  1.00  0.00    -0.003 A 
ATOM     26  F   UNL A   1      34.537  24.383  24.251  1.00  0.00    -0.207 F 
ATOM     27  C   UNL A   1      33.251  21.159  25.320  1.00  0.00     0.037 A 
ATOM     28  H   UNL A   1      31.279  20.808  25.948  1.00  0.00     0.064 H 
ATOM     29  H   UNL A   1      35.094  21.960  24.701  1.00  0.00     0.068 H 
BRANCH  27  30
ATOM     30  N   UNL A   1      33.749  19.878  25.424  1.00  0.00    -0.382 N 
ATOM     31  H   UNL A   1      34.494  19.768  26.058  1.00  0.00     0.160 HD
BRANCH  30  32
ATOM     32  C   UNL A   1      33.338  18.668  24.733  1.00  0.00     0.026 C 
ATOM     33  C   UNL A   1      32.593  18.903  23.425  1.00  0.00    -0.033 C 
ATOM     34  C   UNL A   1      34.474  17.695  24.417  1.00  0.00    -0.033 C 
ATOM     35  H   UNL A   1      32.677  18.237  25.457  1.00  0.00     0.053 H 
ATOM     36  C   UNL A   1      32.720  17.565  22.713  1.00  0.00    -0.051 C 
ATOM     37  H   UNL A   1      33.051  19.685  22.857  1.00  0.00     0.029 H 
ATOM     38  H   UNL A   1      31.578  19.209  23.568  1.00  0.00     0.029 H 
ATOM     39  C   UNL A   1      34.107  17.048  23.082  1.00  0.00    -0.051 C 
ATOM     40  H   UNL A   1      34.552  16.952  25.183  1.00  0.00     0.029 H 
ATOM     41  H   UNL A   1      35.419  18.195  24.366  1.00  0.00     0.029 H 
ATOM     42  H   UNL A   1      32.637  17.694  21.655  1.00  0.00     0.027 H 
ATOM     43  H   UNL A   1      31.948  16.882  23.002  1.00  0.00     0.027 H 
ATOM     44  H   UNL A   1      34.816  17.324  22.330  1.00  0.00     0.027 H 
ATOM     45  H   UNL A   1      34.113  15.981  23.155  1.00  0.00     0.027 H 
ENDBRANCH  30  32
ENDBRANCH  27  30
ENDBRANCH  14  20
ENDBRANCH  11  14
ENDBRANCH   7  10
ENDBRANCH   4   7
ENDBRANCH   1   4
BRANCH   1  46
ATOM     46  C   UNL A   1      31.419  30.527  25.730  1.00  0.00    -0.052 C 
ATOM     47  H   UNL A   1      30.443  30.119  25.568  1.00  0.00     0.027 H 
ATOM     48  H   UNL A   1      31.956  30.721  24.825  1.00  0.00     0.027 H 
BRANCH  46  49
ATOM     49  C   UNL A   1      31.256  31.881  26.425  1.00  0.00    -0.036 C 
ATOM     50  H   UNL A   1      30.555  31.761  27.225  1.00  0.00     0.028 H 
ATOM     51  H   UNL A   1      30.931  32.566  25.670  1.00  0.00     0.028 H 
BRANCH  49  52
ATOM     52  C   UNL A   1      32.540  32.470  27.008  1.00  0.00     0.018 C 
ATOM     53  H   UNL A   1      33.302  32.442  26.257  1.00  0.00     0.049 H 
ATOM     54  H   UNL A   1      32.808  31.885  27.862  1.00  0.00     0.049 H 
BRANCH  52  55
ATOM     55  N   UNL A   1      32.371  33.844  27.449  1.00  0.00    -0.352 N 
ATOM     56  C   UNL A   1      33.048  34.541  28.413  1.00  0.00     0.251 C 
ATOM     57  H   UNL A   1      31.664  34.349  26.985  1.00  0.00     0.163 HD
ATOM     58  O   UNL A   1      32.651  35.658  28.755  1.00  0.00    -0.269 OA
BRANCH  56  59
ATOM     59  C   UNL A   1      34.238  33.961  29.071  1.00  0.00     0.039 A 
ATOM     60  C   UNL A   1      34.050  32.961  30.028  1.00  0.00    -0.049 A 
ATOM     61  C   UNL A   1      35.529  34.418  28.782  1.00  0.00    -0.049 A 
ATOM     62  C   UNL A   1      35.154  32.381  30.656  1.00  0.00    -0.053 A 
ATOM     63  H   UNL A   1      33.096  32.650  30.270  1.00  0.00     0.063 H 
ATOM     64  C   UNL A   1      36.634  33.801  29.370  1.00  0.00    -0.053 A 
ATOM     65  H   UNL A   1      35.663  35.210  28.135  1.00  0.00     0.063 H 
ATOM     66  C   UNL A   1      36.456  32.779  30.313  1.00  0.00    -0.014 A 
ATOM     67  H   UNL A   1      35.012  31.657  31.377  1.00  0.00     0.063 H 
ATOM     68  H   UNL A   1      37.587  34.099  29.108  1.00  0.00     0.063 H 
BRANCH  66  69
ATOM     69  C   UNL A   1      37.632  32.119  30.934  1.00  0.00     0.031 A 
ATOM     70  C   UNL A   1      38.094  32.512  32.308  1.00  0.00     0.074 A 
ATOM     71  C   UNL A   1      38.305  31.181  30.240  1.00  0.00     0.049 A 
ATOM     72  N   UNL A   1      39.102  32.050  33.005  1.00  0.00    -0.248 NA
ATOM     73  C   UNL A   1      37.336  33.576  32.984  1.00  0.00    -0.034 C 
ATOM     74  C   UNL A   1      37.988  30.751  28.876  1.00  0.00    -0.036 A 
ATOM     75  N   UNL A   1      39.396  30.423  30.583  1.00  0.00    -0.354 N 
ATOM     76  C   UNL A   1      39.100  32.766  34.195  1.00  0.00     0.074 A 
ATOM     77  C   UNL A   1      38.021  33.727  34.108  1.00  0.00    -0.034 C 
ATOM     78  H   UNL A   1      36.491  34.075  32.664  1.00  0.00     0.065 H 
ATOM     79  C   UNL A   1      38.854  29.794  28.506  1.00  0.00    -0.036 A 
ATOM     80  H   UNL A   1      37.223  31.124  28.294  1.00  0.00     0.065 H 
ATOM     81  C   UNL A   1      39.798  29.557  29.595  1.00  0.00     0.049 A 
ATOM     82  H   UNL A   1      39.848  30.492  31.455  1.00  0.00     0.167 HD
ATOM     83  C   UNL A   1      39.908  32.618  35.272  1.00  0.00     0.037 A 
ATOM     84  H   UNL A   1      37.812  34.436  34.828  1.00  0.00     0.065 H 
ATOM     85  H   UNL A   1      38.854  29.304  27.597  1.00  0.00     0.065 H 
ATOM     86  C   UNL A   1      40.810  28.671  29.572  1.00  0.00     0.037 A 
ATOM     87  C   UNL A   1      40.971  31.651  35.367  1.00  0.00     0.049 A 
ATOM     88  C   UNL A   1      41.677  28.512  30.790  1.00  0.00     0.074 A 
ATOM     89  C   UNL A   1      41.822  31.404  36.430  1.00  0.00    -0.036 A 
ATOM     90  N   UNL A   1      41.326  30.768  34.358  1.00  0.00    -0.354 N 
ATOM     91  N   UNL A   1      41.626  29.155  31.931  1.00  0.00    -0.248 NA
ATOM     92  C   UNL A   1      42.734  27.493  30.723  1.00  0.00    -0.034 C 
ATOM     93  C   UNL A   1      42.711  30.389  36.055  1.00  0.00    -0.036 A 
ATOM     94  H   UNL A   1      41.805  31.885  37.343  1.00  0.00     0.065 H 
ATOM     95  C   UNL A   1      42.389  29.980  34.772  1.00  0.00     0.049 A 
ATOM     96  H   UNL A   1      40.889  30.710  33.478  1.00  0.00     0.167 HD
ATOM     97  C   UNL A   1      42.629  28.609  32.721  1.00  0.00     0.074 A 
ATOM     98  C   UNL A   1      43.257  27.565  31.938  1.00  0.00    -0.034 C 
ATOM     99  H   UNL A   1      42.999  26.880  29.934  1.00  0.00     0.065 H 
ATOM    100  H   UNL A   1      43.476  30.011  36.635  1.00  0.00     0.065 H 
ATOM    101  C   UNL A   1      43.000  28.946  33.979  1.00  0.00     0.037 A 
ATOM    102  H   UNL A   1      44.014  26.955  32.282  1.00  0.00     0.065 H 
BRANCH  83 103
ATOM    103  C   UNL A   1      39.662  33.511  36.451  1.00  0.00     0.064 A 
ATOM    104  C   UNL A   1      38.806  33.124  37.492  1.00  0.00     0.173 A 
ATOM    105  C   UNL A   1      40.326  34.742  36.568  1.00  0.00     0.173 A 
ATOM    106  F   UNL A   1      38.139  31.962  37.421  1.00  0.00    -0.203 F 
ATOM    107  C   UNL A   1      38.609  33.944  38.600  1.00  0.00     0.198 A 
ATOM    108  C   UNL A   1      40.145  35.548  37.690  1.00  0.00     0.198 A 
ATOM    109  F   UNL A   1      41.159  35.156  35.602  1.00  0.00    -0.203 F 
ATOM    110  F   UNL A   1      37.760  33.568  39.567  1.00  0.00    -0.200 F 
ATOM    111  C   UNL A   1      39.284  35.150  38.702  1.00  0.00     0.200 A 
ATOM    112  F   UNL A   1      40.805  36.710  37.792  1.00  0.00    -0.200 F 
ATOM    113  F   UNL A   1      39.101  35.934  39.773  1.00  0.00    -0.200 F 
ENDBRANCH  83 103
BRANCH  86 114
ATOM    114  C   UNL A   1      41.044  27.844  28.362  1.00  0.00     0.064 A 
ATOM    115  C   UNL A   1      40.424  26.596  28.209  1.00  0.00     0.173 A 
ATOM    116  C   UNL A   1      41.900  28.279  27.339  1.00  0.00     0.173 A 
ATOM    117  F   UNL A   1      39.614  26.130  29.171  1.00  0.00    -0.203 F 
ATOM    118  C   UNL A   1      40.670  25.803  27.091  1.00  0.00     0.198 A 
ATOM    119  C   UNL A   1      42.125  27.496  26.209  1.00  0.00     0.198 A 
ATOM    120  F   UNL A   1      42.512  29.469  27.436  1.00  0.00    -0.203 F 
ATOM    121  F   UNL A   1      40.102  24.594  26.993  1.00  0.00    -0.200 F 
ATOM    122  C   UNL A   1      41.517  26.256  26.090  1.00  0.00     0.200 A 
ATOM    123  F   UNL A   1      42.934  27.942  25.239  1.00  0.00    -0.200 F 
ATOM    124  F   UNL A   1      41.753  25.493  25.014  1.00  0.00    -0.200 F 
ENDBRANCH  86 114
BRANCH 101 125
ATOM    125  C   UNL A   1      44.127  28.166  34.588  1.00  0.00     0.064 A 
ATOM    126  C   UNL A   1      45.458  28.597  34.480  1.00  0.00     0.173 A 
ATOM    127  C   UNL A   1      43.872  26.986  35.303  1.00  0.00     0.173 A 
ATOM    128  F   UNL A   1      45.752  29.710  33.793  1.00  0.00    -0.203 F 
ATOM    129  C   UNL A   1      46.496  27.858  35.041  1.00  0.00     0.198 A 
ATOM    130  C   UNL A   1      44.911  26.264  35.884  1.00  0.00     0.198 A 
ATOM    131  F   UNL A   1      42.616  26.535  35.438  1.00  0.00    -0.203 F 
ATOM    132  F   UNL A   1      47.764  28.263  34.883  1.00  0.00    -0.200 F 
ATOM    133  C   UNL A   1      46.221  26.696  35.746  1.00  0.00     0.200 A 
ATOM    134  F   UNL A   1      44.644  25.145  36.571  1.00  0.00    -0.200 F 
ATOM    135  F   UNL A   1      47.222  25.986  36.283  1.00  0.00    -0.200 F 
ENDBRANCH 101 125
ENDBRANCH  66  69
ENDBRANCH  56  59
ENDBRANCH  52  55
ENDBRANCH  49  52
ENDBRANCH  46  49
ENDBRANCH   1  46
TORSDOF 17
ENDMDL
MODEL 6
REMARK VINA RESULT:     -11.4      4.447      8.813
REMARK SMILES C[C@@H](C(=O)NCCCCCCNC(=O)c1ccc(-c2c3nc(c(-c4c(F)c(F)c(F)c(F)c4F)c4ccc([nH]4)c(-c4c(F)c(F)c(F)c(F)c4F)c4nc(c(-c5c(F)c(F)c(F)c(F)c5F)c5ccc2[nH]5)C=C4)C=C3)cc1)c1ccc(NC2CCCC2)cc1F
REMARK SMILES IDX 8 1 7 4 6 7 5 10 3 11 4 12 2 14 1 16 78 20 79 21 89 22 80 23
REMARK SMILES IDX 88 25 90 26 81 27 82 30 83 32 84 33 87 34 85 36 86 39 9 46
REMARK SMILES IDX 10 49 11 52 12 55 13 56 14 58 15 59 16 60 77 61 17 62 76 64
REMARK SMILES IDX 18 66 19 69 20 70 70 71 21 72 75 73 69 74 71 75 22 76 74 77
REMARK SMILES IDX 68 79 67 81 23 83 55 86 35 87 54 88 36 89 39 90 53 91 72 92
REMARK SMILES IDX 37 93 38 95 52 97 73 98 40 101 24 103 25 104 33 105 26 106
REMARK SMILES IDX 27 107 31 108 34 109 28 110 29 111 32 112 30 113 56 114
REMARK SMILES IDX 57 115 65 116 58 117 59 118 63 119 66 120 60 121 61 122
REMARK SMILES IDX 64 123 62 124 41 125 42 126 50 127 43 128 44 129 48 130
REMARK SMILES IDX 51 131 45 132 46 133 49 134 47 135
REMARK H PARENT 8 2 8 3 7 5 7 6 6 8 6 9 5 13 2 15 1 17 1 18 1 19 79 24 80 28
REMARK H PARENT 88 29 82 31 83 35 84 37 84 38 87 40 87 41 85 42 85 43 86 44
REMARK H PARENT 86 45 9 47 9 48 10 50 10 51 11 53 11 54 12 57 16 63 77 65
REMARK H PARENT 17 67 76 68 75 78 69 80 71 82 74 84 68 85 36 94 39 96 72 99
REMARK H PARENT 37 100 73 102
REMARK Flexibility Score: inf
ROOT
ATOM      1  C   UNL A   1      37.536  32.931  30.322  1.00  0.00    -0.052 C 
ATOM      2  H   UNL A   1      36.596  32.726  30.791  1.00  0.00     0.027 H 
ATOM      3  H   UNL A   1      38.148  32.063  30.194  1.00  0.00     0.027 H 
ENDROOT
BRANCH   1   4
ATOM      4  C   UNL A   1      38.325  33.877  31.238  1.00  0.00    -0.036 C 
ATOM      5  H   UNL A   1      39.096  33.312  31.718  1.00  0.00     0.028 H 
ATOM      6  H   UNL A   1      38.709  34.657  30.613  1.00  0.00     0.028 H 
BRANCH   4   7
ATOM      7  C   UNL A   1      37.484  34.558  32.321  1.00  0.00     0.017 C 
ATOM      8  H   UNL A   1      37.015  35.428  31.911  1.00  0.00     0.049 H 
ATOM      9  H   UNL A   1      36.741  33.872  32.668  1.00  0.00     0.049 H 
BRANCH   7  10
ATOM     10  N   UNL A   1      38.323  34.948  33.436  1.00  0.00    -0.356 N 
ATOM     11  C   UNL A   1      38.358  34.461  34.711  1.00  0.00     0.227 C 
ATOM     12  O   UNL A   1      38.903  35.170  35.559  1.00  0.00    -0.274 OA
ATOM     13  H   UNL A   1      38.965  35.671  33.246  1.00  0.00     0.163 HD
BRANCH  11  14
ATOM     14  C   UNL A   1      37.759  33.074  35.020  1.00  0.00     0.063 C 
ATOM     15  H   UNL A   1      36.834  32.943  34.498  1.00  0.00     0.045 H 
BRANCH  14  16
ATOM     16  C   UNL A   1      37.477  33.009  36.525  1.00  0.00    -0.049 C 
ATOM     17  H   UNL A   1      36.536  32.529  36.691  1.00  0.00     0.024 H 
ATOM     18  H   UNL A   1      37.447  34.001  36.926  1.00  0.00     0.024 H 
ATOM     19  H   UNL A   1      38.252  32.453  37.010  1.00  0.00     0.024 H 
ENDBRANCH  14  16
BRANCH  14  20
ATOM     20  C   UNL A   1      38.617  31.926  34.480  1.00  0.00     0.000 A 
ATOM     21  C   UNL A   1      39.982  31.859  34.790  1.00  0.00    -0.053 A 
ATOM     22  C   UNL A   1      38.125  30.921  33.644  1.00  0.00     0.129 A 
ATOM     23  C   UNL A   1      40.777  30.779  34.380  1.00  0.00    -0.038 A 
ATOM     24  H   UNL A   1      40.414  32.624  35.333  1.00  0.00     0.063 H 
ATOM     25  C   UNL A   1      38.926  29.860  33.212  1.00  0.00    -0.003 A 
ATOM     26  F   UNL A   1      36.853  30.933  33.222  1.00  0.00    -0.207 F 
ATOM     27  C   UNL A   1      40.265  29.747  33.594  1.00  0.00     0.037 A 
ATOM     28  H   UNL A   1      41.767  30.746  34.667  1.00  0.00     0.064 H 
ATOM     29  H   UNL A   1      38.518  29.140  32.595  1.00  0.00     0.068 H 
BRANCH  27  30
ATOM     30  N   UNL A   1      40.976  28.635  33.198  1.00  0.00    -0.382 N 
ATOM     31  H   UNL A   1      40.667  28.214  32.364  1.00  0.00     0.160 HD
BRANCH  30  32
ATOM     32  C   UNL A   1      42.114  27.992  33.832  1.00  0.00     0.026 C 
ATOM     33  C   UNL A   1      41.758  26.840  34.763  1.00  0.00    -0.033 C 
ATOM     34  C   UNL A   1      43.168  27.455  32.862  1.00  0.00    -0.033 C 
ATOM     35  H   UNL A   1      42.518  28.807  34.397  1.00  0.00     0.053 H 
ATOM     36  C   UNL A   1      43.070  26.079  34.885  1.00  0.00    -0.051 C 
ATOM     37  H   UNL A   1      40.994  26.224  34.337  1.00  0.00     0.029 H 
ATOM     38  H   UNL A   1      41.371  27.166  35.706  1.00  0.00     0.029 H 
ATOM     39  C   UNL A   1      43.721  26.186  33.510  1.00  0.00    -0.051 C 
ATOM     40  H   UNL A   1      43.948  28.175  32.724  1.00  0.00     0.029 H 
ATOM     41  H   UNL A   1      42.750  27.256  31.897  1.00  0.00     0.029 H 
ATOM     42  H   UNL A   1      42.887  25.055  35.135  1.00  0.00     0.027 H 
ATOM     43  H   UNL A   1      43.694  26.478  35.656  1.00  0.00     0.027 H 
ATOM     44  H   UNL A   1      43.474  25.331  32.917  1.00  0.00     0.027 H 
ATOM     45  H   UNL A   1      44.786  26.227  33.591  1.00  0.00     0.027 H 
ENDBRANCH  30  32
ENDBRANCH  27  30
ENDBRANCH  14  20
ENDBRANCH  11  14
ENDBRANCH   7  10
ENDBRANCH   4   7
ENDBRANCH   1   4
BRANCH   1  46
ATOM     46  C   UNL A   1      37.258  33.468  28.917  1.00  0.00    -0.052 C 
ATOM     47  H   UNL A   1      37.844  32.900  28.224  1.00  0.00     0.027 H 
ATOM     48  H   UNL A   1      37.511  34.507  28.939  1.00  0.00     0.027 H 
BRANCH  46  49
ATOM     49  C   UNL A   1      35.795  33.396  28.468  1.00  0.00    -0.036 C 
ATOM     50  H   UNL A   1      35.768  32.946  27.498  1.00  0.00     0.028 H 
ATOM     51  H   UNL A   1      35.430  34.401  28.485  1.00  0.00     0.028 H 
BRANCH  49  52
ATOM     52  C   UNL A   1      34.874  32.595  29.386  1.00  0.00     0.018 C 
ATOM     53  H   UNL A   1      34.150  33.259  29.811  1.00  0.00     0.049 H 
ATOM     54  H   UNL A   1      35.480  32.140  30.141  1.00  0.00     0.049 H 
BRANCH  52  55
ATOM     55  N   UNL A   1      34.175  31.533  28.682  1.00  0.00    -0.352 N 
ATOM     56  C   UNL A   1      34.660  30.361  28.168  1.00  0.00     0.251 C 
ATOM     57  H   UNL A   1      33.210  31.679  28.557  1.00  0.00     0.163 HD
ATOM     58  O   UNL A   1      33.935  29.656  27.460  1.00  0.00    -0.269 OA
BRANCH  56  59
ATOM     59  C   UNL A   1      36.052  29.938  28.427  1.00  0.00     0.039 A 
ATOM     60  C   UNL A   1      36.993  30.078  27.404  1.00  0.00    -0.049 A 
ATOM     61  C   UNL A   1      36.430  29.375  29.651  1.00  0.00    -0.049 A 
ATOM     62  C   UNL A   1      38.320  29.703  27.621  1.00  0.00    -0.053 A 
ATOM     63  H   UNL A   1      36.707  30.457  26.488  1.00  0.00     0.063 H 
ATOM     64  C   UNL A   1      37.766  29.051  29.886  1.00  0.00    -0.053 A 
ATOM     65  H   UNL A   1      35.720  29.198  30.379  1.00  0.00     0.063 H 
ATOM     66  C   UNL A   1      38.723  29.211  28.873  1.00  0.00    -0.014 A 
ATOM     67  H   UNL A   1      39.009  29.788  26.858  1.00  0.00     0.063 H 
ATOM     68  H   UNL A   1      38.053  28.693  30.811  1.00  0.00     0.063 H 
BRANCH  66  69
ATOM     69  C   UNL A   1      40.146  28.873  29.126  1.00  0.00     0.031 A 
ATOM     70  C   UNL A   1      41.047  29.837  29.845  1.00  0.00     0.074 A 
ATOM     71  C   UNL A   1      40.635  27.701  28.677  1.00  0.00     0.049 A 
ATOM     72  N   UNL A   1      42.315  29.714  30.147  1.00  0.00    -0.248 NA
ATOM     73  C   UNL A   1      40.451  31.115  30.263  1.00  0.00    -0.034 C 
ATOM     74  C   UNL A   1      39.876  26.704  27.919  1.00  0.00    -0.036 A 
ATOM     75  N   UNL A   1      41.888  27.150  28.789  1.00  0.00    -0.354 N 
ATOM     76  C   UNL A   1      42.668  30.895  30.788  1.00  0.00     0.074 A 
ATOM     77  C   UNL A   1      41.494  31.742  30.787  1.00  0.00    -0.034 C 
ATOM     78  H   UNL A   1      39.475  31.438  30.171  1.00  0.00     0.065 H 
ATOM     79  C   UNL A   1      40.673  25.658  27.649  1.00  0.00    -0.036 A 
ATOM     80  H   UNL A   1      38.888  26.793  27.636  1.00  0.00     0.065 H 
ATOM     81  C   UNL A   1      42.002  25.917  28.196  1.00  0.00     0.049 A 
ATOM     82  H   UNL A   1      42.633  27.597  29.251  1.00  0.00     0.167 HD
ATOM     83  C   UNL A   1      43.855  31.231  31.348  1.00  0.00     0.037 A 
ATOM     84  H   UNL A   1      41.472  32.709  31.149  1.00  0.00     0.065 H 
ATOM     85  H   UNL A   1      40.392  24.806  27.137  1.00  0.00     0.065 H 
ATOM     86  C   UNL A   1      43.058  25.087  28.106  1.00  0.00     0.037 A 
ATOM     87  C   UNL A   1      45.018  30.383  31.363  1.00  0.00     0.049 A 
ATOM     88  C   UNL A   1      44.357  25.477  28.757  1.00  0.00     0.074 A 
ATOM     89  C   UNL A   1      46.256  30.624  31.934  1.00  0.00    -0.036 A 
ATOM     90  N   UNL A   1      45.085  29.126  30.782  1.00  0.00    -0.354 N 
ATOM     91  N   UNL A   1      44.658  26.572  29.411  1.00  0.00    -0.248 NA
ATOM     92  C   UNL A   1      45.458  24.508  28.669  1.00  0.00    -0.034 C 
ATOM     93  C   UNL A   1      47.081  29.523  31.676  1.00  0.00    -0.036 A 
ATOM     94  H   UNL A   1      46.524  31.469  32.462  1.00  0.00     0.065 H 
ATOM     95  C   UNL A   1      46.345  28.582  30.975  1.00  0.00     0.049 A 
ATOM     96  H   UNL A   1      44.347  28.685  30.302  1.00  0.00     0.167 HD
ATOM     97  C   UNL A   1      45.974  26.417  29.825  1.00  0.00     0.074 A 
ATOM     98  C   UNL A   1      46.406  25.112  29.370  1.00  0.00    -0.034 C 
ATOM     99  H   UNL A   1      45.486  23.595  28.187  1.00  0.00     0.065 H 
ATOM    100  H   UNL A   1      48.069  29.429  31.958  1.00  0.00     0.065 H 
ATOM    101  C   UNL A   1      46.757  27.282  30.515  1.00  0.00     0.037 A 
ATOM    102  H   UNL A   1      47.333  24.704  29.567  1.00  0.00     0.065 H 
BRANCH  83 103
ATOM    103  C   UNL A   1      43.952  32.572  32.011  1.00  0.00     0.064 A 
ATOM    104  C   UNL A   1      44.086  33.749  31.260  1.00  0.00     0.173 A 
ATOM    105  C   UNL A   1      43.857  32.690  33.406  1.00  0.00     0.173 A 
ATOM    106  F   UNL A   1      44.192  33.687  29.924  1.00  0.00    -0.203 F 
ATOM    107  C   UNL A   1      44.141  34.993  31.881  1.00  0.00     0.198 A 
ATOM    108  C   UNL A   1      43.888  33.939  34.023  1.00  0.00     0.198 A 
ATOM    109  F   UNL A   1      43.723  31.595  34.170  1.00  0.00    -0.203 F 
ATOM    110  F   UNL A   1      44.304  36.101  31.145  1.00  0.00    -0.200 F 
ATOM    111  C   UNL A   1      44.034  35.088  33.260  1.00  0.00     0.200 A 
ATOM    112  F   UNL A   1      43.775  34.030  35.355  1.00  0.00    -0.200 F 
ATOM    113  F   UNL A   1      44.077  36.287  33.857  1.00  0.00    -0.200 F 
ENDBRANCH  83 103
BRANCH  86 114
ATOM    114  C   UNL A   1      42.925  23.792  27.395  1.00  0.00     0.064 A 
ATOM    115  C   UNL A   1      43.314  23.661  26.055  1.00  0.00     0.173 A 
ATOM    116  C   UNL A   1      42.396  22.662  28.036  1.00  0.00     0.173 A 
ATOM    117  F   UNL A   1      43.806  24.720  25.395  1.00  0.00    -0.203 F 
ATOM    118  C   UNL A   1      43.157  22.455  25.374  1.00  0.00     0.198 A 
ATOM    119  C   UNL A   1      42.264  21.449  27.363  1.00  0.00     0.198 A 
ATOM    120  F   UNL A   1      42.015  22.735  29.320  1.00  0.00    -0.203 F 
ATOM    121  F   UNL A   1      43.493  22.371  24.081  1.00  0.00    -0.200 F 
ATOM    122  C   UNL A   1      42.636  21.350  26.031  1.00  0.00     0.200 A 
ATOM    123  F   UNL A   1      41.771  20.381  28.003  1.00  0.00    -0.200 F 
ATOM    124  F   UNL A   1      42.486  20.190  25.376  1.00  0.00    -0.200 F 
ENDBRANCH  86 114
BRANCH 101 125
ATOM    125  C   UNL A   1      48.152  26.832  30.831  1.00  0.00     0.064 A 
ATOM    126  C   UNL A   1      49.229  27.144  29.989  1.00  0.00     0.173 A 
ATOM    127  C   UNL A   1      48.418  26.099  31.997  1.00  0.00     0.173 A 
ATOM    128  F   UNL A   1      49.022  27.830  28.855  1.00  0.00    -0.203 F 
ATOM    129  C   UNL A   1      50.519  26.713  30.288  1.00  0.00     0.198 A 
ATOM    130  C   UNL A   1      49.712  25.690  32.305  1.00  0.00     0.198 A 
ATOM    131  F   UNL A   1      47.421  25.779  32.836  1.00  0.00    -0.203 F 
ATOM    132  F   UNL A   1      51.525  26.981  29.444  1.00  0.00    -0.200 F 
ATOM    133  C   UNL A   1      50.759  25.990  31.447  1.00  0.00     0.200 A 
ATOM    134  F   UNL A   1      49.945  24.999  33.429  1.00  0.00    -0.200 F 
ATOM    135  F   UNL A   1      52.001  25.574  31.732  1.00  0.00    -0.200 F 
ENDBRANCH 101 125
ENDBRANCH  66  69
ENDBRANCH  56  59
ENDBRANCH  52  55
ENDBRANCH  49  52
ENDBRANCH  46  49
ENDBRANCH   1  46
TORSDOF 17
ENDMDL
MODEL 7
REMARK VINA RESULT:     -11.4      2.586      8.741
REMARK SMILES C[C@@H](C(=O)NCCCCCCNC(=O)c1ccc(-c2c3nc(c(-c4c(F)c(F)c(F)c(F)c4F)c4ccc([nH]4)c(-c4c(F)c(F)c(F)c(F)c4F)c4nc(c(-c5c(F)c(F)c(F)c(F)c5F)c5ccc2[nH]5)C=C4)C=C3)cc1)c1ccc(NC2CCCC2)cc1F
REMARK SMILES IDX 8 1 7 4 6 7 5 10 3 11 4 12 2 14 1 16 78 20 79 21 89 22 80 23
REMARK SMILES IDX 88 25 90 26 81 27 82 30 83 32 84 33 87 34 85 36 86 39 9 46
REMARK SMILES IDX 10 49 11 52 12 55 13 56 14 58 15 59 16 60 77 61 17 62 76 64
REMARK SMILES IDX 18 66 19 69 20 70 70 71 21 72 75 73 69 74 71 75 22 76 74 77
REMARK SMILES IDX 68 79 67 81 23 83 55 86 35 87 54 88 36 89 39 90 53 91 72 92
REMARK SMILES IDX 37 93 38 95 52 97 73 98 40 101 24 103 25 104 33 105 26 106
REMARK SMILES IDX 27 107 31 108 34 109 28 110 29 111 32 112 30 113 56 114
REMARK SMILES IDX 57 115 65 116 58 117 59 118 63 119 66 120 60 121 61 122
REMARK SMILES IDX 64 123 62 124 41 125 42 126 50 127 43 128 44 129 48 130
REMARK SMILES IDX 51 131 45 132 46 133 49 134 47 135
REMARK H PARENT 8 2 8 3 7 5 7 6 6 8 6 9 5 13 2 15 1 17 1 18 1 19 79 24 80 28
REMARK H PARENT 88 29 82 31 83 35 84 37 84 38 87 40 87 41 85 42 85 43 86 44
REMARK H PARENT 86 45 9 47 9 48 10 50 10 51 11 53 11 54 12 57 16 63 77 65
REMARK H PARENT 17 67 76 68 75 78 69 80 71 82 74 84 68 85 36 94 39 96 72 99
REMARK H PARENT 37 100 73 102
REMARK Flexibility Score: inf
ROOT
ATOM      1  C   UNL A   1      32.586  30.151  26.250  1.00  0.00    -0.052 C 
ATOM      2  H   UNL A   1      33.417  30.769  25.978  1.00  0.00     0.027 H 
ATOM      3  H   UNL A   1      32.522  29.962  27.302  1.00  0.00     0.027 H 
ENDROOT
BRANCH   1   4
ATOM      4  C   UNL A   1      32.774  28.782  25.582  1.00  0.00    -0.036 C 
ATOM      5  H   UNL A   1      31.852  28.510  25.113  1.00  0.00     0.028 H 
ATOM      6  H   UNL A   1      33.578  28.891  24.885  1.00  0.00     0.028 H 
BRANCH   4   7
ATOM      7  C   UNL A   1      33.175  27.658  26.542  1.00  0.00     0.017 C 
ATOM      8  H   UNL A   1      33.919  27.046  26.078  1.00  0.00     0.049 H 
ATOM      9  H   UNL A   1      33.563  28.089  27.440  1.00  0.00     0.049 H 
BRANCH   7  10
ATOM     10  N   UNL A   1      32.021  26.844  26.868  1.00  0.00    -0.356 N 
ATOM     11  C   UNL A   1      31.431  25.843  26.150  1.00  0.00     0.227 C 
ATOM     12  O   UNL A   1      30.280  25.539  26.468  1.00  0.00    -0.274 OA
ATOM     13  H   UNL A   1      31.601  27.040  27.737  1.00  0.00     0.163 HD
BRANCH  11  14
ATOM     14  C   UNL A   1      32.217  25.139  25.025  1.00  0.00     0.063 C 
ATOM     15  H   UNL A   1      33.205  25.545  24.950  1.00  0.00     0.045 H 
BRANCH  14  16
ATOM     16  C   UNL A   1      31.485  25.405  23.704  1.00  0.00    -0.049 C 
ATOM     17  H   UNL A   1      32.186  25.381  22.897  1.00  0.00     0.024 H 
ATOM     18  H   UNL A   1      31.019  26.368  23.743  1.00  0.00     0.024 H 
ATOM     19  H   UNL A   1      30.739  24.654  23.552  1.00  0.00     0.024 H 
ENDBRANCH  14  16
BRANCH  14  20
ATOM     20  C   UNL A   1      32.480  23.661  25.324  1.00  0.00     0.000 A 
ATOM     21  C   UNL A   1      31.533  22.690  24.970  1.00  0.00    -0.053 A 
ATOM     22  C   UNL A   1      33.625  23.196  25.976  1.00  0.00     0.129 A 
ATOM     23  C   UNL A   1      31.779  21.322  25.156  1.00  0.00    -0.038 A 
ATOM     24  H   UNL A   1      30.632  22.988  24.564  1.00  0.00     0.063 H 
ATOM     25  C   UNL A   1      33.855  21.833  26.186  1.00  0.00    -0.003 A 
ATOM     26  F   UNL A   1      34.558  24.047  26.427  1.00  0.00    -0.207 F 
ATOM     27  C   UNL A   1      32.950  20.860  25.754  1.00  0.00     0.037 A 
ATOM     28  H   UNL A   1      31.074  20.637  24.841  1.00  0.00     0.064 H 
ATOM     29  H   UNL A   1      34.716  21.538  26.672  1.00  0.00     0.068 H 
BRANCH  27  30
ATOM     30  N   UNL A   1      33.276  19.531  25.921  1.00  0.00    -0.382 N 
ATOM     31  H   UNL A   1      33.674  19.303  26.793  1.00  0.00     0.160 HD
BRANCH  30  32
ATOM     32  C   UNL A   1      33.119  18.419  25.001  1.00  0.00     0.026 C 
ATOM     33  C   UNL A   1      34.394  18.011  24.273  1.00  0.00    -0.033 C 
ATOM     34  C   UNL A   1      32.552  17.144  25.628  1.00  0.00    -0.033 C 
ATOM     35  H   UNL A   1      32.417  18.829  24.305  1.00  0.00     0.053 H 
ATOM     36  C   UNL A   1      34.079  16.603  23.792  1.00  0.00    -0.051 C 
ATOM     37  H   UNL A   1      35.233  18.012  24.936  1.00  0.00     0.029 H 
ATOM     38  H   UNL A   1      34.656  18.678  23.478  1.00  0.00     0.029 H 
ATOM     39  C   UNL A   1      33.230  15.985  24.899  1.00  0.00    -0.051 C 
ATOM     40  H   UNL A   1      31.492  17.103  25.491  1.00  0.00     0.029 H 
ATOM     41  H   UNL A   1      32.735  17.109  26.682  1.00  0.00     0.029 H 
ATOM     42  H   UNL A   1      34.980  16.043  23.654  1.00  0.00     0.027 H 
ATOM     43  H   UNL A   1      33.570  16.605  22.851  1.00  0.00     0.027 H 
ATOM     44  H   UNL A   1      33.849  15.435  25.575  1.00  0.00     0.027 H 
ATOM     45  H   UNL A   1      32.508  15.307  24.497  1.00  0.00     0.027 H 
ENDBRANCH  30  32
ENDBRANCH  27  30
ENDBRANCH  14  20
ENDBRANCH  11  14
ENDBRANCH   7  10
ENDBRANCH   4   7
ENDBRANCH   1   4
BRANCH   1  46
ATOM     46  C   UNL A   1      31.301  30.890  25.871  1.00  0.00    -0.052 C 
ATOM     47  H   UNL A   1      30.471  30.285  26.171  1.00  0.00     0.027 H 
ATOM     48  H   UNL A   1      31.352  31.052  24.814  1.00  0.00     0.027 H 
BRANCH  46  49
ATOM     49  C   UNL A   1      31.133  32.273  26.505  1.00  0.00    -0.036 C 
ATOM     50  H   UNL A   1      30.319  32.222  27.199  1.00  0.00     0.028 H 
ATOM     51  H   UNL A   1      30.963  32.953  25.696  1.00  0.00     0.028 H 
BRANCH  49  52
ATOM     52  C   UNL A   1      32.357  32.799  27.252  1.00  0.00     0.018 C 
ATOM     53  H   UNL A   1      33.215  32.694  26.621  1.00  0.00     0.049 H 
ATOM     54  H   UNL A   1      32.459  32.230  28.152  1.00  0.00     0.049 H 
BRANCH  52  55
ATOM     55  N   UNL A   1      32.222  34.196  27.626  1.00  0.00    -0.352 N 
ATOM     56  C   UNL A   1      32.898  34.915  28.575  1.00  0.00     0.251 C 
ATOM     57  H   UNL A   1      31.544  34.701  27.122  1.00  0.00     0.163 HD
ATOM     58  O   UNL A   1      32.529  36.058  28.856  1.00  0.00    -0.269 OA
BRANCH  56  59
ATOM     59  C   UNL A   1      34.053  34.329  29.289  1.00  0.00     0.039 A 
ATOM     60  C   UNL A   1      33.822  33.661  30.494  1.00  0.00    -0.049 A 
ATOM     61  C   UNL A   1      35.358  34.463  28.802  1.00  0.00    -0.049 A 
ATOM     62  C   UNL A   1      34.889  33.083  31.185  1.00  0.00    -0.053 A 
ATOM     63  H   UNL A   1      32.865  33.595  30.873  1.00  0.00     0.063 H 
ATOM     64  C   UNL A   1      36.415  33.838  29.464  1.00  0.00    -0.053 A 
ATOM     65  H   UNL A   1      35.538  35.023  27.955  1.00  0.00     0.063 H 
ATOM     66  C   UNL A   1      36.190  33.144  30.662  1.00  0.00    -0.014 A 
ATOM     67  H   UNL A   1      34.719  32.607  32.085  1.00  0.00     0.063 H 
ATOM     68  H   UNL A   1      37.369  33.887  29.070  1.00  0.00     0.063 H 
BRANCH  66  69
ATOM     69  C   UNL A   1      37.315  32.474  31.363  1.00  0.00     0.031 A 
ATOM     70  C   UNL A   1      38.031  31.316  30.730  1.00  0.00     0.074 A 
ATOM     71  C   UNL A   1      37.671  32.896  32.592  1.00  0.00     0.049 A 
ATOM     72  N   UNL A   1      39.028  30.606  31.195  1.00  0.00    -0.248 NA
ATOM     73  C   UNL A   1      37.554  30.884  29.406  1.00  0.00    -0.034 C 
ATOM     74  C   UNL A   1      37.018  33.975  33.336  1.00  0.00    -0.036 A 
ATOM     75  N   UNL A   1      38.666  32.466  33.434  1.00  0.00    -0.354 N 
ATOM     76  C   UNL A   1      39.296  29.648  30.227  1.00  0.00     0.074 A 
ATOM     77  C   UNL A   1      38.326  29.833  29.169  1.00  0.00    -0.034 C 
ATOM     78  H   UNL A   1      36.812  31.294  28.818  1.00  0.00     0.065 H 
ATOM     79  C   UNL A   1      37.639  34.134  34.515  1.00  0.00    -0.036 A 
ATOM     80  H   UNL A   1      36.209  34.524  33.007  1.00  0.00     0.065 H 
ATOM     81  C   UNL A   1      38.721  33.157  34.619  1.00  0.00     0.049 A 
ATOM     82  H   UNL A   1      39.283  31.733  33.209  1.00  0.00     0.167 HD
ATOM     83  C   UNL A   1      40.278  28.714  30.210  1.00  0.00     0.037 A 
ATOM     84  H   UNL A   1      38.246  29.227  28.338  1.00  0.00     0.065 H 
ATOM     85  H   UNL A   1      37.394  34.834  35.233  1.00  0.00     0.065 H 
ATOM     86  C   UNL A   1      39.550  33.021  35.670  1.00  0.00     0.037 A 
ATOM     87  C   UNL A   1      41.254  28.539  31.254  1.00  0.00     0.049 A 
ATOM     88  C   UNL A   1      40.645  31.991  35.614  1.00  0.00     0.074 A 
ATOM     89  C   UNL A   1      42.306  27.641  31.311  1.00  0.00    -0.036 A 
ATOM     90  N   UNL A   1      41.298  29.280  32.425  1.00  0.00    -0.354 N 
ATOM     91  N   UNL A   1      40.923  31.130  34.666  1.00  0.00    -0.248 NA
ATOM     92  C   UNL A   1      41.551  31.924  36.770  1.00  0.00    -0.034 C 
ATOM     93  C   UNL A   1      42.972  27.822  32.529  1.00  0.00    -0.036 A 
ATOM     94  H   UNL A   1      42.558  26.957  30.581  1.00  0.00     0.065 H 
ATOM     95  C   UNL A   1      42.355  28.856  33.214  1.00  0.00     0.049 A 
ATOM     96  H   UNL A   1      40.671  30.001  32.661  1.00  0.00     0.167 HD
ATOM     97  C   UNL A   1      42.041  30.433  35.101  1.00  0.00     0.074 A 
ATOM     98  C   UNL A   1      42.407  30.987  36.388  1.00  0.00    -0.034 C 
ATOM     99  H   UNL A   1      41.526  32.465  37.649  1.00  0.00     0.065 H 
ATOM    100  H   UNL A   1      43.783  27.276  32.861  1.00  0.00     0.065 H 
ATOM    101  C   UNL A   1      42.703  29.419  34.492  1.00  0.00     0.037 A 
ATOM    102  H   UNL A   1      43.227  30.691  36.937  1.00  0.00     0.065 H 
BRANCH  83 103
ATOM    103  C   UNL A   1      40.360  27.817  29.011  1.00  0.00     0.064 A 
ATOM    104  C   UNL A   1      41.166  28.145  27.910  1.00  0.00     0.173 A 
ATOM    105  C   UNL A   1      39.671  26.595  28.981  1.00  0.00     0.173 A 
ATOM    106  F   UNL A   1      41.835  29.307  27.886  1.00  0.00    -0.203 F 
ATOM    107  C   UNL A   1      41.264  27.291  26.815  1.00  0.00     0.198 A 
ATOM    108  C   UNL A   1      39.792  25.732  27.895  1.00  0.00     0.198 A 
ATOM    109  F   UNL A   1      38.892  26.233  30.011  1.00  0.00    -0.203 F 
ATOM    110  F   UNL A   1      42.013  27.641  25.760  1.00  0.00    -0.200 F 
ATOM    111  C   UNL A   1      40.584  26.083  26.812  1.00  0.00     0.200 A 
ATOM    112  F   UNL A   1      39.141  24.560  27.896  1.00  0.00    -0.200 F 
ATOM    113  F   UNL A   1      40.688  25.257  25.762  1.00  0.00    -0.200 F 
ENDBRANCH  83 103
BRANCH  86 114
ATOM    114  C   UNL A   1      39.397  33.900  36.855  1.00  0.00     0.064 A 
ATOM    115  C   UNL A   1      39.985  35.172  36.892  1.00  0.00     0.173 A 
ATOM    116  C   UNL A   1      38.669  33.484  37.979  1.00  0.00     0.173 A 
ATOM    117  F   UNL A   1      40.708  35.604  35.849  1.00  0.00    -0.203 F 
ATOM    118  C   UNL A   1      39.872  35.984  38.018  1.00  0.00     0.198 A 
ATOM    119  C   UNL A   1      38.533  34.307  39.095  1.00  0.00     0.198 A 
ATOM    120  F   UNL A   1      38.082  32.277  37.990  1.00  0.00    -0.203 F 
ATOM    121  F   UNL A   1      40.483  37.176  38.045  1.00  0.00    -0.200 F 
ATOM    122  C   UNL A   1      39.143  35.553  39.116  1.00  0.00     0.200 A 
ATOM    123  F   UNL A   1      37.819  33.892  40.149  1.00  0.00    -0.200 F 
ATOM    124  F   UNL A   1      39.033  36.335  40.199  1.00  0.00    -0.200 F 
ENDBRANCH  86 114
BRANCH 101 125
ATOM    125  C   UNL A   1      43.897  28.860  35.207  1.00  0.00     0.064 A 
ATOM    126  C   UNL A   1      45.180  29.395  35.016  1.00  0.00     0.173 A 
ATOM    127  C   UNL A   1      43.755  27.792  36.104  1.00  0.00     0.173 A 
ATOM    128  F   UNL A   1      45.368  30.407  34.157  1.00  0.00    -0.203 F 
ATOM    129  C   UNL A   1      46.282  28.861  35.678  1.00  0.00     0.198 A 
ATOM    130  C   UNL A   1      44.855  27.277  36.783  1.00  0.00     0.198 A 
ATOM    131  F   UNL A   1      42.548  27.248  36.323  1.00  0.00    -0.203 F 
ATOM    132  F   UNL A   1      47.505  29.356  35.444  1.00  0.00    -0.200 F 
ATOM    133  C   UNL A   1      46.118  27.806  36.563  1.00  0.00     0.200 A 
ATOM    134  F   UNL A   1      44.696  26.262  37.644  1.00  0.00    -0.200 F 
ATOM    135  F   UNL A   1      47.181  27.292  37.197  1.00  0.00    -0.200 F 
ENDBRANCH 101 125
ENDBRANCH  66  69
ENDBRANCH  56  59
ENDBRANCH  52  55
ENDBRANCH  49  52
ENDBRANCH  46  49
ENDBRANCH   1  46
TORSDOF 17
ENDMDL
MODEL 8
REMARK VINA RESULT:     -11.3      1.987      4.421
REMARK SMILES C[C@@H](C(=O)NCCCCCCNC(=O)c1ccc(-c2c3nc(c(-c4c(F)c(F)c(F)c(F)c4F)c4ccc([nH]4)c(-c4c(F)c(F)c(F)c(F)c4F)c4nc(c(-c5c(F)c(F)c(F)c(F)c5F)c5ccc2[nH]5)C=C4)C=C3)cc1)c1ccc(NC2CCCC2)cc1F
REMARK SMILES IDX 8 1 7 4 6 7 5 10 3 11 4 12 2 14 1 16 78 20 79 21 89 22 80 23
REMARK SMILES IDX 88 25 90 26 81 27 82 30 83 32 84 33 87 34 85 36 86 39 9 46
REMARK SMILES IDX 10 49 11 52 12 55 13 56 14 58 15 59 16 60 77 61 17 62 76 64
REMARK SMILES IDX 18 66 19 69 20 70 70 71 21 72 75 73 69 74 71 75 22 76 74 77
REMARK SMILES IDX 68 79 67 81 23 83 55 86 35 87 54 88 36 89 39 90 53 91 72 92
REMARK SMILES IDX 37 93 38 95 52 97 73 98 40 101 24 103 25 104 33 105 26 106
REMARK SMILES IDX 27 107 31 108 34 109 28 110 29 111 32 112 30 113 56 114
REMARK SMILES IDX 57 115 65 116 58 117 59 118 63 119 66 120 60 121 61 122
REMARK SMILES IDX 64 123 62 124 41 125 42 126 50 127 43 128 44 129 48 130
REMARK SMILES IDX 51 131 45 132 46 133 49 134 47 135
REMARK H PARENT 8 2 8 3 7 5 7 6 6 8 6 9 5 13 2 15 1 17 1 18 1 19 79 24 80 28
REMARK H PARENT 88 29 82 31 83 35 84 37 84 38 87 40 87 41 85 42 85 43 86 44
REMARK H PARENT 86 45 9 47 9 48 10 50 10 51 11 53 11 54 12 57 16 63 77 65
REMARK H PARENT 17 67 76 68 75 78 69 80 71 82 74 84 68 85 36 94 39 96 72 99
REMARK H PARENT 37 100 73 102
REMARK Flexibility Score: inf
ROOT
ATOM      1  C   UNL A   1      30.160  28.423  23.657  1.00  0.00    -0.052 C 
ATOM      2  H   UNL A   1      29.805  27.739  24.400  1.00  0.00     0.027 H 
ATOM      3  H   UNL A   1      29.384  29.011  23.213  1.00  0.00     0.027 H 
ENDROOT
BRANCH   1   4
ATOM      4  C   UNL A   1      30.780  27.603  22.517  1.00  0.00    -0.036 C 
ATOM      5  H   UNL A   1      30.200  27.769  21.633  1.00  0.00     0.028 H 
ATOM      6  H   UNL A   1      31.792  27.934  22.418  1.00  0.00     0.028 H 
BRANCH   4   7
ATOM      7  C   UNL A   1      30.835  26.095  22.778  1.00  0.00     0.017 C 
ATOM      8  H   UNL A   1      30.748  25.915  23.829  1.00  0.00     0.049 H 
ATOM      9  H   UNL A   1      30.030  25.621  22.258  1.00  0.00     0.049 H 
BRANCH   7  10
ATOM     10  N   UNL A   1      32.090  25.550  22.302  1.00  0.00    -0.356 N 
ATOM     11  C   UNL A   1      33.191  25.156  23.008  1.00  0.00     0.227 C 
ATOM     12  O   UNL A   1      34.245  25.053  22.377  1.00  0.00    -0.274 OA
ATOM     13  H   UNL A   1      32.160  25.447  21.325  1.00  0.00     0.163 HD
BRANCH  11  14
ATOM     14  C   UNL A   1      33.066  24.838  24.511  1.00  0.00     0.063 C 
ATOM     15  H   UNL A   1      32.123  25.177  24.887  1.00  0.00     0.045 H 
BRANCH  14  16
ATOM     16  C   UNL A   1      34.177  25.598  25.245  1.00  0.00    -0.049 C 
ATOM     17  H   UNL A   1      35.120  25.135  25.042  1.00  0.00     0.024 H 
ATOM     18  H   UNL A   1      33.989  25.576  26.299  1.00  0.00     0.024 H 
ATOM     19  H   UNL A   1      34.198  26.613  24.909  1.00  0.00     0.024 H 
ENDBRANCH  14  16
BRANCH  14  20
ATOM     20  C   UNL A   1      33.023  23.334  24.796  1.00  0.00     0.000 A 
ATOM     21  C   UNL A   1      34.209  22.627  25.035  1.00  0.00    -0.053 A 
ATOM     22  C   UNL A   1      31.845  22.583  24.805  1.00  0.00     0.129 A 
ATOM     23  C   UNL A   1      34.197  21.267  25.379  1.00  0.00    -0.038 A 
ATOM     24  H   UNL A   1      35.114  23.118  24.955  1.00  0.00     0.063 H 
ATOM     25  C   UNL A   1      31.838  21.221  25.120  1.00  0.00    -0.003 A 
ATOM     26  F   UNL A   1      30.664  23.145  24.512  1.00  0.00    -0.207 F 
ATOM     27  C   UNL A   1      33.012  20.536  25.444  1.00  0.00     0.037 A 
ATOM     28  H   UNL A   1      35.090  20.795  25.590  1.00  0.00     0.064 H 
ATOM     29  H   UNL A   1      30.943  20.708  25.114  1.00  0.00     0.068 H 
BRANCH  27  30
ATOM     30  N   UNL A   1      32.925  19.214  25.822  1.00  0.00    -0.382 N 
ATOM     31  H   UNL A   1      32.888  19.056  26.793  1.00  0.00     0.160 HD
BRANCH  30  32
ATOM     32  C   UNL A   1      32.882  18.018  24.999  1.00  0.00     0.026 C 
ATOM     33  C   UNL A   1      34.166  17.727  24.231  1.00  0.00    -0.033 C 
ATOM     34  C   UNL A   1      32.527  16.735  25.751  1.00  0.00    -0.033 C 
ATOM     35  H   UNL A   1      32.098  18.271  24.315  1.00  0.00     0.053 H 
ATOM     36  C   UNL A   1      34.027  16.255  23.877  1.00  0.00    -0.051 C 
ATOM     37  H   UNL A   1      35.027  17.896  24.844  1.00  0.00     0.029 H 
ATOM     38  H   UNL A   1      34.296  18.356  23.375  1.00  0.00     0.029 H 
ATOM     39  C   UNL A   1      33.325  15.622  25.073  1.00  0.00    -0.051 C 
ATOM     40  H   UNL A   1      31.478  16.540  25.678  1.00  0.00     0.029 H 
ATOM     41  H   UNL A   1      32.762  16.811  26.792  1.00  0.00     0.029 H 
ATOM     42  H   UNL A   1      34.990  15.812  23.730  1.00  0.00     0.027 H 
ATOM     43  H   UNL A   1      33.480  16.111  22.969  1.00  0.00     0.027 H 
ATOM     44  H   UNL A   1      34.045  15.217  25.753  1.00  0.00     0.027 H 
ATOM     45  H   UNL A   1      32.685  14.822  24.765  1.00  0.00     0.027 H 
ENDBRANCH  30  32
ENDBRANCH  27  30
ENDBRANCH  14  20
ENDBRANCH  11  14
ENDBRANCH   7  10
ENDBRANCH   4   7
ENDBRANCH   1   4
BRANCH   1  46
ATOM     46  C   UNL A   1      31.109  29.412  24.338  1.00  0.00    -0.052 C 
ATOM     47  H   UNL A   1      30.749  29.585  25.330  1.00  0.00     0.027 H 
ATOM     48  H   UNL A   1      31.113  30.289  23.725  1.00  0.00     0.027 H 
BRANCH  46  49
ATOM     49  C   UNL A   1      32.567  28.955  24.436  1.00  0.00    -0.036 C 
ATOM     50  H   UNL A   1      33.105  29.388  23.618  1.00  0.00     0.028 H 
ATOM     51  H   UNL A   1      32.546  27.886  24.417  1.00  0.00     0.028 H 
BRANCH  49  52
ATOM     52  C   UNL A   1      33.283  29.342  25.728  1.00  0.00     0.018 C 
ATOM     53  H   UNL A   1      34.339  29.296  25.563  1.00  0.00     0.049 H 
ATOM     54  H   UNL A   1      32.974  28.657  26.490  1.00  0.00     0.049 H 
BRANCH  52  55
ATOM     55  N   UNL A   1      32.939  30.682  26.174  1.00  0.00    -0.352 N 
ATOM     56  C   UNL A   1      33.497  31.441  27.167  1.00  0.00     0.251 C 
ATOM     57  H   UNL A   1      32.194  31.106  25.690  1.00  0.00     0.163 HD
ATOM     58  O   UNL A   1      32.960  32.500  27.505  1.00  0.00    -0.269 OA
BRANCH  56  59
ATOM     59  C   UNL A   1      34.724  30.997  27.862  1.00  0.00     0.039 A 
ATOM     60  C   UNL A   1      35.781  31.900  27.991  1.00  0.00    -0.049 A 
ATOM     61  C   UNL A   1      34.855  29.693  28.353  1.00  0.00    -0.049 A 
ATOM     62  C   UNL A   1      36.948  31.517  28.656  1.00  0.00    -0.053 A 
ATOM     63  H   UNL A   1      35.701  32.850  27.596  1.00  0.00     0.063 H 
ATOM     64  C   UNL A   1      35.998  29.328  29.065  1.00  0.00    -0.053 A 
ATOM     65  H   UNL A   1      34.106  29.002  28.189  1.00  0.00     0.063 H 
ATOM     66  C   UNL A   1      37.055  30.237  29.221  1.00  0.00    -0.014 A 
ATOM     67  H   UNL A   1      37.736  32.179  28.733  1.00  0.00     0.063 H 
ATOM     68  H   UNL A   1      36.066  28.385  29.480  1.00  0.00     0.063 H 
BRANCH  66  69
ATOM     69  C   UNL A   1      38.269  29.850  29.984  1.00  0.00     0.031 A 
ATOM     70  C   UNL A   1      38.506  30.383  31.369  1.00  0.00     0.074 A 
ATOM     71  C   UNL A   1      39.177  29.037  29.411  1.00  0.00     0.049 A 
ATOM     72  N   UNL A   1      39.510  30.160  32.179  1.00  0.00    -0.248 NA
ATOM     73  C   UNL A   1      37.491  31.302  31.908  1.00  0.00    -0.034 C 
ATOM     74  C   UNL A   1      39.088  28.497  28.053  1.00  0.00    -0.036 A 
ATOM     75  N   UNL A   1      40.355  28.526  29.895  1.00  0.00    -0.354 N 
ATOM     76  C   UNL A   1      39.249  30.909  33.320  1.00  0.00     0.074 A 
ATOM     77  C   UNL A   1      38.019  31.632  33.078  1.00  0.00    -0.034 C 
ATOM     78  H   UNL A   1      36.602  31.609  31.485  1.00  0.00     0.065 H 
ATOM     79  C   UNL A   1      40.156  27.718  27.819  1.00  0.00    -0.036 A 
ATOM     80  H   UNL A   1      38.327  28.686  27.382  1.00  0.00     0.065 H 
ATOM     81  C   UNL A   1      41.013  27.718  29.001  1.00  0.00     0.049 A 
ATOM     82  H   UNL A   1      40.695  28.719  30.799  1.00  0.00     0.167 HD
ATOM     83  C   UNL A   1      39.959  30.969  34.472  1.00  0.00     0.037 A 
ATOM     84  H   UNL A   1      37.605  32.314  33.733  1.00  0.00     0.065 H 
ATOM     85  H   UNL A   1      40.341  27.200  26.946  1.00  0.00     0.065 H 
ATOM     86  C   UNL A   1      42.176  27.051  29.122  1.00  0.00     0.037 A 
ATOM     87  C   UNL A   1      41.175  30.238  34.720  1.00  0.00     0.049 A 
ATOM     88  C   UNL A   1      42.931  27.117  30.421  1.00  0.00     0.074 A 
ATOM     89  C   UNL A   1      41.947  30.209  35.868  1.00  0.00    -0.036 A 
ATOM     90  N   UNL A   1      41.794  29.403  33.801  1.00  0.00    -0.354 N 
ATOM     91  N   UNL A   1      42.642  27.783  31.512  1.00  0.00    -0.248 NA
ATOM     92  C   UNL A   1      44.167  26.327  30.510  1.00  0.00    -0.034 C 
ATOM     93  C   UNL A   1      43.048  29.377  35.636  1.00  0.00    -0.036 A 
ATOM     94  H   UNL A   1      41.746  30.714  36.745  1.00  0.00     0.065 H 
ATOM     95  C   UNL A   1      42.942  28.860  34.355  1.00  0.00     0.049 A 
ATOM     96  H   UNL A   1      41.466  29.223  32.891  1.00  0.00     0.167 HD
ATOM     97  C   UNL A   1      43.648  27.481  32.420  1.00  0.00     0.074 A 
ATOM     98  C   UNL A   1      44.542  26.551  31.761  1.00  0.00    -0.034 C 
ATOM     99  H   UNL A   1      44.623  25.748  29.787  1.00  0.00     0.065 H 
ATOM    100  H   UNL A   1      43.811  29.183  36.304  1.00  0.00     0.065 H 
ATOM    101  C   UNL A   1      43.819  27.937  33.684  1.00  0.00     0.037 A 
ATOM    102  H   UNL A   1      45.365  26.120  32.208  1.00  0.00     0.065 H 
BRANCH  83 103
ATOM    103  C   UNL A   1      39.427  31.843  35.568  1.00  0.00     0.064 A 
ATOM    104  C   UNL A   1      38.531  31.346  36.526  1.00  0.00     0.173 A 
ATOM    105  C   UNL A   1      39.856  33.173  35.695  1.00  0.00     0.173 A 
ATOM    106  F   UNL A   1      38.083  30.085  36.440  1.00  0.00    -0.203 F 
ATOM    107  C   UNL A   1      38.069  32.154  37.561  1.00  0.00     0.198 A 
ATOM    108  C   UNL A   1      39.409  33.971  36.747  1.00  0.00     0.198 A 
ATOM    109  F   UNL A   1      40.716  33.695  34.808  1.00  0.00    -0.203 F 
ATOM    110  F   UNL A   1      37.186  31.668  38.444  1.00  0.00    -0.200 F 
ATOM    111  C   UNL A   1      38.514  33.462  37.675  1.00  0.00     0.200 A 
ATOM    112  F   UNL A   1      39.848  35.233  36.861  1.00  0.00    -0.200 F 
ATOM    113  F   UNL A   1      38.076  34.236  38.678  1.00  0.00    -0.200 F 
ENDBRANCH  83 103
BRANCH  86 114
ATOM    114  C   UNL A   1      42.686  26.238  27.990  1.00  0.00     0.064 A 
ATOM    115  C   UNL A   1      43.531  26.799  27.022  1.00  0.00     0.173 A 
ATOM    116  C   UNL A   1      42.331  24.889  27.845  1.00  0.00     0.173 A 
ATOM    117  F   UNL A   1      43.880  28.091  27.107  1.00  0.00    -0.203 F 
ATOM    118  C   UNL A   1      43.982  26.048  25.939  1.00  0.00     0.198 A 
ATOM    119  C   UNL A   1      42.803  24.132  26.776  1.00  0.00     0.198 A 
ATOM    120  F   UNL A   1      41.529  24.306  28.749  1.00  0.00    -0.203 F 
ATOM    121  F   UNL A   1      44.749  26.622  25.003  1.00  0.00    -0.200 F 
ATOM    122  C   UNL A   1      43.621  24.714  25.820  1.00  0.00     0.200 A 
ATOM    123  F   UNL A   1      42.463  22.840  26.671  1.00  0.00    -0.200 F 
ATOM    124  F   UNL A   1      44.055  23.992  24.778  1.00  0.00    -0.200 F 
ENDBRANCH  86 114
BRANCH 101 125
ATOM    125  C   UNL A   1      45.009  27.422  34.438  1.00  0.00     0.064 A 
ATOM    126  C   UNL A   1      44.939  26.246  35.200  1.00  0.00     0.173 A 
ATOM    127  C   UNL A   1      46.236  28.099  34.382  1.00  0.00     0.173 A 
ATOM    128  F   UNL A   1      43.783  25.572  35.296  1.00  0.00    -0.203 F 
ATOM    129  C   UNL A   1      46.048  25.783  35.903  1.00  0.00     0.198 A 
ATOM    130  C   UNL A   1      47.349  27.620  35.066  1.00  0.00     0.198 A 
ATOM    131  F   UNL A   1      46.354  29.226  33.664  1.00  0.00    -0.203 F 
ATOM    132  F   UNL A   1      45.945  24.685  36.664  1.00  0.00    -0.200 F 
ATOM    133  C   UNL A   1      47.252  26.468  35.832  1.00  0.00     0.200 A 
ATOM    134  F   UNL A   1      48.514  28.277  34.992  1.00  0.00    -0.200 F 
ATOM    135  F   UNL A   1      48.317  26.022  36.511  1.00  0.00    -0.200 F 
ENDBRANCH 101 125
ENDBRANCH  66  69
ENDBRANCH  56  59
ENDBRANCH  52  55
ENDBRANCH  49  52
ENDBRANCH  46  49
ENDBRANCH   1  46
TORSDOF 17
ENDMDL
MODEL 9
REMARK VINA RESULT:     -11.2      1.464      2.473
REMARK SMILES C[C@@H](C(=O)NCCCCCCNC(=O)c1ccc(-c2c3nc(c(-c4c(F)c(F)c(F)c(F)c4F)c4ccc([nH]4)c(-c4c(F)c(F)c(F)c(F)c4F)c4nc(c(-c5c(F)c(F)c(F)c(F)c5F)c5ccc2[nH]5)C=C4)C=C3)cc1)c1ccc(NC2CCCC2)cc1F
REMARK SMILES IDX 8 1 7 4 6 7 5 10 3 11 4 12 2 14 1 16 78 20 79 21 89 22 80 23
REMARK SMILES IDX 88 25 90 26 81 27 82 30 83 32 84 33 87 34 85 36 86 39 9 46
REMARK SMILES IDX 10 49 11 52 12 55 13 56 14 58 15 59 16 60 77 61 17 62 76 64
REMARK SMILES IDX 18 66 19 69 20 70 70 71 21 72 75 73 69 74 71 75 22 76 74 77
REMARK SMILES IDX 68 79 67 81 23 83 55 86 35 87 54 88 36 89 39 90 53 91 72 92
REMARK SMILES IDX 37 93 38 95 52 97 73 98 40 101 24 103 25 104 33 105 26 106
REMARK SMILES IDX 27 107 31 108 34 109 28 110 29 111 32 112 30 113 56 114
REMARK SMILES IDX 57 115 65 116 58 117 59 118 63 119 66 120 60 121 61 122
REMARK SMILES IDX 64 123 62 124 41 125 42 126 50 127 43 128 44 129 48 130
REMARK SMILES IDX 51 131 45 132 46 133 49 134 47 135
REMARK H PARENT 8 2 8 3 7 5 7 6 6 8 6 9 5 13 2 15 1 17 1 18 1 19 79 24 80 28
REMARK H PARENT 88 29 82 31 83 35 84 37 84 38 87 40 87 41 85 42 85 43 86 44
REMARK H PARENT 86 45 9 47 9 48 10 50 10 51 11 53 11 54 12 57 16 63 77 65
REMARK H PARENT 17 67 76 68 75 78 69 80 71 82 74 84 68 85 36 94 39 96 72 99
REMARK H PARENT 37 100 73 102
REMARK Flexibility Score: inf
ROOT
ATOM      1  C   UNL A   1      31.796  29.607  26.847  1.00  0.00    -0.052 C 
ATOM      2  H   UNL A   1      31.643  29.955  27.847  1.00  0.00     0.027 H 
ATOM      3  H   UNL A   1      31.197  28.757  26.595  1.00  0.00     0.027 H 
ENDROOT
BRANCH   1   4
ATOM      4  C   UNL A   1      33.257  29.154  26.719  1.00  0.00    -0.036 C 
ATOM      5  H   UNL A   1      33.857  30.016  26.514  1.00  0.00     0.028 H 
ATOM      6  H   UNL A   1      33.511  28.682  27.645  1.00  0.00     0.028 H 
BRANCH   4   7
ATOM      7  C   UNL A   1      33.506  28.121  25.616  1.00  0.00     0.017 C 
ATOM      8  H   UNL A   1      32.761  28.229  24.856  1.00  0.00     0.049 H 
ATOM      9  H   UNL A   1      34.478  28.282  25.201  1.00  0.00     0.049 H 
BRANCH   7  10
ATOM     10  N   UNL A   1      33.441  26.781  26.162  1.00  0.00    -0.356 N 
ATOM     11  C   UNL A   1      32.825  25.667  25.666  1.00  0.00     0.227 C 
ATOM     12  O   UNL A   1      32.619  24.749  26.461  1.00  0.00    -0.274 OA
ATOM     13  H   UNL A   1      33.912  26.653  27.018  1.00  0.00     0.163 HD
BRANCH  11  14
ATOM     14  C   UNL A   1      32.453  25.598  24.171  1.00  0.00     0.063 C 
ATOM     15  H   UNL A   1      32.104  24.619  23.919  1.00  0.00     0.045 H 
BRANCH  14  16
ATOM     16  C   UNL A   1      33.722  25.881  23.359  1.00  0.00    -0.049 C 
ATOM     17  H   UNL A   1      33.851  25.118  22.622  1.00  0.00     0.024 H 
ATOM     18  H   UNL A   1      34.570  25.893  24.013  1.00  0.00     0.024 H 
ATOM     19  H   UNL A   1      33.632  26.832  22.876  1.00  0.00     0.024 H 
ENDBRANCH  14  16
BRANCH  14  20
ATOM     20  C   UNL A   1      31.256  26.485  23.818  1.00  0.00     0.000 A 
ATOM     21  C   UNL A   1      31.397  27.522  22.885  1.00  0.00    -0.053 A 
ATOM     22  C   UNL A   1      29.995  26.350  24.403  1.00  0.00     0.129 A 
ATOM     23  C   UNL A   1      30.302  28.299  22.480  1.00  0.00    -0.038 A 
ATOM     24  H   UNL A   1      32.329  27.720  22.488  1.00  0.00     0.063 H 
ATOM     25  C   UNL A   1      28.911  27.145  24.019  1.00  0.00    -0.003 A 
ATOM     26  F   UNL A   1      29.772  25.442  25.364  1.00  0.00    -0.207 F 
ATOM     27  C   UNL A   1      29.032  28.120  23.025  1.00  0.00     0.037 A 
ATOM     28  H   UNL A   1      30.440  29.023  21.758  1.00  0.00     0.064 H 
ATOM     29  H   UNL A   1      27.998  27.008  24.480  1.00  0.00     0.068 H 
BRANCH  27  30
ATOM     30  N   UNL A   1      27.906  28.814  22.637  1.00  0.00    -0.382 N 
ATOM     31  H   UNL A   1      27.141  28.256  22.367  1.00  0.00     0.160 HD
BRANCH  30  32
ATOM     32  C   UNL A   1      27.683  30.248  22.567  1.00  0.00     0.026 C 
ATOM     33  C   UNL A   1      28.407  31.058  23.635  1.00  0.00    -0.033 C 
ATOM     34  C   UNL A   1      28.038  30.886  21.224  1.00  0.00    -0.033 C 
ATOM     35  H   UNL A   1      26.625  30.296  22.728  1.00  0.00     0.053 H 
ATOM     36  C   UNL A   1      28.404  32.465  23.058  1.00  0.00    -0.051 C 
ATOM     37  H   UNL A   1      29.406  30.701  23.776  1.00  0.00     0.029 H 
ATOM     38  H   UNL A   1      27.943  30.996  24.597  1.00  0.00     0.029 H 
ATOM     39  C   UNL A   1      28.572  32.279  21.554  1.00  0.00    -0.051 C 
ATOM     40  H   UNL A   1      27.169  30.956  20.604  1.00  0.00     0.029 H 
ATOM     41  H   UNL A   1      28.759  30.303  20.690  1.00  0.00     0.029 H 
ATOM     42  H   UNL A   1      29.216  33.036  23.459  1.00  0.00     0.027 H 
ATOM     43  H   UNL A   1      27.507  32.995  23.299  1.00  0.00     0.027 H 
ATOM     44  H   UNL A   1      29.604  32.352  21.285  1.00  0.00     0.027 H 
ATOM     45  H   UNL A   1      28.042  33.034  21.012  1.00  0.00     0.027 H 
ENDBRANCH  30  32
ENDBRANCH  27  30
ENDBRANCH  14  20
ENDBRANCH  11  14
ENDBRANCH   7  10
ENDBRANCH   4   7
ENDBRANCH   1   4
BRANCH   1  46
ATOM     46  C   UNL A   1      31.374  30.723  25.888  1.00  0.00    -0.052 C 
ATOM     47  H   UNL A   1      30.410  30.476  25.496  1.00  0.00     0.027 H 
ATOM     48  H   UNL A   1      32.138  30.778  25.141  1.00  0.00     0.027 H 
BRANCH  46  49
ATOM     49  C   UNL A   1      31.288  32.120  26.510  1.00  0.00    -0.036 C 
ATOM     50  H   UNL A   1      30.679  32.054  27.388  1.00  0.00     0.028 H 
ATOM     51  H   UNL A   1      30.882  32.758  25.754  1.00  0.00     0.028 H 
BRANCH  49  52
ATOM     52  C   UNL A   1      32.627  32.736  26.910  1.00  0.00     0.018 C 
ATOM     53  H   UNL A   1      33.222  32.868  26.029  1.00  0.00     0.049 H 
ATOM     54  H   UNL A   1      33.097  32.072  27.605  1.00  0.00     0.049 H 
BRANCH  52  55
ATOM     55  N   UNL A   1      32.474  34.024  27.564  1.00  0.00    -0.352 N 
ATOM     56  C   UNL A   1      33.150  34.546  28.634  1.00  0.00     0.251 C 
ATOM     57  H   UNL A   1      31.779  34.608  27.181  1.00  0.00     0.163 HD
ATOM     58  O   UNL A   1      32.765  35.600  29.147  1.00  0.00    -0.269 OA
BRANCH  56  59
ATOM     59  C   UNL A   1      34.324  33.850  29.201  1.00  0.00     0.039 A 
ATOM     60  C   UNL A   1      35.599  34.288  28.837  1.00  0.00    -0.049 A 
ATOM     61  C   UNL A   1      34.180  32.751  30.055  1.00  0.00    -0.049 A 
ATOM     62  C   UNL A   1      36.729  33.662  29.367  1.00  0.00    -0.053 A 
ATOM     63  H   UNL A   1      35.707  35.074  28.177  1.00  0.00     0.063 H 
ATOM     64  C   UNL A   1      35.308  32.161  30.628  1.00  0.00    -0.053 A 
ATOM     65  H   UNL A   1      33.241  32.377  30.262  1.00  0.00     0.063 H 
ATOM     66  C   UNL A   1      36.592  32.611  30.287  1.00  0.00    -0.014 A 
ATOM     67  H   UNL A   1      37.670  33.974  29.081  1.00  0.00     0.063 H 
ATOM     68  H   UNL A   1      35.196  31.390  31.306  1.00  0.00     0.063 H 
BRANCH  66  69
ATOM     69  C   UNL A   1      37.791  31.987  30.901  1.00  0.00     0.031 A 
ATOM     70  C   UNL A   1      38.260  32.406  32.266  1.00  0.00     0.074 A 
ATOM     71  C   UNL A   1      38.478  31.058  30.209  1.00  0.00     0.049 A 
ATOM     72  N   UNL A   1      39.287  31.977  32.955  1.00  0.00    -0.248 NA
ATOM     73  C   UNL A   1      37.483  33.459  32.938  1.00  0.00    -0.034 C 
ATOM     74  C   UNL A   1      38.157  30.605  28.854  1.00  0.00    -0.036 A 
ATOM     75  N   UNL A   1      39.592  30.330  30.547  1.00  0.00    -0.354 N 
ATOM     76  C   UNL A   1      39.281  32.706  34.137  1.00  0.00     0.074 A 
ATOM     77  C   UNL A   1      38.179  33.639  34.053  1.00  0.00    -0.034 C 
ATOM     78  H   UNL A   1      36.622  33.933  32.624  1.00  0.00     0.065 H 
ATOM     79  C   UNL A   1      39.041  29.666  28.484  1.00  0.00    -0.036 A 
ATOM     80  H   UNL A   1      37.376  30.952  28.277  1.00  0.00     0.065 H 
ATOM     81  C   UNL A   1      40.003  29.464  29.564  1.00  0.00     0.049 A 
ATOM     82  H   UNL A   1      40.053  30.420  31.413  1.00  0.00     0.167 HD
ATOM     83  C   UNL A   1      40.106  32.589  35.206  1.00  0.00     0.037 A 
ATOM     84  H   UNL A   1      37.961  34.351  34.767  1.00  0.00     0.065 H 
ATOM     85  H   UNL A   1      39.042  29.165  27.581  1.00  0.00     0.065 H 
ATOM     86  C   UNL A   1      41.037  28.603  29.538  1.00  0.00     0.037 A 
ATOM     87  C   UNL A   1      41.193  31.650  35.298  1.00  0.00     0.049 A 
ATOM     88  C   UNL A   1      41.922  28.478  30.747  1.00  0.00     0.074 A 
ATOM     89  C   UNL A   1      42.063  31.436  36.353  1.00  0.00    -0.036 A 
ATOM     90  N   UNL A   1      41.558  30.765  34.295  1.00  0.00    -0.354 N 
ATOM     91  N   UNL A   1      41.868  29.133  31.882  1.00  0.00    -0.248 NA
ATOM     92  C   UNL A   1      43.002  27.485  30.678  1.00  0.00    -0.034 C 
ATOM     93  C   UNL A   1      42.971  30.439  35.979  1.00  0.00    -0.036 A 
ATOM     94  H   UNL A   1      42.045  31.927  37.261  1.00  0.00     0.065 H 
ATOM     95  C   UNL A   1      42.644  30.008  34.704  1.00  0.00     0.049 A 
ATOM     96  H   UNL A   1      41.111  30.687  33.421  1.00  0.00     0.167 HD
ATOM     97  C   UNL A   1      42.894  28.621  32.665  1.00  0.00     0.074 A 
ATOM     98  C   UNL A   1      43.538  27.583  31.886  1.00  0.00    -0.034 C 
ATOM     99  H   UNL A   1      43.273  26.870  29.893  1.00  0.00     0.065 H 
ATOM    100  H   UNL A   1      43.752  30.087  36.554  1.00  0.00     0.065 H 
ATOM    101  C   UNL A   1      43.272  28.981  33.915  1.00  0.00     0.037 A 
ATOM    102  H   UNL A   1      44.314  26.996  32.228  1.00  0.00     0.065 H 
BRANCH  83 103
ATOM    103  C   UNL A   1      39.851  33.489  36.378  1.00  0.00     0.064 A 
ATOM    104  C   UNL A   1      40.477  34.741  36.484  1.00  0.00     0.173 A 
ATOM    105  C   UNL A   1      38.936  33.124  37.377  1.00  0.00     0.173 A 
ATOM    106  F   UNL A   1      41.368  35.130  35.561  1.00  0.00    -0.203 F 
ATOM    107  C   UNL A   1      40.209  35.586  37.558  1.00  0.00     0.198 A 
ATOM    108  C   UNL A   1      38.652  33.984  38.436  1.00  0.00     0.198 A 
ATOM    109  F   UNL A   1      38.307  31.941  37.318  1.00  0.00    -0.203 F 
ATOM    110  F   UNL A   1      40.844  36.762  37.656  1.00  0.00    -0.200 F 
ATOM    111  C   UNL A   1      39.292  35.211  38.527  1.00  0.00     0.200 A 
ATOM    112  F   UNL A   1      37.759  33.624  39.368  1.00  0.00    -0.200 F 
ATOM    113  F   UNL A   1      39.028  36.029  39.555  1.00  0.00    -0.200 F 
ENDBRANCH  83 103
BRANCH  86 114
ATOM    114  C   UNL A   1      41.277  27.769  28.334  1.00  0.00     0.064 A 
ATOM    115  C   UNL A   1      40.642  26.529  28.177  1.00  0.00     0.173 A 
ATOM    116  C   UNL A   1      42.153  28.187  27.323  1.00  0.00     0.173 A 
ATOM    117  F   UNL A   1      39.812  26.077  29.128  1.00  0.00    -0.203 F 
ATOM    118  C   UNL A   1      40.893  25.728  27.065  1.00  0.00     0.198 A 
ATOM    119  C   UNL A   1      42.383  27.398  26.198  1.00  0.00     0.198 A 
ATOM    120  F   UNL A   1      42.780  29.369  27.425  1.00  0.00    -0.203 F 
ATOM    121  F   UNL A   1      40.309  24.527  26.962  1.00  0.00    -0.200 F 
ATOM    122  C   UNL A   1      41.760  26.166  26.075  1.00  0.00     0.200 A 
ATOM    123  F   UNL A   1      43.212  27.830  25.238  1.00  0.00    -0.200 F 
ATOM    124  F   UNL A   1      42.001  25.396  25.005  1.00  0.00    -0.200 F 
ENDBRANCH  86 114
BRANCH 101 125
ATOM    125  C   UNL A   1      44.425  28.235  34.519  1.00  0.00     0.064 A 
ATOM    126  C   UNL A   1      45.743  28.696  34.387  1.00  0.00     0.173 A 
ATOM    127  C   UNL A   1      44.207  27.059  35.252  1.00  0.00     0.173 A 
ATOM    128  F   UNL A   1      46.002  29.807  33.682  1.00  0.00    -0.203 F 
ATOM    129  C   UNL A   1      46.806  27.989  34.944  1.00  0.00     0.198 A 
ATOM    130  C   UNL A   1      45.270  26.369  35.828  1.00  0.00     0.198 A 
ATOM    131  F   UNL A   1      42.964  26.580  35.409  1.00  0.00    -0.203 F 
ATOM    132  F   UNL A   1      48.062  28.422  34.764  1.00  0.00    -0.200 F 
ATOM    133  C   UNL A   1      46.568  26.829  35.667  1.00  0.00     0.200 A 
ATOM    134  F   UNL A   1      45.039  25.253  36.532  1.00  0.00    -0.200 F 
ATOM    135  F   UNL A   1      47.592  26.150  36.200  1.00  0.00    -0.200 F 
ENDBRANCH 101 125
ENDBRANCH  66  69
ENDBRANCH  56  59
ENDBRANCH  52  55
ENDBRANCH  49  52
ENDBRANCH  46  49
ENDBRANCH   1  46
TORSDOF 17
ENDMDL
MODEL 10
REMARK VINA RESULT:     -11.2      3.974      8.496
REMARK SMILES C[C@@H](C(=O)NCCCCCCNC(=O)c1ccc(-c2c3nc(c(-c4c(F)c(F)c(F)c(F)c4F)c4ccc([nH]4)c(-c4c(F)c(F)c(F)c(F)c4F)c4nc(c(-c5c(F)c(F)c(F)c(F)c5F)c5ccc2[nH]5)C=C4)C=C3)cc1)c1ccc(NC2CCCC2)cc1F
REMARK SMILES IDX 8 1 7 4 6 7 5 10 3 11 4 12 2 14 1 16 78 20 79 21 89 22 80 23
REMARK SMILES IDX 88 25 90 26 81 27 82 30 83 32 84 33 87 34 85 36 86 39 9 46
REMARK SMILES IDX 10 49 11 52 12 55 13 56 14 58 15 59 16 60 77 61 17 62 76 64
REMARK SMILES IDX 18 66 19 69 20 70 70 71 21 72 75 73 69 74 71 75 22 76 74 77
REMARK SMILES IDX 68 79 67 81 23 83 55 86 35 87 54 88 36 89 39 90 53 91 72 92
REMARK SMILES IDX 37 93 38 95 52 97 73 98 40 101 24 103 25 104 33 105 26 106
REMARK SMILES IDX 27 107 31 108 34 109 28 110 29 111 32 112 30 113 56 114
REMARK SMILES IDX 57 115 65 116 58 117 59 118 63 119 66 120 60 121 61 122
REMARK SMILES IDX 64 123 62 124 41 125 42 126 50 127 43 128 44 129 48 130
REMARK SMILES IDX 51 131 45 132 46 133 49 134 47 135
REMARK H PARENT 8 2 8 3 7 5 7 6 6 8 6 9 5 13 2 15 1 17 1 18 1 19 79 24 80 28
REMARK H PARENT 88 29 82 31 83 35 84 37 84 38 87 40 87 41 85 42 85 43 86 44
REMARK H PARENT 86 45 9 47 9 48 10 50 10 51 11 53 11 54 12 57 16 63 77 65
REMARK H PARENT 17 67 76 68 75 78 69 80 71 82 74 84 68 85 36 94 39 96 72 99
REMARK H PARENT 37 100 73 102
REMARK Flexibility Score: inf
ROOT
ATOM      1  C   UNL A   1      34.303  21.358  24.667  1.00  0.00    -0.052 C 
ATOM      2  H   UNL A   1      34.482  22.225  24.065  1.00  0.00     0.027 H 
ATOM      3  H   UNL A   1      34.724  20.462  24.261  1.00  0.00     0.027 H 
ENDROOT
BRANCH   1   4
ATOM      4  C   UNL A   1      32.787  21.128  24.728  1.00  0.00    -0.036 C 
ATOM      5  H   UNL A   1      32.548  20.304  24.088  1.00  0.00     0.028 H 
ATOM      6  H   UNL A   1      32.548  20.940  25.754  1.00  0.00     0.028 H 
BRANCH   4   7
ATOM      7  C   UNL A   1      31.945  22.332  24.295  1.00  0.00     0.017 C 
ATOM      8  H   UNL A   1      32.566  23.027  23.770  1.00  0.00     0.049 H 
ATOM      9  H   UNL A   1      31.155  21.994  23.659  1.00  0.00     0.049 H 
BRANCH   7  10
ATOM     10  N   UNL A   1      31.372  22.985  25.455  1.00  0.00    -0.356 N 
ATOM     11  C   UNL A   1      31.672  24.197  26.008  1.00  0.00     0.227 C 
ATOM     12  O   UNL A   1      31.301  24.382  27.168  1.00  0.00    -0.274 OA
ATOM     13  H   UNL A   1      30.660  22.481  25.912  1.00  0.00     0.163 HD
BRANCH  11  14
ATOM     14  C   UNL A   1      32.411  25.261  25.171  1.00  0.00     0.063 C 
ATOM     15  H   UNL A   1      32.983  24.794  24.396  1.00  0.00     0.045 H 
BRANCH  14  16
ATOM     16  C   UNL A   1      33.378  26.001  26.103  1.00  0.00    -0.049 C 
ATOM     17  H   UNL A   1      34.326  25.506  26.100  1.00  0.00     0.024 H 
ATOM     18  H   UNL A   1      32.982  26.006  27.097  1.00  0.00     0.024 H 
ATOM     19  H   UNL A   1      33.500  27.008  25.763  1.00  0.00     0.024 H 
ENDBRANCH  14  16
BRANCH  14  20
ATOM     20  C   UNL A   1      31.457  26.167  24.389  1.00  0.00     0.000 A 
ATOM     21  C   UNL A   1      30.071  26.057  24.572  1.00  0.00    -0.053 A 
ATOM     22  C   UNL A   1      31.881  27.108  23.448  1.00  0.00     0.129 A 
ATOM     23  C   UNL A   1      29.175  26.926  23.933  1.00  0.00    -0.038 A 
ATOM     24  H   UNL A   1      29.701  25.319  25.192  1.00  0.00     0.063 H 
ATOM     25  C   UNL A   1      30.983  27.954  22.790  1.00  0.00    -0.003 A 
ATOM     26  F   UNL A   1      33.179  27.239  23.139  1.00  0.00    -0.207 F 
ATOM     27  C   UNL A   1      29.610  27.904  23.039  1.00  0.00     0.037 A 
ATOM     28  H   UNL A   1      28.166  26.841  24.130  1.00  0.00     0.064 H 
ATOM     29  H   UNL A   1      31.345  28.634  22.103  1.00  0.00     0.068 H 
BRANCH  27  30
ATOM     30  N   UNL A   1      28.789  28.819  22.416  1.00  0.00    -0.382 N 
ATOM     31  H   UNL A   1      27.933  28.460  22.087  1.00  0.00     0.160 HD
BRANCH  30  32
ATOM     32  C   UNL A   1      29.002  30.235  22.173  1.00  0.00     0.026 C 
ATOM     33  C   UNL A   1      28.069  30.850  21.136  1.00  0.00    -0.033 C 
ATOM     34  C   UNL A   1      28.910  31.119  23.417  1.00  0.00    -0.033 C 
ATOM     35  H   UNL A   1      30.006  30.228  21.801  1.00  0.00     0.053 H 
ATOM     36  C   UNL A   1      28.167  32.339  21.429  1.00  0.00    -0.051 C 
ATOM     37  H   UNL A   1      27.067  30.497  21.264  1.00  0.00     0.029 H 
ATOM     38  H   UNL A   1      28.335  30.600  20.131  1.00  0.00     0.029 H 
ATOM     39  C   UNL A   1      28.303  32.440  22.944  1.00  0.00    -0.051 C 
ATOM     40  H   UNL A   1      29.884  31.283  23.829  1.00  0.00     0.029 H 
ATOM     41  H   UNL A   1      28.317  30.663  24.182  1.00  0.00     0.029 H 
ATOM     42  H   UNL A   1      27.284  32.845  21.097  1.00  0.00     0.027 H 
ATOM     43  H   UNL A   1      28.991  32.795  20.921  1.00  0.00     0.027 H 
ATOM     44  H   UNL A   1      27.342  32.585  23.392  1.00  0.00     0.027 H 
ATOM     45  H   UNL A   1      28.918  33.269  23.222  1.00  0.00     0.027 H 
ENDBRANCH  30  32
ENDBRANCH  27  30
ENDBRANCH  14  20
ENDBRANCH  11  14
ENDBRANCH   7  10
ENDBRANCH   4   7
ENDBRANCH   1   4
BRANCH   1  46
ATOM     46  C   UNL A   1      34.984  21.574  26.020  1.00  0.00    -0.052 C 
ATOM     47  H   UNL A   1      35.948  21.111  25.983  1.00  0.00     0.027 H 
ATOM     48  H   UNL A   1      34.332  21.145  26.753  1.00  0.00     0.027 H 
BRANCH  46  49
ATOM     49  C   UNL A   1      35.177  23.037  26.428  1.00  0.00    -0.036 C 
ATOM     50  H   UNL A   1      35.126  23.093  27.496  1.00  0.00     0.028 H 
ATOM     51  H   UNL A   1      34.406  23.588  25.933  1.00  0.00     0.028 H 
BRANCH  49  52
ATOM     52  C   UNL A   1      36.497  23.665  25.986  1.00  0.00     0.018 C 
ATOM     53  H   UNL A   1      36.756  24.442  26.676  1.00  0.00     0.049 H 
ATOM     54  H   UNL A   1      36.361  24.047  24.996  1.00  0.00     0.049 H 
BRANCH  52  55
ATOM     55  N   UNL A   1      37.584  22.701  25.942  1.00  0.00    -0.352 N 
ATOM     56  C   UNL A   1      38.906  22.861  26.259  1.00  0.00     0.251 C 
ATOM     57  H   UNL A   1      37.331  21.799  25.638  1.00  0.00     0.163 HD
ATOM     58  O   UNL A   1      39.711  21.961  26.002  1.00  0.00    -0.269 OA
BRANCH  56  59
ATOM     59  C   UNL A   1      39.390  24.111  26.882  1.00  0.00     0.039 A 
ATOM     60  C   UNL A   1      40.068  25.035  26.083  1.00  0.00    -0.049 A 
ATOM     61  C   UNL A   1      39.213  24.364  28.247  1.00  0.00    -0.049 A 
ATOM     62  C   UNL A   1      40.524  26.232  26.638  1.00  0.00    -0.053 A 
ATOM     63  H   UNL A   1      40.233  24.832  25.085  1.00  0.00     0.063 H 
ATOM     64  C   UNL A   1      39.620  25.584  28.788  1.00  0.00    -0.053 A 
ATOM     65  H   UNL A   1      38.782  23.648  28.853  1.00  0.00     0.063 H 
ATOM     66  C   UNL A   1      40.281  26.528  27.988  1.00  0.00    -0.014 A 
ATOM     67  H   UNL A   1      41.044  26.904  26.051  1.00  0.00     0.063 H 
ATOM     68  H   UNL A   1      39.434  25.793  29.782  1.00  0.00     0.063 H 
BRANCH  66  69
ATOM     69  C   UNL A   1      40.708  27.828  28.563  1.00  0.00     0.031 A 
ATOM     70  C   UNL A   1      42.145  28.068  28.930  1.00  0.00     0.074 A 
ATOM     71  C   UNL A   1      39.788  28.787  28.782  1.00  0.00     0.049 A 
ATOM     72  N   UNL A   1      42.699  29.136  29.448  1.00  0.00    -0.248 NA
ATOM     73  C   UNL A   1      43.082  26.956  28.703  1.00  0.00    -0.034 C 
ATOM     74  C   UNL A   1      38.354  28.656  28.519  1.00  0.00    -0.036 A 
ATOM     75  N   UNL A   1      39.921  30.059  29.281  1.00  0.00    -0.354 N 
ATOM     76  C   UNL A   1      44.043  28.826  29.609  1.00  0.00     0.074 A 
ATOM     77  C   UNL A   1      44.214  27.454  29.181  1.00  0.00    -0.034 C 
ATOM     78  H   UNL A   1      42.903  26.032  28.282  1.00  0.00     0.065 H 
ATOM     79  C   UNL A   1      37.742  29.807  28.842  1.00  0.00    -0.036 A 
ATOM     80  H   UNL A   1      37.888  27.815  28.147  1.00  0.00     0.065 H 
ATOM     81  C   UNL A   1      38.735  30.748  29.353  1.00  0.00     0.049 A 
ATOM     82  H   UNL A   1      40.783  30.442  29.560  1.00  0.00     0.167 HD
ATOM     83  C   UNL A   1      45.047  29.621  30.050  1.00  0.00     0.037 A 
ATOM     84  H   UNL A   1      45.102  26.931  29.239  1.00  0.00     0.065 H 
ATOM     85  H   UNL A   1      36.732  29.997  28.745  1.00  0.00     0.065 H 
ATOM     86  C   UNL A   1      38.478  31.999  29.780  1.00  0.00     0.037 A 
ATOM     87  C   UNL A   1      44.882  30.991  30.461  1.00  0.00     0.049 A 
ATOM     88  C   UNL A   1      39.616  32.866  30.243  1.00  0.00     0.074 A 
ATOM     89  C   UNL A   1      45.845  31.886  30.892  1.00  0.00    -0.036 A 
ATOM     90  N   UNL A   1      43.670  31.665  30.488  1.00  0.00    -0.354 N 
ATOM     91  N   UNL A   1      40.891  32.578  30.334  1.00  0.00    -0.248 NA
ATOM     92  C   UNL A   1      39.279  34.238  30.648  1.00  0.00    -0.034 C 
ATOM     93  C   UNL A   1      45.213  33.095  31.206  1.00  0.00    -0.036 A 
ATOM     94  H   UNL A   1      46.857  31.696  30.969  1.00  0.00     0.065 H 
ATOM     95  C   UNL A   1      43.861  32.963  30.935  1.00  0.00     0.049 A 
ATOM     96  H   UNL A   1      42.803  31.278  30.228  1.00  0.00     0.167 HD
ATOM     97  C   UNL A   1      41.510  33.734  30.790  1.00  0.00     0.074 A 
ATOM     98  C   UNL A   1      40.474  34.736  30.933  1.00  0.00    -0.034 C 
ATOM     99  H   UNL A   1      38.354  34.695  30.697  1.00  0.00     0.065 H 
ATOM    100  H   UNL A   1      45.675  33.940  31.577  1.00  0.00     0.065 H 
ATOM    101  C   UNL A   1      42.818  33.945  31.071  1.00  0.00     0.037 A 
ATOM    102  H   UNL A   1      40.644  35.712  31.221  1.00  0.00     0.065 H 
BRANCH  83 103
ATOM    103  C   UNL A   1      46.427  29.034  30.093  1.00  0.00     0.064 A 
ATOM    104  C   UNL A   1      47.289  29.118  28.990  1.00  0.00     0.173 A 
ATOM    105  C   UNL A   1      46.912  28.430  31.263  1.00  0.00     0.173 A 
ATOM    106  F   UNL A   1      46.867  29.676  27.846  1.00  0.00    -0.203 F 
ATOM    107  C   UNL A   1      48.581  28.602  29.050  1.00  0.00     0.198 A 
ATOM    108  C   UNL A   1      48.213  27.936  31.327  1.00  0.00     0.198 A 
ATOM    109  F   UNL A   1      46.129  28.329  32.348  1.00  0.00    -0.203 F 
ATOM    110  F   UNL A   1      49.375  28.662  27.972  1.00  0.00    -0.200 F 
ATOM    111  C   UNL A   1      49.044  28.019  30.219  1.00  0.00     0.200 A 
ATOM    112  F   UNL A   1      48.663  27.382  32.461  1.00  0.00    -0.200 F 
ATOM    113  F   UNL A   1      50.291  27.531  30.279  1.00  0.00    -0.200 F 
ENDBRANCH  83 103
BRANCH  86 114
ATOM    114  C   UNL A   1      37.087  32.516  29.764  1.00  0.00     0.064 A 
ATOM    115  C   UNL A   1      36.595  33.230  28.663  1.00  0.00     0.173 A 
ATOM    116  C   UNL A   1      36.226  32.318  30.852  1.00  0.00     0.173 A 
ATOM    117  F   UNL A   1      37.390  33.463  27.607  1.00  0.00    -0.203 F 
ATOM    118  C   UNL A   1      35.302  33.748  28.660  1.00  0.00     0.198 A 
ATOM    119  C   UNL A   1      34.924  32.813  30.839  1.00  0.00     0.198 A 
ATOM    120  F   UNL A   1      36.648  31.636  31.928  1.00  0.00    -0.203 F 
ATOM    121  F   UNL A   1      34.873  34.467  27.615  1.00  0.00    -0.200 F 
ATOM    122  C   UNL A   1      34.467  33.535  29.747  1.00  0.00     0.200 A 
ATOM    123  F   UNL A   1      34.116  32.595  31.885  1.00  0.00    -0.200 F 
ATOM    124  F   UNL A   1      33.222  34.032  29.744  1.00  0.00    -0.200 F 
ENDBRANCH  86 114
BRANCH 101 125
ATOM    125  C   UNL A   1      43.200  35.316  31.546  1.00  0.00     0.064 A 
ATOM    126  C   UNL A   1      43.128  35.667  32.902  1.00  0.00     0.173 A 
ATOM    127  C   UNL A   1      43.659  36.282  30.638  1.00  0.00     0.173 A 
ATOM    128  F   UNL A   1      42.680  34.782  33.805  1.00  0.00    -0.203 F 
ATOM    129  C   UNL A   1      43.475  36.945  33.329  1.00  0.00     0.198 A 
ATOM    130  C   UNL A   1      44.030  37.551  31.072  1.00  0.00     0.198 A 
ATOM    131  F   UNL A   1      43.750  35.993  29.331  1.00  0.00    -0.203 F 
ATOM    132  F   UNL A   1      43.352  37.274  34.622  1.00  0.00    -0.200 F 
ATOM    133  C   UNL A   1      43.929  37.885  32.415  1.00  0.00     0.200 A 
ATOM    134  F   UNL A   1      44.476  38.456  30.190  1.00  0.00    -0.200 F 
ATOM    135  F   UNL A   1      44.261  39.115  32.827  1.00  0.00    -0.200 F 
ENDBRANCH 101 125
ENDBRANCH  66  69
ENDBRANCH  56  59
ENDBRANCH  52  55
ENDBRANCH  49  52
ENDBRANCH  46  49
ENDBRANCH   1  46
TORSDOF 17
ENDMDL
