MODEL 1
REMARK VINA RESULT:      -9.2      0.000      0.000
REMARK SMILES C[C@@H](C(=O)NCCCCCCNC(=O)c1ccc(-c2c3nc(c(-c4c(F)c(F)c(F)c(F)c4F)c4ccc([nH]4)c(-c4c(F)c(F)c(F)c(F)c4F)c4nc(c(-c5c(F)c(F)c(F)c(F)c5F)c5ccc2[nH]5)C=C4)C=C3)cc1)c1ccc(C[C@H]2CCC[C@@H]2O)cc1
REMARK SMILES IDX 7 1 6 4 5 7 3 8 4 9 2 11 1 13 78 17 79 18 90 19 80 20 89 22
REMARK SMILES IDX 81 24 82 27 83 30 84 31 87 32 85 34 86 37 88 43 8 45 9 48
REMARK SMILES IDX 10 51 11 54 12 57 13 58 14 60 15 61 16 62 77 63 17 64 76 66
REMARK SMILES IDX 18 68 19 71 20 72 70 73 21 74 75 75 69 76 71 77 22 78 74 79
REMARK SMILES IDX 68 81 67 83 23 85 55 88 35 89 54 90 36 91 39 92 53 93 72 94
REMARK SMILES IDX 37 95 38 97 52 99 73 100 40 103 24 105 25 106 33 107 26 108
REMARK SMILES IDX 27 109 31 110 34 111 28 112 29 113 32 114 30 115 56 116
REMARK SMILES IDX 57 117 65 118 58 119 59 120 63 121 66 122 60 123 61 124
REMARK SMILES IDX 64 125 62 126 41 127 42 128 50 129 43 130 44 131 48 132
REMARK SMILES IDX 51 133 45 134 46 135 49 136 47 137
REMARK H PARENT 7 2 7 3 6 5 6 6 5 10 2 12 1 14 1 15 1 16 79 21 90 23 80 25
REMARK H PARENT 89 26 82 28 82 29 83 33 84 35 84 36 87 38 85 39 85 40 86 41
REMARK H PARENT 86 42 88 44 8 46 8 47 9 49 9 50 10 52 10 53 11 55 11 56 12 59
REMARK H PARENT 16 65 77 67 17 69 76 70 75 80 69 82 71 84 74 86 68 87 36 96
REMARK H PARENT 39 98 72 101 37 102 73 104
REMARK Flexibility Score: inf
ROOT
ATOM      1  C   UNL A   1      46.341  23.461  24.523  1.00  0.00    -0.036 C 
ATOM      2  H   UNL A   1      46.896  23.124  23.673  1.00  0.00     0.028 H 
ATOM      3  H   UNL A   1      45.442  23.973  24.250  1.00  0.00     0.028 H 
ENDROOT
BRANCH   1   4
ATOM      4  C   UNL A   1      47.204  24.462  25.295  1.00  0.00     0.017 C 
ATOM      5  H   UNL A   1      46.769  24.637  26.257  1.00  0.00     0.049 H 
ATOM      6  H   UNL A   1      48.189  24.059  25.407  1.00  0.00     0.049 H 
BRANCH   4   7
ATOM      7  N   UNL A   1      47.286  25.712  24.575  1.00  0.00    -0.356 N 
ATOM      8  C   UNL A   1      46.471  26.804  24.606  1.00  0.00     0.227 C 
ATOM      9  O   UNL A   1      46.700  27.669  23.759  1.00  0.00    -0.274 OA
ATOM     10  H   UNL A   1      48.053  25.787  23.963  1.00  0.00     0.163 HD
BRANCH   8  11
ATOM     11  C   UNL A   1      45.388  26.916  25.691  1.00  0.00     0.060 C 
ATOM     12  H   UNL A   1      45.680  26.163  26.393  1.00  0.00     0.045 H 
BRANCH  11  13
ATOM     13  C   UNL A   1      43.973  26.626  25.178  1.00  0.00    -0.049 C 
ATOM     14  H   UNL A   1      43.278  26.694  25.989  1.00  0.00     0.024 H 
ATOM     15  H   UNL A   1      43.940  25.641  24.761  1.00  0.00     0.024 H 
ATOM     16  H   UNL A   1      43.714  27.341  24.425  1.00  0.00     0.024 H 
ENDBRANCH  11  13
BRANCH  11  17
ATOM     17  C   UNL A   1      45.352  28.270  26.389  1.00  0.00    -0.036 A 
ATOM     18  C   UNL A   1      44.121  28.873  26.676  1.00  0.00    -0.058 A 
ATOM     19  C   UNL A   1      46.530  28.986  26.651  1.00  0.00    -0.058 A 
ATOM     20  C   UNL A   1      44.072  30.177  27.168  1.00  0.00    -0.059 A 
ATOM     21  H   UNL A   1      43.245  28.350  26.523  1.00  0.00     0.063 H 
ATOM     22  C   UNL A   1      46.480  30.286  27.144  1.00  0.00    -0.059 A 
ATOM     23  H   UNL A   1      47.445  28.542  26.476  1.00  0.00     0.063 H 
ATOM     24  C   UNL A   1      45.248  30.912  27.357  1.00  0.00    -0.048 A 
ATOM     25  H   UNL A   1      43.160  30.604  27.395  1.00  0.00     0.063 H 
ATOM     26  H   UNL A   1      47.355  30.790  27.353  1.00  0.00     0.063 H 
BRANCH  24  27
ATOM     27  C   UNL A   1      45.200  32.381  27.700  1.00  0.00    -0.023 C 
ATOM     28  H   UNL A   1      46.123  32.824  27.389  1.00  0.00     0.032 H 
ATOM     29  H   UNL A   1      45.039  32.437  28.757  1.00  0.00     0.032 H 
BRANCH  27  30
ATOM     30  C   UNL A   1      44.047  33.161  27.043  1.00  0.00    -0.011 C 
ATOM     31  C   UNL A   1      43.466  34.338  27.847  1.00  0.00    -0.048 C 
ATOM     32  C   UNL A   1      44.365  33.766  25.673  1.00  0.00     0.057 C 
ATOM     33  H   UNL A   1      43.339  32.362  26.976  1.00  0.00     0.033 H 
ATOM     34  C   UNL A   1      43.081  35.406  26.816  1.00  0.00    -0.050 C 
ATOM     35  H   UNL A   1      44.200  34.724  28.524  1.00  0.00     0.027 H 
ATOM     36  H   UNL A   1      42.623  34.035  28.430  1.00  0.00     0.027 H 
ATOM     37  C   UNL A   1      43.211  34.732  25.460  1.00  0.00    -0.027 C 
ATOM     38  H   UNL A   1      45.322  34.243  25.625  1.00  0.00     0.060 H 
ATOM     39  H   UNL A   1      43.742  36.245  26.882  1.00  0.00     0.027 H 
ATOM     40  H   UNL A   1      42.090  35.775  26.981  1.00  0.00     0.027 H 
ATOM     41  H   UNL A   1      43.442  35.446  24.695  1.00  0.00     0.029 H 
ATOM     42  H   UNL A   1      42.311  34.253  25.137  1.00  0.00     0.029 H 
BRANCH  32  43
ATOM     43  O   UNL A   1      44.412  32.768  24.672  1.00  0.00    -0.393 OA
ATOM     44  H   UNL A   1      44.838  33.126  23.878  1.00  0.00     0.210 HD
ENDBRANCH  32  43
ENDBRANCH  27  30
ENDBRANCH  24  27
ENDBRANCH  11  17
ENDBRANCH   8  11
ENDBRANCH   4   7
ENDBRANCH   1   4
BRANCH   1  45
ATOM     45  C   UNL A   1      45.923  22.235  25.346  1.00  0.00    -0.052 C 
ATOM     46  H   UNL A   1      44.879  22.320  25.563  1.00  0.00     0.027 H 
ATOM     47  H   UNL A   1      46.538  22.237  26.223  1.00  0.00     0.027 H 
BRANCH  45  48
ATOM     48  C   UNL A   1      46.159  20.887  24.658  1.00  0.00    -0.052 C 
ATOM     49  H   UNL A   1      46.734  20.271  25.318  1.00  0.00     0.027 H 
ATOM     50  H   UNL A   1      46.662  21.099  23.739  1.00  0.00     0.027 H 
BRANCH  48  51
ATOM     51  C   UNL A   1      44.881  20.131  24.293  1.00  0.00    -0.036 C 
ATOM     52  H   UNL A   1      45.093  19.493  23.462  1.00  0.00     0.028 H 
ATOM     53  H   UNL A   1      44.139  20.869  24.068  1.00  0.00     0.028 H 
BRANCH  51  54
ATOM     54  C   UNL A   1      44.323  19.278  25.422  1.00  0.00     0.018 C 
ATOM     55  H   UNL A   1      44.564  19.740  26.357  1.00  0.00     0.049 H 
ATOM     56  H   UNL A   1      44.761  18.304  25.349  1.00  0.00     0.049 H 
BRANCH  54  57
ATOM     57  N   UNL A   1      42.880  19.130  25.329  1.00  0.00    -0.352 N 
ATOM     58  C   UNL A   1      41.900  19.902  25.894  1.00  0.00     0.251 C 
ATOM     59  H   UNL A   1      42.564  18.372  24.786  1.00  0.00     0.163 HD
ATOM     60  O   UNL A   1      40.730  19.524  25.894  1.00  0.00    -0.269 OA
BRANCH  58  61
ATOM     61  C   UNL A   1      42.258  21.191  26.519  1.00  0.00     0.039 A 
ATOM     62  C   UNL A   1      42.362  22.329  25.717  1.00  0.00    -0.049 A 
ATOM     63  C   UNL A   1      42.497  21.272  27.894  1.00  0.00    -0.049 A 
ATOM     64  C   UNL A   1      42.674  23.557  26.301  1.00  0.00    -0.053 A 
ATOM     65  H   UNL A   1      42.211  22.262  24.699  1.00  0.00     0.063 H 
ATOM     66  C   UNL A   1      42.718  22.510  28.486  1.00  0.00    -0.053 A 
ATOM     67  H   UNL A   1      42.511  20.415  28.468  1.00  0.00     0.063 H 
ATOM     68  C   UNL A   1      42.835  23.661  27.693  1.00  0.00    -0.014 A 
ATOM     69  H   UNL A   1      42.786  24.394  25.708  1.00  0.00     0.063 H 
ATOM     70  H   UNL A   1      42.796  22.583  29.512  1.00  0.00     0.063 H 
BRANCH  68  71
ATOM     71  C   UNL A   1      43.174  24.955  28.333  1.00  0.00     0.031 A 
ATOM     72  C   UNL A   1      42.094  25.971  28.583  1.00  0.00     0.074 A 
ATOM     73  C   UNL A   1      44.454  25.238  28.641  1.00  0.00     0.049 A 
ATOM     74  N   UNL A   1      42.186  27.175  29.087  1.00  0.00    -0.248 NA
ATOM     75  C   UNL A   1      40.729  25.594  28.181  1.00  0.00    -0.034 C 
ATOM     76  C   UNL A   1      45.595  24.352  28.411  1.00  0.00    -0.036 A 
ATOM     77  N   UNL A   1      45.009  26.354  29.215  1.00  0.00    -0.354 N 
ATOM     78  C   UNL A   1      40.902  27.703  29.042  1.00  0.00     0.074 A 
ATOM     79  C   UNL A   1      40.061  26.715  28.402  1.00  0.00    -0.034 C 
ATOM     80  H   UNL A   1      40.382  24.692  27.820  1.00  0.00     0.065 H 
ATOM     81  C   UNL A   1      46.709  24.942  28.871  1.00  0.00    -0.036 A 
ATOM     82  H   UNL A   1      45.550  23.422  27.965  1.00  0.00     0.065 H 
ATOM     83  C   UNL A   1      46.367  26.263  29.392  1.00  0.00     0.049 A 
ATOM     84  H   UNL A   1      44.483  27.145  29.474  1.00  0.00     0.167 HD
ATOM     85  C   UNL A   1      40.458  28.892  29.513  1.00  0.00     0.037 A 
ATOM     86  H   UNL A   1      39.071  26.866  28.151  1.00  0.00     0.065 H 
ATOM     87  H   UNL A   1      47.655  24.530  28.859  1.00  0.00     0.065 H 
ATOM     88  C   UNL A   1      47.236  27.148  29.918  1.00  0.00     0.037 A 
ATOM     89  C   UNL A   1      41.296  29.859  30.172  1.00  0.00     0.049 A 
ATOM     90  C   UNL A   1      46.721  28.467  30.427  1.00  0.00     0.074 A 
ATOM     91  C   UNL A   1      40.937  31.066  30.746  1.00  0.00    -0.036 A 
ATOM     92  N   UNL A   1      42.668  29.730  30.340  1.00  0.00    -0.354 N 
ATOM     93  N   UNL A   1      45.493  28.928  30.446  1.00  0.00    -0.248 NA
ATOM     94  C   UNL A   1      47.715  29.386  30.997  1.00  0.00    -0.034 C 
ATOM     95  C   UNL A   1      42.099  31.695  31.204  1.00  0.00    -0.036 A 
ATOM     96  H   UNL A   1      39.977  31.437  30.823  1.00  0.00     0.065 H 
ATOM     97  C   UNL A   1      43.174  30.849  30.982  1.00  0.00     0.049 A 
ATOM     98  H   UNL A   1      43.203  28.956  30.045  1.00  0.00     0.167 HD
ATOM     99  C   UNL A   1      45.559  30.167  31.068  1.00  0.00     0.074 A 
ATOM    100  C   UNL A   1      46.949  30.384  31.414  1.00  0.00    -0.034 C 
ATOM    101  H   UNL A   1      48.740  29.282  31.056  1.00  0.00     0.065 H 
ATOM    102  H   UNL A   1      42.149  32.632  31.635  1.00  0.00     0.065 H 
ATOM    103  C   UNL A   1      44.559  31.044  31.333  1.00  0.00     0.037 A 
ATOM    104  H   UNL A   1      47.299  31.211  31.923  1.00  0.00     0.065 H 
BRANCH  85 105
ATOM    105  C   UNL A   1      39.003  29.216  29.317  1.00  0.00     0.064 A 
ATOM    106  C   UNL A   1      38.089  29.210  30.384  1.00  0.00     0.173 A 
ATOM    107  C   UNL A   1      38.514  29.540  28.043  1.00  0.00     0.173 A 
ATOM    108  F   UNL A   1      38.498  28.896  31.623  1.00  0.00    -0.203 F 
ATOM    109  C   UNL A   1      36.737  29.468  30.173  1.00  0.00     0.198 A 
ATOM    110  C   UNL A   1      37.168  29.837  27.842  1.00  0.00     0.198 A 
ATOM    111  F   UNL A   1      39.341  29.568  26.987  1.00  0.00    -0.203 F 
ATOM    112  F   UNL A   1      35.873  29.384  31.196  1.00  0.00    -0.200 F 
ATOM    113  C   UNL A   1      36.278  29.787  28.905  1.00  0.00     0.200 A 
ATOM    114  F   UNL A   1      36.730  30.160  26.618  1.00  0.00    -0.200 F 
ATOM    115  F   UNL A   1      34.977  30.036  28.703  1.00  0.00    -0.200 F 
ENDBRANCH  85 105
BRANCH  88 116
ATOM    116  C   UNL A   1      48.675  26.793  30.035  1.00  0.00     0.064 A 
ATOM    117  C   UNL A   1      49.594  27.191  29.054  1.00  0.00     0.173 A 
ATOM    118  C   UNL A   1      49.163  26.055  31.124  1.00  0.00     0.173 A 
ATOM    119  F   UNL A   1      49.172  27.882  27.984  1.00  0.00    -0.203 F 
ATOM    120  C   UNL A   1      50.941  26.850  29.145  1.00  0.00     0.198 A 
ATOM    121  C   UNL A   1      50.516  25.739  31.229  1.00  0.00     0.198 A 
ATOM    122  F   UNL A   1      48.327  25.655  32.093  1.00  0.00    -0.203 F 
ATOM    123  F   UNL A   1      51.787  27.205  28.170  1.00  0.00    -0.200 F 
ATOM    124  C   UNL A   1      51.402  26.129  30.236  1.00  0.00     0.200 A 
ATOM    125  F   UNL A   1      50.961  25.057  32.293  1.00  0.00    -0.200 F 
ATOM    126  F   UNL A   1      52.699  25.805  30.327  1.00  0.00    -0.200 F 
ENDBRANCH  88 116
BRANCH 103 127
ATOM    127  C   UNL A   1      44.917  32.293  32.089  1.00  0.00     0.064 A 
ATOM    128  C   UNL A   1      45.431  33.430  31.448  1.00  0.00     0.173 A 
ATOM    129  C   UNL A   1      44.709  32.360  33.476  1.00  0.00     0.173 A 
ATOM    130  F   UNL A   1      45.662  33.415  30.126  1.00  0.00    -0.203 F 
ATOM    131  C   UNL A   1      45.754  34.575  32.172  1.00  0.00     0.198 A 
ATOM    132  C   UNL A   1      44.997  33.519  34.191  1.00  0.00     0.198 A 
ATOM    133  F   UNL A   1      44.212  31.305  34.137  1.00  0.00    -0.203 F 
ATOM    134  F   UNL A   1      46.298  35.629  31.548  1.00  0.00    -0.200 F 
ATOM    135  C   UNL A   1      45.530  34.621  33.541  1.00  0.00     0.200 A 
ATOM    136  F   UNL A   1      44.762  33.567  35.509  1.00  0.00    -0.200 F 
ATOM    137  F   UNL A   1      45.834  35.727  34.234  1.00  0.00    -0.200 F 
ENDBRANCH 103 127
ENDBRANCH  68  71
ENDBRANCH  58  61
ENDBRANCH  54  57
ENDBRANCH  51  54
ENDBRANCH  48  51
ENDBRANCH  45  48
ENDBRANCH   1  45
TORSDOF 18
ENDMDL
MODEL 2
REMARK VINA RESULT:      -9.1      6.147     11.465
REMARK SMILES C[C@@H](C(=O)NCCCCCCNC(=O)c1ccc(-c2c3nc(c(-c4c(F)c(F)c(F)c(F)c4F)c4ccc([nH]4)c(-c4c(F)c(F)c(F)c(F)c4F)c4nc(c(-c5c(F)c(F)c(F)c(F)c5F)c5ccc2[nH]5)C=C4)C=C3)cc1)c1ccc(C[C@H]2CCC[C@@H]2O)cc1
REMARK SMILES IDX 7 1 6 4 5 7 3 8 4 9 2 11 1 13 78 17 79 18 90 19 80 20 89 22
REMARK SMILES IDX 81 24 82 27 83 30 84 31 87 32 85 34 86 37 88 43 8 45 9 48
REMARK SMILES IDX 10 51 11 54 12 57 13 58 14 60 15 61 16 62 77 63 17 64 76 66
REMARK SMILES IDX 18 68 19 71 20 72 70 73 21 74 75 75 69 76 71 77 22 78 74 79
REMARK SMILES IDX 68 81 67 83 23 85 55 88 35 89 54 90 36 91 39 92 53 93 72 94
REMARK SMILES IDX 37 95 38 97 52 99 73 100 40 103 24 105 25 106 33 107 26 108
REMARK SMILES IDX 27 109 31 110 34 111 28 112 29 113 32 114 30 115 56 116
REMARK SMILES IDX 57 117 65 118 58 119 59 120 63 121 66 122 60 123 61 124
REMARK SMILES IDX 64 125 62 126 41 127 42 128 50 129 43 130 44 131 48 132
REMARK SMILES IDX 51 133 45 134 46 135 49 136 47 137
REMARK H PARENT 7 2 7 3 6 5 6 6 5 10 2 12 1 14 1 15 1 16 79 21 90 23 80 25
REMARK H PARENT 89 26 82 28 82 29 83 33 84 35 84 36 87 38 85 39 85 40 86 41
REMARK H PARENT 86 42 88 44 8 46 8 47 9 49 9 50 10 52 10 53 11 55 11 56 12 59
REMARK H PARENT 16 65 77 67 17 69 76 70 75 80 69 82 71 84 74 86 68 87 36 96
REMARK H PARENT 39 98 72 101 37 102 73 104
REMARK Flexibility Score: inf
ROOT
ATOM      1  C   UNL A   1      32.348  28.299  26.536  1.00  0.00    -0.036 C 
ATOM      2  H   UNL A   1      32.401  27.645  27.382  1.00  0.00     0.028 H 
ATOM      3  H   UNL A   1      31.570  28.025  25.854  1.00  0.00     0.028 H 
ENDROOT
BRANCH   1   4
ATOM      4  C   UNL A   1      33.667  28.199  25.767  1.00  0.00     0.017 C 
ATOM      5  H   UNL A   1      33.614  28.812  24.892  1.00  0.00     0.049 H 
ATOM      6  H   UNL A   1      34.465  28.531  26.399  1.00  0.00     0.049 H 
BRANCH   4   7
ATOM      7  N   UNL A   1      33.916  26.830  25.376  1.00  0.00    -0.356 N 
ATOM      8  C   UNL A   1      33.635  26.179  24.212  1.00  0.00     0.227 C 
ATOM      9  O   UNL A   1      33.820  24.962  24.220  1.00  0.00    -0.274 OA
ATOM     10  H   UNL A   1      34.359  26.278  26.061  1.00  0.00     0.163 HD
BRANCH   8  11
ATOM     11  C   UNL A   1      33.175  26.980  22.984  1.00  0.00     0.060 C 
ATOM     12  H   UNL A   1      33.160  26.239  22.213  1.00  0.00     0.045 H 
BRANCH  11  13
ATOM     13  C   UNL A   1      34.133  28.113  22.596  1.00  0.00    -0.049 C 
ATOM     14  H   UNL A   1      34.625  27.865  21.679  1.00  0.00     0.024 H 
ATOM     15  H   UNL A   1      34.862  28.243  23.368  1.00  0.00     0.024 H 
ATOM     16  H   UNL A   1      33.580  29.020  22.471  1.00  0.00     0.024 H 
ENDBRANCH  11  13
BRANCH  11  17
ATOM     17  C   UNL A   1      31.785  27.588  23.129  1.00  0.00    -0.036 A 
ATOM     18  C   UNL A   1      30.721  26.795  23.578  1.00  0.00    -0.058 A 
ATOM     19  C   UNL A   1      31.517  28.900  22.711  1.00  0.00    -0.058 A 
ATOM     20  C   UNL A   1      29.417  27.290  23.564  1.00  0.00    -0.059 A 
ATOM     21  H   UNL A   1      30.903  25.839  23.921  1.00  0.00     0.063 H 
ATOM     22  C   UNL A   1      30.216  29.394  22.700  1.00  0.00    -0.059 A 
ATOM     23  H   UNL A   1      32.295  29.507  22.409  1.00  0.00     0.063 H 
ATOM     24  C   UNL A   1      29.148  28.575  23.076  1.00  0.00    -0.048 A 
ATOM     25  H   UNL A   1      28.644  26.705  23.917  1.00  0.00     0.063 H 
ATOM     26  H   UNL A   1      30.040  30.369  22.412  1.00  0.00     0.063 H 
BRANCH  24  27
ATOM     27  C   UNL A   1      27.730  29.047  22.874  1.00  0.00    -0.023 C 
ATOM     28  H   UNL A   1      27.165  28.782  23.743  1.00  0.00     0.032 H 
ATOM     29  H   UNL A   1      27.380  28.572  21.981  1.00  0.00     0.032 H 
BRANCH  27  30
ATOM     30  C   UNL A   1      27.579  30.563  22.647  1.00  0.00    -0.011 C 
ATOM     31  C   UNL A   1      28.122  31.483  23.755  1.00  0.00    -0.048 C 
ATOM     32  C   UNL A   1      28.226  31.098  21.367  1.00  0.00     0.057 C 
ATOM     33  H   UNL A   1      26.511  30.607  22.608  1.00  0.00     0.033 H 
ATOM     34  C   UNL A   1      28.679  32.721  23.043  1.00  0.00    -0.050 C 
ATOM     35  H   UNL A   1      28.899  30.989  24.301  1.00  0.00     0.027 H 
ATOM     36  H   UNL A   1      27.358  31.745  24.455  1.00  0.00     0.027 H 
ATOM     37  C   UNL A   1      28.224  32.601  21.597  1.00  0.00    -0.027 C 
ATOM     38  H   UNL A   1      29.204  30.706  21.183  1.00  0.00     0.060 H 
ATOM     39  H   UNL A   1      29.747  32.736  23.098  1.00  0.00     0.027 H 
ATOM     40  H   UNL A   1      28.329  33.627  23.494  1.00  0.00     0.027 H 
ATOM     41  H   UNL A   1      28.908  33.093  20.936  1.00  0.00     0.029 H 
ATOM     42  H   UNL A   1      27.274  33.057  21.412  1.00  0.00     0.029 H 
BRANCH  32  43
ATOM     43  O   UNL A   1      27.475  30.737  20.225  1.00  0.00    -0.393 OA
ATOM     44  H   UNL A   1      26.725  30.183  20.492  1.00  0.00     0.210 HD
ENDBRANCH  32  43
ENDBRANCH  27  30
ENDBRANCH  24  27
ENDBRANCH  11  17
ENDBRANCH   8  11
ENDBRANCH   4   7
ENDBRANCH   1   4
BRANCH   1  45
ATOM     45  C   UNL A   1      32.025  29.713  27.037  1.00  0.00    -0.052 C 
ATOM     46  H   UNL A   1      32.940  30.171  27.351  1.00  0.00     0.027 H 
ATOM     47  H   UNL A   1      31.317  29.598  27.832  1.00  0.00     0.027 H 
BRANCH  45  48
ATOM     48  C   UNL A   1      31.365  30.628  26.002  1.00  0.00    -0.052 C 
ATOM     49  H   UNL A   1      30.358  30.295  25.856  1.00  0.00     0.027 H 
ATOM     50  H   UNL A   1      31.960  30.563  25.116  1.00  0.00     0.027 H 
BRANCH  48  51
ATOM     51  C   UNL A   1      31.326  32.105  26.395  1.00  0.00    -0.036 C 
ATOM     52  H   UNL A   1      30.554  32.240  27.122  1.00  0.00     0.028 H 
ATOM     53  H   UNL A   1      31.150  32.659  25.497  1.00  0.00     0.028 H 
BRANCH  51  54
ATOM     54  C   UNL A   1      32.631  32.623  26.981  1.00  0.00     0.018 C 
ATOM     55  H   UNL A   1      33.374  32.639  26.211  1.00  0.00     0.049 H 
ATOM     56  H   UNL A   1      32.918  31.971  27.780  1.00  0.00     0.049 H 
BRANCH  54  57
ATOM     57  N   UNL A   1      32.488  33.964  27.525  1.00  0.00    -0.352 N 
ATOM     58  C   UNL A   1      33.145  34.536  28.582  1.00  0.00     0.251 C 
ATOM     59  H   UNL A   1      31.828  34.538  27.073  1.00  0.00     0.163 HD
ATOM     60  O   UNL A   1      32.761  35.606  29.050  1.00  0.00    -0.269 OA
BRANCH  58  61
ATOM     61  C   UNL A   1      34.315  33.851  29.168  1.00  0.00     0.039 A 
ATOM     62  C   UNL A   1      35.597  34.282  28.824  1.00  0.00    -0.049 A 
ATOM     63  C   UNL A   1      34.143  32.782  30.052  1.00  0.00    -0.049 A 
ATOM     64  C   UNL A   1      36.709  33.661  29.393  1.00  0.00    -0.053 A 
ATOM     65  H   UNL A   1      35.722  35.055  28.152  1.00  0.00     0.063 H 
ATOM     66  C   UNL A   1      35.246  32.224  30.686  1.00  0.00    -0.053 A 
ATOM     67  H   UNL A   1      33.199  32.406  30.232  1.00  0.00     0.063 H 
ATOM     68  C   UNL A   1      36.542  32.640  30.344  1.00  0.00    -0.014 A 
ATOM     69  H   UNL A   1      37.659  33.952  29.115  1.00  0.00     0.063 H 
ATOM     70  H   UNL A   1      35.113  31.502  31.411  1.00  0.00     0.063 H 
BRANCH  68  71
ATOM     71  C   UNL A   1      37.710  31.959  30.955  1.00  0.00     0.031 A 
ATOM     72  C   UNL A   1      38.143  32.327  32.348  1.00  0.00     0.074 A 
ATOM     73  C   UNL A   1      38.409  31.054  30.245  1.00  0.00     0.049 A 
ATOM     74  N   UNL A   1      39.160  31.887  33.045  1.00  0.00    -0.248 NA
ATOM     75  C   UNL A   1      37.345  33.353  33.037  1.00  0.00    -0.034 C 
ATOM     76  C   UNL A   1      38.111  30.643  28.873  1.00  0.00    -0.036 A 
ATOM     77  N   UNL A   1      39.516  30.316  30.581  1.00  0.00    -0.354 N 
ATOM     78  C   UNL A   1      39.134  32.595  34.238  1.00  0.00     0.074 A 
ATOM     79  C   UNL A   1      38.042  33.540  34.147  1.00  0.00    -0.034 C 
ATOM     80  H   UNL A   1      36.470  33.809  32.735  1.00  0.00     0.065 H 
ATOM     81  C   UNL A   1      38.991  29.702  28.496  1.00  0.00    -0.036 A 
ATOM     82  H   UNL A   1      37.348  31.019  28.287  1.00  0.00     0.065 H 
ATOM     83  C   UNL A   1      39.936  29.471  29.584  1.00  0.00     0.049 A 
ATOM     84  H   UNL A   1      39.965  30.386  31.454  1.00  0.00     0.167 HD
ATOM     85  C   UNL A   1      39.931  32.455  35.325  1.00  0.00     0.037 A 
ATOM     86  H   UNL A   1      37.835  34.263  34.853  1.00  0.00     0.065 H 
ATOM     87  H   UNL A   1      38.998  29.218  27.584  1.00  0.00     0.065 H 
ATOM     88  C   UNL A   1      40.970  28.608  29.556  1.00  0.00     0.037 A 
ATOM     89  C   UNL A   1      40.999  31.495  35.419  1.00  0.00     0.049 A 
ATOM     90  C   UNL A   1      41.848  28.476  30.771  1.00  0.00     0.074 A 
ATOM     91  C   UNL A   1      41.825  31.224  36.495  1.00  0.00    -0.036 A 
ATOM     92  N   UNL A   1      41.393  30.650  34.390  1.00  0.00    -0.354 N 
ATOM     93  N   UNL A   1      41.771  29.097  31.923  1.00  0.00    -0.248 NA
ATOM     94  C   UNL A   1      42.953  27.511  30.683  1.00  0.00    -0.034 C 
ATOM     95  C   UNL A   1      42.759  30.260  36.098  1.00  0.00    -0.036 A 
ATOM     96  H   UNL A   1      41.764  31.657  37.429  1.00  0.00     0.065 H 
ATOM     97  C   UNL A   1      42.470  29.878  34.797  1.00  0.00     0.049 A 
ATOM     98  H   UNL A   1      40.970  30.606  33.501  1.00  0.00     0.167 HD
ATOM     99  C   UNL A   1      42.785  28.570  32.711  1.00  0.00     0.074 A 
ATOM    100  C   UNL A   1      43.461  27.574  31.905  1.00  0.00    -0.034 C 
ATOM    101  H   UNL A   1      43.253  26.936  29.880  1.00  0.00     0.065 H 
ATOM    102  H   UNL A   1      43.533  29.896  36.675  1.00  0.00     0.065 H 
ATOM    103  C   UNL A   1      43.123  28.879  33.987  1.00  0.00     0.037 A 
ATOM    104  H   UNL A   1      44.240  26.986  32.241  1.00  0.00     0.065 H 
BRANCH  85 105
ATOM    105  C   UNL A   1      39.684  33.373  36.489  1.00  0.00     0.064 A 
ATOM    106  C   UNL A   1      38.795  33.039  37.524  1.00  0.00     0.173 A 
ATOM    107  C   UNL A   1      40.349  34.605  36.574  1.00  0.00     0.173 A 
ATOM    108  F   UNL A   1      38.121  31.879  37.489  1.00  0.00    -0.203 F 
ATOM    109  C   UNL A   1      38.545  33.924  38.570  1.00  0.00     0.198 A 
ATOM    110  C   UNL A   1      40.129  35.470  37.643  1.00  0.00     0.198 A 
ATOM    111  F   UNL A   1      41.216  34.975  35.619  1.00  0.00    -0.203 F 
ATOM    112  F   UNL A   1      37.637  33.613  39.506  1.00  0.00    -0.200 F 
ATOM    113  C   UNL A   1      39.217  35.135  38.633  1.00  0.00     0.200 A 
ATOM    114  F   UNL A   1      40.790  36.634  37.709  1.00  0.00    -0.200 F 
ATOM    115  F   UNL A   1      38.977  35.986  39.640  1.00  0.00    -0.200 F 
ENDBRANCH  85 105
BRANCH  88 116
ATOM    116  C   UNL A   1      41.197  27.764  28.353  1.00  0.00     0.064 A 
ATOM    117  C   UNL A   1      42.076  28.180  27.343  1.00  0.00     0.173 A 
ATOM    118  C   UNL A   1      40.550  26.532  28.187  1.00  0.00     0.173 A 
ATOM    119  F   UNL A   1      42.705  29.361  27.447  1.00  0.00    -0.203 F 
ATOM    120  C   UNL A   1      42.284  27.406  26.204  1.00  0.00     0.198 A 
ATOM    121  C   UNL A   1      40.781  25.744  27.061  1.00  0.00     0.198 A 
ATOM    122  F   UNL A   1      39.705  26.085  29.127  1.00  0.00    -0.203 F 
ATOM    123  F   UNL A   1      43.095  27.850  25.234  1.00  0.00    -0.200 F 
ATOM    124  C   UNL A   1      41.642  26.185  26.067  1.00  0.00     0.200 A 
ATOM    125  F   UNL A   1      40.171  24.558  26.940  1.00  0.00    -0.200 F 
ATOM    126  F   UNL A   1      41.846  25.438  24.974  1.00  0.00    -0.200 F 
ENDBRANCH  88 116
BRANCH 103 127
ATOM    127  C   UNL A   1      44.236  28.089  34.619  1.00  0.00     0.064 A 
ATOM    128  C   UNL A   1      44.003  26.877  35.285  1.00  0.00     0.173 A 
ATOM    129  C   UNL A   1      45.562  28.542  34.524  1.00  0.00     0.173 A 
ATOM    130  F   UNL A   1      42.754  26.407  35.417  1.00  0.00    -0.203 F 
ATOM    131  C   UNL A   1      45.053  26.165  35.861  1.00  0.00     0.198 A 
ATOM    132  C   UNL A   1      46.612  27.809  35.068  1.00  0.00     0.198 A 
ATOM    133  F   UNL A   1      45.841  29.690  33.890  1.00  0.00    -0.203 F 
ATOM    134  F   UNL A   1      44.800  25.040  36.544  1.00  0.00    -0.200 F 
ATOM    135  C   UNL A   1      46.356  26.627  35.746  1.00  0.00     0.200 A 
ATOM    136  F   UNL A   1      47.872  28.248  34.938  1.00  0.00    -0.200 F 
ATOM    137  F   UNL A   1      47.365  25.936  36.294  1.00  0.00    -0.200 F 
ENDBRANCH 103 127
ENDBRANCH  68  71
ENDBRANCH  58  61
ENDBRANCH  54  57
ENDBRANCH  51  54
ENDBRANCH  48  51
ENDBRANCH  45  48
ENDBRANCH   1  45
TORSDOF 18
ENDMDL
MODEL 3
REMARK VINA RESULT:      -9.1      6.265     11.568
REMARK SMILES C[C@@H](C(=O)NCCCCCCNC(=O)c1ccc(-c2c3nc(c(-c4c(F)c(F)c(F)c(F)c4F)c4ccc([nH]4)c(-c4c(F)c(F)c(F)c(F)c4F)c4nc(c(-c5c(F)c(F)c(F)c(F)c5F)c5ccc2[nH]5)C=C4)C=C3)cc1)c1ccc(C[C@H]2CCC[C@@H]2O)cc1
REMARK SMILES IDX 7 1 6 4 5 7 3 8 4 9 2 11 1 13 78 17 79 18 90 19 80 20 89 22
REMARK SMILES IDX 81 24 82 27 83 30 84 31 87 32 85 34 86 37 88 43 8 45 9 48
REMARK SMILES IDX 10 51 11 54 12 57 13 58 14 60 15 61 16 62 77 63 17 64 76 66
REMARK SMILES IDX 18 68 19 71 20 72 70 73 21 74 75 75 69 76 71 77 22 78 74 79
REMARK SMILES IDX 68 81 67 83 23 85 55 88 35 89 54 90 36 91 39 92 53 93 72 94
REMARK SMILES IDX 37 95 38 97 52 99 73 100 40 103 24 105 25 106 33 107 26 108
REMARK SMILES IDX 27 109 31 110 34 111 28 112 29 113 32 114 30 115 56 116
REMARK SMILES IDX 57 117 65 118 58 119 59 120 63 121 66 122 60 123 61 124
REMARK SMILES IDX 64 125 62 126 41 127 42 128 50 129 43 130 44 131 48 132
REMARK SMILES IDX 51 133 45 134 46 135 49 136 47 137
REMARK H PARENT 7 2 7 3 6 5 6 6 5 10 2 12 1 14 1 15 1 16 79 21 90 23 80 25
REMARK H PARENT 89 26 82 28 82 29 83 33 84 35 84 36 87 38 85 39 85 40 86 41
REMARK H PARENT 86 42 88 44 8 46 8 47 9 49 9 50 10 52 10 53 11 55 11 56 12 59
REMARK H PARENT 16 65 77 67 17 69 76 70 75 80 69 82 71 84 74 86 68 87 36 96
REMARK H PARENT 39 98 72 101 37 102 73 104
REMARK Flexibility Score: inf
ROOT
ATOM      1  C   UNL A   1      31.806  28.632  27.433  1.00  0.00    -0.036 C 
ATOM      2  H   UNL A   1      32.360  28.647  28.349  1.00  0.00     0.028 H 
ATOM      3  H   UNL A   1      30.783  28.916  27.568  1.00  0.00     0.028 H 
ENDROOT
BRANCH   1   4
ATOM      4  C   UNL A   1      31.802  27.199  26.896  1.00  0.00     0.017 C 
ATOM      5  H   UNL A   1      31.910  26.515  27.712  1.00  0.00     0.049 H 
ATOM      6  H   UNL A   1      30.877  27.019  26.389  1.00  0.00     0.049 H 
BRANCH   4   7
ATOM      7  N   UNL A   1      32.893  27.009  25.968  1.00  0.00    -0.356 N 
ATOM      8  C   UNL A   1      32.961  26.274  24.823  1.00  0.00     0.227 C 
ATOM      9  O   UNL A   1      34.079  26.171  24.317  1.00  0.00    -0.274 OA
ATOM     10  H   UNL A   1      33.722  27.488  26.201  1.00  0.00     0.163 HD
BRANCH   8  11
ATOM     11  C   UNL A   1      31.677  25.685  24.219  1.00  0.00     0.060 C 
ATOM     12  H   UNL A   1      31.289  25.094  25.022  1.00  0.00     0.045 H 
BRANCH  11  13
ATOM     13  C   UNL A   1      31.926  24.796  22.995  1.00  0.00    -0.049 C 
ATOM     14  H   UNL A   1      31.107  24.891  22.312  1.00  0.00     0.024 H 
ATOM     15  H   UNL A   1      32.014  23.777  23.307  1.00  0.00     0.024 H 
ATOM     16  H   UNL A   1      32.830  25.101  22.511  1.00  0.00     0.024 H 
ENDBRANCH  11  13
BRANCH  11  17
ATOM     17  C   UNL A   1      30.645  26.733  23.819  1.00  0.00    -0.036 A 
ATOM     18  C   UNL A   1      29.298  26.550  24.156  1.00  0.00    -0.058 A 
ATOM     19  C   UNL A   1      30.995  27.829  23.015  1.00  0.00    -0.058 A 
ATOM     20  C   UNL A   1      28.323  27.416  23.662  1.00  0.00    -0.059 A 
ATOM     21  H   UNL A   1      29.026  25.770  24.774  1.00  0.00     0.063 H 
ATOM     22  C   UNL A   1      30.021  28.694  22.525  1.00  0.00    -0.059 A 
ATOM     23  H   UNL A   1      31.987  27.996  22.786  1.00  0.00     0.063 H 
ATOM     24  C   UNL A   1      28.671  28.463  22.801  1.00  0.00    -0.048 A 
ATOM     25  H   UNL A   1      27.336  27.283  23.934  1.00  0.00     0.063 H 
ATOM     26  H   UNL A   1      30.298  29.508  21.955  1.00  0.00     0.063 H 
BRANCH  24  27
ATOM     27  C   UNL A   1      27.611  29.283  22.107  1.00  0.00    -0.023 C 
ATOM     28  H   UNL A   1      26.654  28.905  22.401  1.00  0.00     0.032 H 
ATOM     29  H   UNL A   1      27.798  29.189  21.058  1.00  0.00     0.032 H 
BRANCH  27  30
ATOM     30  C   UNL A   1      27.649  30.790  22.422  1.00  0.00    -0.011 C 
ATOM     31  C   UNL A   1      28.317  31.200  23.745  1.00  0.00    -0.048 C 
ATOM     32  C   UNL A   1      28.342  31.659  21.368  1.00  0.00     0.057 C 
ATOM     33  H   UNL A   1      26.595  30.966  22.459  1.00  0.00     0.033 H 
ATOM     34  C   UNL A   1      29.016  32.537  23.471  1.00  0.00    -0.050 C 
ATOM     35  H   UNL A   1      29.032  30.463  24.046  1.00  0.00     0.027 H 
ATOM     36  H   UNL A   1      27.601  31.288  24.535  1.00  0.00     0.027 H 
ATOM     37  C   UNL A   1      28.532  32.978  22.099  1.00  0.00    -0.027 C 
ATOM     38  H   UNL A   1      29.261  31.246  21.008  1.00  0.00     0.060 H 
ATOM     39  H   UNL A   1      30.078  32.410  23.470  1.00  0.00     0.027 H 
ATOM     40  H   UNL A   1      28.788  33.264  24.224  1.00  0.00     0.027 H 
ATOM     41  H   UNL A   1      29.264  33.588  21.610  1.00  0.00     0.029 H 
ATOM     42  H   UNL A   1      27.645  33.575  22.134  1.00  0.00     0.029 H 
BRANCH  32  43
ATOM     43  O   UNL A   1      27.538  31.804  20.215  1.00  0.00    -0.393 OA
ATOM     44  H   UNL A   1      28.031  31.504  19.436  1.00  0.00     0.210 HD
ENDBRANCH  32  43
ENDBRANCH  27  30
ENDBRANCH  24  27
ENDBRANCH  11  17
ENDBRANCH   8  11
ENDBRANCH   4   7
ENDBRANCH   1   4
BRANCH   1  45
ATOM     45  C   UNL A   1      32.430  29.655  26.473  1.00  0.00    -0.052 C 
ATOM     46  H   UNL A   1      32.990  29.119  25.735  1.00  0.00     0.027 H 
ATOM     47  H   UNL A   1      33.034  30.302  27.073  1.00  0.00     0.027 H 
BRANCH  45  48
ATOM     48  C   UNL A   1      31.424  30.554  25.748  1.00  0.00    -0.052 C 
ATOM     49  H   UNL A   1      30.462  30.087  25.798  1.00  0.00     0.027 H 
ATOM     50  H   UNL A   1      31.784  30.666  24.747  1.00  0.00     0.027 H 
BRANCH  48  51
ATOM     51  C   UNL A   1      31.301  31.962  26.329  1.00  0.00    -0.036 C 
ATOM     52  H   UNL A   1      30.439  31.992  26.961  1.00  0.00     0.028 H 
ATOM     53  H   UNL A   1      31.227  32.634  25.498  1.00  0.00     0.028 H 
BRANCH  51  54
ATOM     54  C   UNL A   1      32.508  32.404  27.143  1.00  0.00     0.018 C 
ATOM     55  H   UNL A   1      33.394  32.233  26.568  1.00  0.00     0.049 H 
ATOM     56  H   UNL A   1      32.521  31.836  28.050  1.00  0.00     0.049 H 
BRANCH  54  57
ATOM     57  N   UNL A   1      32.440  33.812  27.495  1.00  0.00    -0.352 N 
ATOM     58  C   UNL A   1      33.159  34.496  28.440  1.00  0.00     0.251 C 
ATOM     59  H   UNL A   1      31.790  34.348  26.986  1.00  0.00     0.163 HD
ATOM     60  O   UNL A   1      32.837  35.638  28.763  1.00  0.00    -0.269 OA
BRANCH  58  61
ATOM     61  C   UNL A   1      34.320  33.847  29.083  1.00  0.00     0.039 A 
ATOM     62  C   UNL A   1      34.100  32.844  30.027  1.00  0.00    -0.049 A 
ATOM     63  C   UNL A   1      35.622  34.235  28.755  1.00  0.00    -0.049 A 
ATOM     64  C   UNL A   1      35.189  32.204  30.620  1.00  0.00    -0.053 A 
ATOM     65  H   UNL A   1      33.137  32.576  30.286  1.00  0.00     0.063 H 
ATOM     66  C   UNL A   1      36.704  33.538  29.278  1.00  0.00    -0.053 A 
ATOM     67  H   UNL A   1      35.780  35.039  28.128  1.00  0.00     0.063 H 
ATOM     68  C   UNL A   1      36.500  32.533  30.236  1.00  0.00    -0.014 A 
ATOM     69  H   UNL A   1      35.032  31.487  31.344  1.00  0.00     0.063 H 
ATOM     70  H   UNL A   1      37.661  33.759  28.961  1.00  0.00     0.063 H 
BRANCH  68  71
ATOM     71  C   UNL A   1      37.672  31.873  30.859  1.00  0.00     0.031 A 
ATOM     72  C   UNL A   1      38.094  32.258  32.250  1.00  0.00     0.074 A 
ATOM     73  C   UNL A   1      38.386  30.969  30.161  1.00  0.00     0.049 A 
ATOM     74  N   UNL A   1      39.113  31.837  32.957  1.00  0.00    -0.248 NA
ATOM     75  C   UNL A   1      37.281  33.282  32.926  1.00  0.00    -0.034 C 
ATOM     76  C   UNL A   1      38.100  30.542  28.792  1.00  0.00    -0.036 A 
ATOM     77  N   UNL A   1      39.499  30.247  30.510  1.00  0.00    -0.354 N 
ATOM     78  C   UNL A   1      39.073  32.556  34.144  1.00  0.00     0.074 A 
ATOM     79  C   UNL A   1      37.971  33.487  34.037  1.00  0.00    -0.034 C 
ATOM     80  H   UNL A   1      36.402  33.724  32.616  1.00  0.00     0.065 H 
ATOM     81  C   UNL A   1      38.992  29.607  28.429  1.00  0.00    -0.036 A 
ATOM     82  H   UNL A   1      37.335  30.902  28.199  1.00  0.00     0.065 H 
ATOM     83  C   UNL A   1      39.935  29.398  29.523  1.00  0.00     0.049 A 
ATOM     84  H   UNL A   1      39.944  30.331  31.384  1.00  0.00     0.167 HD
ATOM     85  C   UNL A   1      39.866  32.435  35.235  1.00  0.00     0.037 A 
ATOM     86  H   UNL A   1      37.751  34.214  34.736  1.00  0.00     0.065 H 
ATOM     87  H   UNL A   1      39.009  29.115  27.521  1.00  0.00     0.065 H 
ATOM     88  C   UNL A   1      40.978  28.547  29.508  1.00  0.00     0.037 A 
ATOM     89  C   UNL A   1      40.945  31.489  35.343  1.00  0.00     0.049 A 
ATOM     90  C   UNL A   1      41.852  28.436  30.729  1.00  0.00     0.074 A 
ATOM     91  C   UNL A   1      41.769  31.238  36.426  1.00  0.00    -0.036 A 
ATOM     92  N   UNL A   1      41.354  30.639  34.324  1.00  0.00    -0.354 N 
ATOM     93  N   UNL A   1      41.762  29.068  31.875  1.00  0.00    -0.248 NA
ATOM     94  C   UNL A   1      42.968  27.484  30.655  1.00  0.00    -0.034 C 
ATOM     95  C   UNL A   1      42.716  30.282  36.042  1.00  0.00    -0.036 A 
ATOM     96  H   UNL A   1      41.697  31.679  37.356  1.00  0.00     0.065 H 
ATOM     97  C   UNL A   1      42.437  29.883  34.744  1.00  0.00     0.049 A 
ATOM     98  H   UNL A   1      40.935  30.582  33.434  1.00  0.00     0.167 HD
ATOM     99  C   UNL A   1      42.779  28.560  32.672  1.00  0.00     0.074 A 
ATOM    100  C   UNL A   1      43.470  27.564  31.880  1.00  0.00    -0.034 C 
ATOM    101  H   UNL A   1      43.280  26.905  29.859  1.00  0.00     0.065 H 
ATOM    102  H   UNL A   1      43.491  29.932  36.627  1.00  0.00     0.065 H 
ATOM    103  C   UNL A   1      43.106  28.885  33.947  1.00  0.00     0.037 A 
ATOM    104  H   UNL A   1      44.255  26.989  32.224  1.00  0.00     0.065 H 
BRANCH  85 105
ATOM    105  C   UNL A   1      39.603  33.362  36.389  1.00  0.00     0.064 A 
ATOM    106  C   UNL A   1      40.221  34.619  36.490  1.00  0.00     0.173 A 
ATOM    107  C   UNL A   1      38.716  32.989  37.409  1.00  0.00     0.173 A 
ATOM    108  F   UNL A   1      41.088  35.024  35.548  1.00  0.00    -0.203 F 
ATOM    109  C   UNL A   1      39.999  35.444  37.590  1.00  0.00     0.198 A 
ATOM    110  C   UNL A   1      38.464  33.833  38.489  1.00  0.00     0.198 A 
ATOM    111  F   UNL A   1      38.090  31.803  37.364  1.00  0.00    -0.203 F 
ATOM    112  F   UNL A   1      40.657  36.606  37.698  1.00  0.00    -0.200 F 
ATOM    113  C   UNL A   1      39.116  35.053  38.585  1.00  0.00     0.200 A 
ATOM    114  F   UNL A   1      37.599  33.460  39.442  1.00  0.00    -0.200 F 
ATOM    115  F   UNL A   1      38.902  35.847  39.643  1.00  0.00    -0.200 F 
ENDBRANCH  85 105
BRANCH  88 116
ATOM    116  C   UNL A   1      41.222  27.695  28.315  1.00  0.00     0.064 A 
ATOM    117  C   UNL A   1      42.086  28.120  27.296  1.00  0.00     0.173 A 
ATOM    118  C   UNL A   1      40.604  26.444  28.166  1.00  0.00     0.173 A 
ATOM    119  F   UNL A   1      42.686  29.316  27.383  1.00  0.00    -0.203 F 
ATOM    120  C   UNL A   1      42.309  27.337  26.165  1.00  0.00     0.198 A 
ATOM    121  C   UNL A   1      40.851  25.649  27.049  1.00  0.00     0.198 A 
ATOM    122  F   UNL A   1      39.774  25.988  29.115  1.00  0.00    -0.203 F 
ATOM    123  F   UNL A   1      43.104  27.789  25.186  1.00  0.00    -0.200 F 
ATOM    124  C   UNL A   1      41.696  26.100  26.045  1.00  0.00     0.200 A 
ATOM    125  F   UNL A   1      40.269  24.447  26.945  1.00  0.00    -0.200 F 
ATOM    126  F   UNL A   1      41.914  25.344  24.960  1.00  0.00    -0.200 F 
ENDBRANCH  88 116
BRANCH 103 127
ATOM    127  C   UNL A   1      44.225  28.114  34.592  1.00  0.00     0.064 A 
ATOM    128  C   UNL A   1      45.551  28.569  34.572  1.00  0.00     0.173 A 
ATOM    129  C   UNL A   1      43.953  26.914  35.269  1.00  0.00     0.173 A 
ATOM    130  F   UNL A   1      45.868  29.702  33.927  1.00  0.00    -0.203 F 
ATOM    131  C   UNL A   1      46.568  27.835  35.178  1.00  0.00     0.198 A 
ATOM    132  C   UNL A   1      44.966  26.203  35.905  1.00  0.00     0.198 A 
ATOM    133  F   UNL A   1      42.700  26.438  35.326  1.00  0.00    -0.203 F 
ATOM    134  F   UNL A   1      47.837  28.259  35.096  1.00  0.00    -0.200 F 
ATOM    135  C   UNL A   1      46.274  26.657  35.849  1.00  0.00     0.200 A 
ATOM    136  F   UNL A   1      44.676  25.075  36.569  1.00  0.00    -0.200 F 
ATOM    137  F   UNL A   1      47.254  25.957  36.438  1.00  0.00    -0.200 F 
ENDBRANCH 103 127
ENDBRANCH  68  71
ENDBRANCH  58  61
ENDBRANCH  54  57
ENDBRANCH  51  54
ENDBRANCH  48  51
ENDBRANCH  45  48
ENDBRANCH   1  45
TORSDOF 18
ENDMDL
MODEL 4
REMARK VINA RESULT:      -9.1      5.986     12.437
REMARK SMILES C[C@@H](C(=O)NCCCCCCNC(=O)c1ccc(-c2c3nc(c(-c4c(F)c(F)c(F)c(F)c4F)c4ccc([nH]4)c(-c4c(F)c(F)c(F)c(F)c4F)c4nc(c(-c5c(F)c(F)c(F)c(F)c5F)c5ccc2[nH]5)C=C4)C=C3)cc1)c1ccc(C[C@H]2CCC[C@@H]2O)cc1
REMARK SMILES IDX 7 1 6 4 5 7 3 8 4 9 2 11 1 13 78 17 79 18 90 19 80 20 89 22
REMARK SMILES IDX 81 24 82 27 83 30 84 31 87 32 85 34 86 37 88 43 8 45 9 48
REMARK SMILES IDX 10 51 11 54 12 57 13 58 14 60 15 61 16 62 77 63 17 64 76 66
REMARK SMILES IDX 18 68 19 71 20 72 70 73 21 74 75 75 69 76 71 77 22 78 74 79
REMARK SMILES IDX 68 81 67 83 23 85 55 88 35 89 54 90 36 91 39 92 53 93 72 94
REMARK SMILES IDX 37 95 38 97 52 99 73 100 40 103 24 105 25 106 33 107 26 108
REMARK SMILES IDX 27 109 31 110 34 111 28 112 29 113 32 114 30 115 56 116
REMARK SMILES IDX 57 117 65 118 58 119 59 120 63 121 66 122 60 123 61 124
REMARK SMILES IDX 64 125 62 126 41 127 42 128 50 129 43 130 44 131 48 132
REMARK SMILES IDX 51 133 45 134 46 135 49 136 47 137
REMARK H PARENT 7 2 7 3 6 5 6 6 5 10 2 12 1 14 1 15 1 16 79 21 90 23 80 25
REMARK H PARENT 89 26 82 28 82 29 83 33 84 35 84 36 87 38 85 39 85 40 86 41
REMARK H PARENT 86 42 88 44 8 46 8 47 9 49 9 50 10 52 10 53 11 55 11 56 12 59
REMARK H PARENT 16 65 77 67 17 69 76 70 75 80 69 82 71 84 74 86 68 87 36 96
REMARK H PARENT 39 98 72 101 37 102 73 104
REMARK Flexibility Score: inf
ROOT
ATOM      1  C   UNL A   1      31.754  28.620  27.264  1.00  0.00    -0.036 C 
ATOM      2  H   UNL A   1      32.142  28.418  28.241  1.00  0.00     0.028 H 
ATOM      3  H   UNL A   1      30.688  28.713  27.257  1.00  0.00     0.028 H 
ENDROOT
BRANCH   1   4
ATOM      4  C   UNL A   1      32.102  27.438  26.355  1.00  0.00     0.017 C 
ATOM      5  H   UNL A   1      31.792  27.658  25.355  1.00  0.00     0.049 H 
ATOM      6  H   UNL A   1      33.160  27.278  26.383  1.00  0.00     0.049 H 
BRANCH   4   7
ATOM      7  N   UNL A   1      31.432  26.242  26.811  1.00  0.00    -0.356 N 
ATOM      8  C   UNL A   1      31.066  25.121  26.129  1.00  0.00     0.227 C 
ATOM      9  O   UNL A   1      30.361  24.323  26.748  1.00  0.00    -0.274 OA
ATOM     10  H   UNL A   1      31.201  26.237  27.768  1.00  0.00     0.163 HD
BRANCH   8  11
ATOM     11  C   UNL A   1      31.583  24.897  24.699  1.00  0.00     0.060 C 
ATOM     12  H   UNL A   1      32.208  25.750  24.539  1.00  0.00     0.045 H 
BRANCH  11  13
ATOM     13  C   UNL A   1      30.471  24.863  23.644  1.00  0.00    -0.049 C 
ATOM     14  H   UNL A   1      29.588  24.435  24.069  1.00  0.00     0.024 H 
ATOM     15  H   UNL A   1      30.788  24.272  22.811  1.00  0.00     0.024 H 
ATOM     16  H   UNL A   1      30.261  25.860  23.316  1.00  0.00     0.024 H 
ENDBRANCH  11  13
BRANCH  11  17
ATOM     17  C   UNL A   1      32.408  23.627  24.533  1.00  0.00    -0.036 A 
ATOM     18  C   UNL A   1      31.837  22.497  23.933  1.00  0.00    -0.058 A 
ATOM     19  C   UNL A   1      33.699  23.522  25.073  1.00  0.00    -0.058 A 
ATOM     20  C   UNL A   1      32.523  21.283  23.917  1.00  0.00    -0.059 A 
ATOM     21  H   UNL A   1      30.902  22.564  23.500  1.00  0.00     0.063 H 
ATOM     22  C   UNL A   1      34.384  22.310  25.054  1.00  0.00    -0.059 A 
ATOM     23  H   UNL A   1      34.146  24.354  25.488  1.00  0.00     0.063 H 
ATOM     24  C   UNL A   1      33.780  21.167  24.523  1.00  0.00    -0.048 A 
ATOM     25  H   UNL A   1      32.101  20.463  23.454  1.00  0.00     0.063 H 
ATOM     26  H   UNL A   1      35.341  22.256  25.434  1.00  0.00     0.063 H 
BRANCH  24  27
ATOM     27  C   UNL A   1      34.443  19.822  24.684  1.00  0.00    -0.023 C 
ATOM     28  H   UNL A   1      34.850  19.769  25.672  1.00  0.00     0.032 H 
ATOM     29  H   UNL A   1      35.187  19.760  23.917  1.00  0.00     0.032 H 
BRANCH  27  30
ATOM     30  C   UNL A   1      33.511  18.613  24.484  1.00  0.00    -0.011 C 
ATOM     31  C   UNL A   1      33.880  17.639  23.351  1.00  0.00    -0.048 C 
ATOM     32  C   UNL A   1      33.339  17.711  25.710  1.00  0.00     0.057 C 
ATOM     33  H   UNL A   1      32.615  19.147  24.247  1.00  0.00     0.033 H 
ATOM     34  C   UNL A   1      33.488  16.242  23.847  1.00  0.00    -0.050 C 
ATOM     35  H   UNL A   1      34.931  17.680  23.153  1.00  0.00     0.027 H 
ATOM     36  H   UNL A   1      33.375  17.887  22.442  1.00  0.00     0.027 H 
ATOM     37  C   UNL A   1      32.688  16.470  25.120  1.00  0.00    -0.027 C 
ATOM     38  H   UNL A   1      34.255  17.499  26.219  1.00  0.00     0.060 H 
ATOM     39  H   UNL A   1      34.361  15.660  24.054  1.00  0.00     0.027 H 
ATOM     40  H   UNL A   1      32.920  15.707  23.114  1.00  0.00     0.027 H 
ATOM     41  H   UNL A   1      32.777  15.636  25.785  1.00  0.00     0.029 H 
ATOM     42  H   UNL A   1      31.639  16.583  24.947  1.00  0.00     0.029 H 
BRANCH  32  43
ATOM     43  O   UNL A   1      32.520  18.325  26.685  1.00  0.00    -0.393 OA
ATOM     44  H   UNL A   1      31.776  18.771  26.249  1.00  0.00     0.210 HD
ENDBRANCH  32  43
ENDBRANCH  27  30
ENDBRANCH  24  27
ENDBRANCH  11  17
ENDBRANCH   8  11
ENDBRANCH   4   7
ENDBRANCH   1   4
BRANCH   1  45
ATOM     45  C   UNL A   1      32.323  29.963  26.785  1.00  0.00    -0.052 C 
ATOM     46  H   UNL A   1      33.174  29.762  26.168  1.00  0.00     0.027 H 
ATOM     47  H   UNL A   1      32.562  30.521  27.666  1.00  0.00     0.027 H 
BRANCH  45  48
ATOM     48  C   UNL A   1      31.346  30.825  25.981  1.00  0.00    -0.052 C 
ATOM     49  H   UNL A   1      30.375  30.379  26.046  1.00  0.00     0.027 H 
ATOM     50  H   UNL A   1      31.724  30.862  24.982  1.00  0.00     0.027 H 
BRANCH  48  51
ATOM     51  C   UNL A   1      31.237  32.273  26.461  1.00  0.00    -0.036 C 
ATOM     52  H   UNL A   1      30.417  32.342  27.142  1.00  0.00     0.028 H 
ATOM     53  H   UNL A   1      31.101  32.878  25.588  1.00  0.00     0.028 H 
BRANCH  51  54
ATOM     54  C   UNL A   1      32.486  32.788  27.161  1.00  0.00     0.018 C 
ATOM     55  H   UNL A   1      33.317  32.706  26.491  1.00  0.00     0.049 H 
ATOM     56  H   UNL A   1      32.640  32.197  28.040  1.00  0.00     0.049 H 
BRANCH  54  57
ATOM     57  N   UNL A   1      32.346  34.176  27.570  1.00  0.00    -0.352 N 
ATOM     58  C   UNL A   1      33.000  34.845  28.572  1.00  0.00     0.251 C 
ATOM     59  H   UNL A   1      31.694  34.706  27.059  1.00  0.00     0.163 HD
ATOM     60  O   UNL A   1      32.618  35.957  28.930  1.00  0.00    -0.269 OA
BRANCH  58  61
ATOM     61  C   UNL A   1      34.161  34.215  29.231  1.00  0.00     0.039 A 
ATOM     62  C   UNL A   1      35.446  34.516  28.777  1.00  0.00    -0.049 A 
ATOM     63  C   UNL A   1      33.979  33.324  30.292  1.00  0.00    -0.049 A 
ATOM     64  C   UNL A   1      36.552  33.948  29.410  1.00  0.00    -0.053 A 
ATOM     65  H   UNL A   1      35.577  35.154  27.976  1.00  0.00     0.063 H 
ATOM     66  C   UNL A   1      35.081  32.830  30.979  1.00  0.00    -0.053 A 
ATOM     67  H   UNL A   1      33.027  33.032  30.565  1.00  0.00     0.063 H 
ATOM     68  C   UNL A   1      36.379  33.116  30.528  1.00  0.00    -0.014 A 
ATOM     69  H   UNL A   1      37.501  34.140  29.055  1.00  0.00     0.063 H 
ATOM     70  H   UNL A   1      34.946  32.252  31.823  1.00  0.00     0.063 H 
BRANCH  68  71
ATOM     71  C   UNL A   1      37.540  32.495  31.211  1.00  0.00     0.031 A 
ATOM     72  C   UNL A   1      38.306  31.395  30.530  1.00  0.00     0.074 A 
ATOM     73  C   UNL A   1      37.873  32.880  32.457  1.00  0.00     0.049 A 
ATOM     74  N   UNL A   1      39.319  30.691  30.970  1.00  0.00    -0.248 NA
ATOM     75  C   UNL A   1      37.850  31.009  29.185  1.00  0.00    -0.034 C 
ATOM     76  C   UNL A   1      37.183  33.908  33.237  1.00  0.00    -0.036 A 
ATOM     77  N   UNL A   1      38.878  32.451  33.287  1.00  0.00    -0.354 N 
ATOM     78  C   UNL A   1      39.603  29.773  29.969  1.00  0.00     0.074 A 
ATOM     79  C   UNL A   1      38.618  29.962  28.927  1.00  0.00    -0.034 C 
ATOM     80  H   UNL A   1      37.123  31.442  28.595  1.00  0.00     0.065 H 
ATOM     81  C   UNL A   1      37.805  34.055  34.417  1.00  0.00    -0.036 A 
ATOM     82  H   UNL A   1      36.350  34.435  32.930  1.00  0.00     0.065 H 
ATOM     83  C   UNL A   1      38.912  33.107  34.493  1.00  0.00     0.049 A 
ATOM     84  H   UNL A   1      39.513  31.740  33.041  1.00  0.00     0.167 HD
ATOM     85  C   UNL A   1      40.611  28.868  29.910  1.00  0.00     0.037 A 
ATOM     86  H   UNL A   1      38.527  29.361  28.093  1.00  0.00     0.065 H 
ATOM     87  H   UNL A   1      37.544  34.730  35.153  1.00  0.00     0.065 H 
ATOM     88  C   UNL A   1      39.747  32.957  35.539  1.00  0.00     0.037 A 
ATOM     89  C   UNL A   1      41.603  28.703  30.939  1.00  0.00     0.049 A 
ATOM     90  C   UNL A   1      40.853  31.940  35.455  1.00  0.00     0.074 A 
ATOM     91  C   UNL A   1      42.703  27.864  30.952  1.00  0.00    -0.036 A 
ATOM     92  N   UNL A   1      41.610  29.390  32.146  1.00  0.00    -0.354 N 
ATOM     93  N   UNL A   1      41.160  31.126  34.474  1.00  0.00    -0.248 NA
ATOM     94  C   UNL A   1      41.736  31.829  36.624  1.00  0.00    -0.034 C 
ATOM     95  C   UNL A   1      43.340  27.997  32.190  1.00  0.00    -0.036 A 
ATOM     96  H   UNL A   1      43.003  27.248  30.181  1.00  0.00     0.065 H 
ATOM     97  C   UNL A   1      42.680  28.972  32.922  1.00  0.00     0.049 A 
ATOM     98  H   UNL A   1      40.952  30.074  32.410  1.00  0.00     0.167 HD
ATOM     99  C   UNL A   1      42.294  30.439  34.886  1.00  0.00     0.074 A 
ATOM    100  C   UNL A   1      42.623  30.936  36.207  1.00  0.00    -0.034 C 
ATOM    101  H   UNL A   1      41.680  32.318  37.532  1.00  0.00     0.065 H 
ATOM    102  H   UNL A   1      44.162  27.460  32.507  1.00  0.00     0.065 H 
ATOM    103  C   UNL A   1      43.002  29.488  34.230  1.00  0.00     0.037 A 
ATOM    104  H   UNL A   1      43.444  30.635  36.754  1.00  0.00     0.065 H 
BRANCH  85 105
ATOM    105  C   UNL A   1      40.676  27.981  28.698  1.00  0.00     0.064 A 
ATOM    106  C   UNL A   1      41.428  28.327  27.563  1.00  0.00     0.173 A 
ATOM    107  C   UNL A   1      39.978  26.765  28.671  1.00  0.00     0.173 A 
ATOM    108  F   UNL A   1      42.106  29.485  27.527  1.00  0.00    -0.203 F 
ATOM    109  C   UNL A   1      41.438  27.513  26.432  1.00  0.00     0.198 A 
ATOM    110  C   UNL A   1      40.023  25.933  27.555  1.00  0.00     0.198 A 
ATOM    111  F   UNL A   1      39.248  26.379  29.729  1.00  0.00    -0.203 F 
ATOM    112  F   UNL A   1      42.104  27.901  25.336  1.00  0.00    -0.200 F 
ATOM    113  C   UNL A   1      40.742  26.314  26.431  1.00  0.00     0.200 A 
ATOM    114  F   UNL A   1      39.361  24.768  27.561  1.00  0.00    -0.200 F 
ATOM    115  F   UNL A   1      40.752  25.532  25.344  1.00  0.00    -0.200 F 
ENDBRANCH  85 105
BRANCH  88 116
ATOM    116  C   UNL A   1      39.599  33.827  36.736  1.00  0.00     0.064 A 
ATOM    117  C   UNL A   1      40.238  35.073  36.798  1.00  0.00     0.173 A 
ATOM    118  C   UNL A   1      38.819  33.438  37.834  1.00  0.00     0.173 A 
ATOM    119  F   UNL A   1      41.010  35.481  35.780  1.00  0.00    -0.203 F 
ATOM    120  C   UNL A   1      40.119  35.889  37.921  1.00  0.00     0.198 A 
ATOM    121  C   UNL A   1      38.676  34.268  38.945  1.00  0.00     0.198 A 
ATOM    122  F   UNL A   1      38.181  32.259  37.822  1.00  0.00    -0.203 F 
ATOM    123  F   UNL A   1      40.777  37.055  37.972  1.00  0.00    -0.200 F 
ATOM    124  C   UNL A   1      39.333  35.489  38.991  1.00  0.00     0.200 A 
ATOM    125  F   UNL A   1      37.903  33.885  39.969  1.00  0.00    -0.200 F 
ATOM    126  F   UNL A   1      39.214  36.276  40.069  1.00  0.00    -0.200 F 
ENDBRANCH  88 116
BRANCH 103 127
ATOM    127  C   UNL A   1      44.242  28.962  34.899  1.00  0.00     0.064 A 
ATOM    128  C   UNL A   1      45.492  29.576  34.738  1.00  0.00     0.173 A 
ATOM    129  C   UNL A   1      44.164  27.842  35.743  1.00  0.00     0.173 A 
ATOM    130  F   UNL A   1      45.624  30.640  33.932  1.00  0.00    -0.203 F 
ATOM    131  C   UNL A   1      46.625  29.069  35.370  1.00  0.00     0.198 A 
ATOM    132  C   UNL A   1      45.291  27.361  36.403  1.00  0.00     0.198 A 
ATOM    133  F   UNL A   1      42.991  27.223  35.939  1.00  0.00    -0.203 F 
ATOM    134  F   UNL A   1      47.820  29.636  35.156  1.00  0.00    -0.200 F 
ATOM    135  C   UNL A   1      46.522  27.967  36.207  1.00  0.00     0.200 A 
ATOM    136  F   UNL A   1      45.185  26.308  37.226  1.00  0.00    -0.200 F 
ATOM    137  F   UNL A   1      47.612  27.486  36.821  1.00  0.00    -0.200 F 
ENDBRANCH 103 127
ENDBRANCH  68  71
ENDBRANCH  58  61
ENDBRANCH  54  57
ENDBRANCH  51  54
ENDBRANCH  48  51
ENDBRANCH  45  48
ENDBRANCH   1  45
TORSDOF 18
ENDMDL
MODEL 5
REMARK VINA RESULT:      -9.0      4.990     11.220
REMARK SMILES C[C@@H](C(=O)NCCCCCCNC(=O)c1ccc(-c2c3nc(c(-c4c(F)c(F)c(F)c(F)c4F)c4ccc([nH]4)c(-c4c(F)c(F)c(F)c(F)c4F)c4nc(c(-c5c(F)c(F)c(F)c(F)c5F)c5ccc2[nH]5)C=C4)C=C3)cc1)c1ccc(C[C@H]2CCC[C@@H]2O)cc1
REMARK SMILES IDX 7 1 6 4 5 7 3 8 4 9 2 11 1 13 78 17 79 18 90 19 80 20 89 22
REMARK SMILES IDX 81 24 82 27 83 30 84 31 87 32 85 34 86 37 88 43 8 45 9 48
REMARK SMILES IDX 10 51 11 54 12 57 13 58 14 60 15 61 16 62 77 63 17 64 76 66
REMARK SMILES IDX 18 68 19 71 20 72 70 73 21 74 75 75 69 76 71 77 22 78 74 79
REMARK SMILES IDX 68 81 67 83 23 85 55 88 35 89 54 90 36 91 39 92 53 93 72 94
REMARK SMILES IDX 37 95 38 97 52 99 73 100 40 103 24 105 25 106 33 107 26 108
REMARK SMILES IDX 27 109 31 110 34 111 28 112 29 113 32 114 30 115 56 116
REMARK SMILES IDX 57 117 65 118 58 119 59 120 63 121 66 122 60 123 61 124
REMARK SMILES IDX 64 125 62 126 41 127 42 128 50 129 43 130 44 131 48 132
REMARK SMILES IDX 51 133 45 134 46 135 49 136 47 137
REMARK H PARENT 7 2 7 3 6 5 6 6 5 10 2 12 1 14 1 15 1 16 79 21 90 23 80 25
REMARK H PARENT 89 26 82 28 82 29 83 33 84 35 84 36 87 38 85 39 85 40 86 41
REMARK H PARENT 86 42 88 44 8 46 8 47 9 49 9 50 10 52 10 53 11 55 11 56 12 59
REMARK H PARENT 16 65 77 67 17 69 76 70 75 80 69 82 71 84 74 86 68 87 36 96
REMARK H PARENT 39 98 72 101 37 102 73 104
REMARK Flexibility Score: inf
ROOT
ATOM      1  C   UNL A   1      33.320  26.333  25.980  1.00  0.00    -0.036 C 
ATOM      2  H   UNL A   1      32.702  25.619  26.485  1.00  0.00     0.028 H 
ATOM      3  H   UNL A   1      33.738  27.058  26.646  1.00  0.00     0.028 H 
ENDROOT
BRANCH   1   4
ATOM      4  C   UNL A   1      32.450  27.099  24.980  1.00  0.00     0.017 C 
ATOM      5  H   UNL A   1      31.503  26.610  24.886  1.00  0.00     0.049 H 
ATOM      6  H   UNL A   1      32.312  28.100  25.334  1.00  0.00     0.049 H 
BRANCH   4   7
ATOM      7  N   UNL A   1      33.094  27.142  23.687  1.00  0.00    -0.356 N 
ATOM      8  C   UNL A   1      32.909  26.368  22.582  1.00  0.00     0.227 C 
ATOM      9  O   UNL A   1      33.719  26.533  21.669  1.00  0.00    -0.274 OA
ATOM     10  H   UNL A   1      33.778  27.845  23.589  1.00  0.00     0.163 HD
BRANCH   8  11
ATOM     11  C   UNL A   1      31.712  25.406  22.518  1.00  0.00     0.060 C 
ATOM     12  H   UNL A   1      31.565  25.284  21.465  1.00  0.00     0.045 H 
BRANCH  11  13
ATOM     13  C   UNL A   1      30.438  25.971  23.157  1.00  0.00    -0.049 C 
ATOM     14  H   UNL A   1      29.963  25.209  23.739  1.00  0.00     0.024 H 
ATOM     15  H   UNL A   1      29.770  26.301  22.389  1.00  0.00     0.024 H 
ATOM     16  H   UNL A   1      30.691  26.796  23.789  1.00  0.00     0.024 H 
ENDBRANCH  11  13
BRANCH  11  17
ATOM     17  C   UNL A   1      31.977  24.047  23.153  1.00  0.00    -0.036 A 
ATOM     18  C   UNL A   1      32.806  23.124  22.503  1.00  0.00    -0.058 A 
ATOM     19  C   UNL A   1      31.314  23.649  24.324  1.00  0.00    -0.058 A 
ATOM     20  C   UNL A   1      32.931  21.823  22.989  1.00  0.00    -0.059 A 
ATOM     21  H   UNL A   1      33.328  23.408  21.659  1.00  0.00     0.063 H 
ATOM     22  C   UNL A   1      31.442  22.351  24.809  1.00  0.00    -0.059 A 
ATOM     23  H   UNL A   1      30.726  24.328  24.831  1.00  0.00     0.063 H 
ATOM     24  C   UNL A   1      32.209  21.411  24.116  1.00  0.00    -0.048 A 
ATOM     25  H   UNL A   1      33.561  21.157  22.514  1.00  0.00     0.063 H 
ATOM     26  H   UNL A   1      30.967  22.081  25.684  1.00  0.00     0.063 H 
BRANCH  24  27
ATOM     27  C   UNL A   1      32.183  19.962  24.535  1.00  0.00    -0.023 C 
ATOM     28  H   UNL A   1      31.213  19.569  24.311  1.00  0.00     0.032 H 
ATOM     29  H   UNL A   1      32.414  19.948  25.580  1.00  0.00     0.032 H 
BRANCH  27  30
ATOM     30  C   UNL A   1      33.232  19.070  23.846  1.00  0.00    -0.011 C 
ATOM     31  C   UNL A   1      34.503  18.752  24.653  1.00  0.00    -0.048 C 
ATOM     32  C   UNL A   1      32.726  17.699  23.391  1.00  0.00     0.057 C 
ATOM     33  H   UNL A   1      33.460  19.710  23.019  1.00  0.00     0.033 H 
ATOM     34  C   UNL A   1      34.900  17.320  24.273  1.00  0.00    -0.050 C 
ATOM     35  H   UNL A   1      34.302  18.814  25.703  1.00  0.00     0.027 H 
ATOM     36  H   UNL A   1      35.288  19.445  24.438  1.00  0.00     0.027 H 
ATOM     37  C   UNL A   1      34.015  16.950  23.093  1.00  0.00    -0.027 C 
ATOM     38  H   UNL A   1      32.115  17.204  24.116  1.00  0.00     0.060 H 
ATOM     39  H   UNL A   1      34.728  16.654  25.092  1.00  0.00     0.027 H 
ATOM     40  H   UNL A   1      35.939  17.251  24.026  1.00  0.00     0.027 H 
ATOM     41  H   UNL A   1      33.847  15.893  23.054  1.00  0.00     0.029 H 
ATOM     42  H   UNL A   1      34.444  17.203  22.147  1.00  0.00     0.029 H 
BRANCH  32  43
ATOM     43  O   UNL A   1      31.904  17.811  22.246  1.00  0.00    -0.393 OA
ATOM     44  H   UNL A   1      32.244  18.514  21.671  1.00  0.00     0.210 HD
ENDBRANCH  32  43
ENDBRANCH  27  30
ENDBRANCH  24  27
ENDBRANCH  11  17
ENDBRANCH   8  11
ENDBRANCH   4   7
ENDBRANCH   1   4
BRANCH   1  45
ATOM     45  C   UNL A   1      34.496  25.586  25.337  1.00  0.00    -0.052 C 
ATOM     46  H   UNL A   1      35.391  26.135  25.542  1.00  0.00     0.027 H 
ATOM     47  H   UNL A   1      34.274  25.516  24.292  1.00  0.00     0.027 H 
BRANCH  45  48
ATOM     48  C   UNL A   1      34.695  24.150  25.831  1.00  0.00    -0.052 C 
ATOM     49  H   UNL A   1      33.743  23.661  25.830  1.00  0.00     0.027 H 
ATOM     50  H   UNL A   1      35.127  24.222  26.807  1.00  0.00     0.027 H 
BRANCH  48  51
ATOM     51  C   UNL A   1      35.659  23.318  24.987  1.00  0.00    -0.036 C 
ATOM     52  H   UNL A   1      35.354  23.382  23.964  1.00  0.00     0.028 H 
ATOM     53  H   UNL A   1      35.620  22.318  25.368  1.00  0.00     0.028 H 
BRANCH  51  54
ATOM     54  C   UNL A   1      37.111  23.766  25.082  1.00  0.00     0.018 C 
ATOM     55  H   UNL A   1      37.170  24.604  25.744  1.00  0.00     0.049 H 
ATOM     56  H   UNL A   1      37.442  24.026  24.098  1.00  0.00     0.049 H 
BRANCH  54  57
ATOM     57  N   UNL A   1      37.974  22.709  25.583  1.00  0.00    -0.352 N 
ATOM     58  C   UNL A   1      39.136  22.818  26.300  1.00  0.00     0.251 C 
ATOM     59  H   UNL A   1      37.684  21.790  25.378  1.00  0.00     0.163 HD
ATOM     60  O   UNL A   1      39.860  21.838  26.467  1.00  0.00    -0.269 OA
BRANCH  58  61
ATOM     61  C   UNL A   1      39.524  24.127  26.863  1.00  0.00     0.039 A 
ATOM     62  C   UNL A   1      39.205  24.416  28.190  1.00  0.00    -0.049 A 
ATOM     63  C   UNL A   1      40.197  25.066  26.077  1.00  0.00    -0.049 A 
ATOM     64  C   UNL A   1      39.590  25.639  28.741  1.00  0.00    -0.053 A 
ATOM     65  H   UNL A   1      38.685  23.731  28.761  1.00  0.00     0.063 H 
ATOM     66  C   UNL A   1      40.659  26.244  26.651  1.00  0.00    -0.053 A 
ATOM     67  H   UNL A   1      40.349  24.887  25.072  1.00  0.00     0.063 H 
ATOM     68  C   UNL A   1      40.338  26.554  27.981  1.00  0.00    -0.014 A 
ATOM     69  H   UNL A   1      39.326  25.872  29.710  1.00  0.00     0.063 H 
ATOM     70  H   UNL A   1      41.241  26.893  26.098  1.00  0.00     0.063 H 
BRANCH  68  71
ATOM     71  C   UNL A   1      40.751  27.863  28.544  1.00  0.00     0.031 A 
ATOM     72  C   UNL A   1      42.197  28.110  28.876  1.00  0.00     0.074 A 
ATOM     73  C   UNL A   1      39.827  28.807  28.803  1.00  0.00     0.049 A 
ATOM     74  N   UNL A   1      42.758  29.163  29.415  1.00  0.00    -0.248 NA
ATOM     75  C   UNL A   1      43.135  27.011  28.596  1.00  0.00    -0.034 C 
ATOM     76  C   UNL A   1      38.390  28.671  28.562  1.00  0.00    -0.036 A 
ATOM     77  N   UNL A   1      39.959  30.068  29.328  1.00  0.00    -0.354 N 
ATOM     78  C   UNL A   1      44.102  28.844  29.556  1.00  0.00     0.074 A 
ATOM     79  C   UNL A   1      44.262  27.478  29.109  1.00  0.00    -0.034 C 
ATOM     80  H   UNL A   1      42.960  26.111  28.123  1.00  0.00     0.065 H 
ATOM     81  C   UNL A   1      37.778  29.815  28.904  1.00  0.00    -0.036 A 
ATOM     82  H   UNL A   1      37.922  27.830  28.189  1.00  0.00     0.065 H 
ATOM     83  C   UNL A   1      38.771  30.750  29.424  1.00  0.00     0.049 A 
ATOM     84  H   UNL A   1      40.823  30.447  29.609  1.00  0.00     0.167 HD
ATOM     85  C   UNL A   1      45.117  29.626  29.996  1.00  0.00     0.037 A 
ATOM     86  H   UNL A   1      45.140  26.940  29.179  1.00  0.00     0.065 H 
ATOM     87  H   UNL A   1      36.767  30.005  28.813  1.00  0.00     0.065 H 
ATOM     88  C   UNL A   1      38.518  31.991  29.882  1.00  0.00     0.037 A 
ATOM     89  C   UNL A   1      44.954  30.993  30.415  1.00  0.00     0.049 A 
ATOM     90  C   UNL A   1      39.660  32.839  30.374  1.00  0.00     0.074 A 
ATOM     91  C   UNL A   1      45.923  31.895  30.816  1.00  0.00    -0.036 A 
ATOM     92  N   UNL A   1      43.735  31.654  30.494  1.00  0.00    -0.354 N 
ATOM     93  N   UNL A   1      40.939  32.555  30.435  1.00  0.00    -0.248 NA
ATOM     94  C   UNL A   1      39.321  34.186  30.851  1.00  0.00    -0.034 C 
ATOM     95  C   UNL A   1      45.286  33.082  31.197  1.00  0.00    -0.036 A 
ATOM     96  H   UNL A   1      46.940  31.724  30.831  1.00  0.00     0.065 H 
ATOM     97  C   UNL A   1      43.926  32.944  30.965  1.00  0.00     0.049 A 
ATOM     98  H   UNL A   1      42.864  31.264  30.251  1.00  0.00     0.167 HD
ATOM     99  C   UNL A   1      41.562  33.699  30.914  1.00  0.00     0.074 A 
ATOM    100  C   UNL A   1      40.520  34.683  31.124  1.00  0.00    -0.034 C 
ATOM    101  H   UNL A   1      38.394  34.629  30.949  1.00  0.00     0.065 H 
ATOM    102  H   UNL A   1      45.749  33.918  31.585  1.00  0.00     0.065 H 
ATOM    103  C   UNL A   1      42.879  33.917  31.155  1.00  0.00     0.037 A 
ATOM    104  H   UNL A   1      40.688  35.650  31.444  1.00  0.00     0.065 H 
BRANCH  85 105
ATOM    105  C   UNL A   1      46.488  29.013  30.057  1.00  0.00     0.064 A 
ATOM    106  C   UNL A   1      46.986  28.420  31.230  1.00  0.00     0.173 A 
ATOM    107  C   UNL A   1      47.317  29.014  28.926  1.00  0.00     0.173 A 
ATOM    108  F   UNL A   1      46.241  28.400  32.346  1.00  0.00    -0.203 F 
ATOM    109  C   UNL A   1      48.276  27.898  31.279  1.00  0.00     0.198 A 
ATOM    110  C   UNL A   1      48.592  28.455  28.967  1.00  0.00     0.198 A 
ATOM    111  F   UNL A   1      46.893  29.560  27.776  1.00  0.00    -0.203 F 
ATOM    112  F   UNL A   1      48.753  27.404  32.430  1.00  0.00    -0.200 F 
ATOM    113  C   UNL A   1      49.076  27.910  30.147  1.00  0.00     0.200 A 
ATOM    114  F   UNL A   1      49.358  28.454  27.867  1.00  0.00    -0.200 F 
ATOM    115  F   UNL A   1      50.317  27.407  30.195  1.00  0.00    -0.200 F 
ENDBRANCH  85 105
BRANCH  88 116
ATOM    116  C   UNL A   1      37.130  32.524  29.847  1.00  0.00     0.064 A 
ATOM    117  C   UNL A   1      36.676  33.270  28.750  1.00  0.00     0.173 A 
ATOM    118  C   UNL A   1      36.231  32.300  30.900  1.00  0.00     0.173 A 
ATOM    119  F   UNL A   1      37.505  33.526  27.727  1.00  0.00    -0.203 F 
ATOM    120  C   UNL A   1      35.384  33.787  28.715  1.00  0.00     0.198 A 
ATOM    121  C   UNL A   1      34.929  32.793  30.851  1.00  0.00     0.198 A 
ATOM    122  F   UNL A   1      36.613  31.587  31.969  1.00  0.00    -0.203 F 
ATOM    123  F   UNL A   1      34.992  34.535  27.674  1.00  0.00    -0.200 F 
ATOM    124  C   UNL A   1      34.509  33.543  29.762  1.00  0.00     0.200 A 
ATOM    125  F   UNL A   1      34.082  32.541  31.857  1.00  0.00    -0.200 F 
ATOM    126  F   UNL A   1      33.263  34.037  29.726  1.00  0.00    -0.200 F 
ENDBRANCH  88 116
BRANCH 103 127
ATOM    127  C   UNL A   1      43.280  35.292  31.612  1.00  0.00     0.064 A 
ATOM    128  C   UNL A   1      43.644  36.301  30.708  1.00  0.00     0.173 A 
ATOM    129  C   UNL A   1      43.267  35.610  32.980  1.00  0.00     0.173 A 
ATOM    130  F   UNL A   1      43.686  36.046  29.392  1.00  0.00    -0.203 F 
ATOM    131  C   UNL A   1      44.011  37.566  31.159  1.00  0.00     0.198 A 
ATOM    132  C   UNL A   1      43.598  36.887  33.424  1.00  0.00     0.198 A 
ATOM    133  F   UNL A   1      42.918  34.685  33.886  1.00  0.00    -0.203 F 
ATOM    134  F   UNL A   1      44.411  38.497  30.282  1.00  0.00    -0.200 F 
ATOM    135  C   UNL A   1      43.981  37.860  32.515  1.00  0.00     0.200 A 
ATOM    136  F   UNL A   1      43.549  37.173  34.732  1.00  0.00    -0.200 F 
ATOM    137  F   UNL A   1      44.327  39.082  32.945  1.00  0.00    -0.200 F 
ENDBRANCH 103 127
ENDBRANCH  68  71
ENDBRANCH  58  61
ENDBRANCH  54  57
ENDBRANCH  51  54
ENDBRANCH  48  51
ENDBRANCH  45  48
ENDBRANCH   1  45
TORSDOF 18
ENDMDL
MODEL 6
REMARK VINA RESULT:      -9.0      5.898     10.994
REMARK SMILES C[C@@H](C(=O)NCCCCCCNC(=O)c1ccc(-c2c3nc(c(-c4c(F)c(F)c(F)c(F)c4F)c4ccc([nH]4)c(-c4c(F)c(F)c(F)c(F)c4F)c4nc(c(-c5c(F)c(F)c(F)c(F)c5F)c5ccc2[nH]5)C=C4)C=C3)cc1)c1ccc(C[C@H]2CCC[C@@H]2O)cc1
REMARK SMILES IDX 7 1 6 4 5 7 3 8 4 9 2 11 1 13 78 17 79 18 90 19 80 20 89 22
REMARK SMILES IDX 81 24 82 27 83 30 84 31 87 32 85 34 86 37 88 43 8 45 9 48
REMARK SMILES IDX 10 51 11 54 12 57 13 58 14 60 15 61 16 62 77 63 17 64 76 66
REMARK SMILES IDX 18 68 19 71 20 72 70 73 21 74 75 75 69 76 71 77 22 78 74 79
REMARK SMILES IDX 68 81 67 83 23 85 55 88 35 89 54 90 36 91 39 92 53 93 72 94
REMARK SMILES IDX 37 95 38 97 52 99 73 100 40 103 24 105 25 106 33 107 26 108
REMARK SMILES IDX 27 109 31 110 34 111 28 112 29 113 32 114 30 115 56 116
REMARK SMILES IDX 57 117 65 118 58 119 59 120 63 121 66 122 60 123 61 124
REMARK SMILES IDX 64 125 62 126 41 127 42 128 50 129 43 130 44 131 48 132
REMARK SMILES IDX 51 133 45 134 46 135 49 136 47 137
REMARK H PARENT 7 2 7 3 6 5 6 6 5 10 2 12 1 14 1 15 1 16 79 21 90 23 80 25
REMARK H PARENT 89 26 82 28 82 29 83 33 84 35 84 36 87 38 85 39 85 40 86 41
REMARK H PARENT 86 42 88 44 8 46 8 47 9 49 9 50 10 52 10 53 11 55 11 56 12 59
REMARK H PARENT 16 65 77 67 17 69 76 70 75 80 69 82 71 84 74 86 68 87 36 96
REMARK H PARENT 39 98 72 101 37 102 73 104
REMARK Flexibility Score: inf
ROOT
ATOM      1  C   UNL A   1      30.596  28.591  22.509  1.00  0.00    -0.036 C 
ATOM      2  H   UNL A   1      29.576  28.872  22.666  1.00  0.00     0.028 H 
ATOM      3  H   UNL A   1      31.011  29.028  21.624  1.00  0.00     0.028 H 
ENDROOT
BRANCH   1   4
ATOM      4  C   UNL A   1      30.653  27.073  22.321  1.00  0.00     0.017 C 
ATOM      5  H   UNL A   1      30.532  26.594  23.271  1.00  0.00     0.049 H 
ATOM      6  H   UNL A   1      29.867  26.774  21.659  1.00  0.00     0.049 H 
BRANCH   4   7
ATOM      7  N   UNL A   1      31.923  26.686  21.751  1.00  0.00    -0.356 N 
ATOM      8  C   UNL A   1      33.025  26.139  22.337  1.00  0.00     0.227 C 
ATOM      9  O   UNL A   1      34.028  26.062  21.626  1.00  0.00    -0.274 OA
ATOM     10  H   UNL A   1      32.006  26.844  20.782  1.00  0.00     0.163 HD
BRANCH   8  11
ATOM     11  C   UNL A   1      32.940  25.617  23.780  1.00  0.00     0.060 C 
ATOM     12  H   UNL A   1      32.142  26.199  24.193  1.00  0.00     0.045 H 
BRANCH  11  13
ATOM     13  C   UNL A   1      34.221  25.843  24.590  1.00  0.00    -0.049 C 
ATOM     14  H   UNL A   1      34.227  26.841  24.978  1.00  0.00     0.024 H 
ATOM     15  H   UNL A   1      35.072  25.702  23.958  1.00  0.00     0.024 H 
ATOM     16  H   UNL A   1      34.258  25.146  25.401  1.00  0.00     0.024 H 
ENDBRANCH  11  13
BRANCH  11  17
ATOM     17  C   UNL A   1      32.591  24.137  23.881  1.00  0.00    -0.036 A 
ATOM     18  C   UNL A   1      31.751  23.688  24.908  1.00  0.00    -0.058 A 
ATOM     19  C   UNL A   1      33.185  23.189  23.034  1.00  0.00    -0.058 A 
ATOM     20  C   UNL A   1      31.551  22.322  25.109  1.00  0.00    -0.059 A 
ATOM     21  H   UNL A   1      31.278  24.371  25.520  1.00  0.00     0.063 H 
ATOM     22  C   UNL A   1      32.983  21.827  23.235  1.00  0.00    -0.059 A 
ATOM     23  H   UNL A   1      33.780  23.507  22.253  1.00  0.00     0.063 H 
ATOM     24  C   UNL A   1      32.206  21.381  24.307  1.00  0.00    -0.048 A 
ATOM     25  H   UNL A   1      30.914  22.004  25.857  1.00  0.00     0.063 H 
ATOM     26  H   UNL A   1      33.408  21.145  22.589  1.00  0.00     0.063 H 
BRANCH  24  27
ATOM     27  C   UNL A   1      32.153  19.909  24.636  1.00  0.00    -0.023 C 
ATOM     28  H   UNL A   1      31.171  19.553  24.407  1.00  0.00     0.032 H 
ATOM     29  H   UNL A   1      32.401  19.825  25.674  1.00  0.00     0.032 H 
BRANCH  27  30
ATOM     30  C   UNL A   1      33.169  19.039  23.874  1.00  0.00    -0.011 C 
ATOM     31  C   UNL A   1      34.454  18.659  24.631  1.00  0.00    -0.048 C 
ATOM     32  C   UNL A   1      32.628  17.701  23.362  1.00  0.00     0.057 C 
ATOM     33  H   UNL A   1      33.386  19.718  23.077  1.00  0.00     0.033 H 
ATOM     34  C   UNL A   1      34.817  17.243  24.165  1.00  0.00    -0.050 C 
ATOM     35  H   UNL A   1      34.281  18.669  25.687  1.00  0.00     0.027 H 
ATOM     36  H   UNL A   1      35.245  19.350  24.431  1.00  0.00     0.027 H 
ATOM     37  C   UNL A   1      33.897  16.950  22.992  1.00  0.00    -0.027 C 
ATOM     38  H   UNL A   1      32.028  17.179  24.076  1.00  0.00     0.060 H 
ATOM     39  H   UNL A   1      34.655  16.538  24.953  1.00  0.00     0.027 H 
ATOM     40  H   UNL A   1      35.848  17.171  23.888  1.00  0.00     0.027 H 
ATOM     41  H   UNL A   1      33.710  15.899  22.902  1.00  0.00     0.029 H 
ATOM     42  H   UNL A   1      34.305  17.246  22.049  1.00  0.00     0.029 H 
BRANCH  32  43
ATOM     43  O   UNL A   1      31.779  17.887  22.247  1.00  0.00    -0.393 OA
ATOM     44  H   UNL A   1      32.271  18.323  21.534  1.00  0.00     0.210 HD
ENDBRANCH  32  43
ENDBRANCH  27  30
ENDBRANCH  24  27
ENDBRANCH  11  17
ENDBRANCH   8  11
ENDBRANCH   4   7
ENDBRANCH   1   4
BRANCH   1  45
ATOM     45  C   UNL A   1      31.429  29.103  23.692  1.00  0.00    -0.052 C 
ATOM     46  H   UNL A   1      31.327  30.168  23.734  1.00  0.00     0.027 H 
ATOM     47  H   UNL A   1      32.434  28.782  23.515  1.00  0.00     0.027 H 
BRANCH  45  48
ATOM     48  C   UNL A   1      31.028  28.533  25.056  1.00  0.00    -0.052 C 
ATOM     49  H   UNL A   1      30.678  27.532  24.909  1.00  0.00     0.027 H 
ATOM     50  H   UNL A   1      30.279  29.186  25.450  1.00  0.00     0.027 H 
BRANCH  48  51
ATOM     51  C   UNL A   1      32.159  28.496  26.083  1.00  0.00    -0.036 C 
ATOM     52  H   UNL A   1      32.563  27.506  26.105  1.00  0.00     0.028 H 
ATOM     53  H   UNL A   1      31.734  28.790  27.021  1.00  0.00     0.028 H 
BRANCH  51  54
ATOM     54  C   UNL A   1      33.293  29.469  25.791  1.00  0.00     0.018 C 
ATOM     55  H   UNL A   1      33.507  29.444  24.743  1.00  0.00     0.049 H 
ATOM     56  H   UNL A   1      34.144  29.168  26.367  1.00  0.00     0.049 H 
BRANCH  54  57
ATOM     57  N   UNL A   1      32.951  30.830  26.170  1.00  0.00    -0.352 N 
ATOM     58  C   UNL A   1      33.479  31.599  27.174  1.00  0.00     0.251 C 
ATOM     59  H   UNL A   1      32.245  31.257  25.633  1.00  0.00     0.163 HD
ATOM     60  O   UNL A   1      32.938  32.653  27.501  1.00  0.00    -0.269 OA
BRANCH  58  61
ATOM     61  C   UNL A   1      34.698  31.146  27.873  1.00  0.00     0.039 A 
ATOM     62  C   UNL A   1      35.773  32.027  28.001  1.00  0.00    -0.049 A 
ATOM     63  C   UNL A   1      34.779  29.853  28.396  1.00  0.00    -0.049 A 
ATOM     64  C   UNL A   1      36.920  31.620  28.684  1.00  0.00    -0.053 A 
ATOM     65  H   UNL A   1      35.722  32.973  27.593  1.00  0.00     0.063 H 
ATOM     66  C   UNL A   1      35.884  29.479  29.152  1.00  0.00    -0.053 A 
ATOM     67  H   UNL A   1      34.021  29.175  28.219  1.00  0.00     0.063 H 
ATOM     68  C   UNL A   1      36.976  30.350  29.282  1.00  0.00    -0.014 A 
ATOM     69  H   UNL A   1      37.731  32.254  28.751  1.00  0.00     0.063 H 
ATOM     70  H   UNL A   1      35.900  28.560  29.620  1.00  0.00     0.063 H 
BRANCH  68  71
ATOM     71  C   UNL A   1      38.188  29.893  30.005  1.00  0.00     0.031 A 
ATOM     72  C   UNL A   1      38.445  30.371  31.408  1.00  0.00     0.074 A 
ATOM     73  C   UNL A   1      39.080  29.096  29.387  1.00  0.00     0.049 A 
ATOM     74  N   UNL A   1      39.462  30.128  32.195  1.00  0.00    -0.248 NA
ATOM     75  C   UNL A   1      37.438  31.271  31.993  1.00  0.00    -0.034 C 
ATOM     76  C   UNL A   1      38.962  28.598  28.017  1.00  0.00    -0.036 A 
ATOM     77  N   UNL A   1      40.263  28.563  29.835  1.00  0.00    -0.354 N 
ATOM     78  C   UNL A   1      39.227  30.859  33.352  1.00  0.00     0.074 A 
ATOM     79  C   UNL A   1      38.006  31.605  33.140  1.00  0.00    -0.034 C 
ATOM     80  H   UNL A   1      36.527  31.565  31.609  1.00  0.00     0.065 H 
ATOM     81  C   UNL A   1      40.011  27.805  27.746  1.00  0.00    -0.036 A 
ATOM     82  H   UNL A   1      38.196  28.822  27.362  1.00  0.00     0.065 H 
ATOM     83  C   UNL A   1      40.893  27.769  28.909  1.00  0.00     0.049 A 
ATOM     84  H   UNL A   1      40.625  28.734  30.734  1.00  0.00     0.167 HD
ATOM     85  C   UNL A   1      39.949  30.887  34.498  1.00  0.00     0.037 A 
ATOM     86  H   UNL A   1      37.628  32.305  33.798  1.00  0.00     0.065 H 
ATOM     87  H   UNL A   1      40.168  27.301  26.859  1.00  0.00     0.065 H 
ATOM     88  C   UNL A   1      42.053  27.090  28.993  1.00  0.00     0.037 A 
ATOM     89  C   UNL A   1      41.149  30.122  34.710  1.00  0.00     0.049 A 
ATOM     90  C   UNL A   1      42.843  27.144  30.273  1.00  0.00     0.074 A 
ATOM     91  C   UNL A   1      41.922  30.027  35.854  1.00  0.00    -0.036 A 
ATOM     92  N   UNL A   1      41.756  29.323  33.750  1.00  0.00    -0.354 N 
ATOM     93  N   UNL A   1      42.575  27.779  31.388  1.00  0.00    -0.248 NA
ATOM     94  C   UNL A   1      44.094  26.375  30.307  1.00  0.00    -0.034 C 
ATOM     95  C   UNL A   1      43.029  29.220  35.568  1.00  0.00    -0.036 A 
ATOM     96  H   UNL A   1      41.717  30.472  36.762  1.00  0.00     0.065 H 
ATOM     97  C   UNL A   1      42.909  28.754  34.268  1.00  0.00     0.049 A 
ATOM     98  H   UNL A   1      41.416  29.182  32.837  1.00  0.00     0.167 HD
ATOM     99  C   UNL A   1      43.597  27.453  32.269  1.00  0.00     0.074 A 
ATOM    100  C   UNL A   1      44.488  26.559  31.559  1.00  0.00    -0.034 C 
ATOM    101  H   UNL A   1      44.547  25.833  29.554  1.00  0.00     0.065 H 
ATOM    102  H   UNL A   1      43.804  29.008  36.215  1.00  0.00     0.065 H 
ATOM    103  C   UNL A   1      43.778  27.854  33.552  1.00  0.00     0.037 A 
ATOM    104  H   UNL A   1      45.324  26.120  31.975  1.00  0.00     0.065 H 
BRANCH  85 105
ATOM    105  C   UNL A   1      39.464  31.788  35.600  1.00  0.00     0.064 A 
ATOM    106  C   UNL A   1      39.927  33.107  35.741  1.00  0.00     0.173 A 
ATOM    107  C   UNL A   1      38.520  31.327  36.528  1.00  0.00     0.173 A 
ATOM    108  F   UNL A   1      40.840  33.598  34.888  1.00  0.00    -0.203 F 
ATOM    109  C   UNL A   1      39.500  33.909  36.796  1.00  0.00     0.198 A 
ATOM    110  C   UNL A   1      38.064  32.145  37.559  1.00  0.00     0.198 A 
ATOM    111  F   UNL A   1      38.037  30.078  36.441  1.00  0.00    -0.203 F 
ATOM    112  F   UNL A   1      40.012  35.139  36.950  1.00  0.00    -0.200 F 
ATOM    113  C   UNL A   1      38.564  33.431  37.700  1.00  0.00     0.200 A 
ATOM    114  F   UNL A   1      37.148  31.686  38.423  1.00  0.00    -0.200 F 
ATOM    115  F   UNL A   1      38.153  34.204  38.714  1.00  0.00    -0.200 F 
ENDBRANCH  85 105
BRANCH  88 116
ATOM    116  C   UNL A   1      42.509  26.259  27.847  1.00  0.00     0.064 A 
ATOM    117  C   UNL A   1      43.439  26.760  26.925  1.00  0.00     0.173 A 
ATOM    118  C   UNL A   1      42.034  24.954  27.651  1.00  0.00     0.173 A 
ATOM    119  F   UNL A   1      43.908  28.009  27.060  1.00  0.00    -0.203 F 
ATOM    120  C   UNL A   1      43.860  25.997  25.839  1.00  0.00     0.198 A 
ATOM    121  C   UNL A   1      42.479  24.180  26.581  1.00  0.00     0.198 A 
ATOM    122  F   UNL A   1      41.149  24.425  28.508  1.00  0.00    -0.203 F 
ATOM    123  F   UNL A   1      44.715  26.518  24.948  1.00  0.00    -0.200 F 
ATOM    124  C   UNL A   1      43.385  24.705  25.671  1.00  0.00     0.200 A 
ATOM    125  F   UNL A   1      42.030  22.928  26.431  1.00  0.00    -0.200 F 
ATOM    126  F   UNL A   1      43.795  23.969  24.629  1.00  0.00    -0.200 F 
ENDBRANCH  88 116
BRANCH 103 127
ATOM    127  C   UNL A   1      44.952  27.280  34.296  1.00  0.00     0.064 A 
ATOM    128  C   UNL A   1      46.196  27.928  34.339  1.00  0.00     0.173 A 
ATOM    129  C   UNL A   1      44.815  26.076  35.005  1.00  0.00     0.173 A 
ATOM    130  F   UNL A   1      46.385  29.074  33.668  1.00  0.00    -0.203 F 
ATOM    131  C   UNL A   1      47.267  27.374  35.037  1.00  0.00     0.198 A 
ATOM    132  C   UNL A   1      45.876  25.545  35.732  1.00  0.00     0.198 A 
ATOM    133  F   UNL A   1      43.645  25.420  35.005  1.00  0.00    -0.203 F 
ATOM    134  F   UNL A   1      48.462  27.980  35.015  1.00  0.00    -0.200 F 
ATOM    135  C   UNL A   1      47.104  26.188  35.738  1.00  0.00     0.200 A 
ATOM    136  F   UNL A   1      45.711  24.409  36.425  1.00  0.00    -0.200 F 
ATOM    137  F   UNL A   1      48.134  25.662  36.415  1.00  0.00    -0.200 F 
ENDBRANCH 103 127
ENDBRANCH  68  71
ENDBRANCH  58  61
ENDBRANCH  54  57
ENDBRANCH  51  54
ENDBRANCH  48  51
ENDBRANCH  45  48
ENDBRANCH   1  45
TORSDOF 18
ENDMDL
MODEL 7
REMARK VINA RESULT:      -9.0      6.248     12.091
REMARK SMILES C[C@@H](C(=O)NCCCCCCNC(=O)c1ccc(-c2c3nc(c(-c4c(F)c(F)c(F)c(F)c4F)c4ccc([nH]4)c(-c4c(F)c(F)c(F)c(F)c4F)c4nc(c(-c5c(F)c(F)c(F)c(F)c5F)c5ccc2[nH]5)C=C4)C=C3)cc1)c1ccc(C[C@H]2CCC[C@@H]2O)cc1
REMARK SMILES IDX 7 1 6 4 5 7 3 8 4 9 2 11 1 13 78 17 79 18 90 19 80 20 89 22
REMARK SMILES IDX 81 24 82 27 83 30 84 31 87 32 85 34 86 37 88 43 8 45 9 48
REMARK SMILES IDX 10 51 11 54 12 57 13 58 14 60 15 61 16 62 77 63 17 64 76 66
REMARK SMILES IDX 18 68 19 71 20 72 70 73 21 74 75 75 69 76 71 77 22 78 74 79
REMARK SMILES IDX 68 81 67 83 23 85 55 88 35 89 54 90 36 91 39 92 53 93 72 94
REMARK SMILES IDX 37 95 38 97 52 99 73 100 40 103 24 105 25 106 33 107 26 108
REMARK SMILES IDX 27 109 31 110 34 111 28 112 29 113 32 114 30 115 56 116
REMARK SMILES IDX 57 117 65 118 58 119 59 120 63 121 66 122 60 123 61 124
REMARK SMILES IDX 64 125 62 126 41 127 42 128 50 129 43 130 44 131 48 132
REMARK SMILES IDX 51 133 45 134 46 135 49 136 47 137
REMARK H PARENT 7 2 7 3 6 5 6 6 5 10 2 12 1 14 1 15 1 16 79 21 90 23 80 25
REMARK H PARENT 89 26 82 28 82 29 83 33 84 35 84 36 87 38 85 39 85 40 86 41
REMARK H PARENT 86 42 88 44 8 46 8 47 9 49 9 50 10 52 10 53 11 55 11 56 12 59
REMARK H PARENT 16 65 77 67 17 69 76 70 75 80 69 82 71 84 74 86 68 87 36 96
REMARK H PARENT 39 98 72 101 37 102 73 104
REMARK Flexibility Score: inf
ROOT
ATOM      1  C   UNL A   1      32.598  28.732  26.559  1.00  0.00    -0.036 C 
ATOM      2  H   UNL A   1      32.734  28.859  27.613  1.00  0.00     0.028 H 
ATOM      3  H   UNL A   1      31.703  28.196  26.322  1.00  0.00     0.028 H 
ENDROOT
BRANCH   1   4
ATOM      4  C   UNL A   1      33.768  27.903  26.022  1.00  0.00     0.017 C 
ATOM      5  H   UNL A   1      33.960  28.179  25.006  1.00  0.00     0.049 H 
ATOM      6  H   UNL A   1      34.633  28.091  26.622  1.00  0.00     0.049 H 
BRANCH   4   7
ATOM      7  N   UNL A   1      33.451  26.494  26.080  1.00  0.00    -0.356 N 
ATOM      8  C   UNL A   1      32.843  25.687  25.166  1.00  0.00     0.227 C 
ATOM      9  O   UNL A   1      32.560  24.553  25.555  1.00  0.00    -0.274 OA
ATOM     10  H   UNL A   1      33.716  26.045  26.915  1.00  0.00     0.163 HD
BRANCH   8  11
ATOM     11  C   UNL A   1      32.605  26.199  23.737  1.00  0.00     0.060 C 
ATOM     12  H   UNL A   1      32.492  25.294  23.178  1.00  0.00     0.045 H 
BRANCH  11  13
ATOM     13  C   UNL A   1      33.778  27.012  23.174  1.00  0.00    -0.049 C 
ATOM     14  H   UNL A   1      34.537  26.345  22.822  1.00  0.00     0.024 H 
ATOM     15  H   UNL A   1      34.180  27.637  23.943  1.00  0.00     0.024 H 
ATOM     16  H   UNL A   1      33.433  27.619  22.363  1.00  0.00     0.024 H 
ENDBRANCH  11  13
BRANCH  11  17
ATOM     17  C   UNL A   1      31.348  27.047  23.586  1.00  0.00    -0.036 A 
ATOM     18  C   UNL A   1      30.138  26.603  24.134  1.00  0.00    -0.058 A 
ATOM     19  C   UNL A   1      31.347  28.215  22.807  1.00  0.00    -0.058 A 
ATOM     20  C   UNL A   1      28.951  27.287  23.869  1.00  0.00    -0.059 A 
ATOM     21  H   UNL A   1      30.124  25.766  24.737  1.00  0.00     0.063 H 
ATOM     22  C   UNL A   1      30.162  28.897  22.546  1.00  0.00    -0.059 A 
ATOM     23  H   UNL A   1      32.236  28.572  22.425  1.00  0.00     0.063 H 
ATOM     24  C   UNL A   1      28.946  28.408  23.031  1.00  0.00    -0.048 A 
ATOM     25  H   UNL A   1      28.069  26.962  24.294  1.00  0.00     0.063 H 
ATOM     26  H   UNL A   1      30.183  29.766  21.992  1.00  0.00     0.063 H 
BRANCH  24  27
ATOM     27  C   UNL A   1      27.650  29.036  22.581  1.00  0.00    -0.023 C 
ATOM     28  H   UNL A   1      26.871  28.686  23.225  1.00  0.00     0.032 H 
ATOM     29  H   UNL A   1      27.516  28.747  21.560  1.00  0.00     0.032 H 
BRANCH  27  30
ATOM     30  C   UNL A   1      27.635  30.575  22.603  1.00  0.00    -0.011 C 
ATOM     31  C   UNL A   1      28.298  31.254  23.815  1.00  0.00    -0.048 C 
ATOM     32  C   UNL A   1      28.288  31.251  21.394  1.00  0.00     0.057 C 
ATOM     33  H   UNL A   1      26.576  30.719  22.621  1.00  0.00     0.033 H 
ATOM     34  C   UNL A   1      28.945  32.537  23.281  1.00  0.00    -0.050 C 
ATOM     35  H   UNL A   1      29.042  30.612  24.239  1.00  0.00     0.027 H 
ATOM     36  H   UNL A   1      27.584  31.465  24.583  1.00  0.00     0.027 H 
ATOM     37  C   UNL A   1      28.435  32.692  21.857  1.00  0.00    -0.027 C 
ATOM     38  H   UNL A   1      29.219  30.810  21.105  1.00  0.00     0.060 H 
ATOM     39  H   UNL A   1      30.011  32.449  23.289  1.00  0.00     0.027 H 
ATOM     40  H   UNL A   1      28.696  33.385  23.885  1.00  0.00     0.027 H 
ATOM     41  H   UNL A   1      29.140  33.222  21.251  1.00  0.00     0.029 H 
ATOM     42  H   UNL A   1      27.527  33.253  21.791  1.00  0.00     0.029 H 
BRANCH  32  43
ATOM     43  O   UNL A   1      27.470  31.146  20.246  1.00  0.00    -0.393 OA
ATOM     44  H   UNL A   1      28.013  30.895  19.483  1.00  0.00     0.210 HD
ENDBRANCH  32  43
ENDBRANCH  27  30
ENDBRANCH  24  27
ENDBRANCH  11  17
ENDBRANCH   8  11
ENDBRANCH   4   7
ENDBRANCH   1   4
BRANCH   1  45
ATOM     45  C   UNL A   1      32.471  30.119  25.915  1.00  0.00    -0.052 C 
ATOM     46  H   UNL A   1      32.499  29.996  24.853  1.00  0.00     0.027 H 
ATOM     47  H   UNL A   1      33.285  30.703  26.294  1.00  0.00     0.027 H 
BRANCH  45  48
ATOM     48  C   UNL A   1      31.192  30.881  26.274  1.00  0.00    -0.052 C 
ATOM     49  H   UNL A   1      30.854  30.535  27.229  1.00  0.00     0.027 H 
ATOM     50  H   UNL A   1      30.494  30.688  25.487  1.00  0.00     0.027 H 
BRANCH  48  51
ATOM     51  C   UNL A   1      31.359  32.398  26.348  1.00  0.00    -0.036 C 
ATOM     52  H   UNL A   1      30.438  32.822  26.688  1.00  0.00     0.028 H 
ATOM     53  H   UNL A   1      31.628  32.728  25.366  1.00  0.00     0.028 H 
BRANCH  51  54
ATOM     54  C   UNL A   1      32.470  32.854  27.283  1.00  0.00     0.018 C 
ATOM     55  H   UNL A   1      33.412  32.694  26.803  1.00  0.00     0.049 H 
ATOM     56  H   UNL A   1      32.395  32.286  28.187  1.00  0.00     0.049 H 
BRANCH  54  57
ATOM     57  N   UNL A   1      32.348  34.262  27.625  1.00  0.00    -0.352 N 
ATOM     58  C   UNL A   1      33.002  34.967  28.601  1.00  0.00     0.251 C 
ATOM     59  H   UNL A   1      31.709  34.778  27.083  1.00  0.00     0.163 HD
ATOM     60  O   UNL A   1      32.635  36.100  28.903  1.00  0.00    -0.269 OA
BRANCH  58  61
ATOM     61  C   UNL A   1      34.147  34.350  29.302  1.00  0.00     0.039 A 
ATOM     62  C   UNL A   1      33.907  33.544  30.415  1.00  0.00    -0.049 A 
ATOM     63  C   UNL A   1      35.454  34.575  28.861  1.00  0.00    -0.049 A 
ATOM     64  C   UNL A   1      34.978  32.934  31.069  1.00  0.00    -0.053 A 
ATOM     65  H   UNL A   1      32.943  33.400  30.755  1.00  0.00     0.063 H 
ATOM     66  C   UNL A   1      36.511  33.896  29.455  1.00  0.00    -0.053 A 
ATOM     67  H   UNL A   1      35.634  35.244  28.096  1.00  0.00     0.063 H 
ATOM     68  C   UNL A   1      36.287  33.090  30.582  1.00  0.00    -0.014 A 
ATOM     69  H   UNL A   1      34.810  32.366  31.913  1.00  0.00     0.063 H 
ATOM     70  H   UNL A   1      37.463  33.985  29.068  1.00  0.00     0.063 H 
BRANCH  68  71
ATOM     71  C   UNL A   1      37.442  32.458  31.265  1.00  0.00     0.031 A 
ATOM     72  C   UNL A   1      38.186  31.337  30.592  1.00  0.00     0.074 A 
ATOM     73  C   UNL A   1      37.789  32.852  32.504  1.00  0.00     0.049 A 
ATOM     74  N   UNL A   1      39.190  30.622  31.034  1.00  0.00    -0.248 NA
ATOM     75  C   UNL A   1      37.716  30.943  29.254  1.00  0.00    -0.034 C 
ATOM     76  C   UNL A   1      37.121  33.900  33.276  1.00  0.00    -0.036 A 
ATOM     77  N   UNL A   1      38.792  32.417  33.333  1.00  0.00    -0.354 N 
ATOM     78  C   UNL A   1      39.453  29.687  30.042  1.00  0.00     0.074 A 
ATOM     79  C   UNL A   1      38.464  29.881  29.005  1.00  0.00    -0.034 C 
ATOM     80  H   UNL A   1      36.991  31.381  28.664  1.00  0.00     0.065 H 
ATOM     81  C   UNL A   1      37.753  34.051  34.450  1.00  0.00    -0.036 A 
ATOM     82  H   UNL A   1      36.295  34.437  32.967  1.00  0.00     0.065 H 
ATOM     83  C   UNL A   1      38.845  33.086  34.531  1.00  0.00     0.049 A 
ATOM     84  H   UNL A   1      39.414  31.693  33.092  1.00  0.00     0.167 HD
ATOM     85  C   UNL A   1      40.445  28.766  29.988  1.00  0.00     0.037 A 
ATOM     86  H   UNL A   1      38.358  29.271  28.179  1.00  0.00     0.065 H 
ATOM     87  H   UNL A   1      37.507  34.739  35.179  1.00  0.00     0.065 H 
ATOM     88  C   UNL A   1      39.684  32.935  35.574  1.00  0.00     0.037 A 
ATOM     89  C   UNL A   1      41.441  28.597  31.013  1.00  0.00     0.049 A 
ATOM     90  C   UNL A   1      40.772  31.898  35.495  1.00  0.00     0.074 A 
ATOM     91  C   UNL A   1      42.527  27.740  31.029  1.00  0.00    -0.036 A 
ATOM     92  N   UNL A   1      41.467  29.298  32.211  1.00  0.00    -0.354 N 
ATOM     93  N   UNL A   1      41.060  31.068  34.521  1.00  0.00    -0.248 NA
ATOM     94  C   UNL A   1      41.660  31.787  36.660  1.00  0.00    -0.034 C 
ATOM     95  C   UNL A   1      43.174  27.878  32.262  1.00  0.00    -0.036 A 
ATOM     96  H   UNL A   1      42.812  27.110  30.264  1.00  0.00     0.065 H 
ATOM     97  C   UNL A   1      42.534  28.872  32.986  1.00  0.00     0.049 A 
ATOM     98  H   UNL A   1      40.822  29.995  32.472  1.00  0.00     0.167 HD
ATOM     99  C   UNL A   1      42.185  30.368  34.935  1.00  0.00     0.074 A 
ATOM    100  C   UNL A   1      42.530  30.875  36.248  1.00  0.00    -0.034 C 
ATOM    101  H   UNL A   1      41.618  32.287  37.562  1.00  0.00     0.065 H 
ATOM    102  H   UNL A   1      43.989  27.331  32.580  1.00  0.00     0.065 H 
ATOM    103  C   UNL A   1      42.873  29.397  34.286  1.00  0.00     0.037 A 
ATOM    104  H   UNL A   1      43.350  30.567  36.793  1.00  0.00     0.065 H 
BRANCH  85 105
ATOM    105  C   UNL A   1      40.488  27.864  28.786  1.00  0.00     0.064 A 
ATOM    106  C   UNL A   1      41.231  28.188  27.639  1.00  0.00     0.173 A 
ATOM    107  C   UNL A   1      39.779  26.654  28.782  1.00  0.00     0.173 A 
ATOM    108  F   UNL A   1      41.920  29.339  27.582  1.00  0.00    -0.203 F 
ATOM    109  C   UNL A   1      41.221  27.361  26.519  1.00  0.00     0.198 A 
ATOM    110  C   UNL A   1      39.803  25.809  27.676  1.00  0.00     0.198 A 
ATOM    111  F   UNL A   1      39.057  26.288  29.852  1.00  0.00    -0.203 F 
ATOM    112  F   UNL A   1      41.878  27.729  25.410  1.00  0.00    -0.200 F 
ATOM    113  C   UNL A   1      40.512  26.169  26.540  1.00  0.00     0.200 A 
ATOM    114  F   UNL A   1      39.130  24.650  27.704  1.00  0.00    -0.200 F 
ATOM    115  F   UNL A   1      40.504  25.373  25.462  1.00  0.00    -0.200 F 
ENDBRANCH  85 105
BRANCH  88 116
ATOM    116  C   UNL A   1      39.557  33.821  36.760  1.00  0.00     0.064 A 
ATOM    117  C   UNL A   1      40.202  35.066  36.797  1.00  0.00     0.173 A 
ATOM    118  C   UNL A   1      38.792  33.450  37.876  1.00  0.00     0.173 A 
ATOM    119  F   UNL A   1      40.960  35.457  35.762  1.00  0.00    -0.203 F 
ATOM    120  C   UNL A   1      40.103  35.897  37.910  1.00  0.00     0.198 A 
ATOM    121  C   UNL A   1      38.670  34.295  38.978  1.00  0.00     0.198 A 
ATOM    122  F   UNL A   1      38.150  32.273  37.889  1.00  0.00    -0.203 F 
ATOM    123  F   UNL A   1      40.767  37.060  37.935  1.00  0.00    -0.200 F 
ATOM    124  C   UNL A   1      39.333  35.514  38.997  1.00  0.00     0.200 A 
ATOM    125  F   UNL A   1      37.912  33.929  40.019  1.00  0.00    -0.200 F 
ATOM    126  F   UNL A   1      39.233  36.316  40.066  1.00  0.00    -0.200 F 
ENDBRANCH  88 116
BRANCH 103 127
ATOM    127  C   UNL A   1      44.108  28.859  34.954  1.00  0.00     0.064 A 
ATOM    128  C   UNL A   1      45.368  29.448  34.775  1.00  0.00     0.173 A 
ATOM    129  C   UNL A   1      44.017  27.753  35.814  1.00  0.00     0.173 A 
ATOM    130  F   UNL A   1      45.513  30.498  33.953  1.00  0.00    -0.203 F 
ATOM    131  C   UNL A   1      46.496  28.930  35.406  1.00  0.00     0.198 A 
ATOM    132  C   UNL A   1      45.140  27.261  36.473  1.00  0.00     0.198 A 
ATOM    133  F   UNL A   1      42.835  27.158  36.028  1.00  0.00    -0.203 F 
ATOM    134  F   UNL A   1      47.700  29.473  35.175  1.00  0.00    -0.200 F 
ATOM    135  C   UNL A   1      46.380  27.842  36.260  1.00  0.00     0.200 A 
ATOM    136  F   UNL A   1      45.022  26.223  37.312  1.00  0.00    -0.200 F 
ATOM    137  F   UNL A   1      47.466  27.351  36.873  1.00  0.00    -0.200 F 
ENDBRANCH 103 127
ENDBRANCH  68  71
ENDBRANCH  58  61
ENDBRANCH  54  57
ENDBRANCH  51  54
ENDBRANCH  48  51
ENDBRANCH  45  48
ENDBRANCH   1  45
TORSDOF 18
ENDMDL
MODEL 8
REMARK VINA RESULT:      -8.7      6.096     12.378
REMARK SMILES C[C@@H](C(=O)NCCCCCCNC(=O)c1ccc(-c2c3nc(c(-c4c(F)c(F)c(F)c(F)c4F)c4ccc([nH]4)c(-c4c(F)c(F)c(F)c(F)c4F)c4nc(c(-c5c(F)c(F)c(F)c(F)c5F)c5ccc2[nH]5)C=C4)C=C3)cc1)c1ccc(C[C@H]2CCC[C@@H]2O)cc1
REMARK SMILES IDX 7 1 6 4 5 7 3 8 4 9 2 11 1 13 78 17 79 18 90 19 80 20 89 22
REMARK SMILES IDX 81 24 82 27 83 30 84 31 87 32 85 34 86 37 88 43 8 45 9 48
REMARK SMILES IDX 10 51 11 54 12 57 13 58 14 60 15 61 16 62 77 63 17 64 76 66
REMARK SMILES IDX 18 68 19 71 20 72 70 73 21 74 75 75 69 76 71 77 22 78 74 79
REMARK SMILES IDX 68 81 67 83 23 85 55 88 35 89 54 90 36 91 39 92 53 93 72 94
REMARK SMILES IDX 37 95 38 97 52 99 73 100 40 103 24 105 25 106 33 107 26 108
REMARK SMILES IDX 27 109 31 110 34 111 28 112 29 113 32 114 30 115 56 116
REMARK SMILES IDX 57 117 65 118 58 119 59 120 63 121 66 122 60 123 61 124
REMARK SMILES IDX 64 125 62 126 41 127 42 128 50 129 43 130 44 131 48 132
REMARK SMILES IDX 51 133 45 134 46 135 49 136 47 137
REMARK H PARENT 7 2 7 3 6 5 6 6 5 10 2 12 1 14 1 15 1 16 79 21 90 23 80 25
REMARK H PARENT 89 26 82 28 82 29 83 33 84 35 84 36 87 38 85 39 85 40 86 41
REMARK H PARENT 86 42 88 44 8 46 8 47 9 49 9 50 10 52 10 53 11 55 11 56 12 59
REMARK H PARENT 16 65 77 67 17 69 76 70 75 80 69 82 71 84 74 86 68 87 36 96
REMARK H PARENT 39 98 72 101 37 102 73 104
REMARK Flexibility Score: inf
ROOT
ATOM      1  C   UNL A   1      34.434  32.649  29.419  1.00  0.00    -0.036 C 
ATOM      2  H   UNL A   1      34.767  32.249  30.354  1.00  0.00     0.028 H 
ATOM      3  H   UNL A   1      33.405  32.940  29.439  1.00  0.00     0.028 H 
ENDROOT
BRANCH   1   4
ATOM      4  C   UNL A   1      34.565  31.556  28.355  1.00  0.00     0.017 C 
ATOM      5  H   UNL A   1      35.415  31.762  27.739  1.00  0.00     0.049 H 
ATOM      6  H   UNL A   1      34.687  30.610  28.841  1.00  0.00     0.049 H 
BRANCH   4   7
ATOM      7  N   UNL A   1      33.378  31.513  27.533  1.00  0.00    -0.356 N 
ATOM      8  C   UNL A   1      32.804  30.474  26.863  1.00  0.00     0.227 C 
ATOM      9  O   UNL A   1      31.878  30.770  26.107  1.00  0.00    -0.274 OA
ATOM     10  H   UNL A   1      32.909  32.374  27.439  1.00  0.00     0.163 HD
BRANCH   8  11
ATOM     11  C   UNL A   1      33.289  29.040  27.124  1.00  0.00     0.060 C 
ATOM     12  H   UNL A   1      33.052  28.895  28.157  1.00  0.00     0.045 H 
BRANCH  11  13
ATOM     13  C   UNL A   1      34.796  28.853  26.907  1.00  0.00    -0.049 C 
ATOM     14  H   UNL A   1      34.961  28.306  26.003  1.00  0.00     0.024 H 
ATOM     15  H   UNL A   1      35.210  28.313  27.732  1.00  0.00     0.024 H 
ATOM     16  H   UNL A   1      35.267  29.811  26.835  1.00  0.00     0.024 H 
ENDBRANCH  11  13
BRANCH  11  17
ATOM     17  C   UNL A   1      32.574  27.985  26.288  1.00  0.00    -0.036 A 
ATOM     18  C   UNL A   1      31.405  27.386  26.774  1.00  0.00    -0.058 A 
ATOM     19  C   UNL A   1      33.125  27.511  25.088  1.00  0.00    -0.058 A 
ATOM     20  C   UNL A   1      30.829  26.311  26.097  1.00  0.00    -0.059 A 
ATOM     21  H   UNL A   1      30.966  27.743  27.637  1.00  0.00     0.063 H 
ATOM     22  C   UNL A   1      32.548  26.440  24.412  1.00  0.00    -0.059 A 
ATOM     23  H   UNL A   1      33.968  27.964  24.701  1.00  0.00     0.063 H 
ATOM     24  C   UNL A   1      31.425  25.796  24.940  1.00  0.00    -0.048 A 
ATOM     25  H   UNL A   1      29.956  25.891  26.453  1.00  0.00     0.063 H 
ATOM     26  H   UNL A   1      32.952  26.119  23.519  1.00  0.00     0.063 H 
BRANCH  24  27
ATOM     27  C   UNL A   1      30.927  24.518  24.312  1.00  0.00    -0.023 C 
ATOM     28  H   UNL A   1      30.719  24.715  23.281  1.00  0.00     0.032 H 
ATOM     29  H   UNL A   1      30.061  24.228  24.869  1.00  0.00     0.032 H 
BRANCH  27  30
ATOM     30  C   UNL A   1      31.908  23.334  24.387  1.00  0.00    -0.011 C 
ATOM     31  C   UNL A   1      31.740  22.375  25.577  1.00  0.00    -0.048 C 
ATOM     32  C   UNL A   1      31.914  22.414  23.163  1.00  0.00     0.057 C 
ATOM     33  H   UNL A   1      32.816  23.893  24.475  1.00  0.00     0.033 H 
ATOM     34  C   UNL A   1      32.087  20.978  25.049  1.00  0.00    -0.050 C 
ATOM     35  H   UNL A   1      30.731  22.396  25.933  1.00  0.00     0.027 H 
ATOM     36  H   UNL A   1      32.371  22.651  26.395  1.00  0.00     0.027 H 
ATOM     37  C   UNL A   1      32.678  21.199  23.666  1.00  0.00    -0.027 C 
ATOM     38  H   UNL A   1      30.937  22.171  22.803  1.00  0.00     0.060 H 
ATOM     39  H   UNL A   1      31.207  20.372  24.987  1.00  0.00     0.027 H 
ATOM     40  H   UNL A   1      32.773  20.470  25.696  1.00  0.00     0.027 H 
ATOM     41  H   UNL A   1      32.510  20.350  23.035  1.00  0.00     0.029 H 
ATOM     42  H   UNL A   1      33.738  21.338  23.675  1.00  0.00     0.029 H 
BRANCH  32  43
ATOM     43  O   UNL A   1      32.560  23.027  22.065  1.00  0.00    -0.393 OA
ATOM     44  H   UNL A   1      33.201  22.409  21.680  1.00  0.00     0.210 HD
ENDBRANCH  32  43
ENDBRANCH  27  30
ENDBRANCH  24  27
ENDBRANCH  11  17
ENDBRANCH   8  11
ENDBRANCH   4   7
ENDBRANCH   1   4
BRANCH   1  45
ATOM     45  C   UNL A   1      35.249  33.914  29.114  1.00  0.00    -0.052 C 
ATOM     46  H   UNL A   1      36.140  33.619  28.600  1.00  0.00     0.027 H 
ATOM     47  H   UNL A   1      35.442  34.382  30.057  1.00  0.00     0.027 H 
BRANCH  45  48
ATOM     48  C   UNL A   1      34.525  34.955  28.256  1.00  0.00    -0.052 C 
ATOM     49  H   UNL A   1      34.295  34.508  27.311  1.00  0.00     0.027 H 
ATOM     50  H   UNL A   1      35.185  35.793  28.174  1.00  0.00     0.027 H 
BRANCH  48  51
ATOM     51  C   UNL A   1      33.225  35.482  28.863  1.00  0.00    -0.036 C 
ATOM     52  H   UNL A   1      32.693  34.657  29.288  1.00  0.00     0.028 H 
ATOM     53  H   UNL A   1      32.684  35.957  28.071  1.00  0.00     0.028 H 
BRANCH  51  54
ATOM     54  C   UNL A   1      33.428  36.531  29.947  1.00  0.00     0.018 C 
ATOM     55  H   UNL A   1      33.347  37.502  29.506  1.00  0.00     0.049 H 
ATOM     56  H   UNL A   1      34.397  36.380  30.376  1.00  0.00     0.049 H 
BRANCH  54  57
ATOM     57  N   UNL A   1      32.442  36.412  31.009  1.00  0.00    -0.352 N 
ATOM     58  C   UNL A   1      32.472  35.613  32.121  1.00  0.00     0.251 C 
ATOM     59  H   UNL A   1      31.646  36.983  30.916  1.00  0.00     0.163 HD
ATOM     60  O   UNL A   1      31.467  35.473  32.815  1.00  0.00    -0.269 OA
BRANCH  58  61
ATOM     61  C   UNL A   1      33.719  34.907  32.478  1.00  0.00     0.039 A 
ATOM     62  C   UNL A   1      33.654  33.568  32.865  1.00  0.00    -0.049 A 
ATOM     63  C   UNL A   1      34.948  35.571  32.435  1.00  0.00    -0.049 A 
ATOM     64  C   UNL A   1      34.829  32.883  33.177  1.00  0.00    -0.053 A 
ATOM     65  H   UNL A   1      32.743  33.087  32.920  1.00  0.00     0.063 H 
ATOM     66  C   UNL A   1      36.124  34.865  32.658  1.00  0.00    -0.053 A 
ATOM     67  H   UNL A   1      34.983  36.584  32.239  1.00  0.00     0.063 H 
ATOM     68  C   UNL A   1      36.075  33.521  33.057  1.00  0.00    -0.014 A 
ATOM     69  H   UNL A   1      34.783  31.904  33.497  1.00  0.00     0.063 H 
ATOM     70  H   UNL A   1      37.036  35.330  32.530  1.00  0.00     0.063 H 
BRANCH  68  71
ATOM     71  C   UNL A   1      37.336  32.815  33.392  1.00  0.00     0.031 A 
ATOM     72  C   UNL A   1      38.042  33.120  34.685  1.00  0.00     0.074 A 
ATOM     73  C   UNL A   1      37.871  31.942  32.518  1.00  0.00     0.049 A 
ATOM     74  N   UNL A   1      39.174  32.650  35.145  1.00  0.00    -0.248 NA
ATOM     75  C   UNL A   1      37.407  34.115  35.564  1.00  0.00    -0.034 C 
ATOM     76  C   UNL A   1      37.302  31.593  31.217  1.00  0.00    -0.036 A 
ATOM     77  N   UNL A   1      39.017  31.190  32.594  1.00  0.00    -0.354 N 
ATOM     78  C   UNL A   1      39.393  33.305  36.349  1.00  0.00     0.074 A 
ATOM     79  C   UNL A   1      38.313  34.252  36.519  1.00  0.00    -0.034 C 
ATOM     80  H   UNL A   1      36.493  34.583  35.464  1.00  0.00     0.065 H 
ATOM     81  C   UNL A   1      38.080  30.669  30.631  1.00  0.00    -0.036 A 
ATOM     82  H   UNL A   1      36.440  31.993  30.813  1.00  0.00     0.065 H 
ATOM     83  C   UNL A   1      39.222  30.391  31.497  1.00  0.00     0.049 A 
ATOM     84  H   UNL A   1      39.632  31.222  33.361  1.00  0.00     0.167 HD
ATOM     85  C   UNL A   1      40.390  33.117  37.247  1.00  0.00     0.037 A 
ATOM     86  H   UNL A   1      38.258  34.943  37.283  1.00  0.00     0.065 H 
ATOM     87  H   UNL A   1      37.901  30.226  29.716  1.00  0.00     0.065 H 
ATOM     88  C   UNL A   1      40.222  29.530  31.225  1.00  0.00     0.037 A 
ATOM     89  C   UNL A   1      41.447  32.154  37.083  1.00  0.00     0.049 A 
ATOM     90  C   UNL A   1      41.324  29.344  32.233  1.00  0.00     0.074 A 
ATOM     91  C   UNL A   1      42.470  31.836  37.959  1.00  0.00    -0.036 A 
ATOM     92  N   UNL A   1      41.620  31.356  35.960  1.00  0.00    -0.354 N 
ATOM     93  N   UNL A   1      41.484  29.914  33.403  1.00  0.00    -0.248 NA
ATOM     94  C   UNL A   1      42.381  28.385  31.884  1.00  0.00    -0.034 C 
ATOM     95  C   UNL A   1      43.297  30.892  37.342  1.00  0.00    -0.036 A 
ATOM     96  H   UNL A   1      42.599  32.227  38.905  1.00  0.00     0.065 H 
ATOM     97  C   UNL A   1      42.750  30.567  36.110  1.00  0.00     0.049 A 
ATOM     98  H   UNL A   1      41.027  31.351  35.174  1.00  0.00     0.167 HD
ATOM     99  C   UNL A   1      42.631  29.353  33.948  1.00  0.00     0.074 A 
ATOM    100  C   UNL A   1      43.124  28.394  32.981  1.00  0.00    -0.034 C 
ATOM    101  H   UNL A   1      42.510  27.847  31.013  1.00  0.00     0.065 H 
ATOM    102  H   UNL A   1      44.167  30.503  37.736  1.00  0.00     0.065 H 
ATOM    103  C   UNL A   1      43.220  29.605  35.143  1.00  0.00     0.037 A 
ATOM    104  H   UNL A   1      43.949  27.792  33.128  1.00  0.00     0.065 H 
BRANCH  85 105
ATOM    105  C   UNL A   1      40.389  33.983  38.476  1.00  0.00     0.064 A 
ATOM    106  C   UNL A   1      39.691  33.621  39.640  1.00  0.00     0.173 A 
ATOM    107  C   UNL A   1      41.099  35.192  38.492  1.00  0.00     0.173 A 
ATOM    108  F   UNL A   1      38.984  32.480  39.677  1.00  0.00    -0.203 F 
ATOM    109  C   UNL A   1      39.664  34.458  40.752  1.00  0.00     0.198 A 
ATOM    110  C   UNL A   1      41.104  36.009  39.620  1.00  0.00     0.198 A 
ATOM    111  F   UNL A   1      41.790  35.587  37.412  1.00  0.00    -0.203 F 
ATOM    112  F   UNL A   1      38.931  34.124  41.823  1.00  0.00    -0.200 F 
ATOM    113  C   UNL A   1      40.376  35.648  40.744  1.00  0.00     0.200 A 
ATOM    114  F   UNL A   1      41.805  37.151  39.616  1.00  0.00    -0.200 F 
ATOM    115  F   UNL A   1      40.351  36.454  41.815  1.00  0.00    -0.200 F 
ENDBRANCH  85 105
BRANCH  88 116
ATOM    116  C   UNL A   1      40.197  28.741  29.965  1.00  0.00     0.064 A 
ATOM    117  C   UNL A   1      40.826  29.220  28.808  1.00  0.00     0.173 A 
ATOM    118  C   UNL A   1      39.553  27.497  29.890  1.00  0.00     0.173 A 
ATOM    119  F   UNL A   1      41.439  30.413  28.825  1.00  0.00    -0.203 F 
ATOM    120  C   UNL A   1      40.795  28.497  27.618  1.00  0.00     0.198 A 
ATOM    121  C   UNL A   1      39.548  26.761  28.707  1.00  0.00     0.198 A 
ATOM    122  F   UNL A   1      38.942  26.990  30.971  1.00  0.00    -0.203 F 
ATOM    123  F   UNL A   1      41.365  29.001  26.515  1.00  0.00    -0.200 F 
ATOM    124  C   UNL A   1      40.162  27.265  27.570  1.00  0.00     0.200 A 
ATOM    125  F   UNL A   1      38.948  25.563  28.670  1.00  0.00    -0.200 F 
ATOM    126  F   UNL A   1      40.136  26.566  26.427  1.00  0.00    -0.200 F 
ENDBRANCH  88 116
BRANCH 103 127
ATOM    127  C   UNL A   1      44.429  28.789  35.505  1.00  0.00     0.064 A 
ATOM    128  C   UNL A   1      44.328  27.573  36.197  1.00  0.00     0.173 A 
ATOM    129  C   UNL A   1      45.709  29.219  35.120  1.00  0.00     0.173 A 
ATOM    130  F   UNL A   1      43.130  27.123  36.600  1.00  0.00    -0.203 F 
ATOM    131  C   UNL A   1      45.465  26.836  36.518  1.00  0.00     0.198 A 
ATOM    132  C   UNL A   1      46.840  28.461  35.410  1.00  0.00     0.198 A 
ATOM    133  F   UNL A   1      45.863  30.370  34.448  1.00  0.00    -0.203 F 
ATOM    134  F   UNL A   1      45.349  25.707  37.232  1.00  0.00    -0.200 F 
ATOM    135  C   UNL A   1      46.718  27.277  36.119  1.00  0.00     0.200 A 
ATOM    136  F   UNL A   1      48.048  28.880  35.006  1.00  0.00    -0.200 F 
ATOM    137  F   UNL A   1      47.810  26.561  36.423  1.00  0.00    -0.200 F 
ENDBRANCH 103 127
ENDBRANCH  68  71
ENDBRANCH  58  61
ENDBRANCH  54  57
ENDBRANCH  51  54
ENDBRANCH  48  51
ENDBRANCH  45  48
ENDBRANCH   1  45
TORSDOF 18
ENDMDL
MODEL 9
REMARK VINA RESULT:      -8.6      5.481     11.183
REMARK SMILES C[C@@H](C(=O)NCCCCCCNC(=O)c1ccc(-c2c3nc(c(-c4c(F)c(F)c(F)c(F)c4F)c4ccc([nH]4)c(-c4c(F)c(F)c(F)c(F)c4F)c4nc(c(-c5c(F)c(F)c(F)c(F)c5F)c5ccc2[nH]5)C=C4)C=C3)cc1)c1ccc(C[C@H]2CCC[C@@H]2O)cc1
REMARK SMILES IDX 7 1 6 4 5 7 3 8 4 9 2 11 1 13 78 17 79 18 90 19 80 20 89 22
REMARK SMILES IDX 81 24 82 27 83 30 84 31 87 32 85 34 86 37 88 43 8 45 9 48
REMARK SMILES IDX 10 51 11 54 12 57 13 58 14 60 15 61 16 62 77 63 17 64 76 66
REMARK SMILES IDX 18 68 19 71 20 72 70 73 21 74 75 75 69 76 71 77 22 78 74 79
REMARK SMILES IDX 68 81 67 83 23 85 55 88 35 89 54 90 36 91 39 92 53 93 72 94
REMARK SMILES IDX 37 95 38 97 52 99 73 100 40 103 24 105 25 106 33 107 26 108
REMARK SMILES IDX 27 109 31 110 34 111 28 112 29 113 32 114 30 115 56 116
REMARK SMILES IDX 57 117 65 118 58 119 59 120 63 121 66 122 60 123 61 124
REMARK SMILES IDX 64 125 62 126 41 127 42 128 50 129 43 130 44 131 48 132
REMARK SMILES IDX 51 133 45 134 46 135 49 136 47 137
REMARK H PARENT 7 2 7 3 6 5 6 6 5 10 2 12 1 14 1 15 1 16 79 21 90 23 80 25
REMARK H PARENT 89 26 82 28 82 29 83 33 84 35 84 36 87 38 85 39 85 40 86 41
REMARK H PARENT 86 42 88 44 8 46 8 47 9 49 9 50 10 52 10 53 11 55 11 56 12 59
REMARK H PARENT 16 65 77 67 17 69 76 70 75 80 69 82 71 84 74 86 68 87 36 96
REMARK H PARENT 39 98 72 101 37 102 73 104
REMARK Flexibility Score: inf
ROOT
ATOM      1  C   UNL A   1      30.376  28.911  23.625  1.00  0.00    -0.036 C 
ATOM      2  H   UNL A   1      29.574  29.389  24.148  1.00  0.00     0.028 H 
ATOM      3  H   UNL A   1      30.501  29.288  22.631  1.00  0.00     0.028 H 
ENDROOT
BRANCH   1   4
ATOM      4  C   UNL A   1      30.046  27.422  23.496  1.00  0.00     0.017 C 
ATOM      5  H   UNL A   1      30.421  26.901  24.351  1.00  0.00     0.049 H 
ATOM      6  H   UNL A   1      28.984  27.305  23.433  1.00  0.00     0.049 H 
BRANCH   4   7
ATOM      7  N   UNL A   1      30.652  26.877  22.303  1.00  0.00    -0.356 N 
ATOM      8  C   UNL A   1      31.792  26.147  22.145  1.00  0.00     0.227 C 
ATOM      9  O   UNL A   1      32.148  25.953  20.982  1.00  0.00    -0.274 OA
ATOM     10  H   UNL A   1      30.163  27.064  21.468  1.00  0.00     0.163 HD
BRANCH   8  11
ATOM     11  C   UNL A   1      32.509  25.580  23.380  1.00  0.00     0.060 C 
ATOM     12  H   UNL A   1      32.069  26.134  24.182  1.00  0.00     0.045 H 
BRANCH  11  13
ATOM     13  C   UNL A   1      34.026  25.805  23.365  1.00  0.00    -0.049 C 
ATOM     14  H   UNL A   1      34.412  25.568  22.396  1.00  0.00     0.024 H 
ATOM     15  H   UNL A   1      34.486  25.175  24.096  1.00  0.00     0.024 H 
ATOM     16  H   UNL A   1      34.236  26.829  23.592  1.00  0.00     0.024 H 
ENDBRANCH  11  13
BRANCH  11  17
ATOM     17  C   UNL A   1      32.271  24.091  23.603  1.00  0.00    -0.036 A 
ATOM     18  C   UNL A   1      31.498  23.665  24.691  1.00  0.00    -0.058 A 
ATOM     19  C   UNL A   1      32.905  23.125  22.807  1.00  0.00    -0.058 A 
ATOM     20  C   UNL A   1      31.403  22.308  24.999  1.00  0.00    -0.059 A 
ATOM     21  H   UNL A   1      30.996  24.358  25.267  1.00  0.00     0.063 H 
ATOM     22  C   UNL A   1      32.806  21.771  23.114  1.00  0.00    -0.059 A 
ATOM     23  H   UNL A   1      33.450  23.423  21.983  1.00  0.00     0.063 H 
ATOM     24  C   UNL A   1      32.098  21.355  24.245  1.00  0.00    -0.048 A 
ATOM     25  H   UNL A   1      30.814  22.003  25.791  1.00  0.00     0.063 H 
ATOM     26  H   UNL A   1      33.259  21.073  22.506  1.00  0.00     0.063 H 
BRANCH  24  27
ATOM     27  C   UNL A   1      32.161  19.913  24.683  1.00  0.00    -0.023 C 
ATOM     28  H   UNL A   1      31.191  19.482  24.548  1.00  0.00     0.032 H 
ATOM     29  H   UNL A   1      32.480  19.923  25.705  1.00  0.00     0.032 H 
BRANCH  27  30
ATOM     30  C   UNL A   1      33.181  19.048  23.919  1.00  0.00    -0.011 C 
ATOM     31  C   UNL A   1      34.500  18.735  24.645  1.00  0.00    -0.048 C 
ATOM     32  C   UNL A   1      32.667  17.677  23.469  1.00  0.00     0.057 C 
ATOM     33  H   UNL A   1      33.350  19.706  23.092  1.00  0.00     0.033 H 
ATOM     34  C   UNL A   1      34.894  17.316  24.217  1.00  0.00    -0.050 C 
ATOM     35  H   UNL A   1      34.360  18.777  25.706  1.00  0.00     0.027 H 
ATOM     36  H   UNL A   1      35.262  19.444  24.397  1.00  0.00     0.027 H 
ATOM     37  C   UNL A   1      33.947  16.953  23.084  1.00  0.00    -0.027 C 
ATOM     38  H   UNL A   1      32.106  17.162  24.220  1.00  0.00     0.060 H 
ATOM     39  H   UNL A   1      34.779  16.634  25.033  1.00  0.00     0.027 H 
ATOM     40  H   UNL A   1      35.918  17.266  23.908  1.00  0.00     0.027 H 
ATOM     41  H   UNL A   1      33.791  15.895  23.036  1.00  0.00     0.029 H 
ATOM     42  H   UNL A   1      34.316  17.228  22.119  1.00  0.00     0.029 H 
BRANCH  32  43
ATOM     43  O   UNL A   1      31.778  17.798  22.377  1.00  0.00    -0.393 OA
ATOM     44  H   UNL A   1      31.967  18.617  21.894  1.00  0.00     0.210 HD
ENDBRANCH  32  43
ENDBRANCH  27  30
ENDBRANCH  24  27
ENDBRANCH  11  17
ENDBRANCH   8  11
ENDBRANCH   4   7
ENDBRANCH   1   4
BRANCH   1  45
ATOM     45  C   UNL A   1      31.683  29.196  24.378  1.00  0.00    -0.052 C 
ATOM     46  H   UNL A   1      31.861  30.250  24.347  1.00  0.00     0.027 H 
ATOM     47  H   UNL A   1      32.444  28.624  23.888  1.00  0.00     0.027 H 
BRANCH  45  48
ATOM     48  C   UNL A   1      31.690  28.754  25.845  1.00  0.00    -0.052 C 
ATOM     49  H   UNL A   1      30.802  28.184  26.026  1.00  0.00     0.027 H 
ATOM     50  H   UNL A   1      31.740  29.648  26.430  1.00  0.00     0.027 H 
BRANCH  48  51
ATOM     51  C   UNL A   1      32.894  27.902  26.243  1.00  0.00    -0.036 C 
ATOM     52  H   UNL A   1      33.027  27.140  25.505  1.00  0.00     0.028 H 
ATOM     53  H   UNL A   1      32.682  27.503  27.214  1.00  0.00     0.028 H 
BRANCH  51  54
ATOM     54  C   UNL A   1      34.193  28.684  26.364  1.00  0.00     0.018 C 
ATOM     55  H   UNL A   1      34.701  28.658  25.423  1.00  0.00     0.049 H 
ATOM     56  H   UNL A   1      34.783  28.230  27.134  1.00  0.00     0.049 H 
BRANCH  54  57
ATOM     57  N   UNL A   1      33.960  30.070  26.735  1.00  0.00    -0.352 N 
ATOM     58  C   UNL A   1      34.638  30.841  27.643  1.00  0.00     0.251 C 
ATOM     59  H   UNL A   1      33.214  30.515  26.272  1.00  0.00     0.163 HD
ATOM     60  O   UNL A   1      34.187  31.929  27.997  1.00  0.00    -0.269 OA
BRANCH  58  61
ATOM     61  C   UNL A   1      35.912  30.351  28.207  1.00  0.00     0.039 A 
ATOM     62  C   UNL A   1      35.903  29.703  29.443  1.00  0.00    -0.049 A 
ATOM     63  C   UNL A   1      37.113  30.539  27.517  1.00  0.00    -0.049 A 
ATOM     64  C   UNL A   1      37.096  29.212  29.972  1.00  0.00    -0.053 A 
ATOM     65  H   UNL A   1      35.018  29.589  29.962  1.00  0.00     0.063 H 
ATOM     66  C   UNL A   1      38.285  29.971  28.001  1.00  0.00    -0.053 A 
ATOM     67  H   UNL A   1      37.130  31.099  26.650  1.00  0.00     0.063 H 
ATOM     68  C   UNL A   1      38.294  29.325  29.246  1.00  0.00    -0.014 A 
ATOM     69  H   UNL A   1      37.100  28.763  30.901  1.00  0.00     0.063 H 
ATOM     70  H   UNL A   1      39.152  30.024  27.444  1.00  0.00     0.063 H 
BRANCH  68  71
ATOM     71  C   UNL A   1      39.575  28.817  29.794  1.00  0.00     0.031 A 
ATOM     72  C   UNL A   1      40.218  29.516  30.961  1.00  0.00     0.074 A 
ATOM     73  C   UNL A   1      40.186  27.767  29.215  1.00  0.00     0.049 A 
ATOM     74  N   UNL A   1      41.354  29.262  31.558  1.00  0.00    -0.248 NA
ATOM     75  C   UNL A   1      39.502  30.679  31.508  1.00  0.00    -0.034 C 
ATOM     76  C   UNL A   1      39.683  27.031  28.055  1.00  0.00    -0.036 A 
ATOM     77  N   UNL A   1      41.364  27.135  29.524  1.00  0.00    -0.354 N 
ATOM     78  C   UNL A   1      41.496  30.242  32.532  1.00  0.00     0.074 A 
ATOM     79  C   UNL A   1      40.365  31.133  32.403  1.00  0.00    -0.034 C 
ATOM     80  H   UNL A   1      38.570  31.046  31.260  1.00  0.00     0.065 H 
ATOM     81  C   UNL A   1      40.527  26.027  27.772  1.00  0.00    -0.036 A 
ATOM     82  H   UNL A   1      38.817  27.249  27.536  1.00  0.00     0.065 H 
ATOM     83  C   UNL A   1      41.650  26.072  28.704  1.00  0.00     0.049 A 
ATOM     84  H   UNL A   1      41.949  27.418  30.264  1.00  0.00     0.167 HD
ATOM     85  C   UNL A   1      42.468  30.374  33.466  1.00  0.00     0.037 A 
ATOM     86  H   UNL A   1      40.246  32.008  32.939  1.00  0.00     0.065 H 
ATOM     87  H   UNL A   1      40.404  25.334  27.017  1.00  0.00     0.065 H 
ATOM     88  C   UNL A   1      42.701  25.229  28.709  1.00  0.00     0.037 A 
ATOM     89  C   UNL A   1      43.578  29.468  33.604  1.00  0.00     0.049 A 
ATOM     90  C   UNL A   1      43.774  25.401  29.750  1.00  0.00     0.074 A 
ATOM     91  C   UNL A   1      44.583  29.471  34.556  1.00  0.00    -0.036 A 
ATOM     92  N   UNL A   1      43.832  28.397  32.758  1.00  0.00    -0.354 N 
ATOM     93  N   UNL A   1      43.862  26.286  30.713  1.00  0.00    -0.248 NA
ATOM     94  C   UNL A   1      44.889  24.446  29.709  1.00  0.00    -0.034 C 
ATOM     95  C   UNL A   1      45.478  28.441  34.249  1.00  0.00    -0.036 A 
ATOM     96  H   UNL A   1      44.658  30.120  35.354  1.00  0.00     0.065 H 
ATOM     97  C   UNL A   1      44.994  27.750  33.149  1.00  0.00     0.049 A 
ATOM     98  H   UNL A   1      43.269  28.135  31.993  1.00  0.00     0.167 HD
ATOM     99  C   UNL A   1      45.015  25.970  31.419  1.00  0.00     0.074 A 
ATOM    100  C   UNL A   1      45.591  24.808  30.774  1.00  0.00    -0.034 C 
ATOM    101  H   UNL A   1      45.077  23.692  29.030  1.00  0.00     0.065 H 
ATOM    102  H   UNL A   1      46.352  28.231  34.755  1.00  0.00     0.065 H 
ATOM    103  C   UNL A   1      45.547  26.584  32.505  1.00  0.00     0.037 A 
ATOM    104  H   UNL A   1      46.440  24.321  31.103  1.00  0.00     0.065 H 
BRANCH  85 105
ATOM    105  C   UNL A   1      42.378  31.550  34.398  1.00  0.00     0.064 A 
ATOM    106  C   UNL A   1      43.006  32.774  34.114  1.00  0.00     0.173 A 
ATOM    107  C   UNL A   1      41.651  31.453  35.593  1.00  0.00     0.173 A 
ATOM    108  F   UNL A   1      43.725  32.921  32.990  1.00  0.00    -0.203 F 
ATOM    109  C   UNL A   1      42.949  33.837  35.012  1.00  0.00     0.198 A 
ATOM    110  C   UNL A   1      41.562  32.531  36.471  1.00  0.00     0.198 A 
ATOM    111  F   UNL A   1      41.025  30.311  35.916  1.00  0.00    -0.203 F 
ATOM    112  F   UNL A   1      43.617  34.969  34.751  1.00  0.00    -0.200 F 
ATOM    113  C   UNL A   1      42.222  33.717  36.187  1.00  0.00     0.200 A 
ATOM    114  F   UNL A   1      40.846  32.418  37.599  1.00  0.00    -0.200 F 
ATOM    115  F   UNL A   1      42.166  34.740  37.050  1.00  0.00    -0.200 F 
ENDBRANCH  85 105
BRANCH  88 116
ATOM    116  C   UNL A   1      42.762  24.117  27.724  1.00  0.00     0.064 A 
ATOM    117  C   UNL A   1      42.344  22.825  28.076  1.00  0.00     0.173 A 
ATOM    118  C   UNL A   1      43.233  24.317  26.419  1.00  0.00     0.173 A 
ATOM    119  F   UNL A   1      41.903  22.580  29.319  1.00  0.00    -0.203 F 
ATOM    120  C   UNL A   1      42.413  21.773  27.167  1.00  0.00     0.198 A 
ATOM    121  C   UNL A   1      43.274  23.269  25.500  1.00  0.00     0.198 A 
ATOM    122  F   UNL A   1      43.638  25.534  26.029  1.00  0.00    -0.203 F 
ATOM    123  F   UNL A   1      42.049  20.540  27.545  1.00  0.00    -0.200 F 
ATOM    124  C   UNL A   1      42.872  21.996  25.878  1.00  0.00     0.200 A 
ATOM    125  F   UNL A   1      43.702  23.493  24.251  1.00  0.00    -0.200 F 
ATOM    126  F   UNL A   1      42.933  20.984  25.002  1.00  0.00    -0.200 F 
ENDBRANCH  88 116
BRANCH 103 127
ATOM    127  C   UNL A   1      46.782  25.975  33.108  1.00  0.00     0.064 A 
ATOM    128  C   UNL A   1      46.717  24.950  34.064  1.00  0.00     0.173 A 
ATOM    129  C   UNL A   1      48.053  26.406  32.694  1.00  0.00     0.173 A 
ATOM    130  F   UNL A   1      45.528  24.512  34.504  1.00  0.00    -0.203 F 
ATOM    131  C   UNL A   1      47.877  24.404  34.606  1.00  0.00     0.198 A 
ATOM    132  C   UNL A   1      49.210  25.831  33.210  1.00  0.00     0.198 A 
ATOM    133  F   UNL A   1      48.172  27.376  31.775  1.00  0.00    -0.203 F 
ATOM    134  F   UNL A   1      47.791  23.467  35.561  1.00  0.00    -0.200 F 
ATOM    135  C   UNL A   1      49.122  24.839  34.174  1.00  0.00     0.200 A 
ATOM    136  F   UNL A   1      50.411  26.240  32.776  1.00  0.00    -0.200 F 
ATOM    137  F   UNL A   1      50.237  24.305  34.692  1.00  0.00    -0.200 F 
ENDBRANCH 103 127
ENDBRANCH  68  71
ENDBRANCH  58  61
ENDBRANCH  54  57
ENDBRANCH  51  54
ENDBRANCH  48  51
ENDBRANCH  45  48
ENDBRANCH   1  45
TORSDOF 18
ENDMDL
MODEL 10
REMARK VINA RESULT:      -8.6      3.930      9.663
REMARK SMILES C[C@@H](C(=O)NCCCCCCNC(=O)c1ccc(-c2c3nc(c(-c4c(F)c(F)c(F)c(F)c4F)c4ccc([nH]4)c(-c4c(F)c(F)c(F)c(F)c4F)c4nc(c(-c5c(F)c(F)c(F)c(F)c5F)c5ccc2[nH]5)C=C4)C=C3)cc1)c1ccc(C[C@H]2CCC[C@@H]2O)cc1
REMARK SMILES IDX 7 1 6 4 5 7 3 8 4 9 2 11 1 13 78 17 79 18 90 19 80 20 89 22
REMARK SMILES IDX 81 24 82 27 83 30 84 31 87 32 85 34 86 37 88 43 8 45 9 48
REMARK SMILES IDX 10 51 11 54 12 57 13 58 14 60 15 61 16 62 77 63 17 64 76 66
REMARK SMILES IDX 18 68 19 71 20 72 70 73 21 74 75 75 69 76 71 77 22 78 74 79
REMARK SMILES IDX 68 81 67 83 23 85 55 88 35 89 54 90 36 91 39 92 53 93 72 94
REMARK SMILES IDX 37 95 38 97 52 99 73 100 40 103 24 105 25 106 33 107 26 108
REMARK SMILES IDX 27 109 31 110 34 111 28 112 29 113 32 114 30 115 56 116
REMARK SMILES IDX 57 117 65 118 58 119 59 120 63 121 66 122 60 123 61 124
REMARK SMILES IDX 64 125 62 126 41 127 42 128 50 129 43 130 44 131 48 132
REMARK SMILES IDX 51 133 45 134 46 135 49 136 47 137
REMARK H PARENT 7 2 7 3 6 5 6 6 5 10 2 12 1 14 1 15 1 16 79 21 90 23 80 25
REMARK H PARENT 89 26 82 28 82 29 83 33 84 35 84 36 87 38 85 39 85 40 86 41
REMARK H PARENT 86 42 88 44 8 46 8 47 9 49 9 50 10 52 10 53 11 55 11 56 12 59
REMARK H PARENT 16 65 77 67 17 69 76 70 75 80 69 82 71 84 74 86 68 87 36 96
REMARK H PARENT 39 98 72 101 37 102 73 104
REMARK Flexibility Score: inf
ROOT
ATOM      1  C   UNL A   1      38.129  34.199  31.611  1.00  0.00    -0.036 C 
ATOM      2  H   UNL A   1      38.625  33.269  31.427  1.00  0.00     0.028 H 
ATOM      3  H   UNL A   1      38.526  34.999  31.022  1.00  0.00     0.028 H 
ENDROOT
BRANCH   1   4
ATOM      4  C   UNL A   1      38.347  34.577  33.078  1.00  0.00     0.017 C 
ATOM      5  H   UNL A   1      39.038  33.891  33.522  1.00  0.00     0.049 H 
ATOM      6  H   UNL A   1      38.738  35.572  33.127  1.00  0.00     0.049 H 
BRANCH   4   7
ATOM      7  N   UNL A   1      37.096  34.525  33.800  1.00  0.00    -0.356 N 
ATOM      8  C   UNL A   1      36.719  33.758  34.860  1.00  0.00     0.227 C 
ATOM      9  O   UNL A   1      35.528  33.816  35.168  1.00  0.00    -0.274 OA
ATOM     10  H   UNL A   1      36.404  35.144  33.471  1.00  0.00     0.163 HD
BRANCH   8  11
ATOM     11  C   UNL A   1      37.773  32.937  35.619  1.00  0.00     0.060 C 
ATOM     12  H   UNL A   1      37.192  32.445  36.371  1.00  0.00     0.045 H 
BRANCH  11  13
ATOM     13  C   UNL A   1      38.857  33.795  36.282  1.00  0.00    -0.049 C 
ATOM     14  H   UNL A   1      38.607  34.830  36.178  1.00  0.00     0.024 H 
ATOM     15  H   UNL A   1      39.799  33.607  35.811  1.00  0.00     0.024 H 
ATOM     16  H   UNL A   1      38.922  33.547  37.321  1.00  0.00     0.024 H 
ENDBRANCH  11  13
BRANCH  11  17
ATOM     17  C   UNL A   1      38.478  31.893  34.762  1.00  0.00    -0.036 A 
ATOM     18  C   UNL A   1      37.723  30.984  34.010  1.00  0.00    -0.058 A 
ATOM     19  C   UNL A   1      39.873  31.745  34.795  1.00  0.00    -0.058 A 
ATOM     20  C   UNL A   1      38.348  29.927  33.348  1.00  0.00    -0.059 A 
ATOM     21  H   UNL A   1      36.700  31.097  33.945  1.00  0.00     0.063 H 
ATOM     22  C   UNL A   1      40.495  30.691  34.132  1.00  0.00    -0.059 A 
ATOM     23  H   UNL A   1      40.445  32.427  35.318  1.00  0.00     0.063 H 
ATOM     24  C   UNL A   1      39.732  29.742  33.447  1.00  0.00    -0.048 A 
ATOM     25  H   UNL A   1      37.784  29.275  32.781  1.00  0.00     0.063 H 
ATOM     26  H   UNL A   1      41.523  30.610  34.148  1.00  0.00     0.063 H 
BRANCH  24  27
ATOM     27  C   UNL A   1      40.390  28.499  32.901  1.00  0.00    -0.023 C 
ATOM     28  H   UNL A   1      40.474  28.606  31.840  1.00  0.00     0.032 H 
ATOM     29  H   UNL A   1      39.771  27.678  33.195  1.00  0.00     0.032 H 
BRANCH  27  30
ATOM     30  C   UNL A   1      41.793  28.209  33.467  1.00  0.00    -0.011 C 
ATOM     31  C   UNL A   1      41.867  27.787  34.944  1.00  0.00    -0.048 C 
ATOM     32  C   UNL A   1      42.583  27.124  32.728  1.00  0.00     0.057 C 
ATOM     33  H   UNL A   1      42.218  29.181  33.329  1.00  0.00     0.033 H 
ATOM     34  C   UNL A   1      43.012  26.772  35.039  1.00  0.00    -0.050 C 
ATOM     35  H   UNL A   1      40.945  27.335  35.248  1.00  0.00     0.027 H 
ATOM     36  H   UNL A   1      42.035  28.627  35.584  1.00  0.00     0.027 H 
ATOM     37  C   UNL A   1      43.718  26.825  33.694  1.00  0.00    -0.027 C 
ATOM     38  H   UNL A   1      42.002  26.259  32.488  1.00  0.00     0.060 H 
ATOM     39  H   UNL A   1      42.628  25.790  35.221  1.00  0.00     0.027 H 
ATOM     40  H   UNL A   1      43.678  27.003  35.845  1.00  0.00     0.027 H 
ATOM     41  H   UNL A   1      44.182  25.888  33.465  1.00  0.00     0.029 H 
ATOM     42  H   UNL A   1      44.507  27.547  33.657  1.00  0.00     0.029 H 
BRANCH  32  43
ATOM     43  O   UNL A   1      43.057  27.596  31.483  1.00  0.00    -0.393 OA
ATOM     44  H   UNL A   1      43.872  28.104  31.618  1.00  0.00     0.210 HD
ENDBRANCH  32  43
ENDBRANCH  27  30
ENDBRANCH  24  27
ENDBRANCH  11  17
ENDBRANCH   8  11
ENDBRANCH   4   7
ENDBRANCH   1   4
BRANCH   1  45
ATOM     45  C   UNL A   1      36.653  34.046  31.221  1.00  0.00    -0.052 C 
ATOM     46  H   UNL A   1      36.480  34.628  30.340  1.00  0.00     0.027 H 
ATOM     47  H   UNL A   1      36.082  34.378  32.064  1.00  0.00     0.027 H 
BRANCH  45  48
ATOM     48  C   UNL A   1      36.207  32.609  30.938  1.00  0.00    -0.052 C 
ATOM     49  H   UNL A   1      36.270  32.054  31.850  1.00  0.00     0.027 H 
ATOM     50  H   UNL A   1      36.855  32.234  30.174  1.00  0.00     0.027 H 
BRANCH  48  51
ATOM     51  C   UNL A   1      34.781  32.483  30.400  1.00  0.00    -0.036 C 
ATOM     52  H   UNL A   1      34.207  33.304  30.772  1.00  0.00     0.028 H 
ATOM     53  H   UNL A   1      34.409  31.535  30.731  1.00  0.00     0.028 H 
BRANCH  51  54
ATOM     54  C   UNL A   1      34.690  32.483  28.881  1.00  0.00     0.018 C 
ATOM     55  H   UNL A   1      35.680  32.522  28.476  1.00  0.00     0.049 H 
ATOM     56  H   UNL A   1      34.117  33.337  28.584  1.00  0.00     0.049 H 
BRANCH  54  57
ATOM     57  N   UNL A   1      34.021  31.295  28.377  1.00  0.00    -0.352 N 
ATOM     58  C   UNL A   1      34.571  30.106  27.975  1.00  0.00     0.251 C 
ATOM     59  H   UNL A   1      33.040  31.353  28.315  1.00  0.00     0.163 HD
ATOM     60  O   UNL A   1      33.890  29.276  27.376  1.00  0.00    -0.269 OA
BRANCH  58  61
ATOM     61  C   UNL A   1      35.995  29.832  28.253  1.00  0.00     0.039 A 
ATOM     62  C   UNL A   1      36.357  29.327  29.503  1.00  0.00    -0.049 A 
ATOM     63  C   UNL A   1      36.969  30.079  27.282  1.00  0.00    -0.049 A 
ATOM     64  C   UNL A   1      37.696  29.038  29.768  1.00  0.00    -0.053 A 
ATOM     65  H   UNL A   1      35.639  29.170  30.227  1.00  0.00     0.063 H 
ATOM     66  C   UNL A   1      38.288  29.706  27.514  1.00  0.00    -0.053 A 
ATOM     67  H   UNL A   1      36.710  30.538  26.394  1.00  0.00     0.063 H 
ATOM     68  C   UNL A   1      38.669  29.207  28.768  1.00  0.00    -0.014 A 
ATOM     69  H   UNL A   1      37.974  28.698  30.701  1.00  0.00     0.063 H 
ATOM     70  H   UNL A   1      38.988  29.797  26.762  1.00  0.00     0.063 H 
BRANCH  68  71
ATOM     71  C   UNL A   1      40.100  28.914  29.030  1.00  0.00     0.031 A 
ATOM     72  C   UNL A   1      40.941  29.910  29.780  1.00  0.00     0.074 A 
ATOM     73  C   UNL A   1      40.653  27.784  28.553  1.00  0.00     0.049 A 
ATOM     74  N   UNL A   1      42.216  29.868  30.073  1.00  0.00    -0.248 NA
ATOM     75  C   UNL A   1      40.264  31.136  30.233  1.00  0.00    -0.034 C 
ATOM     76  C   UNL A   1      39.952  26.760  27.778  1.00  0.00    -0.036 A 
ATOM     77  N   UNL A   1      41.936  27.307  28.650  1.00  0.00    -0.354 N 
ATOM     78  C   UNL A   1      42.494  31.064  30.721  1.00  0.00     0.074 A 
ATOM     79  C   UNL A   1      41.273  31.839  30.721  1.00  0.00    -0.034 C 
ATOM     80  H   UNL A   1      39.264  31.384  30.183  1.00  0.00     0.065 H 
ATOM     81  C   UNL A   1      40.802  25.760  27.501  1.00  0.00    -0.036 A 
ATOM     82  H   UNL A   1      38.961  26.801  27.490  1.00  0.00     0.065 H 
ATOM     83  C   UNL A   1      42.117  26.089  28.043  1.00  0.00     0.049 A 
ATOM     84  H   UNL A   1      42.658  27.792  29.111  1.00  0.00     0.167 HD
ATOM     85  C   UNL A   1      43.655  31.470  31.288  1.00  0.00     0.037 A 
ATOM     86  H   UNL A   1      41.200  32.812  31.058  1.00  0.00     0.065 H 
ATOM     87  H   UNL A   1      40.566  24.897  26.987  1.00  0.00     0.065 H 
ATOM     88  C   UNL A   1      43.223  25.326  27.939  1.00  0.00     0.037 A 
ATOM     89  C   UNL A   1      44.859  30.682  31.307  1.00  0.00     0.049 A 
ATOM     90  C   UNL A   1      44.504  25.802  28.568  1.00  0.00     0.074 A 
ATOM     91  C   UNL A   1      46.071  30.969  31.909  1.00  0.00    -0.036 A 
ATOM     92  N   UNL A   1      45.004  29.448  30.686  1.00  0.00    -0.354 N 
ATOM     93  N   UNL A   1      44.740  26.902  29.243  1.00  0.00    -0.248 NA
ATOM     94  C   UNL A   1      45.672  24.923  28.429  1.00  0.00    -0.034 C 
ATOM     95  C   UNL A   1      46.968  29.940  31.601  1.00  0.00    -0.036 A 
ATOM     96  H   UNL A   1      46.278  31.798  32.487  1.00  0.00     0.065 H 
ATOM     97  C   UNL A   1      46.295  28.976  30.867  1.00  0.00     0.049 A 
ATOM     98  H   UNL A   1      44.294  28.979  30.190  1.00  0.00     0.167 HD
ATOM     99  C   UNL A   1      46.066  26.827  29.646  1.00  0.00     0.074 A 
ATOM    100  C   UNL A   1      46.582  25.571  29.143  1.00  0.00    -0.034 C 
ATOM    101  H   UNL A   1      45.761  24.034  27.911  1.00  0.00     0.065 H 
ATOM    102  H   UNL A   1      47.962  29.905  31.873  1.00  0.00     0.065 H 
ATOM    103  C   UNL A   1      46.789  27.715  30.371  1.00  0.00     0.037 A 
ATOM    104  H   UNL A   1      47.538  25.222  29.318  1.00  0.00     0.065 H 
BRANCH  85 105
ATOM    105  C   UNL A   1      43.678  32.835  31.919  1.00  0.00     0.064 A 
ATOM    106  C   UNL A   1      43.833  34.004  31.157  1.00  0.00     0.173 A 
ATOM    107  C   UNL A   1      43.540  32.976  33.307  1.00  0.00     0.173 A 
ATOM    108  F   UNL A   1      43.982  33.929  29.825  1.00  0.00    -0.203 F 
ATOM    109  C   UNL A   1      43.898  35.255  31.765  1.00  0.00     0.198 A 
ATOM    110  C   UNL A   1      43.564  34.232  33.910  1.00  0.00     0.198 A 
ATOM    111  F   UNL A   1      43.382  31.895  34.087  1.00  0.00    -0.203 F 
ATOM    112  F   UNL A   1      44.119  36.349  31.023  1.00  0.00    -0.200 F 
ATOM    113  C   UNL A   1      43.757  35.369  33.140  1.00  0.00     0.200 A 
ATOM    114  F   UNL A   1      43.413  34.340  35.237  1.00  0.00    -0.200 F 
ATOM    115  F   UNL A   1      43.818  36.573  33.725  1.00  0.00    -0.200 F 
ENDBRANCH  85 105
BRANCH  88 116
ATOM    116  C   UNL A   1      43.151  24.009  27.253  1.00  0.00     0.064 A 
ATOM    117  C   UNL A   1      42.708  22.868  27.937  1.00  0.00     0.173 A 
ATOM    118  C   UNL A   1      43.519  23.861  25.908  1.00  0.00     0.173 A 
ATOM    119  F   UNL A   1      42.363  22.956  29.230  1.00  0.00    -0.203 F 
ATOM    120  C   UNL A   1      42.653  21.627  27.309  1.00  0.00     0.198 A 
ATOM    121  C   UNL A   1      43.436  22.623  25.272  1.00  0.00     0.198 A 
ATOM    122  F   UNL A   1      43.944  24.921  25.207  1.00  0.00    -0.203 F 
ATOM    123  F   UNL A   1      42.268  20.545  28.001  1.00  0.00    -0.200 F 
ATOM    124  C   UNL A   1      43.011  21.506  25.976  1.00  0.00     0.200 A 
ATOM    125  F   UNL A   1      43.767  22.514  23.979  1.00  0.00    -0.200 F 
ATOM    126  F   UNL A   1      42.953  20.312  25.369  1.00  0.00    -0.200 F 
ENDBRANCH  88 116
BRANCH 103 127
ATOM    127  C   UNL A   1      48.202  27.335  30.721  1.00  0.00     0.064 A 
ATOM    128  C   UNL A   1      49.295  27.727  29.935  1.00  0.00     0.173 A 
ATOM    129  C   UNL A   1      48.462  26.593  31.884  1.00  0.00     0.173 A 
ATOM    130  F   UNL A   1      49.100  28.425  28.806  1.00  0.00    -0.203 F 
ATOM    131  C   UNL A   1      50.593  27.362  30.282  1.00  0.00     0.198 A 
ATOM    132  C   UNL A   1      49.764  26.262  32.249  1.00  0.00     0.198 A 
ATOM    133  F   UNL A   1      47.454  26.201  32.677  1.00  0.00    -0.203 F 
ATOM    134  F   UNL A   1      51.617  27.696  29.485  1.00  0.00    -0.200 F 
ATOM    135  C   UNL A   1      50.827  26.636  31.442  1.00  0.00     0.200 A 
ATOM    136  F   UNL A   1      49.989  25.578  33.379  1.00  0.00    -0.200 F 
ATOM    137  F   UNL A   1      52.079  26.293  31.778  1.00  0.00    -0.200 F 
ENDBRANCH 103 127
ENDBRANCH  68  71
ENDBRANCH  58  61
ENDBRANCH  54  57
ENDBRANCH  51  54
ENDBRANCH  48  51
ENDBRANCH  45  48
ENDBRANCH   1  45
TORSDOF 18
ENDMDL
