MODEL 1
REMARK VINA RESULT:     -11.9      0.000      0.000
REMARK SMILES CC(=O)Nc1ccc(/C(=C\c2ccc(S(C)(=O)=O)cc2)C(=O)NCCCCCCNC(=O)c2ccc(-c3c4nc(c(-c5c(F)c(F)c(F)c(F)c5F)c5ccc([nH]5)c(-c5c(F)c(F)c(F)c(F)c5F)c5nc(c(-c6c(F)c(F)c(F)c(F)c6F)c6ccc3[nH]6)C=C5)C=C4)cc2)cc1
REMARK SMILES IDX 26 1 25 4 24 7 23 10 21 11 22 12 9 14 10 15 8 17 5 18 6 19
REMARK SMILES IDX 97 20 7 21 96 23 4 27 2 28 3 29 1 31 11 35 12 36 20 37 13 38
REMARK SMILES IDX 19 40 14 42 15 45 17 46 18 47 16 48 27 52 28 55 29 58 30 61
REMARK SMILES IDX 31 62 32 64 33 65 34 66 95 67 35 68 94 70 36 72 37 75 38 76
REMARK SMILES IDX 88 77 39 78 93 79 87 80 89 81 40 82 92 83 86 85 85 87 41 89
REMARK SMILES IDX 73 92 53 93 72 94 54 95 57 96 71 97 90 98 55 99 56 101
REMARK SMILES IDX 70 103 91 104 58 107 42 109 43 110 51 111 44 112 45 113
REMARK SMILES IDX 49 114 52 115 46 116 47 117 50 118 48 119 74 120 75 121
REMARK SMILES IDX 83 122 76 123 77 124 81 125 84 126 78 127 79 128 82 129
REMARK SMILES IDX 80 130 59 131 60 132 68 133 61 134 62 135 66 136 69 137
REMARK SMILES IDX 63 138 64 139 67 140 65 141
REMARK H PARENT 26 2 26 3 25 5 25 6 24 8 24 9 23 13 10 16 6 22 97 24 7 25
REMARK H PARENT 96 26 4 30 1 32 1 33 1 34 12 39 20 41 13 43 19 44 16 49 16 50
REMARK H PARENT 16 51 27 53 27 54 28 56 28 57 29 59 29 60 30 63 34 69 95 71
REMARK H PARENT 35 73 94 74 93 84 87 86 89 88 92 90 86 91 54 100 57 102 90 105
REMARK H PARENT 55 106 91 108
REMARK Flexibility Score: inf
ROOT
ATOM      1  C   UNL A   1      32.864  22.456  27.493  1.00  0.00    -0.052 C 
ATOM      2  H   UNL A   1      32.734  21.533  26.968  1.00  0.00     0.027 H 
ATOM      3  H   UNL A   1      32.867  22.341  28.557  1.00  0.00     0.027 H 
ENDROOT
BRANCH   1   4
ATOM      4  C   UNL A   1      31.669  23.366  27.162  1.00  0.00    -0.036 C 
ATOM      5  H   UNL A   1      31.027  23.405  28.016  1.00  0.00     0.028 H 
ATOM      6  H   UNL A   1      32.066  24.326  26.909  1.00  0.00     0.028 H 
BRANCH   4   7
ATOM      7  C   UNL A   1      30.851  22.884  25.960  1.00  0.00     0.018 C 
ATOM      8  H   UNL A   1      30.576  21.860  26.105  1.00  0.00     0.049 H 
ATOM      9  H   UNL A   1      29.969  23.483  25.867  1.00  0.00     0.049 H 
BRANCH   7  10
ATOM     10  N   UNL A   1      31.641  23.004  24.754  1.00  0.00    -0.352 N 
ATOM     11  C   UNL A   1      31.933  23.991  23.870  1.00  0.00     0.251 C 
ATOM     12  O   UNL A   1      32.632  23.607  22.929  1.00  0.00    -0.269 OA
ATOM     13  H   UNL A   1      32.077  22.155  24.514  1.00  0.00     0.163 HD
BRANCH  11  14
ATOM     14  C   UNL A   1      31.533  25.458  24.029  1.00  0.00     0.047 C 
ATOM     15  C   UNL A   1      30.781  26.039  23.063  1.00  0.00    -0.042 C 
ATOM     16  H   UNL A   1      30.689  25.500  22.189  1.00  0.00     0.064 H 
BRANCH  14  17
ATOM     17  C   UNL A   1      32.149  26.272  25.145  1.00  0.00    -0.013 A 
ATOM     18  C   UNL A   1      33.294  28.237  26.874  1.00  0.00     0.041 A 
ATOM     19  C   UNL A   1      31.988  27.783  27.071  1.00  0.00    -0.038 A 
ATOM     20  C   UNL A   1      34.069  27.582  25.935  1.00  0.00    -0.038 A 
ATOM     21  C   UNL A   1      31.437  26.790  26.238  1.00  0.00    -0.052 A 
ATOM     22  H   UNL A   1      31.420  28.180  27.835  1.00  0.00     0.064 H 
ATOM     23  C   UNL A   1      33.496  26.652  25.065  1.00  0.00    -0.052 A 
ATOM     24  H   UNL A   1      35.081  27.781  25.878  1.00  0.00     0.064 H 
ATOM     25  H   UNL A   1      30.489  26.434  26.437  1.00  0.00     0.063 H 
ATOM     26  H   UNL A   1      34.088  26.227  24.332  1.00  0.00     0.063 H 
BRANCH  18  27
ATOM     27  N   UNL A   1      33.740  29.331  27.634  1.00  0.00    -0.326 N 
ATOM     28  C   UNL A   1      33.422  30.660  27.589  1.00  0.00     0.221 C 
ATOM     29  O   UNL A   1      34.028  31.436  28.333  1.00  0.00    -0.275 OA
ATOM     30  H   UNL A   1      34.403  29.099  28.324  1.00  0.00     0.169 HD
BRANCH  28  31
ATOM     31  C   UNL A   1      32.323  31.177  26.698  1.00  0.00     0.015 C 
ATOM     32  H   UNL A   1      32.729  31.884  26.005  1.00  0.00     0.033 H 
ATOM     33  H   UNL A   1      31.574  31.654  27.295  1.00  0.00     0.033 H 
ATOM     34  H   UNL A   1      31.885  30.361  26.161  1.00  0.00     0.033 H 
ENDBRANCH  28  31
ENDBRANCH  18  27
ENDBRANCH  14  17
BRANCH  15  35
ATOM     35  C   UNL A   1      30.076  27.330  23.088  1.00  0.00    -0.025 A 
ATOM     36  C   UNL A   1      30.780  28.459  22.629  1.00  0.00    -0.054 A 
ATOM     37  C   UNL A   1      28.739  27.459  23.469  1.00  0.00    -0.054 A 
ATOM     38  C   UNL A   1      30.138  29.689  22.491  1.00  0.00    -0.043 A 
ATOM     39  H   UNL A   1      31.781  28.375  22.393  1.00  0.00     0.063 H 
ATOM     40  C   UNL A   1      28.088  28.692  23.332  1.00  0.00    -0.043 A 
ATOM     41  H   UNL A   1      28.229  26.646  23.852  1.00  0.00     0.063 H 
ATOM     42  C   UNL A   1      28.789  29.795  22.832  1.00  0.00     0.067 A 
ATOM     43  H   UNL A   1      30.653  30.511  22.140  1.00  0.00     0.064 H 
ATOM     44  H   UNL A   1      27.095  28.786  23.597  1.00  0.00     0.064 H 
BRANCH  42  45
ATOM     45  S   UNL A   1      27.935  31.319  22.490  1.00  0.00     0.175 S 
ATOM     46  O   UNL A   1      27.600  31.307  21.079  1.00  0.00    -0.224 OA
ATOM     47  O   UNL A   1      26.903  31.478  23.497  1.00  0.00    -0.224 OA
BRANCH  45  48
ATOM     48  C   UNL A   1      29.159  32.571  22.759  1.00  0.00     0.043 C 
ATOM     49  H   UNL A   1      29.077  32.941  23.759  1.00  0.00     0.040 H 
ATOM     50  H   UNL A   1      29.006  33.373  22.068  1.00  0.00     0.040 H 
ATOM     51  H   UNL A   1      30.134  32.154  22.611  1.00  0.00     0.040 H 
ENDBRANCH  45  48
ENDBRANCH  42  45
ENDBRANCH  15  35
ENDBRANCH  11  14
ENDBRANCH   7  10
ENDBRANCH   4   7
ENDBRANCH   1   4
BRANCH   1  52
ATOM     52  C   UNL A   1      34.236  23.028  27.119  1.00  0.00    -0.052 C 
ATOM     53  H   UNL A   1      34.838  23.058  28.003  1.00  0.00     0.027 H 
ATOM     54  H   UNL A   1      34.057  23.995  26.699  1.00  0.00     0.027 H 
BRANCH  52  55
ATOM     55  C   UNL A   1      34.994  22.230  26.055  1.00  0.00    -0.036 C 
ATOM     56  H   UNL A   1      34.480  22.339  25.123  1.00  0.00     0.028 H 
ATOM     57  H   UNL A   1      35.027  21.216  26.393  1.00  0.00     0.028 H 
BRANCH  55  58
ATOM     58  C   UNL A   1      36.439  22.674  25.859  1.00  0.00     0.018 C 
ATOM     59  H   UNL A   1      36.684  23.399  26.608  1.00  0.00     0.049 H 
ATOM     60  H   UNL A   1      36.530  23.091  24.878  1.00  0.00     0.049 H 
BRANCH  58  61
ATOM     61  N   UNL A   1      37.362  21.556  25.965  1.00  0.00    -0.352 N 
ATOM     62  C   UNL A   1      38.724  21.573  26.125  1.00  0.00     0.251 C 
ATOM     63  H   UNL A   1      36.953  20.663  25.913  1.00  0.00     0.163 HD
ATOM     64  O   UNL A   1      39.380  20.550  25.965  1.00  0.00    -0.269 OA
BRANCH  62  65
ATOM     65  C   UNL A   1      39.403  22.835  26.485  1.00  0.00     0.039 A 
ATOM     66  C   UNL A   1      39.080  24.001  25.786  1.00  0.00    -0.049 A 
ATOM     67  C   UNL A   1      40.373  22.862  27.492  1.00  0.00    -0.049 A 
ATOM     68  C   UNL A   1      39.702  25.204  26.124  1.00  0.00    -0.053 A 
ATOM     69  H   UNL A   1      38.385  23.974  25.023  1.00  0.00     0.063 H 
ATOM     70  C   UNL A   1      40.938  24.073  27.877  1.00  0.00    -0.053 A 
ATOM     71  H   UNL A   1      40.669  21.985  27.948  1.00  0.00     0.063 H 
ATOM     72  C   UNL A   1      40.620  25.253  27.187  1.00  0.00    -0.014 A 
ATOM     73  H   UNL A   1      39.487  26.061  25.591  1.00  0.00     0.063 H 
ATOM     74  H   UNL A   1      41.593  24.105  28.673  1.00  0.00     0.063 H 
BRANCH  72  75
ATOM     75  C   UNL A   1      41.287  26.522  27.569  1.00  0.00     0.031 A 
ATOM     76  C   UNL A   1      42.721  26.761  27.186  1.00  0.00     0.074 A 
ATOM     77  C   UNL A   1      40.622  27.432  28.308  1.00  0.00     0.049 A 
ATOM     78  N   UNL A   1      43.505  27.765  27.488  1.00  0.00    -0.248 NA
ATOM     79  C   UNL A   1      43.372  25.713  26.382  1.00  0.00    -0.034 C 
ATOM     80  C   UNL A   1      39.242  27.297  28.774  1.00  0.00    -0.036 A 
ATOM     81  N   UNL A   1      41.024  28.647  28.803  1.00  0.00    -0.354 N 
ATOM     82  C   UNL A   1      44.738  27.463  26.926  1.00  0.00     0.074 A 
ATOM     83  C   UNL A   1      44.618  26.157  26.315  1.00  0.00    -0.034 C 
ATOM     84  H   UNL A   1      42.964  24.857  25.976  1.00  0.00     0.065 H 
ATOM     85  C   UNL A   1      38.904  28.393  29.471  1.00  0.00    -0.036 A 
ATOM     86  H   UNL A   1      38.627  26.487  28.596  1.00  0.00     0.065 H 
ATOM     87  C   UNL A   1      40.054  29.291  29.531  1.00  0.00     0.049 A 
ATOM     88  H   UNL A   1      41.921  29.021  28.652  1.00  0.00     0.167 HD
ATOM     89  C   UNL A   1      45.863  28.217  26.900  1.00  0.00     0.037 A 
ATOM     90  H   UNL A   1      45.400  25.640  25.885  1.00  0.00     0.065 H 
ATOM     91  H   UNL A   1      37.981  28.573  29.895  1.00  0.00     0.065 H 
ATOM     92  C   UNL A   1      40.092  30.471  30.179  1.00  0.00     0.037 A 
ATOM     93  C   UNL A   1      45.968  29.529  27.483  1.00  0.00     0.049 A 
ATOM     94  C   UNL A   1      41.354  31.290  30.137  1.00  0.00     0.074 A 
ATOM     95  C   UNL A   1      47.043  30.399  27.463  1.00  0.00    -0.036 A 
ATOM     96  N   UNL A   1      44.956  30.159  28.194  1.00  0.00    -0.354 N 
ATOM     97  N   UNL A   1      42.495  31.023  29.549  1.00  0.00    -0.248 NA
ATOM     98  C   UNL A   1      41.330  32.579  30.841  1.00  0.00    -0.034 C 
ATOM     99  C   UNL A   1      46.698  31.537  28.200  1.00  0.00    -0.036 A 
ATOM    100  H   UNL A   1      47.944  30.237  26.985  1.00  0.00     0.065 H 
ATOM    101  C   UNL A   1      45.390  31.399  28.634  1.00  0.00     0.049 A 
ATOM    102  H   UNL A   1      44.063  29.781  28.360  1.00  0.00     0.167 HD
ATOM    103  C   UNL A   1      43.313  32.121  29.783  1.00  0.00     0.074 A 
ATOM    104  C   UNL A   1      42.532  33.063  30.557  1.00  0.00    -0.034 C 
ATOM    105  H   UNL A   1      40.578  32.998  31.408  1.00  0.00     0.065 H 
ATOM    106  H   UNL A   1      47.315  32.342  28.389  1.00  0.00     0.065 H 
ATOM    107  C   UNL A   1      44.594  32.330  29.394  1.00  0.00     0.037 A 
ATOM    108  H   UNL A   1      42.867  33.994  30.850  1.00  0.00     0.065 H 
BRANCH  89 109
ATOM    109  C   UNL A   1      47.070  27.643  26.215  1.00  0.00     0.064 A 
ATOM    110  C   UNL A   1      47.296  27.826  24.842  1.00  0.00     0.173 A 
ATOM    111  C   UNL A   1      48.030  26.927  26.946  1.00  0.00     0.173 A 
ATOM    112  F   UNL A   1      46.403  28.493  24.094  1.00  0.00    -0.203 F 
ATOM    113  C   UNL A   1      48.419  27.287  24.221  1.00  0.00     0.198 A 
ATOM    114  C   UNL A   1      49.168  26.416  26.327  1.00  0.00     0.198 A 
ATOM    115  F   UNL A   1      47.867  26.725  28.262  1.00  0.00    -0.203 F 
ATOM    116  F   UNL A   1      48.584  27.428  22.898  1.00  0.00    -0.200 F 
ATOM    117  C   UNL A   1      49.358  26.589  24.965  1.00  0.00     0.200 A 
ATOM    118  F   UNL A   1      50.081  25.754  27.051  1.00  0.00    -0.200 F 
ATOM    119  F   UNL A   1      50.442  26.076  24.367  1.00  0.00    -0.200 F 
ENDBRANCH  89 109
BRANCH  92 120
ATOM    120  C   UNL A   1      38.890  30.962  30.902  1.00  0.00     0.064 A 
ATOM    121  C   UNL A   1      38.712  30.695  32.267  1.00  0.00     0.173 A 
ATOM    122  C   UNL A   1      37.893  31.700  30.247  1.00  0.00     0.173 A 
ATOM    123  F   UNL A   1      39.629  29.976  32.933  1.00  0.00    -0.203 F 
ATOM    124  C   UNL A   1      37.574  31.126  32.944  1.00  0.00     0.198 A 
ATOM    125  C   UNL A   1      36.769  32.157  30.933  1.00  0.00     0.198 A 
ATOM    126  F   UNL A   1      38.018  31.989  28.944  1.00  0.00    -0.203 F 
ATOM    127  F   UNL A   1      37.406  30.816  34.236  1.00  0.00    -0.200 F 
ATOM    128  C   UNL A   1      36.606  31.862  32.277  1.00  0.00     0.200 A 
ATOM    129  F   UNL A   1      35.843  32.880  30.287  1.00  0.00    -0.200 F 
ATOM    130  F   UNL A   1      35.511  32.280  32.929  1.00  0.00    -0.200 F 
ENDBRANCH  92 120
BRANCH 107 131
ATOM    131  C   UNL A   1      45.220  33.645  29.759  1.00  0.00     0.064 A 
ATOM    132  C   UNL A   1      45.111  34.768  28.926  1.00  0.00     0.173 A 
ATOM    133  C   UNL A   1      45.899  33.791  30.977  1.00  0.00     0.173 A 
ATOM    134  F   UNL A   1      44.485  34.676  27.744  1.00  0.00    -0.203 F 
ATOM    135  C   UNL A   1      45.685  35.984  29.289  1.00  0.00     0.198 A 
ATOM    136  C   UNL A   1      46.444  35.017  31.351  1.00  0.00     0.198 A 
ATOM    137  F   UNL A   1      46.024  32.749  31.812  1.00  0.00    -0.203 F 
ATOM    138  F   UNL A   1      45.611  37.032  28.457  1.00  0.00    -0.200 F 
ATOM    139  C   UNL A   1      46.342  36.109  30.504  1.00  0.00     0.200 A 
ATOM    140  F   UNL A   1      47.065  35.140  32.532  1.00  0.00    -0.200 F 
ATOM    141  F   UNL A   1      46.885  37.283  30.855  1.00  0.00    -0.200 F 
ENDBRANCH 107 131
ENDBRANCH  72  75
ENDBRANCH  62  65
ENDBRANCH  58  61
ENDBRANCH  55  58
ENDBRANCH  52  55
ENDBRANCH   1  52
TORSDOF 19
ENDMDL
MODEL 2
REMARK VINA RESULT:     -11.8      0.441      7.183
REMARK SMILES CC(=O)Nc1ccc(/C(=C\c2ccc(S(C)(=O)=O)cc2)C(=O)NCCCCCCNC(=O)c2ccc(-c3c4nc(c(-c5c(F)c(F)c(F)c(F)c5F)c5ccc([nH]5)c(-c5c(F)c(F)c(F)c(F)c5F)c5nc(c(-c6c(F)c(F)c(F)c(F)c6F)c6ccc3[nH]6)C=C5)C=C4)cc2)cc1
REMARK SMILES IDX 26 1 25 4 24 7 23 10 21 11 22 12 9 14 10 15 8 17 5 18 6 19
REMARK SMILES IDX 97 20 7 21 96 23 4 27 2 28 3 29 1 31 11 35 12 36 20 37 13 38
REMARK SMILES IDX 19 40 14 42 15 45 17 46 18 47 16 48 27 52 28 55 29 58 30 61
REMARK SMILES IDX 31 62 32 64 33 65 34 66 95 67 35 68 94 70 36 72 37 75 38 76
REMARK SMILES IDX 88 77 39 78 93 79 87 80 89 81 40 82 92 83 86 85 85 87 41 89
REMARK SMILES IDX 73 92 53 93 72 94 54 95 57 96 71 97 90 98 55 99 56 101
REMARK SMILES IDX 70 103 91 104 58 107 42 109 43 110 51 111 44 112 45 113
REMARK SMILES IDX 49 114 52 115 46 116 47 117 50 118 48 119 74 120 75 121
REMARK SMILES IDX 83 122 76 123 77 124 81 125 84 126 78 127 79 128 82 129
REMARK SMILES IDX 80 130 59 131 60 132 68 133 61 134 62 135 66 136 69 137
REMARK SMILES IDX 63 138 64 139 67 140 65 141
REMARK H PARENT 26 2 26 3 25 5 25 6 24 8 24 9 23 13 10 16 6 22 97 24 7 25
REMARK H PARENT 96 26 4 30 1 32 1 33 1 34 12 39 20 41 13 43 19 44 16 49 16 50
REMARK H PARENT 16 51 27 53 27 54 28 56 28 57 29 59 29 60 30 63 34 69 95 71
REMARK H PARENT 35 73 94 74 93 84 87 86 89 88 92 90 86 91 54 100 57 102 90 105
REMARK H PARENT 55 106 91 108
REMARK Flexibility Score: inf
ROOT
ATOM      1  C   UNL A   1      32.601  22.677  27.296  1.00  0.00    -0.052 C 
ATOM      2  H   UNL A   1      32.601  21.719  26.818  1.00  0.00     0.027 H 
ATOM      3  H   UNL A   1      32.619  22.618  28.364  1.00  0.00     0.027 H 
ENDROOT
BRANCH   1   4
ATOM      4  C   UNL A   1      31.292  23.394  26.926  1.00  0.00    -0.036 C 
ATOM      5  H   UNL A   1      30.601  23.275  27.734  1.00  0.00     0.028 H 
ATOM      6  H   UNL A   1      31.535  24.420  26.749  1.00  0.00     0.028 H 
BRANCH   4   7
ATOM      7  C   UNL A   1      30.642  22.856  25.648  1.00  0.00     0.018 C 
ATOM      8  H   UNL A   1      30.416  21.817  25.774  1.00  0.00     0.049 H 
ATOM      9  H   UNL A   1      29.739  23.397  25.453  1.00  0.00     0.049 H 
BRANCH   7  10
ATOM     10  N   UNL A   1      31.550  23.019  24.534  1.00  0.00    -0.352 N 
ATOM     11  C   UNL A   1      31.937  24.042  23.730  1.00  0.00     0.251 C 
ATOM     12  O   UNL A   1      32.724  23.691  22.847  1.00  0.00    -0.269 OA
ATOM     13  H   UNL A   1      32.001  22.177  24.300  1.00  0.00     0.163 HD
BRANCH  11  14
ATOM     14  C   UNL A   1      31.536  25.505  23.915  1.00  0.00     0.047 C 
ATOM     15  C   UNL A   1      30.782  26.103  22.960  1.00  0.00    -0.042 C 
ATOM     16  H   UNL A   1      30.691  25.579  22.076  1.00  0.00     0.064 H 
BRANCH  14  17
ATOM     17  C   UNL A   1      32.150  26.300  25.046  1.00  0.00    -0.013 A 
ATOM     18  C   UNL A   1      33.293  28.234  26.810  1.00  0.00     0.041 A 
ATOM     19  C   UNL A   1      31.988  27.776  26.998  1.00  0.00    -0.038 A 
ATOM     20  C   UNL A   1      34.069  27.597  25.860  1.00  0.00    -0.038 A 
ATOM     21  C   UNL A   1      31.437  26.798  26.147  1.00  0.00    -0.052 A 
ATOM     22  H   UNL A   1      31.419  28.160  27.769  1.00  0.00     0.064 H 
ATOM     23  C   UNL A   1      33.497  26.682  24.973  1.00  0.00    -0.052 A 
ATOM     24  H   UNL A   1      35.081  27.797  25.806  1.00  0.00     0.064 H 
ATOM     25  H   UNL A   1      30.489  26.438  26.340  1.00  0.00     0.063 H 
ATOM     26  H   UNL A   1      34.089  26.271  24.233  1.00  0.00     0.063 H 
BRANCH  18  27
ATOM     27  N   UNL A   1      33.738  29.316  27.589  1.00  0.00    -0.326 N 
ATOM     28  C   UNL A   1      33.382  30.636  27.602  1.00  0.00     0.221 C 
ATOM     29  O   UNL A   1      33.994  31.404  28.349  1.00  0.00    -0.275 OA
ATOM     30  H   UNL A   1      34.434  29.080  28.244  1.00  0.00     0.169 HD
BRANCH  28  31
ATOM     31  C   UNL A   1      32.235  31.150  26.771  1.00  0.00     0.015 C 
ATOM     32  H   UNL A   1      32.014  32.157  27.053  1.00  0.00     0.033 H 
ATOM     33  H   UNL A   1      31.373  30.537  26.936  1.00  0.00     0.033 H 
ATOM     34  H   UNL A   1      32.502  31.119  25.735  1.00  0.00     0.033 H 
ENDBRANCH  28  31
ENDBRANCH  18  27
ENDBRANCH  14  17
BRANCH  15  35
ATOM     35  C   UNL A   1      30.075  27.391  23.008  1.00  0.00    -0.025 A 
ATOM     36  C   UNL A   1      30.786  28.533  22.593  1.00  0.00    -0.054 A 
ATOM     37  C   UNL A   1      28.732  27.509  23.369  1.00  0.00    -0.054 A 
ATOM     38  C   UNL A   1      30.145  29.766  22.477  1.00  0.00    -0.043 A 
ATOM     39  H   UNL A   1      31.791  28.457  22.371  1.00  0.00     0.063 H 
ATOM     40  C   UNL A   1      28.083  28.745  23.255  1.00  0.00    -0.043 A 
ATOM     41  H   UNL A   1      28.217  26.686  23.722  1.00  0.00     0.063 H 
ATOM     42  C   UNL A   1      28.790  29.862  22.798  1.00  0.00     0.067 A 
ATOM     43  H   UNL A   1      30.666  30.598  22.158  1.00  0.00     0.064 H 
ATOM     44  H   UNL A   1      27.085  28.831  23.506  1.00  0.00     0.064 H 
BRANCH  42  45
ATOM     45  S   UNL A   1      27.940  31.394  22.483  1.00  0.00     0.175 S 
ATOM     46  O   UNL A   1      27.597  31.404  21.074  1.00  0.00    -0.224 OA
ATOM     47  O   UNL A   1      26.915  31.543  23.499  1.00  0.00    -0.224 OA
BRANCH  45  48
ATOM     48  C   UNL A   1      29.171  32.637  22.762  1.00  0.00     0.043 C 
ATOM     49  H   UNL A   1      30.116  32.291  22.400  1.00  0.00     0.040 H 
ATOM     50  H   UNL A   1      29.242  32.839  23.810  1.00  0.00     0.040 H 
ATOM     51  H   UNL A   1      28.897  33.533  22.244  1.00  0.00     0.040 H 
ENDBRANCH  45  48
ENDBRANCH  42  45
ENDBRANCH  15  35
ENDBRANCH  11  14
ENDBRANCH   7  10
ENDBRANCH   4   7
ENDBRANCH   1   4
BRANCH   1  52
ATOM     52  C   UNL A   1      33.881  23.414  26.884  1.00  0.00    -0.052 C 
ATOM     53  H   UNL A   1      34.404  23.696  27.774  1.00  0.00     0.027 H 
ATOM     54  H   UNL A   1      33.572  24.251  26.294  1.00  0.00     0.027 H 
BRANCH  52  55
ATOM     55  C   UNL A   1      34.836  22.599  26.009  1.00  0.00    -0.036 C 
ATOM     56  H   UNL A   1      34.572  22.757  24.984  1.00  0.00     0.028 H 
ATOM     57  H   UNL A   1      34.736  21.577  26.309  1.00  0.00     0.028 H 
BRANCH  55  58
ATOM     58  C   UNL A   1      36.304  22.966  26.186  1.00  0.00     0.018 C 
ATOM     59  H   UNL A   1      36.433  23.435  27.139  1.00  0.00     0.049 H 
ATOM     60  H   UNL A   1      36.581  23.629  25.393  1.00  0.00     0.049 H 
BRANCH  58  61
ATOM     61  N   UNL A   1      37.162  21.795  26.117  1.00  0.00    -0.352 N 
ATOM     62  C   UNL A   1      38.532  21.725  26.127  1.00  0.00     0.251 C 
ATOM     63  H   UNL A   1      36.695  20.931  26.054  1.00  0.00     0.163 HD
ATOM     64  O   UNL A   1      39.102  20.680  25.830  1.00  0.00    -0.269 OA
BRANCH  62  65
ATOM     65  C   UNL A   1      39.323  22.919  26.489  1.00  0.00     0.039 A 
ATOM     66  C   UNL A   1      39.118  24.107  25.783  1.00  0.00    -0.049 A 
ATOM     67  C   UNL A   1      40.281  22.859  27.506  1.00  0.00    -0.049 A 
ATOM     68  C   UNL A   1      39.847  25.247  26.123  1.00  0.00    -0.053 A 
ATOM     69  H   UNL A   1      38.431  24.141  25.013  1.00  0.00     0.063 H 
ATOM     70  C   UNL A   1      40.954  24.013  27.892  1.00  0.00    -0.053 A 
ATOM     71  H   UNL A   1      40.489  21.960  27.968  1.00  0.00     0.063 H 
ATOM     72  C   UNL A   1      40.755  25.215  27.195  1.00  0.00    -0.014 A 
ATOM     73  H   UNL A   1      39.719  26.119  25.585  1.00  0.00     0.063 H 
ATOM     74  H   UNL A   1      41.601  23.987  28.696  1.00  0.00     0.063 H 
BRANCH  72  75
ATOM     75  C   UNL A   1      41.534  26.417  27.580  1.00  0.00     0.031 A 
ATOM     76  C   UNL A   1      40.885  27.504  28.390  1.00  0.00     0.074 A 
ATOM     77  C   UNL A   1      42.804  26.558  27.152  1.00  0.00     0.049 A 
ATOM     78  N   UNL A   1      41.366  28.663  28.762  1.00  0.00    -0.248 NA
ATOM     79  C   UNL A   1      39.494  27.271  28.812  1.00  0.00    -0.034 C 
ATOM     80  C   UNL A   1      43.530  25.591  26.327  1.00  0.00    -0.036 A 
ATOM     81  N   UNL A   1      43.706  27.574  27.345  1.00  0.00    -0.354 N 
ATOM     82  C   UNL A   1      40.337  29.298  29.445  1.00  0.00     0.074 A 
ATOM     83  C   UNL A   1      39.187  28.423  29.387  1.00  0.00    -0.034 C 
ATOM     84  H   UNL A   1      38.911  26.427  28.692  1.00  0.00     0.065 H 
ATOM     85  C   UNL A   1      44.771  26.051  26.101  1.00  0.00    -0.036 A 
ATOM     86  H   UNL A   1      43.148  24.699  25.975  1.00  0.00     0.065 H 
ATOM     87  C   UNL A   1      44.916  27.359  26.733  1.00  0.00     0.049 A 
ATOM     88  H   UNL A   1      43.503  28.381  27.872  1.00  0.00     0.167 HD
ATOM     89  C   UNL A   1      40.358  30.492  30.085  1.00  0.00     0.037 A 
ATOM     90  H   UNL A   1      38.250  28.666  29.746  1.00  0.00     0.065 H 
ATOM     91  H   UNL A   1      45.504  25.559  25.567  1.00  0.00     0.065 H 
ATOM     92  C   UNL A   1      46.016  28.134  26.684  1.00  0.00     0.037 A 
ATOM     93  C   UNL A   1      41.515  31.344  30.165  1.00  0.00     0.049 A 
ATOM     94  C   UNL A   1      46.012  29.458  27.401  1.00  0.00     0.074 A 
ATOM     95  C   UNL A   1      41.657  32.546  30.836  1.00  0.00    -0.036 A 
ATOM     96  N   UNL A   1      42.731  31.082  29.551  1.00  0.00    -0.354 N 
ATOM     97  N   UNL A   1      45.054  30.020  28.097  1.00  0.00    -0.248 NA
ATOM     98  C   UNL A   1      47.248  30.250  27.334  1.00  0.00    -0.034 C 
ATOM     99  C   UNL A   1      42.945  33.034  30.591  1.00  0.00    -0.036 A 
ATOM    100  H   UNL A   1      40.937  33.003  31.418  1.00  0.00     0.065 H 
ATOM    101  C   UNL A   1      43.623  32.111  29.811  1.00  0.00     0.049 A 
ATOM    102  H   UNL A   1      42.931  30.284  29.011  1.00  0.00     0.167 HD
ATOM    103  C   UNL A   1      45.578  31.214  28.576  1.00  0.00     0.074 A 
ATOM    104  C   UNL A   1      46.945  31.288  28.101  1.00  0.00    -0.034 C 
ATOM    105  H   UNL A   1      48.122  30.052  26.823  1.00  0.00     0.065 H 
ATOM    106  H   UNL A   1      43.324  33.930  30.932  1.00  0.00     0.065 H 
ATOM    107  C   UNL A   1      44.983  32.162  29.340  1.00  0.00     0.037 A 
ATOM    108  H   UNL A   1      47.600  32.051  28.332  1.00  0.00     0.065 H 
BRANCH  89 109
ATOM    109  C   UNL A   1      39.090  30.945  30.751  1.00  0.00     0.064 A 
ATOM    110  C   UNL A   1      38.826  30.665  32.101  1.00  0.00     0.173 A 
ATOM    111  C   UNL A   1      38.142  31.696  30.041  1.00  0.00     0.173 A 
ATOM    112  F   UNL A   1      39.695  29.939  32.823  1.00  0.00    -0.203 F 
ATOM    113  C   UNL A   1      37.647  31.091  32.705  1.00  0.00     0.198 A 
ATOM    114  C   UNL A   1      36.977  32.148  30.658  1.00  0.00     0.198 A 
ATOM    115  F   UNL A   1      38.345  31.997  28.750  1.00  0.00    -0.203 F 
ATOM    116  F   UNL A   1      37.392  30.764  33.980  1.00  0.00    -0.200 F 
ATOM    117  C   UNL A   1      36.726  31.839  31.986  1.00  0.00     0.200 A 
ATOM    118  F   UNL A   1      36.096  32.882  29.964  1.00  0.00    -0.200 F 
ATOM    119  F   UNL A   1      35.594  32.253  32.570  1.00  0.00    -0.200 F 
ENDBRANCH  89 109
BRANCH  92 120
ATOM    120  C   UNL A   1      47.221  27.669  25.950  1.00  0.00     0.064 A 
ATOM    121  C   UNL A   1      47.334  27.847  24.564  1.00  0.00     0.173 A 
ATOM    122  C   UNL A   1      48.281  27.034  26.613  1.00  0.00     0.173 A 
ATOM    123  F   UNL A   1      46.337  28.433  23.883  1.00  0.00    -0.203 F 
ATOM    124  C   UNL A   1      48.447  27.387  23.865  1.00  0.00     0.198 A 
ATOM    125  C   UNL A   1      49.409  26.600  25.918  1.00  0.00     0.198 A 
ATOM    126  F   UNL A   1      48.228  26.845  27.940  1.00  0.00    -0.203 F 
ATOM    127  F   UNL A   1      48.507  27.527  22.535  1.00  0.00    -0.200 F 
ATOM    128  C   UNL A   1      49.487  26.769  24.544  1.00  0.00     0.200 A 
ATOM    129  F   UNL A   1      50.417  26.017  26.580  1.00  0.00    -0.200 F 
ATOM    130  F   UNL A   1      50.561  26.329  23.873  1.00  0.00    -0.200 F 
ENDBRANCH  92 120
BRANCH 107 131
ATOM    131  C   UNL A   1      45.817  33.341  29.748  1.00  0.00     0.064 A 
ATOM    132  C   UNL A   1      46.588  33.329  30.920  1.00  0.00     0.173 A 
ATOM    133  C   UNL A   1      45.878  34.482  28.932  1.00  0.00     0.173 A 
ATOM    134  F   UNL A   1      46.552  32.269  31.741  1.00  0.00    -0.203 F 
ATOM    135  C   UNL A   1      47.368  34.428  31.274  1.00  0.00     0.198 A 
ATOM    136  C   UNL A   1      46.684  35.564  29.273  1.00  0.00     0.198 A 
ATOM    137  F   UNL A   1      45.166  34.539  27.797  1.00  0.00    -0.203 F 
ATOM    138  F   UNL A   1      48.058  34.414  32.422  1.00  0.00    -0.200 F 
ATOM    139  C   UNL A   1      47.422  35.539  30.446  1.00  0.00     0.200 A 
ATOM    140  F   UNL A   1      46.746  36.631  28.465  1.00  0.00    -0.200 F 
ATOM    141  F   UNL A   1      48.180  36.591  30.784  1.00  0.00    -0.200 F 
ENDBRANCH 107 131
ENDBRANCH  72  75
ENDBRANCH  62  65
ENDBRANCH  58  61
ENDBRANCH  55  58
ENDBRANCH  52  55
ENDBRANCH   1  52
TORSDOF 19
ENDMDL
MODEL 3
REMARK VINA RESULT:     -11.1      1.438      3.219
REMARK SMILES CC(=O)Nc1ccc(/C(=C\c2ccc(S(C)(=O)=O)cc2)C(=O)NCCCCCCNC(=O)c2ccc(-c3c4nc(c(-c5c(F)c(F)c(F)c(F)c5F)c5ccc([nH]5)c(-c5c(F)c(F)c(F)c(F)c5F)c5nc(c(-c6c(F)c(F)c(F)c(F)c6F)c6ccc3[nH]6)C=C5)C=C4)cc2)cc1
REMARK SMILES IDX 26 1 25 4 24 7 23 10 21 11 22 12 9 14 10 15 8 17 5 18 6 19
REMARK SMILES IDX 97 20 7 21 96 23 4 27 2 28 3 29 1 31 11 35 12 36 20 37 13 38
REMARK SMILES IDX 19 40 14 42 15 45 17 46 18 47 16 48 27 52 28 55 29 58 30 61
REMARK SMILES IDX 31 62 32 64 33 65 34 66 95 67 35 68 94 70 36 72 37 75 38 76
REMARK SMILES IDX 88 77 39 78 93 79 87 80 89 81 40 82 92 83 86 85 85 87 41 89
REMARK SMILES IDX 73 92 53 93 72 94 54 95 57 96 71 97 90 98 55 99 56 101
REMARK SMILES IDX 70 103 91 104 58 107 42 109 43 110 51 111 44 112 45 113
REMARK SMILES IDX 49 114 52 115 46 116 47 117 50 118 48 119 74 120 75 121
REMARK SMILES IDX 83 122 76 123 77 124 81 125 84 126 78 127 79 128 82 129
REMARK SMILES IDX 80 130 59 131 60 132 68 133 61 134 62 135 66 136 69 137
REMARK SMILES IDX 63 138 64 139 67 140 65 141
REMARK H PARENT 26 2 26 3 25 5 25 6 24 8 24 9 23 13 10 16 6 22 97 24 7 25
REMARK H PARENT 96 26 4 30 1 32 1 33 1 34 12 39 20 41 13 43 19 44 16 49 16 50
REMARK H PARENT 16 51 27 53 27 54 28 56 28 57 29 59 29 60 30 63 34 69 95 71
REMARK H PARENT 35 73 94 74 93 84 87 86 89 88 92 90 86 91 54 100 57 102 90 105
REMARK H PARENT 55 106 91 108
REMARK Flexibility Score: inf
ROOT
ATOM      1  C   UNL A   1      32.768  22.949  26.806  1.00  0.00    -0.052 C 
ATOM      2  H   UNL A   1      32.326  22.346  26.039  1.00  0.00     0.027 H 
ATOM      3  H   UNL A   1      32.887  22.434  27.735  1.00  0.00     0.027 H 
ENDROOT
BRANCH   1   4
ATOM      4  C   UNL A   1      31.823  24.130  27.087  1.00  0.00    -0.036 C 
ATOM      5  H   UNL A   1      31.419  24.013  28.070  1.00  0.00     0.028 H 
ATOM      6  H   UNL A   1      32.401  25.025  26.990  1.00  0.00     0.028 H 
BRANCH   4   7
ATOM      7  C   UNL A   1      30.662  24.232  26.093  1.00  0.00     0.018 C 
ATOM      8  H   UNL A   1      30.062  23.348  26.155  1.00  0.00     0.049 H 
ATOM      9  H   UNL A   1      30.066  25.089  26.329  1.00  0.00     0.049 H 
BRANCH   7  10
ATOM     10  N   UNL A   1      31.183  24.365  24.749  1.00  0.00    -0.352 N 
ATOM     11  C   UNL A   1      31.610  25.386  23.963  1.00  0.00     0.251 C 
ATOM     12  O   UNL A   1      31.927  25.021  22.828  1.00  0.00    -0.269 OA
ATOM     13  H   UNL A   1      31.241  23.498  24.289  1.00  0.00     0.163 HD
BRANCH  11  14
ATOM     14  C   UNL A   1      31.781  26.834  24.420  1.00  0.00     0.047 C 
ATOM     15  C   UNL A   1      32.533  27.089  25.519  1.00  0.00    -0.042 C 
ATOM     16  H   UNL A   1      32.784  26.264  26.085  1.00  0.00     0.064 H 
BRANCH  14  17
ATOM     17  C   UNL A   1      30.953  27.916  23.764  1.00  0.00    -0.013 A 
ATOM     18  C   UNL A   1      29.457  29.646  22.052  1.00  0.00     0.041 A 
ATOM     19  C   UNL A   1      28.817  28.853  23.005  1.00  0.00    -0.038 A 
ATOM     20  C   UNL A   1      30.839  29.702  22.083  1.00  0.00    -0.038 A 
ATOM     21  C   UNL A   1      29.558  28.026  23.871  1.00  0.00    -0.052 A 
ATOM     22  H   UNL A   1      27.788  28.872  23.076  1.00  0.00     0.064 H 
ATOM     23  C   UNL A   1      31.567  28.826  22.891  1.00  0.00    -0.052 A 
ATOM     24  H   UNL A   1      31.336  30.398  21.505  1.00  0.00     0.064 H 
ATOM     25  H   UNL A   1      29.065  27.489  24.602  1.00  0.00     0.063 H 
ATOM     26  H   UNL A   1      32.599  28.849  22.845  1.00  0.00     0.063 H 
BRANCH  18  27
ATOM     27  N   UNL A   1      28.666  30.334  21.117  1.00  0.00    -0.326 N 
ATOM     28  C   UNL A   1      28.180  31.612  21.101  1.00  0.00     0.221 C 
ATOM     29  O   UNL A   1      27.432  31.946  20.178  1.00  0.00    -0.275 OA
ATOM     30  H   UNL A   1      28.415  29.797  20.331  1.00  0.00     0.169 HD
BRANCH  28  31
ATOM     31  C   UNL A   1      28.579  32.619  22.147  1.00  0.00     0.015 C 
ATOM     32  H   UNL A   1      28.215  32.306  23.102  1.00  0.00     0.033 H 
ATOM     33  H   UNL A   1      28.161  33.574  21.901  1.00  0.00     0.033 H 
ATOM     34  H   UNL A   1      29.647  32.696  22.180  1.00  0.00     0.033 H 
ENDBRANCH  28  31
ENDBRANCH  18  27
ENDBRANCH  14  17
BRANCH  15  35
ATOM     35  C   UNL A   1      33.043  28.376  26.016  1.00  0.00    -0.025 A 
ATOM     36  C   UNL A   1      32.093  29.351  26.375  1.00  0.00    -0.054 A 
ATOM     37  C   UNL A   1      34.401  28.631  26.212  1.00  0.00    -0.054 A 
ATOM     38  C   UNL A   1      32.492  30.541  26.983  1.00  0.00    -0.043 A 
ATOM     39  H   UNL A   1      31.093  29.184  26.187  1.00  0.00     0.063 H 
ATOM     40  C   UNL A   1      34.808  29.824  26.823  1.00  0.00    -0.043 A 
ATOM     41  H   UNL A   1      35.107  27.941  25.906  1.00  0.00     0.063 H 
ATOM     42  C   UNL A   1      33.850  30.765  27.215  1.00  0.00     0.067 A 
ATOM     43  H   UNL A   1      31.792  31.247  27.259  1.00  0.00     0.064 H 
ATOM     44  H   UNL A   1      35.811  30.008  26.984  1.00  0.00     0.064 H 
BRANCH  42  45
ATOM     45  S   UNL A   1      34.335  32.203  28.146  1.00  0.00     0.175 S 
ATOM     46  O   UNL A   1      34.301  31.830  29.546  1.00  0.00    -0.224 OA
ATOM     47  O   UNL A   1      35.548  32.725  27.544  1.00  0.00    -0.224 OA
BRANCH  45  48
ATOM     48  C   UNL A   1      33.034  33.368  27.851  1.00  0.00     0.043 C 
ATOM     49  H   UNL A   1      32.215  33.164  28.508  1.00  0.00     0.040 H 
ATOM     50  H   UNL A   1      32.705  33.287  26.836  1.00  0.00     0.040 H 
ATOM     51  H   UNL A   1      33.395  34.360  28.030  1.00  0.00     0.040 H 
ENDBRANCH  45  48
ENDBRANCH  42  45
ENDBRANCH  15  35
ENDBRANCH  11  14
ENDBRANCH   7  10
ENDBRANCH   4   7
ENDBRANCH   1   4
BRANCH   1  52
ATOM     52  C   UNL A   1      34.177  23.344  26.349  1.00  0.00    -0.052 C 
ATOM     53  H   UNL A   1      34.556  24.077  27.031  1.00  0.00     0.027 H 
ATOM     54  H   UNL A   1      34.080  23.711  25.348  1.00  0.00     0.027 H 
BRANCH  52  55
ATOM     55  C   UNL A   1      35.178  22.187  26.289  1.00  0.00    -0.036 C 
ATOM     56  H   UNL A   1      34.827  21.475  25.572  1.00  0.00     0.028 H 
ATOM     57  H   UNL A   1      35.244  21.783  27.276  1.00  0.00     0.028 H 
BRANCH  55  58
ATOM     58  C   UNL A   1      36.588  22.608  25.892  1.00  0.00     0.018 C 
ATOM     59  H   UNL A   1      36.915  23.389  26.548  1.00  0.00     0.049 H 
ATOM     60  H   UNL A   1      36.564  22.947  24.877  1.00  0.00     0.049 H 
BRANCH  58  61
ATOM     61  N   UNL A   1      37.523  21.499  25.977  1.00  0.00    -0.352 N 
ATOM     62  C   UNL A   1      38.884  21.526  26.145  1.00  0.00     0.251 C 
ATOM     63  H   UNL A   1      37.123  20.602  25.904  1.00  0.00     0.163 HD
ATOM     64  O   UNL A   1      39.552  20.513  25.966  1.00  0.00    -0.269 OA
BRANCH  62  65
ATOM     65  C   UNL A   1      39.548  22.787  26.537  1.00  0.00     0.039 A 
ATOM     66  C   UNL A   1      40.509  22.760  27.550  1.00  0.00    -0.049 A 
ATOM     67  C   UNL A   1      39.203  23.995  25.923  1.00  0.00    -0.049 A 
ATOM     68  C   UNL A   1      41.155  23.940  27.921  1.00  0.00    -0.053 A 
ATOM     69  H   UNL A   1      40.741  21.872  28.022  1.00  0.00     0.063 H 
ATOM     70  C   UNL A   1      39.899  25.157  26.242  1.00  0.00    -0.053 A 
ATOM     71  H   UNL A   1      38.435  24.025  25.235  1.00  0.00     0.063 H 
ATOM     72  C   UNL A   1      40.870  25.144  27.255  1.00  0.00    -0.014 A 
ATOM     73  H   UNL A   1      41.845  23.929  28.689  1.00  0.00     0.063 H 
ATOM     74  H   UNL A   1      39.701  26.031  25.732  1.00  0.00     0.063 H 
BRANCH  72  75
ATOM     75  C   UNL A   1      41.551  26.409  27.627  1.00  0.00     0.031 A 
ATOM     76  C   UNL A   1      42.960  26.664  27.171  1.00  0.00     0.074 A 
ATOM     77  C   UNL A   1      40.924  27.298  28.421  1.00  0.00     0.049 A 
ATOM     78  N   UNL A   1      43.755  27.666  27.450  1.00  0.00    -0.248 NA
ATOM     79  C   UNL A   1      43.571  25.638  26.309  1.00  0.00    -0.034 C 
ATOM     80  C   UNL A   1      39.572  27.144  28.960  1.00  0.00    -0.036 A 
ATOM     81  N   UNL A   1      41.346  28.504  28.920  1.00  0.00    -0.354 N 
ATOM     82  C   UNL A   1      44.957  27.383  26.814  1.00  0.00     0.074 A 
ATOM     83  C   UNL A   1      44.808  26.090  26.183  1.00  0.00    -0.034 C 
ATOM     84  H   UNL A   1      43.144  24.788  25.907  1.00  0.00     0.065 H 
ATOM     85  C   UNL A   1      39.268  28.223  29.699  1.00  0.00    -0.036 A 
ATOM     86  H   UNL A   1      38.952  26.335  28.799  1.00  0.00     0.065 H 
ATOM     87  C   UNL A   1      40.415  29.127  29.715  1.00  0.00     0.049 A 
ATOM     88  H   UNL A   1      42.232  28.887  28.727  1.00  0.00     0.167 HD
ATOM     89  C   UNL A   1      46.074  28.145  26.743  1.00  0.00     0.037 A 
ATOM     90  H   UNL A   1      45.568  25.587  25.698  1.00  0.00     0.065 H 
ATOM     91  H   UNL A   1      38.369  28.388  30.177  1.00  0.00     0.065 H 
ATOM     92  C   UNL A   1      40.483  30.293  30.385  1.00  0.00     0.037 A 
ATOM     93  C   UNL A   1      46.205  29.444  27.348  1.00  0.00     0.049 A 
ATOM     94  C   UNL A   1      41.738  31.120  30.291  1.00  0.00     0.074 A 
ATOM     95  C   UNL A   1      47.274  30.321  27.287  1.00  0.00    -0.036 A 
ATOM     96  N   UNL A   1      45.232  30.053  28.127  1.00  0.00    -0.354 N 
ATOM     97  N   UNL A   1      42.846  30.872  29.635  1.00  0.00    -0.248 NA
ATOM     98  C   UNL A   1      41.747  32.393  31.024  1.00  0.00    -0.034 C 
ATOM     99  C   UNL A   1      46.965  31.441  28.067  1.00  0.00    -0.036 A 
ATOM    100  H   UNL A   1      48.147  30.175  26.757  1.00  0.00     0.065 H 
ATOM    101  C   UNL A   1      45.684  31.285  28.570  1.00  0.00     0.049 A 
ATOM    102  H   UNL A   1      44.351  29.665  28.334  1.00  0.00     0.167 HD
ATOM    103  C   UNL A   1      43.670  31.970  29.848  1.00  0.00     0.074 A 
ATOM    104  C   UNL A   1      42.928  32.891  30.684  1.00  0.00    -0.034 C 
ATOM    105  H   UNL A   1      41.025  32.796  31.640  1.00  0.00     0.065 H 
ATOM    106  H   UNL A   1      47.587  32.245  28.239  1.00  0.00     0.065 H 
ATOM    107  C   UNL A   1      44.927  32.195  29.393  1.00  0.00     0.037 A 
ATOM    108  H   UNL A   1      43.275  33.817  30.979  1.00  0.00     0.065 H 
BRANCH  89 109
ATOM    109  C   UNL A   1      47.244  27.592  25.980  1.00  0.00     0.064 A 
ATOM    110  C   UNL A   1      47.383  27.791  24.597  1.00  0.00     0.173 A 
ATOM    111  C   UNL A   1      48.256  26.882  26.643  1.00  0.00     0.173 A 
ATOM    112  F   UNL A   1      46.438  28.453  23.912  1.00  0.00    -0.203 F 
ATOM    113  C   UNL A   1      48.473  27.273  23.904  1.00  0.00     0.198 A 
ATOM    114  C   UNL A   1      49.361  26.392  25.950  1.00  0.00     0.198 A 
ATOM    115  F   UNL A   1      48.177  26.667  27.965  1.00  0.00    -0.203 F 
ATOM    116  F   UNL A   1      48.555  27.428  22.574  1.00  0.00    -0.200 F 
ATOM    117  C   UNL A   1      49.464  26.580  24.581  1.00  0.00     0.200 A 
ATOM    118  F   UNL A   1      50.324  25.735  26.611  1.00  0.00    -0.200 F 
ATOM    119  F   UNL A   1      50.515  26.086  23.913  1.00  0.00    -0.200 F 
ENDBRANCH  89 109
BRANCH  92 120
ATOM    120  C   UNL A   1      39.321  30.760  31.184  1.00  0.00     0.064 A 
ATOM    121  C   UNL A   1      39.072  30.242  32.463  1.00  0.00     0.173 A 
ATOM    122  C   UNL A   1      38.435  31.727  30.689  1.00  0.00     0.173 A 
ATOM    123  F   UNL A   1      39.880  29.301  32.973  1.00  0.00    -0.203 F 
ATOM    124  C   UNL A   1      37.967  30.654  33.205  1.00  0.00     0.198 A 
ATOM    125  C   UNL A   1      37.347  32.161  31.444  1.00  0.00     0.198 A 
ATOM    126  F   UNL A   1      38.632  32.261  29.474  1.00  0.00    -0.203 F 
ATOM    127  F   UNL A   1      37.725  30.107  34.403  1.00  0.00    -0.200 F 
ATOM    128  C   UNL A   1      37.109  31.618  32.698  1.00  0.00     0.200 A 
ATOM    129  F   UNL A   1      36.529  33.103  30.955  1.00  0.00    -0.200 F 
ATOM    130  F   UNL A   1      36.048  32.018  33.412  1.00  0.00    -0.200 F 
ENDBRANCH  92 120
BRANCH 107 131
ATOM    131  C   UNL A   1      45.565  33.505  29.751  1.00  0.00     0.064 A 
ATOM    132  C   UNL A   1      45.396  34.649  28.957  1.00  0.00     0.173 A 
ATOM    133  C   UNL A   1      46.321  33.626  30.927  1.00  0.00     0.173 A 
ATOM    134  F   UNL A   1      44.695  34.581  27.815  1.00  0.00    -0.203 F 
ATOM    135  C   UNL A   1      45.983  35.860  29.314  1.00  0.00     0.198 A 
ATOM    136  C   UNL A   1      46.879  34.846  31.297  1.00  0.00     0.198 A 
ATOM    137  F   UNL A   1      46.505  32.564  31.724  1.00  0.00    -0.203 F 
ATOM    138  F   UNL A   1      45.849  36.928  28.516  1.00  0.00    -0.200 F 
ATOM    139  C   UNL A   1      46.716  35.960  30.487  1.00  0.00     0.200 A 
ATOM    140  F   UNL A   1      47.574  34.944  32.439  1.00  0.00    -0.200 F 
ATOM    141  F   UNL A   1      47.273  37.128  30.834  1.00  0.00    -0.200 F 
ENDBRANCH 107 131
ENDBRANCH  72  75
ENDBRANCH  62  65
ENDBRANCH  58  61
ENDBRANCH  55  58
ENDBRANCH  52  55
ENDBRANCH   1  52
TORSDOF 19
ENDMDL
MODEL 4
REMARK VINA RESULT:     -10.9      2.927      8.505
REMARK SMILES CC(=O)Nc1ccc(/C(=C\c2ccc(S(C)(=O)=O)cc2)C(=O)NCCCCCCNC(=O)c2ccc(-c3c4nc(c(-c5c(F)c(F)c(F)c(F)c5F)c5ccc([nH]5)c(-c5c(F)c(F)c(F)c(F)c5F)c5nc(c(-c6c(F)c(F)c(F)c(F)c6F)c6ccc3[nH]6)C=C5)C=C4)cc2)cc1
REMARK SMILES IDX 26 1 25 4 24 7 23 10 21 11 22 12 9 14 10 15 8 17 5 18 6 19
REMARK SMILES IDX 97 20 7 21 96 23 4 27 2 28 3 29 1 31 11 35 12 36 20 37 13 38
REMARK SMILES IDX 19 40 14 42 15 45 17 46 18 47 16 48 27 52 28 55 29 58 30 61
REMARK SMILES IDX 31 62 32 64 33 65 34 66 95 67 35 68 94 70 36 72 37 75 38 76
REMARK SMILES IDX 88 77 39 78 93 79 87 80 89 81 40 82 92 83 86 85 85 87 41 89
REMARK SMILES IDX 73 92 53 93 72 94 54 95 57 96 71 97 90 98 55 99 56 101
REMARK SMILES IDX 70 103 91 104 58 107 42 109 43 110 51 111 44 112 45 113
REMARK SMILES IDX 49 114 52 115 46 116 47 117 50 118 48 119 74 120 75 121
REMARK SMILES IDX 83 122 76 123 77 124 81 125 84 126 78 127 79 128 82 129
REMARK SMILES IDX 80 130 59 131 60 132 68 133 61 134 62 135 66 136 69 137
REMARK SMILES IDX 63 138 64 139 67 140 65 141
REMARK H PARENT 26 2 26 3 25 5 25 6 24 8 24 9 23 13 10 16 6 22 97 24 7 25
REMARK H PARENT 96 26 4 30 1 32 1 33 1 34 12 39 20 41 13 43 19 44 16 49 16 50
REMARK H PARENT 16 51 27 53 27 54 28 56 28 57 29 59 29 60 30 63 34 69 95 71
REMARK H PARENT 35 73 94 74 93 84 87 86 89 88 92 90 86 91 54 100 57 102 90 105
REMARK H PARENT 55 106 91 108
REMARK Flexibility Score: inf
ROOT
ATOM      1  C   UNL A   1      36.337  31.225  29.251  1.00  0.00    -0.052 C 
ATOM      2  H   UNL A   1      37.192  31.439  29.859  1.00  0.00     0.027 H 
ATOM      3  H   UNL A   1      35.625  30.587  29.730  1.00  0.00     0.027 H 
ENDROOT
BRANCH   1   4
ATOM      4  C   UNL A   1      36.819  30.470  28.001  1.00  0.00    -0.036 C 
ATOM      5  H   UNL A   1      36.848  31.157  27.181  1.00  0.00     0.028 H 
ATOM      6  H   UNL A   1      37.784  30.070  28.228  1.00  0.00     0.028 H 
BRANCH   4   7
ATOM      7  C   UNL A   1      35.920  29.292  27.616  1.00  0.00     0.018 C 
ATOM      8  H   UNL A   1      36.186  28.945  26.640  1.00  0.00     0.049 H 
ATOM      9  H   UNL A   1      36.048  28.500  28.326  1.00  0.00     0.049 H 
BRANCH   7  10
ATOM     10  N   UNL A   1      34.536  29.715  27.616  1.00  0.00    -0.352 N 
ATOM     11  C   UNL A   1      33.399  29.340  26.977  1.00  0.00     0.251 C 
ATOM     12  O   UNL A   1      32.429  30.046  27.262  1.00  0.00    -0.269 OA
ATOM     13  H   UNL A   1      34.380  30.463  28.235  1.00  0.00     0.163 HD
BRANCH  11  14
ATOM     14  C   UNL A   1      33.267  28.124  26.060  1.00  0.00     0.047 C 
ATOM     15  C   UNL A   1      34.061  27.048  26.283  1.00  0.00    -0.042 C 
ATOM     16  H   UNL A   1      34.838  27.200  26.944  1.00  0.00     0.064 H 
BRANCH  14  17
ATOM     17  C   UNL A   1      32.409  28.227  24.819  1.00  0.00    -0.013 A 
ATOM     18  C   UNL A   1      30.547  28.861  22.748  1.00  0.00     0.041 A 
ATOM     19  C   UNL A   1      31.907  29.140  22.599  1.00  0.00    -0.038 A 
ATOM     20  C   UNL A   1      30.159  28.113  23.844  1.00  0.00    -0.038 A 
ATOM     21  C   UNL A   1      32.828  28.796  23.607  1.00  0.00    -0.052 A 
ATOM     22  H   UNL A   1      32.241  29.605  21.740  1.00  0.00     0.064 H 
ATOM     23  C   UNL A   1      31.062  27.840  24.873  1.00  0.00    -0.052 A 
ATOM     24  H   UNL A   1      29.194  27.751  23.901  1.00  0.00     0.064 H 
ATOM     25  H   UNL A   1      33.834  28.965  23.450  1.00  0.00     0.063 H 
ATOM     26  H   UNL A   1      30.726  27.334  25.708  1.00  0.00     0.063 H 
BRANCH  18  27
ATOM     27  N   UNL A   1      29.656  29.360  21.783  1.00  0.00    -0.326 N 
ATOM     28  C   UNL A   1      28.755  30.388  21.821  1.00  0.00     0.221 C 
ATOM     29  O   UNL A   1      28.028  30.571  20.842  1.00  0.00    -0.275 OA
ATOM     30  H   UNL A   1      29.684  28.881  20.923  1.00  0.00     0.169 HD
BRANCH  28  31
ATOM     31  C   UNL A   1      28.676  31.322  23.002  1.00  0.00     0.015 C 
ATOM     32  H   UNL A   1      29.611  31.319  23.521  1.00  0.00     0.033 H 
ATOM     33  H   UNL A   1      27.900  30.996  23.663  1.00  0.00     0.033 H 
ATOM     34  H   UNL A   1      28.461  32.313  22.659  1.00  0.00     0.033 H 
ENDBRANCH  28  31
ENDBRANCH  18  27
ENDBRANCH  14  17
BRANCH  15  35
ATOM     35  C   UNL A   1      33.969  25.694  25.715  1.00  0.00    -0.025 A 
ATOM     36  C   UNL A   1      33.340  24.708  26.497  1.00  0.00    -0.054 A 
ATOM     37  C   UNL A   1      34.405  25.379  24.426  1.00  0.00    -0.054 A 
ATOM     38  C   UNL A   1      33.091  23.439  25.974  1.00  0.00    -0.043 A 
ATOM     39  H   UNL A   1      33.061  24.924  27.466  1.00  0.00     0.063 H 
ATOM     40  C   UNL A   1      34.157  24.107  23.895  1.00  0.00    -0.043 A 
ATOM     41  H   UNL A   1      34.910  26.083  23.864  1.00  0.00     0.063 H 
ATOM     42  C   UNL A   1      33.491  23.150  24.668  1.00  0.00     0.067 A 
ATOM     43  H   UNL A   1      32.616  22.722  26.544  1.00  0.00     0.064 H 
ATOM     44  H   UNL A   1      34.464  23.877  22.937  1.00  0.00     0.064 H 
BRANCH  42  45
ATOM     45  S   UNL A   1      33.016  21.591  23.950  1.00  0.00     0.175 S 
ATOM     46  O   UNL A   1      32.386  21.888  22.679  1.00  0.00    -0.224 OA
ATOM     47  O   UNL A   1      34.164  20.708  24.023  1.00  0.00    -0.224 OA
BRANCH  45  48
ATOM     48  C   UNL A   1      31.776  20.968  25.051  1.00  0.00     0.043 C 
ATOM     49  H   UNL A   1      32.026  19.969  25.341  1.00  0.00     0.040 H 
ATOM     50  H   UNL A   1      30.827  20.970  24.557  1.00  0.00     0.040 H 
ATOM     51  H   UNL A   1      31.726  21.590  25.921  1.00  0.00     0.040 H 
ENDBRANCH  45  48
ENDBRANCH  42  45
ENDBRANCH  15  35
ENDBRANCH  11  14
ENDBRANCH   7  10
ENDBRANCH   4   7
ENDBRANCH   1   4
BRANCH   1  52
ATOM     52  C   UNL A   1      35.610  32.545  28.970  1.00  0.00    -0.052 C 
ATOM     53  H   UNL A   1      35.048  32.431  28.066  1.00  0.00     0.027 H 
ATOM     54  H   UNL A   1      36.367  33.299  28.902  1.00  0.00     0.027 H 
BRANCH  52  55
ATOM     55  C   UNL A   1      34.650  32.996  30.073  1.00  0.00    -0.036 C 
ATOM     56  H   UNL A   1      33.688  32.570  29.877  1.00  0.00     0.028 H 
ATOM     57  H   UNL A   1      34.640  34.065  30.058  1.00  0.00     0.028 H 
BRANCH  55  58
ATOM     58  C   UNL A   1      35.079  32.581  31.475  1.00  0.00     0.018 C 
ATOM     59  H   UNL A   1      35.873  31.868  31.399  1.00  0.00     0.049 H 
ATOM     60  H   UNL A   1      34.232  32.158  31.973  1.00  0.00     0.049 H 
BRANCH  58  61
ATOM     61  N   UNL A   1      35.540  33.719  32.253  1.00  0.00    -0.352 N 
ATOM     62  C   UNL A   1      36.823  34.084  32.574  1.00  0.00     0.251 C 
ATOM     63  H   UNL A   1      34.833  34.310  32.599  1.00  0.00     0.163 HD
ATOM     64  O   UNL A   1      37.030  34.939  33.429  1.00  0.00    -0.269 OA
BRANCH  62  65
ATOM     65  C   UNL A   1      37.961  33.436  31.890  1.00  0.00     0.039 A 
ATOM     66  C   UNL A   1      38.345  33.898  30.629  1.00  0.00    -0.049 A 
ATOM     67  C   UNL A   1      38.629  32.358  32.480  1.00  0.00    -0.049 A 
ATOM     68  C   UNL A   1      39.427  33.305  29.976  1.00  0.00    -0.053 A 
ATOM     69  H   UNL A   1      37.832  34.674  30.182  1.00  0.00     0.063 H 
ATOM     70  C   UNL A   1      39.751  31.817  31.862  1.00  0.00    -0.053 A 
ATOM     71  H   UNL A   1      38.290  31.966  33.372  1.00  0.00     0.063 H 
ATOM     72  C   UNL A   1      40.152  32.274  30.597  1.00  0.00    -0.014 A 
ATOM     73  H   UNL A   1      39.696  33.625  29.032  1.00  0.00     0.063 H 
ATOM     74  H   UNL A   1      40.293  31.078  32.335  1.00  0.00     0.063 H 
BRANCH  72  75
ATOM     75  C   UNL A   1      41.310  31.636  29.925  1.00  0.00     0.031 A 
ATOM     76  C   UNL A   1      42.552  32.437  29.649  1.00  0.00     0.074 A 
ATOM     77  C   UNL A   1      41.223  30.356  29.513  1.00  0.00     0.049 A 
ATOM     78  N   UNL A   1      43.639  32.089  29.009  1.00  0.00    -0.248 NA
ATOM     79  C   UNL A   1      42.560  33.828  30.131  1.00  0.00    -0.034 C 
ATOM     80  C   UNL A   1      40.058  29.489  29.687  1.00  0.00    -0.036 A 
ATOM     81  N   UNL A   1      42.131  29.566  28.854  1.00  0.00    -0.354 N 
ATOM     82  C   UNL A   1      44.449  33.218  28.998  1.00  0.00     0.074 A 
ATOM     83  C   UNL A   1      43.706  34.278  29.644  1.00  0.00    -0.034 C 
ATOM     84  H   UNL A   1      41.856  34.323  30.701  1.00  0.00     0.065 H 
ATOM     85  C   UNL A   1      40.327  28.282  29.166  1.00  0.00    -0.036 A 
ATOM     86  H   UNL A   1      39.170  29.763  30.138  1.00  0.00     0.065 H 
ATOM     87  C   UNL A   1      41.669  28.300  28.590  1.00  0.00     0.049 A 
ATOM     88  H   UNL A   1      43.028  29.877  28.594  1.00  0.00     0.167 HD
ATOM     89  C   UNL A   1      45.707  33.351  28.515  1.00  0.00     0.037 A 
ATOM     90  H   UNL A   1      44.027  35.256  29.715  1.00  0.00     0.065 H 
ATOM     91  H   UNL A   1      39.689  27.471  29.173  1.00  0.00     0.065 H 
ATOM     92  C   UNL A   1      42.260  27.273  27.950  1.00  0.00     0.037 A 
ATOM     93  C   UNL A   1      46.452  32.283  27.901  1.00  0.00     0.049 A 
ATOM     94  C   UNL A   1      43.658  27.447  27.421  1.00  0.00     0.074 A 
ATOM     95  C   UNL A   1      47.753  32.299  27.430  1.00  0.00    -0.036 A 
ATOM     96  N   UNL A   1      45.958  31.007  27.671  1.00  0.00    -0.354 N 
ATOM     97  N   UNL A   1      44.438  28.500  27.472  1.00  0.00    -0.248 NA
ATOM     98  C   UNL A   1      44.262  26.286  26.753  1.00  0.00    -0.034 C 
ATOM     99  C   UNL A   1      48.032  31.045  26.874  1.00  0.00    -0.036 A 
ATOM    100  H   UNL A   1      48.406  33.097  27.482  1.00  0.00     0.065 H 
ATOM    101  C   UNL A   1      46.923  30.233  27.047  1.00  0.00     0.049 A 
ATOM    102  H   UNL A   1      45.056  30.699  27.916  1.00  0.00     0.167 HD
ATOM    103  C   UNL A   1      45.633  28.121  26.874  1.00  0.00     0.074 A 
ATOM    104  C   UNL A   1      45.479  26.736  26.479  1.00  0.00    -0.034 C 
ATOM    105  H   UNL A   1      43.848  25.364  26.550  1.00  0.00     0.065 H 
ATOM    106  H   UNL A   1      48.913  30.773  26.414  1.00  0.00     0.065 H 
ATOM    107  C   UNL A   1      46.756  28.852  26.671  1.00  0.00     0.037 A 
ATOM    108  H   UNL A   1      46.222  26.170  26.040  1.00  0.00     0.065 H 
BRANCH  89 109
ATOM    109  C   UNL A   1      46.359  34.698  28.636  1.00  0.00     0.064 A 
ATOM    110  C   UNL A   1      46.243  35.667  27.626  1.00  0.00     0.173 A 
ATOM    111  C   UNL A   1      47.084  35.038  29.788  1.00  0.00     0.173 A 
ATOM    112  F   UNL A   1      45.571  35.389  26.498  1.00  0.00    -0.203 F 
ATOM    113  C   UNL A   1      46.853  36.911  27.752  1.00  0.00     0.198 A 
ATOM    114  C   UNL A   1      47.667  36.296  29.923  1.00  0.00     0.198 A 
ATOM    115  F   UNL A   1      47.223  34.153  30.785  1.00  0.00    -0.203 F 
ATOM    116  F   UNL A   1      46.774  37.800  26.751  1.00  0.00    -0.200 F 
ATOM    117  C   UNL A   1      47.558  37.228  28.903  1.00  0.00     0.200 A 
ATOM    118  F   UNL A   1      48.336  36.604  31.043  1.00  0.00    -0.200 F 
ATOM    119  F   UNL A   1      48.141  38.429  29.025  1.00  0.00    -0.200 F 
ENDBRANCH  89 109
BRANCH  92 120
ATOM    120  C   UNL A   1      41.542  25.981  27.796  1.00  0.00     0.064 A 
ATOM    121  C   UNL A   1      41.900  24.863  28.563  1.00  0.00     0.173 A 
ATOM    122  C   UNL A   1      40.491  25.833  26.879  1.00  0.00     0.173 A 
ATOM    123  F   UNL A   1      42.912  24.950  29.439  1.00  0.00    -0.203 F 
ATOM    124  C   UNL A   1      41.251  23.641  28.402  1.00  0.00     0.198 A 
ATOM    125  C   UNL A   1      39.823  24.618  26.741  1.00  0.00     0.198 A 
ATOM    126  F   UNL A   1      40.104  26.874  26.127  1.00  0.00    -0.203 F 
ATOM    127  F   UNL A   1      41.646  22.576  29.113  1.00  0.00    -0.200 F 
ATOM    128  C   UNL A   1      40.209  23.521  27.495  1.00  0.00     0.200 A 
ATOM    129  F   UNL A   1      38.806  24.512  25.874  1.00  0.00    -0.200 F 
ATOM    130  F   UNL A   1      39.582  22.346  27.342  1.00  0.00    -0.200 F 
ENDBRANCH  92 120
BRANCH 107 131
ATOM    131  C   UNL A   1      47.923  28.159  26.031  1.00  0.00     0.064 A 
ATOM    132  C   UNL A   1      49.023  27.720  26.783  1.00  0.00     0.173 A 
ATOM    133  C   UNL A   1      47.920  27.892  24.653  1.00  0.00     0.173 A 
ATOM    134  F   UNL A   1      49.081  27.963  28.100  1.00  0.00    -0.203 F 
ATOM    135  C   UNL A   1      50.090  27.064  26.173  1.00  0.00     0.198 A 
ATOM    136  C   UNL A   1      48.973  27.208  24.053  1.00  0.00     0.198 A 
ATOM    137  F   UNL A   1      46.888  28.284  23.892  1.00  0.00    -0.203 F 
ATOM    138  F   UNL A   1      51.152  26.698  26.903  1.00  0.00    -0.200 F 
ATOM    139  C   UNL A   1      50.060  26.802  24.812  1.00  0.00     0.200 A 
ATOM    140  F   UNL A   1      48.935  26.942  22.740  1.00  0.00    -0.200 F 
ATOM    141  F   UNL A   1      51.083  26.162  24.229  1.00  0.00    -0.200 F 
ENDBRANCH 107 131
ENDBRANCH  72  75
ENDBRANCH  62  65
ENDBRANCH  58  61
ENDBRANCH  55  58
ENDBRANCH  52  55
ENDBRANCH   1  52
TORSDOF 19
ENDMDL
MODEL 5
REMARK VINA RESULT:     -10.7      5.483     11.481
REMARK SMILES CC(=O)Nc1ccc(/C(=C\c2ccc(S(C)(=O)=O)cc2)C(=O)NCCCCCCNC(=O)c2ccc(-c3c4nc(c(-c5c(F)c(F)c(F)c(F)c5F)c5ccc([nH]5)c(-c5c(F)c(F)c(F)c(F)c5F)c5nc(c(-c6c(F)c(F)c(F)c(F)c6F)c6ccc3[nH]6)C=C5)C=C4)cc2)cc1
REMARK SMILES IDX 26 1 25 4 24 7 23 10 21 11 22 12 9 14 10 15 8 17 5 18 6 19
REMARK SMILES IDX 97 20 7 21 96 23 4 27 2 28 3 29 1 31 11 35 12 36 20 37 13 38
REMARK SMILES IDX 19 40 14 42 15 45 17 46 18 47 16 48 27 52 28 55 29 58 30 61
REMARK SMILES IDX 31 62 32 64 33 65 34 66 95 67 35 68 94 70 36 72 37 75 38 76
REMARK SMILES IDX 88 77 39 78 93 79 87 80 89 81 40 82 92 83 86 85 85 87 41 89
REMARK SMILES IDX 73 92 53 93 72 94 54 95 57 96 71 97 90 98 55 99 56 101
REMARK SMILES IDX 70 103 91 104 58 107 42 109 43 110 51 111 44 112 45 113
REMARK SMILES IDX 49 114 52 115 46 116 47 117 50 118 48 119 74 120 75 121
REMARK SMILES IDX 83 122 76 123 77 124 81 125 84 126 78 127 79 128 82 129
REMARK SMILES IDX 80 130 59 131 60 132 68 133 61 134 62 135 66 136 69 137
REMARK SMILES IDX 63 138 64 139 67 140 65 141
REMARK H PARENT 26 2 26 3 25 5 25 6 24 8 24 9 23 13 10 16 6 22 97 24 7 25
REMARK H PARENT 96 26 4 30 1 32 1 33 1 34 12 39 20 41 13 43 19 44 16 49 16 50
REMARK H PARENT 16 51 27 53 27 54 28 56 28 57 29 59 29 60 30 63 34 69 95 71
REMARK H PARENT 35 73 94 74 93 84 87 86 89 88 92 90 86 91 54 100 57 102 90 105
REMARK H PARENT 55 106 91 108
REMARK Flexibility Score: inf
ROOT
ATOM      1  C   UNL A   1      38.162  33.317  37.939  1.00  0.00    -0.052 C 
ATOM      2  H   UNL A   1      37.092  33.294  37.963  1.00  0.00     0.027 H 
ATOM      3  H   UNL A   1      38.558  34.242  37.574  1.00  0.00     0.027 H 
ENDROOT
BRANCH   1   4
ATOM      4  C   UNL A   1      38.641  32.228  36.964  1.00  0.00    -0.036 C 
ATOM      5  H   UNL A   1      39.658  32.431  36.704  1.00  0.00     0.028 H 
ATOM      6  H   UNL A   1      38.531  31.289  37.464  1.00  0.00     0.028 H 
BRANCH   4   7
ATOM      7  C   UNL A   1      37.814  32.156  35.677  1.00  0.00     0.018 C 
ATOM      8  H   UNL A   1      38.152  31.333  35.083  1.00  0.00     0.049 H 
ATOM      9  H   UNL A   1      36.781  32.019  35.926  1.00  0.00     0.049 H 
BRANCH   7  10
ATOM     10  N   UNL A   1      37.968  33.385  34.930  1.00  0.00    -0.352 N 
ATOM     11  C   UNL A   1      38.286  33.720  33.654  1.00  0.00     0.251 C 
ATOM     12  O   UNL A   1      38.352  34.939  33.476  1.00  0.00    -0.269 OA
ATOM     13  H   UNL A   1      37.799  34.178  35.487  1.00  0.00     0.163 HD
BRANCH  11  14
ATOM     14  C   UNL A   1      38.468  32.728  32.505  1.00  0.00     0.047 C 
ATOM     15  C   UNL A   1      39.615  32.009  32.436  1.00  0.00    -0.042 C 
ATOM     16  H   UNL A   1      40.372  32.322  33.063  1.00  0.00     0.064 H 
BRANCH  14  17
ATOM     17  C   UNL A   1      37.464  32.720  31.374  1.00  0.00    -0.013 A 
ATOM     18  C   UNL A   1      35.288  33.085  29.559  1.00  0.00     0.041 A 
ATOM     19  C   UNL A   1      36.553  33.605  29.276  1.00  0.00    -0.038 A 
ATOM     20  C   UNL A   1      35.167  32.243  30.649  1.00  0.00    -0.038 A 
ATOM     21  C   UNL A   1      37.632  33.395  30.156  1.00  0.00    -0.052 A 
ATOM     22  H   UNL A   1      36.698  34.150  28.412  1.00  0.00     0.064 H 
ATOM     23  C   UNL A   1      36.219  32.100  31.556  1.00  0.00    -0.052 A 
ATOM     24  H   UNL A   1      34.292  31.715  30.793  1.00  0.00     0.064 H 
ATOM     25  H   UNL A   1      38.568  33.745  29.897  1.00  0.00     0.063 H 
ATOM     26  H   UNL A   1      36.076  31.514  32.395  1.00  0.00     0.063 H 
BRANCH  18  27
ATOM     27  N   UNL A   1      34.216  33.451  28.728  1.00  0.00    -0.326 N 
ATOM     28  C   UNL A   1      33.224  34.380  28.877  1.00  0.00     0.221 C 
ATOM     29  O   UNL A   1      32.346  34.448  28.014  1.00  0.00    -0.275 OA
ATOM     30  H   UNL A   1      34.171  32.946  27.884  1.00  0.00     0.169 HD
BRANCH  28  31
ATOM     31  C   UNL A   1      33.217  35.344  30.035  1.00  0.00     0.015 C 
ATOM     32  H   UNL A   1      34.222  35.600  30.293  1.00  0.00     0.033 H 
ATOM     33  H   UNL A   1      32.739  34.886  30.877  1.00  0.00     0.033 H 
ATOM     34  H   UNL A   1      32.681  36.229  29.760  1.00  0.00     0.033 H 
ENDBRANCH  28  31
ENDBRANCH  18  27
ENDBRANCH  14  17
BRANCH  15  35
ATOM     35  C   UNL A   1      39.931  30.846  31.595  1.00  0.00    -0.025 A 
ATOM     36  C   UNL A   1      39.659  29.571  32.126  1.00  0.00    -0.054 A 
ATOM     37  C   UNL A   1      40.408  30.960  30.287  1.00  0.00    -0.054 A 
ATOM     38  C   UNL A   1      39.800  28.428  31.340  1.00  0.00    -0.043 A 
ATOM     39  H   UNL A   1      39.352  29.482  33.107  1.00  0.00     0.063 H 
ATOM     40  C   UNL A   1      40.552  29.816  29.493  1.00  0.00    -0.043 A 
ATOM     41  H   UNL A   1      40.656  31.887  29.906  1.00  0.00     0.063 H 
ATOM     42  C   UNL A   1      40.235  28.559  30.020  1.00  0.00     0.067 A 
ATOM     43  H   UNL A   1      39.586  27.497  31.728  1.00  0.00     0.064 H 
ATOM     44  H   UNL A   1      40.889  29.900  28.521  1.00  0.00     0.064 H 
BRANCH  42  45
ATOM     45  S   UNL A   1      40.247  27.119  28.973  1.00  0.00     0.175 S 
ATOM     46  O   UNL A   1      41.629  26.698  28.852  1.00  0.00    -0.224 OA
ATOM     47  O   UNL A   1      39.232  26.209  29.470  1.00  0.00    -0.224 OA
BRANCH  45  48
ATOM     48  C   UNL A   1      39.713  27.726  27.397  1.00  0.00     0.043 C 
ATOM     49  H   UNL A   1      40.411  27.426  26.644  1.00  0.00     0.040 H 
ATOM     50  H   UNL A   1      39.656  28.794  27.427  1.00  0.00     0.040 H 
ATOM     51  H   UNL A   1      38.747  27.323  27.169  1.00  0.00     0.040 H 
ENDBRANCH  45  48
ENDBRANCH  42  45
ENDBRANCH  15  35
ENDBRANCH  11  14
ENDBRANCH   7  10
ENDBRANCH   4   7
ENDBRANCH   1   4
BRANCH   1  52
ATOM     52  C   UNL A   1      38.674  33.169  39.377  1.00  0.00    -0.052 C 
ATOM     53  H   UNL A   1      39.652  32.736  39.339  1.00  0.00     0.027 H 
ATOM     54  H   UNL A   1      37.962  32.557  39.890  1.00  0.00     0.027 H 
BRANCH  52  55
ATOM     55  C   UNL A   1      38.763  34.479  40.163  1.00  0.00    -0.036 C 
ATOM     56  H   UNL A   1      38.243  34.352  41.089  1.00  0.00     0.028 H 
ATOM     57  H   UNL A   1      38.333  35.240  39.547  1.00  0.00     0.028 H 
BRANCH  55  58
ATOM     58  C   UNL A   1      40.189  34.920  40.472  1.00  0.00     0.018 C 
ATOM     59  H   UNL A   1      40.866  34.362  39.859  1.00  0.00     0.049 H 
ATOM     60  H   UNL A   1      40.377  34.740  41.511  1.00  0.00     0.049 H 
BRANCH  58  61
ATOM     61  N   UNL A   1      40.380  36.338  40.217  1.00  0.00    -0.352 N 
ATOM     62  C   UNL A   1      41.017  36.949  39.167  1.00  0.00     0.251 C 
ATOM     63  H   UNL A   1      39.998  36.944  40.892  1.00  0.00     0.163 HD
ATOM     64  O   UNL A   1      41.291  38.143  39.218  1.00  0.00    -0.269 OA
BRANCH  62  65
ATOM     65  C   UNL A   1      41.383  36.159  37.973  1.00  0.00     0.039 A 
ATOM     66  C   UNL A   1      42.686  35.670  37.858  1.00  0.00    -0.049 A 
ATOM     67  C   UNL A   1      40.448  35.923  36.960  1.00  0.00    -0.049 A 
ATOM     68  C   UNL A   1      43.043  34.910  36.742  1.00  0.00    -0.053 A 
ATOM     69  H   UNL A   1      43.383  35.870  38.593  1.00  0.00     0.063 H 
ATOM     70  C   UNL A   1      40.784  35.106  35.886  1.00  0.00    -0.053 A 
ATOM     71  H   UNL A   1      39.513  36.356  37.009  1.00  0.00     0.063 H 
ATOM     72  C   UNL A   1      42.088  34.604  35.758  1.00  0.00    -0.014 A 
ATOM     73  H   UNL A   1      44.012  34.572  36.640  1.00  0.00     0.063 H 
ATOM     74  H   UNL A   1      40.070  34.866  35.180  1.00  0.00     0.063 H 
BRANCH  72  75
ATOM     75  C   UNL A   1      42.442  33.791  34.569  1.00  0.00     0.031 A 
ATOM     76  C   UNL A   1      42.555  32.297  34.689  1.00  0.00     0.074 A 
ATOM     77  C   UNL A   1      42.719  34.400  33.400  1.00  0.00     0.049 A 
ATOM     78  N   UNL A   1      42.926  31.418  33.793  1.00  0.00    -0.248 NA
ATOM     79  C   UNL A   1      42.240  31.715  36.004  1.00  0.00    -0.034 C 
ATOM     80  C   UNL A   1      42.683  35.845  33.170  1.00  0.00    -0.036 A 
ATOM     81  N   UNL A   1      43.093  33.879  32.187  1.00  0.00    -0.354 N 
ATOM     82  C   UNL A   1      42.903  30.188  34.438  1.00  0.00     0.074 A 
ATOM     83  C   UNL A   1      42.538  30.439  35.815  1.00  0.00    -0.034 C 
ATOM     84  H   UNL A   1      41.879  32.180  36.852  1.00  0.00     0.065 H 
ATOM     85  C   UNL A   1      43.002  36.094  31.890  1.00  0.00    -0.036 A 
ATOM     86  H   UNL A   1      42.449  36.558  33.878  1.00  0.00     0.065 H 
ATOM     87  C   UNL A   1      43.300  34.831  31.220  1.00  0.00     0.049 A 
ATOM     88  H   UNL A   1      43.204  32.914  32.026  1.00  0.00     0.167 HD
ATOM     89  C   UNL A   1      43.139  28.958  33.923  1.00  0.00     0.037 A 
ATOM     90  H   UNL A   1      42.514  29.718  36.554  1.00  0.00     0.065 H 
ATOM     91  H   UNL A   1      43.032  37.027  31.450  1.00  0.00     0.065 H 
ATOM     92  C   UNL A   1      43.693  34.699  29.938  1.00  0.00     0.037 A 
ATOM     93  C   UNL A   1      43.472  28.712  32.544  1.00  0.00     0.049 A 
ATOM     94  C   UNL A   1      43.952  33.322  29.390  1.00  0.00     0.074 A 
ATOM     95  C   UNL A   1      43.675  27.500  31.908  1.00  0.00    -0.036 A 
ATOM     96  N   UNL A   1      43.651  29.701  31.587  1.00  0.00    -0.354 N 
ATOM     97  N   UNL A   1      43.865  32.160  29.992  1.00  0.00    -0.248 NA
ATOM     98  C   UNL A   1      44.354  33.236  27.979  1.00  0.00    -0.034 C 
ATOM     99  C   UNL A   1      44.022  27.758  30.577  1.00  0.00    -0.036 A 
ATOM    100  H   UNL A   1      43.585  26.567  32.341  1.00  0.00     0.065 H 
ATOM    101  C   UNL A   1      43.982  29.127  30.371  1.00  0.00     0.049 A 
ATOM    102  H   UNL A   1      43.556  30.667  31.750  1.00  0.00     0.167 HD
ATOM    103  C   UNL A   1      44.169  31.206  29.030  1.00  0.00     0.074 A 
ATOM    104  C   UNL A   1      44.430  31.924  27.800  1.00  0.00    -0.034 C 
ATOM    105  H   UNL A   1      44.531  33.996  27.305  1.00  0.00     0.065 H 
ATOM    106  H   UNL A   1      44.266  27.047  29.871  1.00  0.00     0.065 H 
ATOM    107  C   UNL A   1      44.227  29.857  29.153  1.00  0.00     0.037 A 
ATOM    108  H   UNL A   1      44.648  31.473  26.897  1.00  0.00     0.065 H 
BRANCH  89 109
ATOM    109  C   UNL A   1      43.043  27.783  34.854  1.00  0.00     0.064 A 
ATOM    110  C   UNL A   1      41.894  26.978  34.909  1.00  0.00     0.173 A 
ATOM    111  C   UNL A   1      44.124  27.439  35.680  1.00  0.00     0.173 A 
ATOM    112  F   UNL A   1      40.828  27.271  34.149  1.00  0.00    -0.203 F 
ATOM    113  C   UNL A   1      41.820  25.893  35.777  1.00  0.00     0.198 A 
ATOM    114  C   UNL A   1      44.056  26.333  36.524  1.00  0.00     0.198 A 
ATOM    115  F   UNL A   1      45.247  28.171  35.665  1.00  0.00    -0.203 F 
ATOM    116  F   UNL A   1      40.692  25.172  35.851  1.00  0.00    -0.200 F 
ATOM    117  C   UNL A   1      42.903  25.567  36.579  1.00  0.00     0.200 A 
ATOM    118  F   UNL A   1      45.110  26.013  37.288  1.00  0.00    -0.200 F 
ATOM    119  F   UNL A   1      42.832  24.518  37.410  1.00  0.00    -0.200 F 
ENDBRANCH  89 109
BRANCH  92 120
ATOM    120  C   UNL A   1      43.841  35.902  29.078  1.00  0.00     0.064 A 
ATOM    121  C   UNL A   1      42.766  36.376  28.313  1.00  0.00     0.173 A 
ATOM    122  C   UNL A   1      45.056  36.598  28.998  1.00  0.00     0.173 A 
ATOM    123  F   UNL A   1      41.589  35.732  28.342  1.00  0.00    -0.203 F 
ATOM    124  C   UNL A   1      42.906  37.485  27.482  1.00  0.00     0.198 A 
ATOM    125  C   UNL A   1      45.186  37.725  28.189  1.00  0.00     0.198 A 
ATOM    126  F   UNL A   1      46.113  36.190  29.715  1.00  0.00    -0.203 F 
ATOM    127  F   UNL A   1      41.877  37.888  26.725  1.00  0.00    -0.200 F 
ATOM    128  C   UNL A   1      44.115  38.163  27.425  1.00  0.00     0.200 A 
ATOM    129  F   UNL A   1      46.352  38.386  28.148  1.00  0.00    -0.200 F 
ATOM    130  F   UNL A   1      44.250  39.232  26.628  1.00  0.00    -0.200 F 
ENDBRANCH  92 120
BRANCH 107 131
ATOM    131  C   UNL A   1      44.543  29.065  27.918  1.00  0.00     0.064 A 
ATOM    132  C   UNL A   1      45.811  28.504  27.706  1.00  0.00     0.173 A 
ATOM    133  C   UNL A   1      43.551  28.830  26.954  1.00  0.00     0.173 A 
ATOM    134  F   UNL A   1      46.798  28.713  28.590  1.00  0.00    -0.203 F 
ATOM    135  C   UNL A   1      46.081  27.759  26.561  1.00  0.00     0.198 A 
ATOM    136  C   UNL A   1      43.815  28.058  25.827  1.00  0.00     0.198 A 
ATOM    137  F   UNL A   1      42.320  29.338  27.114  1.00  0.00    -0.203 F 
ATOM    138  F   UNL A   1      47.313  27.273  26.356  1.00  0.00    -0.200 F 
ATOM    139  C   UNL A   1      45.081  27.529  25.628  1.00  0.00     0.200 A 
ATOM    140  F   UNL A   1      42.843  27.824  24.934  1.00  0.00    -0.200 F 
ATOM    141  F   UNL A   1      45.340  26.804  24.531  1.00  0.00    -0.200 F 
ENDBRANCH 107 131
ENDBRANCH  72  75
ENDBRANCH  62  65
ENDBRANCH  58  61
ENDBRANCH  55  58
ENDBRANCH  52  55
ENDBRANCH   1  52
TORSDOF 19
ENDMDL
MODEL 6
REMARK VINA RESULT:     -10.7      4.828     11.254
REMARK SMILES CC(=O)Nc1ccc(/C(=C\c2ccc(S(C)(=O)=O)cc2)C(=O)NCCCCCCNC(=O)c2ccc(-c3c4nc(c(-c5c(F)c(F)c(F)c(F)c5F)c5ccc([nH]5)c(-c5c(F)c(F)c(F)c(F)c5F)c5nc(c(-c6c(F)c(F)c(F)c(F)c6F)c6ccc3[nH]6)C=C5)C=C4)cc2)cc1
REMARK SMILES IDX 26 1 25 4 24 7 23 10 21 11 22 12 9 14 10 15 8 17 5 18 6 19
REMARK SMILES IDX 97 20 7 21 96 23 4 27 2 28 3 29 1 31 11 35 12 36 20 37 13 38
REMARK SMILES IDX 19 40 14 42 15 45 17 46 18 47 16 48 27 52 28 55 29 58 30 61
REMARK SMILES IDX 31 62 32 64 33 65 34 66 95 67 35 68 94 70 36 72 37 75 38 76
REMARK SMILES IDX 88 77 39 78 93 79 87 80 89 81 40 82 92 83 86 85 85 87 41 89
REMARK SMILES IDX 73 92 53 93 72 94 54 95 57 96 71 97 90 98 55 99 56 101
REMARK SMILES IDX 70 103 91 104 58 107 42 109 43 110 51 111 44 112 45 113
REMARK SMILES IDX 49 114 52 115 46 116 47 117 50 118 48 119 74 120 75 121
REMARK SMILES IDX 83 122 76 123 77 124 81 125 84 126 78 127 79 128 82 129
REMARK SMILES IDX 80 130 59 131 60 132 68 133 61 134 62 135 66 136 69 137
REMARK SMILES IDX 63 138 64 139 67 140 65 141
REMARK H PARENT 26 2 26 3 25 5 25 6 24 8 24 9 23 13 10 16 6 22 97 24 7 25
REMARK H PARENT 96 26 4 30 1 32 1 33 1 34 12 39 20 41 13 43 19 44 16 49 16 50
REMARK H PARENT 16 51 27 53 27 54 28 56 28 57 29 59 29 60 30 63 34 69 95 71
REMARK H PARENT 35 73 94 74 93 84 87 86 89 88 92 90 86 91 54 100 57 102 90 105
REMARK H PARENT 55 106 91 108
REMARK Flexibility Score: inf
ROOT
ATOM      1  C   UNL A   1      38.628  33.717  37.204  1.00  0.00    -0.052 C 
ATOM      2  H   UNL A   1      37.579  33.764  36.998  1.00  0.00     0.027 H 
ATOM      3  H   UNL A   1      39.174  34.555  36.824  1.00  0.00     0.027 H 
ENDROOT
BRANCH   1   4
ATOM      4  C   UNL A   1      39.197  32.476  36.495  1.00  0.00    -0.036 C 
ATOM      5  H   UNL A   1      40.255  32.599  36.395  1.00  0.00     0.028 H 
ATOM      6  H   UNL A   1      38.943  31.627  37.094  1.00  0.00     0.028 H 
BRANCH   4   7
ATOM      7  C   UNL A   1      38.601  32.242  35.104  1.00  0.00     0.018 C 
ATOM      8  H   UNL A   1      38.904  31.281  34.744  1.00  0.00     0.049 H 
ATOM      9  H   UNL A   1      37.533  32.283  35.163  1.00  0.00     0.049 H 
BRANCH   7  10
ATOM     10  N   UNL A   1      39.070  33.266  34.195  1.00  0.00    -0.352 N 
ATOM     11  C   UNL A   1      39.343  33.345  32.868  1.00  0.00     0.251 C 
ATOM     12  O   UNL A   1      39.786  34.446  32.531  1.00  0.00    -0.269 OA
ATOM     13  H   UNL A   1      39.231  34.121  34.655  1.00  0.00     0.163 HD
BRANCH  11  14
ATOM     14  C   UNL A   1      39.065  32.242  31.847  1.00  0.00     0.047 C 
ATOM     15  C   UNL A   1      40.057  31.371  31.539  1.00  0.00    -0.042 C 
ATOM     16  H   UNL A   1      40.996  31.632  31.876  1.00  0.00     0.064 H 
BRANCH  14  17
ATOM     17  C   UNL A   1      37.771  32.271  31.065  1.00  0.00    -0.013 A 
ATOM     18  C   UNL A   1      35.542  31.868  29.324  1.00  0.00     0.041 A 
ATOM     19  C   UNL A   1      35.449  31.577  30.686  1.00  0.00    -0.038 A 
ATOM     20  C   UNL A   1      36.678  32.520  28.880  1.00  0.00    -0.038 A 
ATOM     21  C   UNL A   1      36.538  31.809  31.549  1.00  0.00    -0.052 A 
ATOM     22  H   UNL A   1      34.572  31.188  31.065  1.00  0.00     0.064 H 
ATOM     23  C   UNL A   1      37.781  32.678  29.723  1.00  0.00    -0.052 A 
ATOM     24  H   UNL A   1      36.711  32.893  27.918  1.00  0.00     0.064 H 
ATOM     25  H   UNL A   1      36.426  31.635  32.560  1.00  0.00     0.063 H 
ATOM     26  H   UNL A   1      38.638  33.111  29.343  1.00  0.00     0.063 H 
BRANCH  18  27
ATOM     27  N   UNL A   1      34.484  31.479  28.486  1.00  0.00    -0.326 N 
ATOM     28  C   UNL A   1      34.346  30.427  27.623  1.00  0.00     0.221 C 
ATOM     29  O   UNL A   1      33.322  30.358  26.938  1.00  0.00    -0.275 OA
ATOM     30  H   UNL A   1      33.699  32.071  28.527  1.00  0.00     0.169 HD
BRANCH  28  31
ATOM     31  C   UNL A   1      35.384  29.339  27.536  1.00  0.00     0.015 C 
ATOM     32  H   UNL A   1      34.959  28.476  27.069  1.00  0.00     0.033 H 
ATOM     33  H   UNL A   1      35.717  29.083  28.521  1.00  0.00     0.033 H 
ATOM     34  H   UNL A   1      36.216  29.684  26.958  1.00  0.00     0.033 H 
ENDBRANCH  28  31
ENDBRANCH  18  27
ENDBRANCH  14  17
BRANCH  15  35
ATOM     35  C   UNL A   1      39.982  30.107  30.792  1.00  0.00    -0.025 A 
ATOM     36  C   UNL A   1      40.366  30.133  29.438  1.00  0.00    -0.054 A 
ATOM     37  C   UNL A   1      39.625  28.894  31.384  1.00  0.00    -0.054 A 
ATOM     38  C   UNL A   1      40.455  28.952  28.702  1.00  0.00    -0.043 A 
ATOM     39  H   UNL A   1      40.584  31.034  28.986  1.00  0.00     0.063 H 
ATOM     40  C   UNL A   1      39.713  27.704  30.650  1.00  0.00    -0.043 A 
ATOM     41  H   UNL A   1      39.295  28.873  32.363  1.00  0.00     0.063 H 
ATOM     42  C   UNL A   1      40.139  27.740  29.318  1.00  0.00     0.067 A 
ATOM     43  H   UNL A   1      40.752  28.973  27.714  1.00  0.00     0.064 H 
ATOM     44  H   UNL A   1      39.465  26.805  31.090  1.00  0.00     0.064 H 
BRANCH  42  45
ATOM     45  S   UNL A   1      40.421  26.225  28.427  1.00  0.00     0.175 S 
ATOM     46  O   UNL A   1      41.764  25.787  28.755  1.00  0.00    -0.224 OA
ATOM     47  O   UNL A   1      39.279  25.361  28.659  1.00  0.00    -0.224 OA
BRANCH  45  48
ATOM     48  C   UNL A   1      40.400  26.714  26.724  1.00  0.00     0.043 C 
ATOM     49  H   UNL A   1      39.896  27.653  26.629  1.00  0.00     0.040 H 
ATOM     50  H   UNL A   1      39.887  25.974  26.147  1.00  0.00     0.040 H 
ATOM     51  H   UNL A   1      41.405  26.811  26.368  1.00  0.00     0.040 H 
ENDBRANCH  45  48
ENDBRANCH  42  45
ENDBRANCH  15  35
ENDBRANCH  11  14
ENDBRANCH   7  10
ENDBRANCH   4   7
ENDBRANCH   1   4
BRANCH   1  52
ATOM     52  C   UNL A   1      38.816  33.735  38.725  1.00  0.00    -0.052 C 
ATOM     53  H   UNL A   1      39.701  33.180  38.959  1.00  0.00     0.027 H 
ATOM     54  H   UNL A   1      37.929  33.308  39.145  1.00  0.00     0.027 H 
BRANCH  52  55
ATOM     55  C   UNL A   1      38.955  35.131  39.337  1.00  0.00    -0.036 C 
ATOM     56  H   UNL A   1      38.179  35.259  40.063  1.00  0.00     0.028 H 
ATOM     57  H   UNL A   1      38.887  35.831  38.531  1.00  0.00     0.028 H 
BRANCH  55  58
ATOM     58  C   UNL A   1      40.294  35.378  40.020  1.00  0.00     0.018 C 
ATOM     59  H   UNL A   1      41.013  34.684  39.637  1.00  0.00     0.049 H 
ATOM     60  H   UNL A   1      40.162  35.247  41.074  1.00  0.00     0.049 H 
BRANCH  58  61
ATOM     61  N   UNL A   1      40.774  36.730  39.789  1.00  0.00    -0.352 N 
ATOM     62  C   UNL A   1      41.613  37.194  38.808  1.00  0.00     0.251 C 
ATOM     63  H   UNL A   1      40.451  37.408  40.425  1.00  0.00     0.163 HD
ATOM     64  O   UNL A   1      42.101  38.316  38.888  1.00  0.00    -0.269 OA
BRANCH  62  65
ATOM     65  C   UNL A   1      41.935  36.330  37.653  1.00  0.00     0.039 A 
ATOM     66  C   UNL A   1      43.122  35.594  37.668  1.00  0.00    -0.049 A 
ATOM     67  C   UNL A   1      41.080  36.268  36.548  1.00  0.00    -0.049 A 
ATOM     68  C   UNL A   1      43.434  34.763  36.590  1.00  0.00    -0.053 A 
ATOM     69  H   UNL A   1      43.767  35.664  38.471  1.00  0.00     0.063 H 
ATOM     70  C   UNL A   1      41.355  35.385  35.509  1.00  0.00    -0.053 A 
ATOM     71  H   UNL A   1      40.247  36.876  36.504  1.00  0.00     0.063 H 
ATOM     72  C   UNL A   1      42.542  34.636  35.512  1.00  0.00    -0.014 A 
ATOM     73  H   UNL A   1      44.323  34.240  36.585  1.00  0.00     0.063 H 
ATOM     74  H   UNL A   1      40.684  35.279  34.733  1.00  0.00     0.063 H 
BRANCH  72  75
ATOM     75  C   UNL A   1      42.848  33.752  34.361  1.00  0.00     0.031 A 
ATOM     76  C   UNL A   1      43.074  34.346  32.999  1.00  0.00     0.074 A 
ATOM     77  C   UNL A   1      42.866  32.415  34.529  1.00  0.00     0.049 A 
ATOM     78  N   UNL A   1      43.278  33.745  31.854  1.00  0.00    -0.248 NA
ATOM     79  C   UNL A   1      43.033  35.815  32.904  1.00  0.00    -0.034 C 
ATOM     80  C   UNL A   1      42.622  31.719  35.792  1.00  0.00    -0.036 A 
ATOM     81  N   UNL A   1      43.090  31.404  33.629  1.00  0.00    -0.354 N 
ATOM     82  C   UNL A   1      43.373  34.757  30.908  1.00  0.00     0.074 A 
ATOM     83  C   UNL A   1      43.148  36.007  31.600  1.00  0.00    -0.034 C 
ATOM     84  H   UNL A   1      42.940  36.513  33.660  1.00  0.00     0.065 H 
ATOM     85  C   UNL A   1      42.730  30.396  35.592  1.00  0.00    -0.036 A 
ATOM     86  H   UNL A   1      42.403  32.172  36.693  1.00  0.00     0.065 H 
ATOM     87  C   UNL A   1      43.013  30.149  34.181  1.00  0.00     0.049 A 
ATOM     88  H   UNL A   1      43.287  31.563  32.678  1.00  0.00     0.167 HD
ATOM     89  C   UNL A   1      43.649  34.655  29.586  1.00  0.00     0.037 A 
ATOM     90  H   UNL A   1      43.085  36.927  31.137  1.00  0.00     0.065 H 
ATOM     91  H   UNL A   1      42.629  29.670  36.319  1.00  0.00     0.065 H 
ATOM     92  C   UNL A   1      43.150  28.937  33.611  1.00  0.00     0.037 A 
ATOM     93  C   UNL A   1      43.903  33.410  28.909  1.00  0.00     0.049 A 
ATOM     94  C   UNL A   1      43.454  28.850  32.139  1.00  0.00     0.074 A 
ATOM     95  C   UNL A   1      44.247  33.202  27.585  1.00  0.00    -0.036 A 
ATOM     96  N   UNL A   1      43.838  32.160  29.507  1.00  0.00    -0.354 N 
ATOM     97  N   UNL A   1      43.605  29.817  31.266  1.00  0.00    -0.248 NA
ATOM     98  C   UNL A   1      43.617  27.503  31.575  1.00  0.00    -0.034 C 
ATOM     99  C   UNL A   1      44.346  31.823  27.370  1.00  0.00    -0.036 A 
ATOM    100  H   UNL A   1      44.405  33.938  26.878  1.00  0.00     0.065 H 
ATOM    101  C   UNL A   1      44.116  31.175  28.572  1.00  0.00     0.049 A 
ATOM    102  H   UNL A   1      43.626  31.997  30.454  1.00  0.00     0.167 HD
ATOM    103  C   UNL A   1      43.911  29.200  30.060  1.00  0.00     0.074 A 
ATOM    104  C   UNL A   1      43.937  27.774  30.317  1.00  0.00    -0.034 C 
ATOM    105  H   UNL A   1      43.510  26.587  32.036  1.00  0.00     0.065 H 
ATOM    106  H   UNL A   1      44.554  31.367  26.469  1.00  0.00     0.065 H 
ATOM    107  C   UNL A   1      44.149  29.761  28.850  1.00  0.00     0.037 A 
ATOM    108  H   UNL A   1      44.175  27.060  29.611  1.00  0.00     0.065 H 
BRANCH  89 109
ATOM    109  C   UNL A   1      43.695  35.925  28.784  1.00  0.00     0.064 A 
ATOM    110  C   UNL A   1      42.558  36.425  28.131  1.00  0.00     0.173 A 
ATOM    111  C   UNL A   1      44.881  36.667  28.694  1.00  0.00     0.173 A 
ATOM    112  F   UNL A   1      41.400  35.747  28.175  1.00  0.00    -0.203 F 
ATOM    113  C   UNL A   1      42.615  37.603  27.392  1.00  0.00     0.198 A 
ATOM    114  C   UNL A   1      44.926  37.862  27.979  1.00  0.00     0.198 A 
ATOM    115  F   UNL A   1      45.997  36.238  29.302  1.00  0.00    -0.203 F 
ATOM    116  F   UNL A   1      41.530  38.032  26.732  1.00  0.00    -0.200 F 
ATOM    117  C   UNL A   1      43.797  38.325  27.322  1.00  0.00     0.200 A 
ATOM    118  F   UNL A   1      46.067  38.564  27.925  1.00  0.00    -0.200 F 
ATOM    119  F   UNL A   1      43.850  39.461  26.615  1.00  0.00    -0.200 F 
ENDBRANCH  89 109
BRANCH  92 120
ATOM    120  C   UNL A   1      43.025  27.708  34.436  1.00  0.00     0.064 A 
ATOM    121  C   UNL A   1      41.788  27.066  34.590  1.00  0.00     0.173 A 
ATOM    122  C   UNL A   1      44.133  27.152  35.092  1.00  0.00     0.173 A 
ATOM    123  F   UNL A   1      40.695  27.571  33.997  1.00  0.00    -0.203 F 
ATOM    124  C   UNL A   1      41.659  25.931  35.386  1.00  0.00     0.198 A 
ATOM    125  C   UNL A   1      44.008  25.999  35.865  1.00  0.00     0.198 A 
ATOM    126  F   UNL A   1      45.341  27.723  34.972  1.00  0.00    -0.203 F 
ATOM    127  F   UNL A   1      40.456  25.366  35.555  1.00  0.00    -0.200 F 
ATOM    128  C   UNL A   1      42.770  25.395  36.018  1.00  0.00     0.200 A 
ATOM    129  F   UNL A   1      45.089  25.476  36.462  1.00  0.00    -0.200 F 
ATOM    130  F   UNL A   1      42.647  24.300  36.782  1.00  0.00    -0.200 F 
ENDBRANCH  92 120
BRANCH 107 131
ATOM    131  C   UNL A   1      44.502  28.838  27.719  1.00  0.00     0.064 A 
ATOM    132  C   UNL A   1      45.737  28.176  27.667  1.00  0.00     0.173 A 
ATOM    133  C   UNL A   1      43.574  28.582  26.699  1.00  0.00     0.173 A 
ATOM    134  F   UNL A   1      46.663  28.398  28.611  1.00  0.00    -0.203 F 
ATOM    135  C   UNL A   1      46.040  27.311  26.618  1.00  0.00     0.198 A 
ATOM    136  C   UNL A   1      43.868  27.692  25.669  1.00  0.00     0.198 A 
ATOM    137  F   UNL A   1      42.376  29.185  26.707  1.00  0.00    -0.203 F 
ATOM    138  F   UNL A   1      47.244  26.726  26.562  1.00  0.00    -0.200 F 
ATOM    139  C   UNL A   1      45.103  27.064  25.626  1.00  0.00     0.200 A 
ATOM    140  F   UNL A   1      42.956  27.444  24.720  1.00  0.00    -0.200 F 
ATOM    141  F   UNL A   1      45.393  26.224  24.623  1.00  0.00    -0.200 F 
ENDBRANCH 107 131
ENDBRANCH  72  75
ENDBRANCH  62  65
ENDBRANCH  58  61
ENDBRANCH  55  58
ENDBRANCH  52  55
ENDBRANCH   1  52
TORSDOF 19
ENDMDL
MODEL 7
REMARK VINA RESULT:     -10.7      6.666     11.685
REMARK SMILES CC(=O)Nc1ccc(/C(=C\c2ccc(S(C)(=O)=O)cc2)C(=O)NCCCCCCNC(=O)c2ccc(-c3c4nc(c(-c5c(F)c(F)c(F)c(F)c5F)c5ccc([nH]5)c(-c5c(F)c(F)c(F)c(F)c5F)c5nc(c(-c6c(F)c(F)c(F)c(F)c6F)c6ccc3[nH]6)C=C5)C=C4)cc2)cc1
REMARK SMILES IDX 26 1 25 4 24 7 23 10 21 11 22 12 9 14 10 15 8 17 5 18 6 19
REMARK SMILES IDX 97 20 7 21 96 23 4 27 2 28 3 29 1 31 11 35 12 36 20 37 13 38
REMARK SMILES IDX 19 40 14 42 15 45 17 46 18 47 16 48 27 52 28 55 29 58 30 61
REMARK SMILES IDX 31 62 32 64 33 65 34 66 95 67 35 68 94 70 36 72 37 75 38 76
REMARK SMILES IDX 88 77 39 78 93 79 87 80 89 81 40 82 92 83 86 85 85 87 41 89
REMARK SMILES IDX 73 92 53 93 72 94 54 95 57 96 71 97 90 98 55 99 56 101
REMARK SMILES IDX 70 103 91 104 58 107 42 109 43 110 51 111 44 112 45 113
REMARK SMILES IDX 49 114 52 115 46 116 47 117 50 118 48 119 74 120 75 121
REMARK SMILES IDX 83 122 76 123 77 124 81 125 84 126 78 127 79 128 82 129
REMARK SMILES IDX 80 130 59 131 60 132 68 133 61 134 62 135 66 136 69 137
REMARK SMILES IDX 63 138 64 139 67 140 65 141
REMARK H PARENT 26 2 26 3 25 5 25 6 24 8 24 9 23 13 10 16 6 22 97 24 7 25
REMARK H PARENT 96 26 4 30 1 32 1 33 1 34 12 39 20 41 13 43 19 44 16 49 16 50
REMARK H PARENT 16 51 27 53 27 54 28 56 28 57 29 59 29 60 30 63 34 69 95 71
REMARK H PARENT 35 73 94 74 93 84 87 86 89 88 92 90 86 91 54 100 57 102 90 105
REMARK H PARENT 55 106 91 108
REMARK Flexibility Score: inf
ROOT
ATOM      1  C   UNL A   1      40.965  27.458  29.438  1.00  0.00    -0.052 C 
ATOM      2  H   UNL A   1      41.015  28.058  30.323  1.00  0.00     0.027 H 
ATOM      3  H   UNL A   1      41.369  26.475  29.568  1.00  0.00     0.027 H 
ENDROOT
BRANCH   1   4
ATOM      4  C   UNL A   1      41.821  28.135  28.354  1.00  0.00    -0.036 C 
ATOM      5  H   UNL A   1      41.623  29.186  28.375  1.00  0.00     0.028 H 
ATOM      6  H   UNL A   1      42.843  27.911  28.576  1.00  0.00     0.028 H 
BRANCH   4   7
ATOM      7  C   UNL A   1      41.540  27.615  26.942  1.00  0.00     0.018 C 
ATOM      8  H   UNL A   1      41.350  26.562  26.982  1.00  0.00     0.049 H 
ATOM      9  H   UNL A   1      40.683  28.118  26.542  1.00  0.00     0.049 H 
BRANCH   7  10
ATOM     10  N   UNL A   1      42.684  27.866  26.093  1.00  0.00    -0.352 N 
ATOM     11  C   UNL A   1      43.800  27.186  25.730  1.00  0.00     0.251 C 
ATOM     12  O   UNL A   1      44.549  27.840  25.000  1.00  0.00    -0.269 OA
ATOM     13  H   UNL A   1      42.642  28.755  25.673  1.00  0.00     0.163 HD
BRANCH  11  14
ATOM     14  C   UNL A   1      44.098  25.730  26.090  1.00  0.00     0.047 C 
ATOM     15  C   UNL A   1      43.891  24.770  25.157  1.00  0.00    -0.042 C 
ATOM     16  H   UNL A   1      43.361  25.069  24.323  1.00  0.00     0.064 H 
BRANCH  14  17
ATOM     17  C   UNL A   1      44.419  25.378  27.526  1.00  0.00    -0.013 A 
ATOM     18  C   UNL A   1      44.950  25.272  30.330  1.00  0.00     0.041 A 
ATOM     19  C   UNL A   1      43.763  24.757  29.806  1.00  0.00    -0.038 A 
ATOM     20  C   UNL A   1      45.930  25.669  29.439  1.00  0.00    -0.038 A 
ATOM     21  C   UNL A   1      43.518  24.780  28.419  1.00  0.00    -0.052 A 
ATOM     22  H   UNL A   1      43.057  24.356  30.442  1.00  0.00     0.064 H 
ATOM     23  C   UNL A   1      45.653  25.759  28.073  1.00  0.00    -0.052 A 
ATOM     24  H   UNL A   1      46.875  25.899  29.786  1.00  0.00     0.064 H 
ATOM     25  H   UNL A   1      42.656  24.347  28.052  1.00  0.00     0.063 H 
ATOM     26  H   UNL A   1      46.386  26.119  27.441  1.00  0.00     0.063 H 
BRANCH  18  27
ATOM     27  N   UNL A   1      45.078  25.362  31.727  1.00  0.00    -0.326 N 
ATOM     28  C   UNL A   1      44.497  26.194  32.642  1.00  0.00     0.221 C 
ATOM     29  O   UNL A   1      44.847  26.109  33.822  1.00  0.00    -0.275 OA
ATOM     30  H   UNL A   1      45.700  24.706  32.117  1.00  0.00     0.169 HD
BRANCH  28  31
ATOM     31  C   UNL A   1      43.412  27.163  32.248  1.00  0.00     0.015 C 
ATOM     32  H   UNL A   1      43.823  28.147  32.173  1.00  0.00     0.033 H 
ATOM     33  H   UNL A   1      42.640  27.155  32.989  1.00  0.00     0.033 H 
ATOM     34  H   UNL A   1      43.002  26.875  31.302  1.00  0.00     0.033 H 
ENDBRANCH  28  31
ENDBRANCH  18  27
ENDBRANCH  14  17
BRANCH  15  35
ATOM     35  C   UNL A   1      44.315  23.362  25.166  1.00  0.00    -0.025 A 
ATOM     36  C   UNL A   1      43.344  22.397  25.494  1.00  0.00    -0.054 A 
ATOM     37  C   UNL A   1      45.597  22.952  24.794  1.00  0.00    -0.054 A 
ATOM     38  C   UNL A   1      43.631  21.036  25.389  1.00  0.00    -0.043 A 
ATOM     39  H   UNL A   1      42.411  22.699  25.814  1.00  0.00     0.063 H 
ATOM     40  C   UNL A   1      45.890  21.586  24.686  1.00  0.00    -0.043 A 
ATOM     41  H   UNL A   1      46.329  23.654  24.599  1.00  0.00     0.063 H 
ATOM     42  C   UNL A   1      44.902  20.638  24.972  1.00  0.00     0.067 A 
ATOM     43  H   UNL A   1      42.912  20.331  25.615  1.00  0.00     0.064 H 
ATOM     44  H   UNL A   1      46.833  21.281  24.396  1.00  0.00     0.064 H 
BRANCH  42  45
ATOM     45  S   UNL A   1      45.206  18.910  24.675  1.00  0.00     0.175 S 
ATOM     46  O   UNL A   1      44.035  18.191  25.138  1.00  0.00    -0.224 OA
ATOM     47  O   UNL A   1      45.667  18.775  23.306  1.00  0.00    -0.224 OA
BRANCH  45  48
ATOM     48  C   UNL A   1      46.558  18.517  25.749  1.00  0.00     0.043 C 
ATOM     49  H   UNL A   1      46.871  19.399  26.267  1.00  0.00     0.040 H 
ATOM     50  H   UNL A   1      47.373  18.135  25.171  1.00  0.00     0.040 H 
ATOM     51  H   UNL A   1      46.247  17.778  26.459  1.00  0.00     0.040 H 
ENDBRANCH  45  48
ENDBRANCH  42  45
ENDBRANCH  15  35
ENDBRANCH  11  14
ENDBRANCH   7  10
ENDBRANCH   4   7
ENDBRANCH   1   4
BRANCH   1  52
ATOM     52  C   UNL A   1      39.488  27.270  29.072  1.00  0.00    -0.052 C 
ATOM     53  H   UNL A   1      39.426  26.516  28.315  1.00  0.00     0.027 H 
ATOM     54  H   UNL A   1      39.134  28.225  28.745  1.00  0.00     0.027 H 
BRANCH  52  55
ATOM     55  C   UNL A   1      38.588  26.851  30.237  1.00  0.00    -0.036 C 
ATOM     56  H   UNL A   1      38.559  25.782  30.272  1.00  0.00     0.028 H 
ATOM     57  H   UNL A   1      37.628  27.285  30.058  1.00  0.00     0.028 H 
BRANCH  55  58
ATOM     58  C   UNL A   1      39.055  27.360  31.595  1.00  0.00     0.018 C 
ATOM     59  H   UNL A   1      40.031  27.786  31.490  1.00  0.00     0.049 H 
ATOM     60  H   UNL A   1      39.070  26.534  32.276  1.00  0.00     0.049 H 
BRANCH  58  61
ATOM     61  N   UNL A   1      38.155  28.370  32.127  1.00  0.00    -0.352 N 
ATOM     62  C   UNL A   1      38.378  29.708  32.326  1.00  0.00     0.251 C 
ATOM     63  H   UNL A   1      37.260  28.048  32.381  1.00  0.00     0.163 HD
ATOM     64  O   UNL A   1      37.597  30.375  32.996  1.00  0.00    -0.269 OA
BRANCH  62  65
ATOM     65  C   UNL A   1      39.572  30.347  31.735  1.00  0.00     0.039 A 
ATOM     66  C   UNL A   1      40.684  30.587  32.547  1.00  0.00    -0.049 A 
ATOM     67  C   UNL A   1      39.585  30.729  30.390  1.00  0.00    -0.049 A 
ATOM     68  C   UNL A   1      41.825  31.176  31.999  1.00  0.00    -0.053 A 
ATOM     69  H   UNL A   1      40.662  30.331  33.546  1.00  0.00     0.063 H 
ATOM     70  C   UNL A   1      40.747  31.248  29.829  1.00  0.00    -0.053 A 
ATOM     71  H   UNL A   1      38.734  30.627  29.815  1.00  0.00     0.063 H 
ATOM     72  C   UNL A   1      41.873  31.492  30.631  1.00  0.00    -0.014 A 
ATOM     73  H   UNL A   1      42.637  31.382  32.602  1.00  0.00     0.063 H 
ATOM     74  H   UNL A   1      40.783  31.455  28.819  1.00  0.00     0.063 H 
BRANCH  72  75
ATOM     75  C   UNL A   1      43.078  32.110  30.026  1.00  0.00     0.031 A 
ATOM     76  C   UNL A   1      43.055  33.558  29.623  1.00  0.00     0.074 A 
ATOM     77  C   UNL A   1      44.169  31.357  29.787  1.00  0.00     0.049 A 
ATOM     78  N   UNL A   1      43.973  34.265  29.013  1.00  0.00    -0.248 NA
ATOM     79  C   UNL A   1      41.822  34.306  29.918  1.00  0.00    -0.034 C 
ATOM     80  C   UNL A   1      44.297  29.932  30.095  1.00  0.00    -0.036 A 
ATOM     81  N   UNL A   1      45.375  31.684  29.220  1.00  0.00    -0.354 N 
ATOM     82  C   UNL A   1      43.423  35.528  28.839  1.00  0.00     0.074 A 
ATOM     83  C   UNL A   1      42.073  35.477  29.355  1.00  0.00    -0.034 C 
ATOM     84  H   UNL A   1      40.981  33.998  30.432  1.00  0.00     0.065 H 
ATOM     85  C   UNL A   1      45.519  29.512  29.732  1.00  0.00    -0.036 A 
ATOM     86  H   UNL A   1      43.564  29.344  30.523  1.00  0.00     0.065 H 
ATOM     87  C   UNL A   1      46.247  30.627  29.133  1.00  0.00     0.049 A 
ATOM     88  H   UNL A   1      45.593  32.590  28.904  1.00  0.00     0.167 HD
ATOM     89  C   UNL A   1      44.001  36.637  28.319  1.00  0.00     0.037 A 
ATOM     90  H   UNL A   1      41.394  36.252  29.291  1.00  0.00     0.065 H 
ATOM     91  H   UNL A   1      45.885  28.556  29.857  1.00  0.00     0.065 H 
ATOM     92  C   UNL A   1      47.491  30.565  28.622  1.00  0.00     0.037 A 
ATOM     93  C   UNL A   1      45.356  36.689  27.835  1.00  0.00     0.049 A 
ATOM     94  C   UNL A   1      48.110  31.811  28.048  1.00  0.00     0.074 A 
ATOM     95  C   UNL A   1      46.055  37.776  27.342  1.00  0.00    -0.036 A 
ATOM     96  N   UNL A   1      46.218  35.603  27.785  1.00  0.00    -0.354 N 
ATOM     97  N   UNL A   1      47.604  33.016  27.945  1.00  0.00    -0.248 NA
ATOM     98  C   UNL A   1      49.479  31.690  27.526  1.00  0.00    -0.034 C 
ATOM     99  C   UNL A   1      47.325  37.338  26.950  1.00  0.00    -0.036 A 
ATOM    100  H   UNL A   1      45.702  38.744  27.276  1.00  0.00     0.065 H 
ATOM    101  C   UNL A   1      47.435  35.990  27.248  1.00  0.00     0.049 A 
ATOM    102  H   UNL A   1      45.996  34.692  28.085  1.00  0.00     0.167 HD
ATOM    103  C   UNL A   1      48.599  33.803  27.380  1.00  0.00     0.074 A 
ATOM    104  C   UNL A   1      49.744  32.940  27.173  1.00  0.00    -0.034 C 
ATOM    105  H   UNL A   1      50.076  30.852  27.454  1.00  0.00     0.065 H 
ATOM    106  H   UNL A   1      48.054  37.921  26.512  1.00  0.00     0.065 H 
ATOM    107  C   UNL A   1      48.568  35.119  27.061  1.00  0.00     0.037 A 
ATOM    108  H   UNL A   1      50.651  33.257  26.797  1.00  0.00     0.065 H 
BRANCH  89 109
ATOM    109  C   UNL A   1      43.171  37.887  28.249  1.00  0.00     0.064 A 
ATOM    110  C   UNL A   1      42.318  38.145  27.165  1.00  0.00     0.173 A 
ATOM    111  C   UNL A   1      43.204  38.823  29.293  1.00  0.00     0.173 A 
ATOM    112  F   UNL A   1      42.257  37.288  26.133  1.00  0.00    -0.203 F 
ATOM    113  C   UNL A   1      41.554  39.308  27.114  1.00  0.00     0.198 A 
ATOM    114  C   UNL A   1      42.415  39.970  29.253  1.00  0.00     0.198 A 
ATOM    115  F   UNL A   1      43.998  38.624  30.355  1.00  0.00    -0.203 F 
ATOM    116  F   UNL A   1      40.789  39.559  26.042  1.00  0.00    -0.200 F 
ATOM    117  C   UNL A   1      41.597  40.216  28.161  1.00  0.00     0.200 A 
ATOM    118  F   UNL A   1      42.448  40.838  30.273  1.00  0.00    -0.200 F 
ATOM    119  F   UNL A   1      40.858  41.332  28.113  1.00  0.00    -0.200 F 
ENDBRANCH  89 109
BRANCH  92 120
ATOM    120  C   UNL A   1      48.244  29.284  28.652  1.00  0.00     0.064 A 
ATOM    121  C   UNL A   1      48.205  28.400  27.564  1.00  0.00     0.173 A 
ATOM    122  C   UNL A   1      49.012  28.914  29.765  1.00  0.00     0.173 A 
ATOM    123  F   UNL A   1      47.469  28.702  26.484  1.00  0.00    -0.203 F 
ATOM    124  C   UNL A   1      48.885  27.185  27.598  1.00  0.00     0.198 A 
ATOM    125  C   UNL A   1      49.716  27.711  29.786  1.00  0.00     0.198 A 
ATOM    126  F   UNL A   1      49.090  29.727  30.829  1.00  0.00    -0.203 F 
ATOM    127  F   UNL A   1      48.791  26.338  26.565  1.00  0.00    -0.200 F 
ATOM    128  C   UNL A   1      49.645  26.844  28.706  1.00  0.00     0.200 A 
ATOM    129  F   UNL A   1      50.461  27.393  30.854  1.00  0.00    -0.200 F 
ATOM    130  F   UNL A   1      50.302  25.676  28.738  1.00  0.00    -0.200 F 
ENDBRANCH  92 120
BRANCH 107 131
ATOM    131  C   UNL A   1      49.822  35.721  26.494  1.00  0.00     0.064 A 
ATOM    132  C   UNL A   1      50.027  35.829  25.111  1.00  0.00     0.173 A 
ATOM    133  C   UNL A   1      50.809  36.234  27.349  1.00  0.00     0.173 A 
ATOM    134  F   UNL A   1      49.120  35.341  24.253  1.00  0.00    -0.203 F 
ATOM    135  C   UNL A   1      51.190  36.405  24.605  1.00  0.00     0.198 A 
ATOM    136  C   UNL A   1      51.955  36.837  26.839  1.00  0.00     0.198 A 
ATOM    137  F   UNL A   1      50.656  36.162  28.679  1.00  0.00    -0.203 F 
ATOM    138  F   UNL A   1      51.388  36.454  23.280  1.00  0.00    -0.200 F 
ATOM    139  C   UNL A   1      52.148  36.916  25.468  1.00  0.00     0.200 A 
ATOM    140  F   UNL A   1      52.872  37.344  27.674  1.00  0.00    -0.200 F 
ATOM    141  F   UNL A   1      53.261  37.477  24.978  1.00  0.00    -0.200 F 
ENDBRANCH 107 131
ENDBRANCH  72  75
ENDBRANCH  62  65
ENDBRANCH  58  61
ENDBRANCH  55  58
ENDBRANCH  52  55
ENDBRANCH   1  52
TORSDOF 19
ENDMDL
MODEL 8
REMARK VINA RESULT:     -10.6      6.544     11.580
REMARK SMILES CC(=O)Nc1ccc(/C(=C\c2ccc(S(C)(=O)=O)cc2)C(=O)NCCCCCCNC(=O)c2ccc(-c3c4nc(c(-c5c(F)c(F)c(F)c(F)c5F)c5ccc([nH]5)c(-c5c(F)c(F)c(F)c(F)c5F)c5nc(c(-c6c(F)c(F)c(F)c(F)c6F)c6ccc3[nH]6)C=C5)C=C4)cc2)cc1
REMARK SMILES IDX 26 1 25 4 24 7 23 10 21 11 22 12 9 14 10 15 8 17 5 18 6 19
REMARK SMILES IDX 97 20 7 21 96 23 4 27 2 28 3 29 1 31 11 35 12 36 20 37 13 38
REMARK SMILES IDX 19 40 14 42 15 45 17 46 18 47 16 48 27 52 28 55 29 58 30 61
REMARK SMILES IDX 31 62 32 64 33 65 34 66 95 67 35 68 94 70 36 72 37 75 38 76
REMARK SMILES IDX 88 77 39 78 93 79 87 80 89 81 40 82 92 83 86 85 85 87 41 89
REMARK SMILES IDX 73 92 53 93 72 94 54 95 57 96 71 97 90 98 55 99 56 101
REMARK SMILES IDX 70 103 91 104 58 107 42 109 43 110 51 111 44 112 45 113
REMARK SMILES IDX 49 114 52 115 46 116 47 117 50 118 48 119 74 120 75 121
REMARK SMILES IDX 83 122 76 123 77 124 81 125 84 126 78 127 79 128 82 129
REMARK SMILES IDX 80 130 59 131 60 132 68 133 61 134 62 135 66 136 69 137
REMARK SMILES IDX 63 138 64 139 67 140 65 141
REMARK H PARENT 26 2 26 3 25 5 25 6 24 8 24 9 23 13 10 16 6 22 97 24 7 25
REMARK H PARENT 96 26 4 30 1 32 1 33 1 34 12 39 20 41 13 43 19 44 16 49 16 50
REMARK H PARENT 16 51 27 53 27 54 28 56 28 57 29 59 29 60 30 63 34 69 95 71
REMARK H PARENT 35 73 94 74 93 84 87 86 89 88 92 90 86 91 54 100 57 102 90 105
REMARK H PARENT 55 106 91 108
REMARK Flexibility Score: inf
ROOT
ATOM      1  C   UNL A   1      40.936  28.085  28.937  1.00  0.00    -0.052 C 
ATOM      2  H   UNL A   1      41.181  29.088  29.220  1.00  0.00     0.027 H 
ATOM      3  H   UNL A   1      41.779  27.524  28.591  1.00  0.00     0.027 H 
ENDROOT
BRANCH   1   4
ATOM      4  C   UNL A   1      39.948  28.149  27.760  1.00  0.00    -0.036 C 
ATOM      5  H   UNL A   1      38.982  27.856  28.113  1.00  0.00     0.028 H 
ATOM      6  H   UNL A   1      39.958  29.154  27.396  1.00  0.00     0.028 H 
BRANCH   4   7
ATOM      7  C   UNL A   1      40.335  27.240  26.590  1.00  0.00     0.018 C 
ATOM      8  H   UNL A   1      40.549  26.258  26.958  1.00  0.00     0.049 H 
ATOM      9  H   UNL A   1      39.524  27.192  25.893  1.00  0.00     0.049 H 
BRANCH   7  10
ATOM     10  N   UNL A   1      41.506  27.771  25.927  1.00  0.00    -0.352 N 
ATOM     11  C   UNL A   1      42.781  27.358  25.714  1.00  0.00     0.251 C 
ATOM     12  O   UNL A   1      43.467  28.194  25.122  1.00  0.00    -0.269 OA
ATOM     13  H   UNL A   1      41.335  28.655  25.530  1.00  0.00     0.163 HD
BRANCH  11  14
ATOM     14  C   UNL A   1      43.328  25.977  26.074  1.00  0.00     0.047 C 
ATOM     15  C   UNL A   1      43.386  25.025  25.111  1.00  0.00    -0.042 C 
ATOM     16  H   UNL A   1      42.876  25.243  24.241  1.00  0.00     0.064 H 
BRANCH  14  17
ATOM     17  C   UNL A   1      43.599  25.647  27.525  1.00  0.00    -0.013 A 
ATOM     18  C   UNL A   1      44.167  24.489  30.074  1.00  0.00     0.041 A 
ATOM     19  C   UNL A   1      45.112  25.282  29.420  1.00  0.00    -0.038 A 
ATOM     20  C   UNL A   1      42.894  24.430  29.537  1.00  0.00    -0.038 A 
ATOM     21  C   UNL A   1      44.818  25.879  28.179  1.00  0.00    -0.052 A 
ATOM     22  H   UNL A   1      46.037  25.431  29.851  1.00  0.00     0.064 H 
ATOM     23  C   UNL A   1      42.631  24.961  28.272  1.00  0.00    -0.052 A 
ATOM     24  H   UNL A   1      42.131  23.990  30.076  1.00  0.00     0.064 H 
ATOM     25  H   UNL A   1      45.515  26.503  27.742  1.00  0.00     0.063 H 
ATOM     26  H   UNL A   1      41.686  24.844  27.871  1.00  0.00     0.063 H 
BRANCH  18  27
ATOM     27  N   UNL A   1      44.563  23.797  31.230  1.00  0.00    -0.326 N 
ATOM     28  C   UNL A   1      44.682  24.193  32.533  1.00  0.00     0.221 C 
ATOM     29  O   UNL A   1      45.132  23.390  33.355  1.00  0.00    -0.275 OA
ATOM     30  H   UNL A   1      44.800  22.854  31.073  1.00  0.00     0.169 HD
BRANCH  28  31
ATOM     31  C   UNL A   1      44.227  25.556  32.985  1.00  0.00     0.015 C 
ATOM     32  H   UNL A   1      45.055  26.232  32.971  1.00  0.00     0.033 H 
ATOM     33  H   UNL A   1      43.838  25.490  33.981  1.00  0.00     0.033 H 
ATOM     34  H   UNL A   1      43.462  25.914  32.327  1.00  0.00     0.033 H 
ENDBRANCH  28  31
ENDBRANCH  18  27
ENDBRANCH  14  17
BRANCH  15  35
ATOM     35  C   UNL A   1      44.075  23.726  25.131  1.00  0.00    -0.025 A 
ATOM     36  C   UNL A   1      43.324  22.603  25.523  1.00  0.00    -0.054 A 
ATOM     37  C   UNL A   1      45.397  23.560  24.711  1.00  0.00    -0.054 A 
ATOM     38  C   UNL A   1      43.865  21.320  25.435  1.00  0.00    -0.043 A 
ATOM     39  H   UNL A   1      42.364  22.729  25.878  1.00  0.00     0.063 H 
ATOM     40  C   UNL A   1      45.945  22.274  24.620  1.00  0.00    -0.043 A 
ATOM     41  H   UNL A   1      45.970  24.384  24.468  1.00  0.00     0.063 H 
ATOM     42  C   UNL A   1      45.172  21.162  24.971  1.00  0.00     0.067 A 
ATOM     43  H   UNL A   1      43.306  20.497  25.709  1.00  0.00     0.064 H 
ATOM     44  H   UNL A   1      46.916  22.147  24.295  1.00  0.00     0.064 H 
BRANCH  42  45
ATOM     45  S   UNL A   1      45.793  19.517  24.698  1.00  0.00     0.175 S 
ATOM     46  O   UNL A   1      47.237  19.618  24.626  1.00  0.00    -0.224 OA
ATOM     47  O   UNL A   1      45.155  18.642  25.664  1.00  0.00    -0.224 OA
BRANCH  45  48
ATOM     48  C   UNL A   1      45.187  19.087  23.090  1.00  0.00     0.043 C 
ATOM     49  H   UNL A   1      44.223  19.526  22.942  1.00  0.00     0.040 H 
ATOM     50  H   UNL A   1      45.111  18.023  23.010  1.00  0.00     0.040 H 
ATOM     51  H   UNL A   1      45.863  19.453  22.344  1.00  0.00     0.040 H 
ENDBRANCH  45  48
ENDBRANCH  42  45
ENDBRANCH  15  35
ENDBRANCH  11  14
ENDBRANCH   7  10
ENDBRANCH   4   7
ENDBRANCH   1   4
BRANCH   1  52
ATOM     52  C   UNL A   1      40.415  27.354  30.180  1.00  0.00    -0.052 C 
ATOM     53  H   UNL A   1      40.966  27.704  31.029  1.00  0.00     0.027 H 
ATOM     54  H   UNL A   1      40.548  26.309  29.995  1.00  0.00     0.027 H 
BRANCH  52  55
ATOM     55  C   UNL A   1      38.925  27.556  30.465  1.00  0.00    -0.036 C 
ATOM     56  H   UNL A   1      38.384  26.749  30.016  1.00  0.00     0.028 H 
ATOM     57  H   UNL A   1      38.658  28.509  30.059  1.00  0.00     0.028 H 
BRANCH  55  58
ATOM     58  C   UNL A   1      38.577  27.599  31.948  1.00  0.00     0.018 C 
ATOM     59  H   UNL A   1      39.479  27.715  32.513  1.00  0.00     0.049 H 
ATOM     60  H   UNL A   1      38.082  26.684  32.202  1.00  0.00     0.049 H 
BRANCH  58  61
ATOM     61  N   UNL A   1      37.681  28.700  32.257  1.00  0.00    -0.352 N 
ATOM     62  C   UNL A   1      37.943  30.046  32.282  1.00  0.00     0.251 C 
ATOM     63  H   UNL A   1      36.758  28.444  32.482  1.00  0.00     0.163 HD
ATOM     64  O   UNL A   1      37.141  30.825  32.785  1.00  0.00    -0.269 OA
BRANCH  62  65
ATOM     65  C   UNL A   1      39.203  30.557  31.703  1.00  0.00     0.039 A 
ATOM     66  C   UNL A   1      39.199  31.043  30.393  1.00  0.00    -0.049 A 
ATOM     67  C   UNL A   1      40.390  30.533  32.443  1.00  0.00    -0.049 A 
ATOM     68  C   UNL A   1      40.379  31.542  29.838  1.00  0.00    -0.053 A 
ATOM     69  H   UNL A   1      38.329  31.033  29.839  1.00  0.00     0.063 H 
ATOM     70  C   UNL A   1      41.546  31.097  31.916  1.00  0.00    -0.053 A 
ATOM     71  H   UNL A   1      40.407  30.097  33.379  1.00  0.00     0.063 H 
ATOM     72  C   UNL A   1      41.557  31.593  30.603  1.00  0.00    -0.014 A 
ATOM     73  H   UNL A   1      40.386  31.875  28.861  1.00  0.00     0.063 H 
ATOM     74  H   UNL A   1      42.400  31.152  32.492  1.00  0.00     0.063 H 
BRANCH  72  75
ATOM     75  C   UNL A   1      42.819  32.127  30.036  1.00  0.00     0.031 A 
ATOM     76  C   UNL A   1      43.032  33.612  29.948  1.00  0.00     0.074 A 
ATOM     77  C   UNL A   1      43.745  31.279  29.548  1.00  0.00     0.049 A 
ATOM     78  N   UNL A   1      44.027  34.278  29.420  1.00  0.00    -0.248 NA
ATOM     79  C   UNL A   1      41.968  34.465  30.502  1.00  0.00    -0.034 C 
ATOM     80  C   UNL A   1      43.635  29.820  29.539  1.00  0.00    -0.036 A 
ATOM     81  N   UNL A   1      44.959  31.525  28.956  1.00  0.00    -0.354 N 
ATOM     82  C   UNL A   1      43.702  35.621  29.563  1.00  0.00     0.074 A 
ATOM     83  C   UNL A   1      42.392  35.676  30.175  1.00  0.00    -0.034 C 
ATOM     84  H   UNL A   1      41.114  34.191  31.013  1.00  0.00     0.065 H 
ATOM     85  C   UNL A   1      44.743  29.299  28.989  1.00  0.00    -0.036 A 
ATOM     86  H   UNL A   1      42.833  29.278  29.899  1.00  0.00     0.065 H 
ATOM     87  C   UNL A   1      45.625  30.386  28.574  1.00  0.00     0.049 A 
ATOM     88  H   UNL A   1      45.318  32.431  28.819  1.00  0.00     0.167 HD
ATOM     89  C   UNL A   1      44.439  36.709  29.237  1.00  0.00     0.037 A 
ATOM     90  H   UNL A   1      41.859  36.545  30.335  1.00  0.00     0.065 H 
ATOM     91  H   UNL A   1      44.941  28.292  28.878  1.00  0.00     0.065 H 
ATOM     92  C   UNL A   1      46.810  30.239  27.952  1.00  0.00     0.037 A 
ATOM     93  C   UNL A   1      45.754  36.647  28.656  1.00  0.00     0.049 A 
ATOM     94  C   UNL A   1      47.609  31.464  27.598  1.00  0.00     0.074 A 
ATOM     95  C   UNL A   1      46.608  37.689  28.340  1.00  0.00    -0.036 A 
ATOM     96  N   UNL A   1      46.406  35.475  28.302  1.00  0.00    -0.354 N 
ATOM     97  N   UNL A   1      47.320  32.727  27.795  1.00  0.00    -0.248 NA
ATOM     98  C   UNL A   1      48.905  31.242  26.942  1.00  0.00    -0.034 C 
ATOM     99  C   UNL A   1      47.758  37.150  27.753  1.00  0.00    -0.036 A 
ATOM    100  H   UNL A   1      46.428  38.692  28.509  1.00  0.00     0.065 H 
ATOM    101  C   UNL A   1      47.643  35.769  27.753  1.00  0.00     0.049 A 
ATOM    102  H   UNL A   1      46.043  34.568  28.424  1.00  0.00     0.167 HD
ATOM    103  C   UNL A   1      48.407  33.449  27.320  1.00  0.00     0.074 A 
ATOM    104  C   UNL A   1      49.369  32.480  26.835  1.00  0.00    -0.034 C 
ATOM    105  H   UNL A   1      49.341  30.356  26.644  1.00  0.00     0.065 H 
ATOM    106  H   UNL A   1      48.555  37.689  27.384  1.00  0.00     0.065 H 
ATOM    107  C   UNL A   1      48.593  34.791  27.287  1.00  0.00     0.037 A 
ATOM    108  H   UNL A   1      50.297  32.722  26.455  1.00  0.00     0.065 H 
BRANCH  89 109
ATOM    109  C   UNL A   1      43.840  38.060  29.504  1.00  0.00     0.064 A 
ATOM    110  C   UNL A   1      43.003  38.694  28.571  1.00  0.00     0.173 A 
ATOM    111  C   UNL A   1      44.079  38.717  30.720  1.00  0.00     0.173 A 
ATOM    112  F   UNL A   1      42.751  38.114  27.387  1.00  0.00    -0.203 F 
ATOM    113  C   UNL A   1      42.456  39.946  28.833  1.00  0.00     0.198 A 
ATOM    114  C   UNL A   1      43.504  39.957  30.991  1.00  0.00     0.198 A 
ATOM    115  F   UNL A   1      44.867  38.156  31.649  1.00  0.00    -0.203 F 
ATOM    116  F   UNL A   1      41.705  40.555  27.905  1.00  0.00    -0.200 F 
ATOM    117  C   UNL A   1      42.700  40.574  30.045  1.00  0.00     0.200 A 
ATOM    118  F   UNL A   1      43.731  40.554  32.169  1.00  0.00    -0.200 F 
ATOM    119  F   UNL A   1      42.168  41.777  30.298  1.00  0.00    -0.200 F 
ENDBRANCH  89 109
BRANCH  92 120
ATOM    120  C   UNL A   1      47.325  28.879  27.646  1.00  0.00     0.064 A 
ATOM    121  C   UNL A   1      48.036  28.146  28.608  1.00  0.00     0.173 A 
ATOM    122  C   UNL A   1      47.125  28.285  26.392  1.00  0.00     0.173 A 
ATOM    123  F   UNL A   1      48.270  28.679  29.816  1.00  0.00    -0.203 F 
ATOM    124  C   UNL A   1      48.548  26.883  28.318  1.00  0.00     0.198 A 
ATOM    125  C   UNL A   1      47.611  27.009  26.113  1.00  0.00     0.198 A 
ATOM    126  F   UNL A   1      46.445  28.941  25.439  1.00  0.00    -0.203 F 
ATOM    127  F   UNL A   1      49.265  26.225  29.239  1.00  0.00    -0.200 F 
ATOM    128  C   UNL A   1      48.329  26.313  27.073  1.00  0.00     0.200 A 
ATOM    129  F   UNL A   1      47.385  26.457  24.913  1.00  0.00    -0.200 F 
ATOM    130  F   UNL A   1      48.818  25.096  26.795  1.00  0.00    -0.200 F 
ENDBRANCH  92 120
BRANCH 107 131
ATOM    131  C   UNL A   1      49.902  35.292  26.749  1.00  0.00     0.064 A 
ATOM    132  C   UNL A   1      51.037  35.408  27.564  1.00  0.00     0.173 A 
ATOM    133  C   UNL A   1      50.030  35.620  25.391  1.00  0.00     0.173 A 
ATOM    134  F   UNL A   1      50.963  35.121  28.872  1.00  0.00    -0.203 F 
ATOM    135  C   UNL A   1      52.248  35.860  27.043  1.00  0.00     0.198 A 
ATOM    136  C   UNL A   1      51.250  36.041  24.868  1.00  0.00     0.198 A 
ATOM    137  F   UNL A   1      48.976  35.519  24.569  1.00  0.00    -0.203 F 
ATOM    138  F   UNL A   1      53.307  36.009  27.850  1.00  0.00    -0.200 F 
ATOM    139  C   UNL A   1      52.354  36.167  25.695  1.00  0.00     0.200 A 
ATOM    140  F   UNL A   1      51.355  36.323  23.562  1.00  0.00    -0.200 F 
ATOM    141  F   UNL A   1      53.522  36.593  25.195  1.00  0.00    -0.200 F 
ENDBRANCH 107 131
ENDBRANCH  72  75
ENDBRANCH  62  65
ENDBRANCH  58  61
ENDBRANCH  55  58
ENDBRANCH  52  55
ENDBRANCH   1  52
TORSDOF 19
ENDMDL
MODEL 9
REMARK VINA RESULT:     -10.6      3.340      8.635
REMARK SMILES CC(=O)Nc1ccc(/C(=C\c2ccc(S(C)(=O)=O)cc2)C(=O)NCCCCCCNC(=O)c2ccc(-c3c4nc(c(-c5c(F)c(F)c(F)c(F)c5F)c5ccc([nH]5)c(-c5c(F)c(F)c(F)c(F)c5F)c5nc(c(-c6c(F)c(F)c(F)c(F)c6F)c6ccc3[nH]6)C=C5)C=C4)cc2)cc1
REMARK SMILES IDX 26 1 25 4 24 7 23 10 21 11 22 12 9 14 10 15 8 17 5 18 6 19
REMARK SMILES IDX 97 20 7 21 96 23 4 27 2 28 3 29 1 31 11 35 12 36 20 37 13 38
REMARK SMILES IDX 19 40 14 42 15 45 17 46 18 47 16 48 27 52 28 55 29 58 30 61
REMARK SMILES IDX 31 62 32 64 33 65 34 66 95 67 35 68 94 70 36 72 37 75 38 76
REMARK SMILES IDX 88 77 39 78 93 79 87 80 89 81 40 82 92 83 86 85 85 87 41 89
REMARK SMILES IDX 73 92 53 93 72 94 54 95 57 96 71 97 90 98 55 99 56 101
REMARK SMILES IDX 70 103 91 104 58 107 42 109 43 110 51 111 44 112 45 113
REMARK SMILES IDX 49 114 52 115 46 116 47 117 50 118 48 119 74 120 75 121
REMARK SMILES IDX 83 122 76 123 77 124 81 125 84 126 78 127 79 128 82 129
REMARK SMILES IDX 80 130 59 131 60 132 68 133 61 134 62 135 66 136 69 137
REMARK SMILES IDX 63 138 64 139 67 140 65 141
REMARK H PARENT 26 2 26 3 25 5 25 6 24 8 24 9 23 13 10 16 6 22 97 24 7 25
REMARK H PARENT 96 26 4 30 1 32 1 33 1 34 12 39 20 41 13 43 19 44 16 49 16 50
REMARK H PARENT 16 51 27 53 27 54 28 56 28 57 29 59 29 60 30 63 34 69 95 71
REMARK H PARENT 35 73 94 74 93 84 87 86 89 88 92 90 86 91 54 100 57 102 90 105
REMARK H PARENT 55 106 91 108
REMARK Flexibility Score: inf
ROOT
ATOM      1  C   UNL A   1      35.129  31.077  28.083  1.00  0.00    -0.052 C 
ATOM      2  H   UNL A   1      36.180  31.034  27.882  1.00  0.00     0.027 H 
ATOM      3  H   UNL A   1      34.845  30.555  28.973  1.00  0.00     0.027 H 
ENDROOT
BRANCH   1   4
ATOM      4  C   UNL A   1      34.394  30.382  26.924  1.00  0.00    -0.036 C 
ATOM      5  H   UNL A   1      33.422  30.817  26.831  1.00  0.00     0.028 H 
ATOM      6  H   UNL A   1      34.988  30.523  26.045  1.00  0.00     0.028 H 
BRANCH   4   7
ATOM      7  C   UNL A   1      34.234  28.872  27.123  1.00  0.00     0.018 C 
ATOM      8  H   UNL A   1      34.375  28.373  26.186  1.00  0.00     0.049 H 
ATOM      9  H   UNL A   1      34.963  28.526  27.826  1.00  0.00     0.049 H 
BRANCH   7  10
ATOM     10  N   UNL A   1      32.908  28.585  27.626  1.00  0.00    -0.352 N 
ATOM     11  C   UNL A   1      31.935  27.678  27.357  1.00  0.00     0.251 C 
ATOM     12  O   UNL A   1      30.913  27.853  28.025  1.00  0.00    -0.269 OA
ATOM     13  H   UNL A   1      32.646  29.203  28.345  1.00  0.00     0.163 HD
BRANCH  11  14
ATOM     14  C   UNL A   1      32.078  26.495  26.399  1.00  0.00     0.047 C 
ATOM     15  C   UNL A   1      32.425  25.285  26.901  1.00  0.00    -0.042 C 
ATOM     16  H   UNL A   1      32.758  25.290  27.878  1.00  0.00     0.064 H 
BRANCH  14  17
ATOM     17  C   UNL A   1      32.026  26.744  24.908  1.00  0.00    -0.013 A 
ATOM     18  C   UNL A   1      32.153  26.691  22.055  1.00  0.00     0.041 A 
ATOM     19  C   UNL A   1      30.930  26.590  22.720  1.00  0.00    -0.038 A 
ATOM     20  C   UNL A   1      33.273  26.995  22.808  1.00  0.00    -0.038 A 
ATOM     21  C   UNL A   1      30.866  26.650  24.126  1.00  0.00    -0.052 A 
ATOM     22  H   UNL A   1      30.062  26.469  22.175  1.00  0.00     0.064 H 
ATOM     23  C   UNL A   1      33.216  26.979  24.203  1.00  0.00    -0.052 A 
ATOM     24  H   UNL A   1      34.158  27.236  22.334  1.00  0.00     0.064 H 
ATOM     25  H   UNL A   1      29.944  26.626  24.590  1.00  0.00     0.063 H 
ATOM     26  H   UNL A   1      34.083  27.147  24.737  1.00  0.00     0.063 H 
BRANCH  18  27
ATOM     27  N   UNL A   1      32.177  26.473  20.667  1.00  0.00    -0.326 N 
ATOM     28  C   UNL A   1      32.556  25.392  19.922  1.00  0.00     0.221 C 
ATOM     29  O   UNL A   1      32.550  25.492  18.692  1.00  0.00    -0.275 OA
ATOM     30  H   UNL A   1      31.865  27.240  20.134  1.00  0.00     0.169 HD
BRANCH  28  31
ATOM     31  C   UNL A   1      32.923  24.081  20.568  1.00  0.00     0.015 C 
ATOM     32  H   UNL A   1      32.493  24.032  21.545  1.00  0.00     0.033 H 
ATOM     33  H   UNL A   1      33.989  24.007  20.643  1.00  0.00     0.033 H 
ATOM     34  H   UNL A   1      32.551  23.273  19.972  1.00  0.00     0.033 H 
ENDBRANCH  28  31
ENDBRANCH  18  27
ENDBRANCH  14  17
BRANCH  15  35
ATOM     35  C   UNL A   1      32.394  23.967  26.250  1.00  0.00    -0.025 A 
ATOM     36  C   UNL A   1      33.538  23.576  25.529  1.00  0.00    -0.054 A 
ATOM     37  C   UNL A   1      31.325  23.079  26.382  1.00  0.00    -0.054 A 
ATOM     38  C   UNL A   1      33.640  22.289  25.002  1.00  0.00    -0.043 A 
ATOM     39  H   UNL A   1      34.309  24.247  25.390  1.00  0.00     0.063 H 
ATOM     40  C   UNL A   1      31.422  21.785  25.854  1.00  0.00    -0.043 A 
ATOM     41  H   UNL A   1      30.463  23.375  26.867  1.00  0.00     0.063 H 
ATOM     42  C   UNL A   1      32.583  21.394  25.179  1.00  0.00     0.067 A 
ATOM     43  H   UNL A   1      34.486  22.000  24.487  1.00  0.00     0.064 H 
ATOM     44  H   UNL A   1      30.639  21.121  25.965  1.00  0.00     0.064 H 
BRANCH  42  45
ATOM     45  S   UNL A   1      32.791  19.706  24.656  1.00  0.00     0.175 S 
ATOM     46  O   UNL A   1      32.136  18.874  25.647  1.00  0.00    -0.224 OA
ATOM     47  O   UNL A   1      32.415  19.632  23.257  1.00  0.00    -0.224 OA
BRANCH  45  48
ATOM     48  C   UNL A   1      34.537  19.430  24.768  1.00  0.00     0.043 C 
ATOM     49  H   UNL A   1      34.776  19.045  25.737  1.00  0.00     0.040 H 
ATOM     50  H   UNL A   1      35.054  20.353  24.613  1.00  0.00     0.040 H 
ATOM     51  H   UNL A   1      34.835  18.724  24.021  1.00  0.00     0.040 H 
ENDBRANCH  45  48
ENDBRANCH  42  45
ENDBRANCH  15  35
ENDBRANCH  11  14
ENDBRANCH   7  10
ENDBRANCH   4   7
ENDBRANCH   1   4
BRANCH   1  52
ATOM     52  C   UNL A   1      34.746  32.544  28.304  1.00  0.00    -0.052 C 
ATOM     53  H   UNL A   1      33.771  32.701  27.891  1.00  0.00     0.027 H 
ATOM     54  H   UNL A   1      35.504  33.131  27.827  1.00  0.00     0.027 H 
BRANCH  52  55
ATOM     55  C   UNL A   1      34.718  32.985  29.769  1.00  0.00    -0.036 C 
ATOM     56  H   UNL A   1      33.792  33.490  29.951  1.00  0.00     0.028 H 
ATOM     57  H   UNL A   1      35.569  33.615  29.919  1.00  0.00     0.028 H 
BRANCH  55  58
ATOM     58  C   UNL A   1      34.840  31.838  30.764  1.00  0.00     0.018 C 
ATOM     59  H   UNL A   1      35.579  31.148  30.411  1.00  0.00     0.049 H 
ATOM     60  H   UNL A   1      33.884  31.364  30.848  1.00  0.00     0.049 H 
BRANCH  58  61
ATOM     61  N   UNL A   1      35.229  32.310  32.083  1.00  0.00    -0.352 N 
ATOM     62  C   UNL A   1      36.435  32.187  32.724  1.00  0.00     0.251 C 
ATOM     63  H   UNL A   1      34.528  32.784  32.585  1.00  0.00     0.163 HD
ATOM     64  O   UNL A   1      36.529  32.437  33.921  1.00  0.00    -0.269 OA
BRANCH  62  65
ATOM     65  C   UNL A   1      37.624  31.742  31.968  1.00  0.00     0.039 A 
ATOM     66  C   UNL A   1      38.443  30.751  32.515  1.00  0.00    -0.049 A 
ATOM     67  C   UNL A   1      37.943  32.320  30.735  1.00  0.00    -0.049 A 
ATOM     68  C   UNL A   1      39.561  30.311  31.806  1.00  0.00    -0.053 A 
ATOM     69  H   UNL A   1      38.222  30.347  33.438  1.00  0.00     0.063 H 
ATOM     70  C   UNL A   1      39.015  31.830  29.997  1.00  0.00    -0.053 A 
ATOM     71  H   UNL A   1      37.384  33.109  30.374  1.00  0.00     0.063 H 
ATOM     72  C   UNL A   1      39.844  30.832  30.532  1.00  0.00    -0.014 A 
ATOM     73  H   UNL A   1      40.184  29.599  32.219  1.00  0.00     0.063 H 
ATOM     74  H   UNL A   1      39.202  32.201  29.053  1.00  0.00     0.063 H 
BRANCH  72  75
ATOM     75  C   UNL A   1      41.023  30.372  29.757  1.00  0.00     0.031 A 
ATOM     76  C   UNL A   1      41.039  28.990  29.167  1.00  0.00     0.074 A 
ATOM     77  C   UNL A   1      42.098  31.174  29.635  1.00  0.00     0.049 A 
ATOM     78  N   UNL A   1      41.998  28.372  28.525  1.00  0.00    -0.248 NA
ATOM     79  C   UNL A   1      39.824  28.179  29.351  1.00  0.00    -0.034 C 
ATOM     80  C   UNL A   1      42.217  32.520  30.196  1.00  0.00    -0.036 A 
ATOM     81  N   UNL A   1      43.299  30.969  29.004  1.00  0.00    -0.354 N 
ATOM     82  C   UNL A   1      41.509  27.103  28.244  1.00  0.00     0.074 A 
ATOM     83  C   UNL A   1      40.192  27.017  28.835  1.00  0.00    -0.034 C 
ATOM     84  H   UNL A   1      38.920  28.448  29.772  1.00  0.00     0.065 H 
ATOM     85  C   UNL A   1      43.416  33.028  29.870  1.00  0.00    -0.036 A 
ATOM     86  H   UNL A   1      41.495  33.002  30.755  1.00  0.00     0.065 H 
ATOM     87  C   UNL A   1      44.163  32.031  29.108  1.00  0.00     0.049 A 
ATOM     88  H   UNL A   1      43.521  30.139  28.525  1.00  0.00     0.167 HD
ATOM     89  C   UNL A   1      42.096  26.109  27.536  1.00  0.00     0.037 A 
ATOM     90  H   UNL A   1      39.615  26.161  28.852  1.00  0.00     0.065 H 
ATOM     91  H   UNL A   1      43.754  33.971  30.117  1.00  0.00     0.065 H 
ATOM     92  C   UNL A   1      45.419  32.181  28.645  1.00  0.00     0.037 A 
ATOM     93  C   UNL A   1      43.395  26.212  26.925  1.00  0.00     0.049 A 
ATOM     94  C   UNL A   1      46.049  31.060  27.863  1.00  0.00     0.074 A 
ATOM     95  C   UNL A   1      44.055  25.284  26.139  1.00  0.00    -0.036 A 
ATOM     96  N   UNL A   1      44.232  27.313  27.032  1.00  0.00    -0.354 N 
ATOM     97  N   UNL A   1      45.553  29.887  27.549  1.00  0.00    -0.248 NA
ATOM     98  C   UNL A   1      47.411  31.287  27.361  1.00  0.00    -0.034 C 
ATOM     99  C   UNL A   1      45.311  25.805  25.809  1.00  0.00    -0.036 A 
ATOM    100  H   UNL A   1      43.684  24.366  25.846  1.00  0.00     0.065 H 
ATOM    101  C   UNL A   1      45.411  27.079  26.343  1.00  0.00     0.049 A 
ATOM    102  H   UNL A   1      44.018  28.139  27.524  1.00  0.00     0.167 HD
ATOM    103  C   UNL A   1      46.526  29.250  26.789  1.00  0.00     0.074 A 
ATOM    104  C   UNL A   1      47.636  30.173  26.678  1.00  0.00    -0.034 C 
ATOM    105  H   UNL A   1      48.030  32.100  27.503  1.00  0.00     0.065 H 
ATOM    106  H   UNL A   1      46.038  25.322  25.261  1.00  0.00     0.065 H 
ATOM    107  C   UNL A   1      46.502  28.015  26.234  1.00  0.00     0.037 A 
ATOM    108  H   UNL A   1      48.495  29.988  26.135  1.00  0.00     0.065 H 
BRANCH  89 109
ATOM    109  C   UNL A   1      41.335  24.823  27.382  1.00  0.00     0.064 A 
ATOM    110  C   UNL A   1      40.208  24.728  26.551  1.00  0.00     0.173 A 
ATOM    111  C   UNL A   1      41.755  23.663  28.049  1.00  0.00     0.173 A 
ATOM    112  F   UNL A   1      39.756  25.811  25.899  1.00  0.00    -0.203 F 
ATOM    113  C   UNL A   1      39.513  23.529  26.418  1.00  0.00     0.198 A 
ATOM    114  C   UNL A   1      41.075  22.457  27.889  1.00  0.00     0.198 A 
ATOM    115  F   UNL A   1      42.828  23.695  28.853  1.00  0.00    -0.203 F 
ATOM    116  F   UNL A   1      38.407  23.477  25.661  1.00  0.00    -0.200 F 
ATOM    117  C   UNL A   1      39.951  22.393  27.081  1.00  0.00     0.200 A 
ATOM    118  F   UNL A   1      41.509  21.358  28.520  1.00  0.00    -0.200 F 
ATOM    119  F   UNL A   1      39.284  21.239  26.948  1.00  0.00    -0.200 F 
ENDBRANCH  89 109
BRANCH  92 120
ATOM    120  C   UNL A   1      46.155  33.449  28.886  1.00  0.00     0.064 A 
ATOM    121  C   UNL A   1      46.081  34.509  27.971  1.00  0.00     0.173 A 
ATOM    122  C   UNL A   1      46.949  33.628  30.028  1.00  0.00     0.173 A 
ATOM    123  F   UNL A   1      45.350  34.378  26.854  1.00  0.00    -0.203 F 
ATOM    124  C   UNL A   1      46.791  35.689  28.176  1.00  0.00     0.198 A 
ATOM    125  C   UNL A   1      47.635  34.821  30.247  1.00  0.00     0.198 A 
ATOM    126  F   UNL A   1      47.047  32.648  30.938  1.00  0.00    -0.203 F 
ATOM    127  F   UNL A   1      46.742  36.667  27.262  1.00  0.00    -0.200 F 
ATOM    128  C   UNL A   1      47.564  35.846  29.317  1.00  0.00     0.200 A 
ATOM    129  F   UNL A   1      48.369  34.973  31.359  1.00  0.00    -0.200 F 
ATOM    130  F   UNL A   1      48.245  36.983  29.517  1.00  0.00    -0.200 F 
ENDBRANCH  92 120
BRANCH 107 131
ATOM    131  C   UNL A   1      47.693  27.602  25.418  1.00  0.00     0.064 A 
ATOM    132  C   UNL A   1      47.729  27.777  24.027  1.00  0.00     0.173 A 
ATOM    133  C   UNL A   1      48.828  27.065  26.044  1.00  0.00     0.173 A 
ATOM    134  F   UNL A   1      46.664  28.272  23.380  1.00  0.00    -0.203 F 
ATOM    135  C   UNL A   1      48.850  27.403  23.289  1.00  0.00     0.198 A 
ATOM    136  C   UNL A   1      49.958  26.722  25.307  1.00  0.00     0.198 A 
ATOM    137  F   UNL A   1      48.846  26.886  27.373  1.00  0.00    -0.203 F 
ATOM    138  F   UNL A   1      48.844  27.533  21.955  1.00  0.00    -0.200 F 
ATOM    139  C   UNL A   1      49.965  26.885  23.930  1.00  0.00     0.200 A 
ATOM    140  F   UNL A   1      51.040  26.236  25.930  1.00  0.00    -0.200 F 
ATOM    141  F   UNL A   1      51.045  26.534  23.219  1.00  0.00    -0.200 F 
ENDBRANCH 107 131
ENDBRANCH  72  75
ENDBRANCH  62  65
ENDBRANCH  58  61
ENDBRANCH  55  58
ENDBRANCH  52  55
ENDBRANCH   1  52
TORSDOF 19
ENDMDL
MODEL 10
REMARK VINA RESULT:     -10.6      7.372     11.134
REMARK SMILES CC(=O)Nc1ccc(/C(=C\c2ccc(S(C)(=O)=O)cc2)C(=O)NCCCCCCNC(=O)c2ccc(-c3c4nc(c(-c5c(F)c(F)c(F)c(F)c5F)c5ccc([nH]5)c(-c5c(F)c(F)c(F)c(F)c5F)c5nc(c(-c6c(F)c(F)c(F)c(F)c6F)c6ccc3[nH]6)C=C5)C=C4)cc2)cc1
REMARK SMILES IDX 26 1 25 4 24 7 23 10 21 11 22 12 9 14 10 15 8 17 5 18 6 19
REMARK SMILES IDX 97 20 7 21 96 23 4 27 2 28 3 29 1 31 11 35 12 36 20 37 13 38
REMARK SMILES IDX 19 40 14 42 15 45 17 46 18 47 16 48 27 52 28 55 29 58 30 61
REMARK SMILES IDX 31 62 32 64 33 65 34 66 95 67 35 68 94 70 36 72 37 75 38 76
REMARK SMILES IDX 88 77 39 78 93 79 87 80 89 81 40 82 92 83 86 85 85 87 41 89
REMARK SMILES IDX 73 92 53 93 72 94 54 95 57 96 71 97 90 98 55 99 56 101
REMARK SMILES IDX 70 103 91 104 58 107 42 109 43 110 51 111 44 112 45 113
REMARK SMILES IDX 49 114 52 115 46 116 47 117 50 118 48 119 74 120 75 121
REMARK SMILES IDX 83 122 76 123 77 124 81 125 84 126 78 127 79 128 82 129
REMARK SMILES IDX 80 130 59 131 60 132 68 133 61 134 62 135 66 136 69 137
REMARK SMILES IDX 63 138 64 139 67 140 65 141
REMARK H PARENT 26 2 26 3 25 5 25 6 24 8 24 9 23 13 10 16 6 22 97 24 7 25
REMARK H PARENT 96 26 4 30 1 32 1 33 1 34 12 39 20 41 13 43 19 44 16 49 16 50
REMARK H PARENT 16 51 27 53 27 54 28 56 28 57 29 59 29 60 30 63 34 69 95 71
REMARK H PARENT 35 73 94 74 93 84 87 86 89 88 92 90 86 91 54 100 57 102 90 105
REMARK H PARENT 55 106 91 108
REMARK Flexibility Score: inf
ROOT
ATOM      1  C   UNL A   1      41.016  29.821  32.127  1.00  0.00    -0.052 C 
ATOM      2  H   UNL A   1      40.274  29.187  32.565  1.00  0.00     0.027 H 
ATOM      3  H   UNL A   1      41.244  30.681  32.721  1.00  0.00     0.027 H 
ENDROOT
BRANCH   1   4
ATOM      4  C   UNL A   1      40.462  30.352  30.794  1.00  0.00    -0.036 C 
ATOM      5  H   UNL A   1      40.206  31.383  30.922  1.00  0.00     0.028 H 
ATOM      6  H   UNL A   1      41.226  30.213  30.059  1.00  0.00     0.028 H 
BRANCH   4   7
ATOM      7  C   UNL A   1      39.222  29.599  30.306  1.00  0.00     0.018 C 
ATOM      8  H   UNL A   1      38.568  30.279  29.802  1.00  0.00     0.049 H 
ATOM      9  H   UNL A   1      39.520  28.822  29.632  1.00  0.00     0.049 H 
BRANCH   7  10
ATOM     10  N   UNL A   1      38.531  29.015  31.435  1.00  0.00    -0.352 N 
ATOM     11  C   UNL A   1      37.728  29.467  32.431  1.00  0.00     0.251 C 
ATOM     12  O   UNL A   1      37.404  28.584  33.229  1.00  0.00    -0.269 OA
ATOM     13  H   UNL A   1      38.682  28.044  31.497  1.00  0.00     0.163 HD
BRANCH  11  14
ATOM     14  C   UNL A   1      37.185  30.892  32.542  1.00  0.00     0.047 C 
ATOM     15  C   UNL A   1      36.150  31.261  31.748  1.00  0.00    -0.042 C 
ATOM     16  H   UNL A   1      35.923  30.607  30.983  1.00  0.00     0.064 H 
BRANCH  14  17
ATOM     17  C   UNL A   1      37.936  31.903  33.379  1.00  0.00    -0.013 A 
ATOM     18  C   UNL A   1      38.998  34.189  34.722  1.00  0.00     0.041 A 
ATOM     19  C   UNL A   1      38.232  33.246  35.409  1.00  0.00    -0.038 A 
ATOM     20  C   UNL A   1      39.373  33.893  33.424  1.00  0.00    -0.038 A 
ATOM     21  C   UNL A   1      37.737  32.102  34.753  1.00  0.00    -0.052 A 
ATOM     22  H   UNL A   1      38.025  33.390  36.410  1.00  0.00     0.064 H 
ATOM     23  C   UNL A   1      38.820  32.797  32.758  1.00  0.00    -0.052 A 
ATOM     24  H   UNL A   1      40.069  34.486  32.944  1.00  0.00     0.064 H 
ATOM     25  H   UNL A   1      37.219  31.394  35.296  1.00  0.00     0.063 H 
ATOM     26  H   UNL A   1      39.071  32.639  31.769  1.00  0.00     0.063 H 
BRANCH  18  27
ATOM     27  N   UNL A   1      39.336  35.382  35.382  1.00  0.00    -0.326 N 
ATOM     28  C   UNL A   1      39.576  35.657  36.700  1.00  0.00     0.221 C 
ATOM     29  O   UNL A   1      39.783  36.827  37.030  1.00  0.00    -0.275 OA
ATOM     30  H   UNL A   1      39.414  36.163  34.788  1.00  0.00     0.169 HD
BRANCH  28  31
ATOM     31  C   UNL A   1      39.645  34.561  37.732  1.00  0.00     0.015 C 
ATOM     32  H   UNL A   1      39.948  33.649  37.265  1.00  0.00     0.033 H 
ATOM     33  H   UNL A   1      38.680  34.430  38.177  1.00  0.00     0.033 H 
ATOM     34  H   UNL A   1      40.353  34.827  38.490  1.00  0.00     0.033 H 
ENDBRANCH  28  31
ENDBRANCH  18  27
ENDBRANCH  14  17
BRANCH  15  35
ATOM     35  C   UNL A   1      35.305  32.462  31.825  1.00  0.00    -0.025 A 
ATOM     36  C   UNL A   1      34.708  32.753  33.066  1.00  0.00    -0.054 A 
ATOM     37  C   UNL A   1      35.140  33.345  30.756  1.00  0.00    -0.054 A 
ATOM     38  C   UNL A   1      34.009  33.945  33.256  1.00  0.00    -0.043 A 
ATOM     39  H   UNL A   1      34.789  32.079  33.843  1.00  0.00     0.063 H 
ATOM     40  C   UNL A   1      34.439  34.544  30.941  1.00  0.00    -0.043 A 
ATOM     41  H   UNL A   1      35.534  33.115  29.829  1.00  0.00     0.063 H 
ATOM     42  C   UNL A   1      33.889  34.841  32.192  1.00  0.00     0.067 A 
ATOM     43  H   UNL A   1      33.585  34.162  34.171  1.00  0.00     0.064 H 
ATOM     44  H   UNL A   1      34.330  35.205  30.156  1.00  0.00     0.064 H 
BRANCH  42  45
ATOM     45  S   UNL A   1      33.147  36.431  32.490  1.00  0.00     0.175 S 
ATOM     46  O   UNL A   1      31.742  36.197  32.761  1.00  0.00    -0.224 OA
ATOM     47  O   UNL A   1      33.982  37.132  33.447  1.00  0.00    -0.224 OA
BRANCH  45  48
ATOM     48  C   UNL A   1      33.279  37.268  30.934  1.00  0.00     0.043 C 
ATOM     49  H   UNL A   1      32.518  38.017  30.867  1.00  0.00     0.040 H 
ATOM     50  H   UNL A   1      33.157  36.564  30.139  1.00  0.00     0.040 H 
ATOM     51  H   UNL A   1      34.242  37.730  30.858  1.00  0.00     0.040 H 
ENDBRANCH  45  48
ENDBRANCH  42  45
ENDBRANCH  15  35
ENDBRANCH  11  14
ENDBRANCH   7  10
ENDBRANCH   4   7
ENDBRANCH   1   4
BRANCH   1  52
ATOM     52  C   UNL A   1      42.319  29.020  32.013  1.00  0.00    -0.052 C 
ATOM     53  H   UNL A   1      43.121  29.637  32.363  1.00  0.00     0.027 H 
ATOM     54  H   UNL A   1      42.417  28.747  30.983  1.00  0.00     0.027 H 
BRANCH  52  55
ATOM     55  C   UNL A   1      42.340  27.715  32.811  1.00  0.00    -0.036 C 
ATOM     56  H   UNL A   1      43.179  27.740  33.475  1.00  0.00     0.028 H 
ATOM     57  H   UNL A   1      42.399  26.918  32.100  1.00  0.00     0.028 H 
BRANCH  55  58
ATOM     58  C   UNL A   1      41.083  27.473  33.638  1.00  0.00     0.018 C 
ATOM     59  H   UNL A   1      40.525  26.674  33.196  1.00  0.00     0.049 H 
ATOM     60  H   UNL A   1      40.511  28.378  33.650  1.00  0.00     0.049 H 
BRANCH  58  61
ATOM     61  N   UNL A   1      41.404  27.122  35.011  1.00  0.00    -0.352 N 
ATOM     62  C   UNL A   1      42.054  27.864  35.964  1.00  0.00     0.251 C 
ATOM     63  H   UNL A   1      41.115  26.225  35.297  1.00  0.00     0.163 HD
ATOM     64  O   UNL A   1      42.448  27.337  36.999  1.00  0.00    -0.269 OA
BRANCH  62  65
ATOM     65  C   UNL A   1      42.287  29.305  35.735  1.00  0.00     0.039 A 
ATOM     66  C   UNL A   1      41.194  30.176  35.738  1.00  0.00    -0.049 A 
ATOM     67  C   UNL A   1      43.576  29.791  35.495  1.00  0.00    -0.049 A 
ATOM     68  C   UNL A   1      41.399  31.542  35.538  1.00  0.00    -0.053 A 
ATOM     69  H   UNL A   1      40.240  29.811  35.887  1.00  0.00     0.063 H 
ATOM     70  C   UNL A   1      43.787  31.160  35.369  1.00  0.00    -0.053 A 
ATOM     71  H   UNL A   1      44.368  29.135  35.410  1.00  0.00     0.063 H 
ATOM     72  C   UNL A   1      42.700  32.047  35.373  1.00  0.00    -0.014 A 
ATOM     73  H   UNL A   1      40.591  32.184  35.511  1.00  0.00     0.063 H 
ATOM     74  H   UNL A   1      44.747  31.526  35.272  1.00  0.00     0.063 H 
BRANCH  72  75
ATOM     75  C   UNL A   1      42.941  33.497  35.168  1.00  0.00     0.031 A 
ATOM     76  C   UNL A   1      43.051  34.048  33.774  1.00  0.00     0.074 A 
ATOM     77  C   UNL A   1      43.119  34.303  36.232  1.00  0.00     0.049 A 
ATOM     78  N   UNL A   1      43.334  35.265  33.382  1.00  0.00    -0.248 NA
ATOM     79  C   UNL A   1      42.848  33.096  32.670  1.00  0.00    -0.034 C 
ATOM     80  C   UNL A   1      43.076  33.878  37.632  1.00  0.00    -0.036 A 
ATOM     81  N   UNL A   1      43.381  35.648  36.301  1.00  0.00    -0.354 N 
ATOM     82  C   UNL A   1      43.357  35.219  31.995  1.00  0.00     0.074 A 
ATOM     83  C   UNL A   1      43.117  33.845  31.612  1.00  0.00    -0.034 C 
ATOM     84  H   UNL A   1      42.566  32.104  32.710  1.00  0.00     0.065 H 
ATOM     85  C   UNL A   1      43.284  34.944  38.421  1.00  0.00    -0.036 A 
ATOM     86  H   UNL A   1      42.912  32.913  37.959  1.00  0.00     0.065 H 
ATOM     87  C   UNL A   1      43.511  36.119  37.584  1.00  0.00     0.049 A 
ATOM     88  H   UNL A   1      43.469  36.221  35.505  1.00  0.00     0.167 HD
ATOM     89  C   UNL A   1      43.536  36.236  31.118  1.00  0.00     0.037 A 
ATOM     90  H   UNL A   1      43.152  33.495  30.642  1.00  0.00     0.065 H 
ATOM     91  H   UNL A   1      43.282  34.935  39.453  1.00  0.00     0.065 H 
ATOM     92  C   UNL A   1      43.788  37.358  38.033  1.00  0.00     0.037 A 
ATOM     93  C   UNL A   1      43.744  37.607  31.505  1.00  0.00     0.049 A 
ATOM     94  C   UNL A   1      43.985  38.470  37.039  1.00  0.00     0.074 A 
ATOM     95  C   UNL A   1      43.880  38.721  30.696  1.00  0.00    -0.036 A 
ATOM     96  N   UNL A   1      43.847  38.049  32.816  1.00  0.00    -0.354 N 
ATOM     97  N   UNL A   1      43.942  38.428  35.729  1.00  0.00    -0.248 NA
ATOM     98  C   UNL A   1      44.261  39.806  37.586  1.00  0.00    -0.034 C 
ATOM     99  C   UNL A   1      44.111  39.831  31.516  1.00  0.00    -0.036 A 
ATOM    100  H   UNL A   1      43.820  38.731  29.665  1.00  0.00     0.065 H 
ATOM    101  C   UNL A   1      44.065  39.418  32.837  1.00  0.00     0.049 A 
ATOM    102  H   UNL A   1      43.775  37.476  33.613  1.00  0.00     0.167 HD
ATOM    103  C   UNL A   1      44.152  39.731  35.296  1.00  0.00     0.074 A 
ATOM    104  C   UNL A   1      44.310  40.543  36.486  1.00  0.00    -0.034 C 
ATOM    105  H   UNL A   1      44.384  40.094  38.569  1.00  0.00     0.065 H 
ATOM    106  H   UNL A   1      44.286  40.794  31.190  1.00  0.00     0.065 H 
ATOM    107  C   UNL A   1      44.208  40.212  34.031  1.00  0.00     0.037 A 
ATOM    108  H   UNL A   1      44.443  41.567  36.477  1.00  0.00     0.065 H 
BRANCH  89 109
ATOM    109  C   UNL A   1      43.512  35.904  29.653  1.00  0.00     0.064 A 
ATOM    110  C   UNL A   1      42.312  35.861  28.927  1.00  0.00     0.173 A 
ATOM    111  C   UNL A   1      44.706  35.656  28.960  1.00  0.00     0.173 A 
ATOM    112  F   UNL A   1      41.140  36.079  29.545  1.00  0.00    -0.203 F 
ATOM    113  C   UNL A   1      42.306  35.552  27.570  1.00  0.00     0.198 A 
ATOM    114  C   UNL A   1      44.698  35.378  27.595  1.00  0.00     0.198 A 
ATOM    115  F   UNL A   1      45.882  35.688  29.604  1.00  0.00    -0.203 F 
ATOM    116  F   UNL A   1      41.142  35.463  26.910  1.00  0.00    -0.200 F 
ATOM    117  C   UNL A   1      43.498  35.318  26.903  1.00  0.00     0.200 A 
ATOM    118  F   UNL A   1      45.853  35.166  26.950  1.00  0.00    -0.200 F 
ATOM    119  F   UNL A   1      43.491  35.025  25.596  1.00  0.00    -0.200 F 
ENDBRANCH  89 109
BRANCH  92 120
ATOM    120  C   UNL A   1      43.870  37.618  39.494  1.00  0.00     0.064 A 
ATOM    121  C   UNL A   1      45.080  37.461  40.186  1.00  0.00     0.173 A 
ATOM    122  C   UNL A   1      42.747  38.023  40.229  1.00  0.00     0.173 A 
ATOM    123  F   UNL A   1      46.178  37.057  39.530  1.00  0.00    -0.203 F 
ATOM    124  C   UNL A   1      45.157  37.675  41.560  1.00  0.00     0.198 A 
ATOM    125  C   UNL A   1      42.832  38.265  41.599  1.00  0.00     0.198 A 
ATOM    126  F   UNL A   1      41.567  38.195  39.614  1.00  0.00    -0.203 F 
ATOM    127  F   UNL A   1      46.313  37.470  42.204  1.00  0.00    -0.200 F 
ATOM    128  C   UNL A   1      44.035  38.083  42.265  1.00  0.00     0.200 A 
ATOM    129  F   UNL A   1      41.748  38.673  42.273  1.00  0.00    -0.200 F 
ATOM    130  F   UNL A   1      44.109  38.292  43.587  1.00  0.00    -0.200 F 
ENDBRANCH  92 120
BRANCH 107 131
ATOM    131  C   UNL A   1      44.407  41.690  33.863  1.00  0.00     0.064 A 
ATOM    132  C   UNL A   1      45.687  42.252  33.743  1.00  0.00     0.173 A 
ATOM    133  C   UNL A   1      43.301  42.549  33.779  1.00  0.00     0.173 A 
ATOM    134  F   UNL A   1      46.777  41.477  33.832  1.00  0.00    -0.203 F 
ATOM    135  C   UNL A   1      45.851  43.625  33.573  1.00  0.00     0.198 A 
ATOM    136  C   UNL A   1      43.468  43.916  33.577  1.00  0.00     0.198 A 
ATOM    137  F   UNL A   1      42.056  42.059  33.880  1.00  0.00    -0.203 F 
ATOM    138  F   UNL A   1      47.084  44.147  33.509  1.00  0.00    -0.200 F 
ATOM    139  C   UNL A   1      44.742  44.453  33.481  1.00  0.00     0.200 A 
ATOM    140  F   UNL A   1      42.395  44.712  33.473  1.00  0.00    -0.200 F 
ATOM    141  F   UNL A   1      44.903  45.772  33.307  1.00  0.00    -0.200 F 
ENDBRANCH 107 131
ENDBRANCH  72  75
ENDBRANCH  62  65
ENDBRANCH  58  61
ENDBRANCH  55  58
ENDBRANCH  52  55
ENDBRANCH   1  52
TORSDOF 19
ENDMDL
