MODEL 1
REMARK VINA RESULT:     -12.8      0.000      0.000
REMARK SMILES C[C@@H](C(=O)NCCCCCCNC(=O)c1ccc(-c2c3nc(c(-c4c(F)c(F)c(F)c(F)c4F)c4ccc([nH]4)c(-c4c(F)c(F)c(F)c(F)c4F)c4nc(c(-c5c(F)c(F)c(F)c(F)c5F)c5ccc2[nH]5)C=C4)C=C3)cc1)c1ccc(C[C@H]2CCCC2=O)cc1-c1ccccc1
REMARK SMILES IDX 8 1 7 4 6 7 5 10 3 11 4 12 2 14 1 16 78 20 79 21 90 22 80 23
REMARK SMILES IDX 89 25 81 26 91 29 92 30 96 31 93 32 95 34 94 36 82 40 83 43
REMARK SMILES IDX 84 44 87 45 85 47 86 50 88 51 9 56 10 59 11 62 12 65 13 66
REMARK SMILES IDX 14 68 15 69 16 70 77 71 17 72 76 74 18 76 19 79 20 80 70 81
REMARK SMILES IDX 21 82 75 83 69 84 71 85 22 86 74 87 68 89 67 91 23 93 55 96
REMARK SMILES IDX 35 97 54 98 36 99 39 100 53 101 72 102 37 103 38 105 52 107
REMARK SMILES IDX 73 108 40 111 24 113 25 114 33 115 26 116 27 117 31 118
REMARK SMILES IDX 34 119 28 120 29 121 32 122 30 123 56 124 57 125 65 126
REMARK SMILES IDX 58 127 59 128 63 129 66 130 60 131 61 132 64 133 62 134
REMARK SMILES IDX 41 135 42 136 50 137 43 138 44 139 48 140 51 141 45 142
REMARK SMILES IDX 46 143 49 144 47 145
REMARK H PARENT 8 2 8 3 7 5 7 6 6 8 6 9 5 13 2 15 1 17 1 18 1 19 79 24 80 27
REMARK H PARENT 89 28 92 33 96 35 93 37 95 38 94 39 82 41 82 42 83 46 84 48
REMARK H PARENT 84 49 85 52 85 53 86 54 86 55 9 57 9 58 10 60 10 61 11 63
REMARK H PARENT 11 64 12 67 16 73 77 75 17 77 76 78 75 88 69 90 71 92 74 94
REMARK H PARENT 68 95 36 104 39 106 72 109 37 110 73 112
REMARK Flexibility Score: inf
ROOT
ATOM      1  C   UNL A   1      32.577  29.949  27.176  1.00  0.00    -0.052 C 
ATOM      2  H   UNL A   1      33.571  30.302  26.993  1.00  0.00     0.027 H 
ATOM      3  H   UNL A   1      32.241  30.126  28.176  1.00  0.00     0.027 H 
ENDROOT
BRANCH   1   4
ATOM      4  C   UNL A   1      32.570  28.427  26.985  1.00  0.00    -0.036 C 
ATOM      5  H   UNL A   1      32.426  27.969  27.941  1.00  0.00     0.028 H 
ATOM      6  H   UNL A   1      31.781  28.211  26.295  1.00  0.00     0.028 H 
BRANCH   4   7
ATOM      7  C   UNL A   1      33.852  27.859  26.371  1.00  0.00     0.017 C 
ATOM      8  H   UNL A   1      34.626  27.861  27.109  1.00  0.00     0.049 H 
ATOM      9  H   UNL A   1      33.661  26.862  26.035  1.00  0.00     0.049 H 
BRANCH   7  10
ATOM     10  N   UNL A   1      34.273  28.656  25.241  1.00  0.00    -0.356 N 
ATOM     11  C   UNL A   1      34.015  28.521  23.908  1.00  0.00     0.227 C 
ATOM     12  O   UNL A   1      34.634  29.299  23.182  1.00  0.00    -0.274 OA
ATOM     13  H   UNL A   1      34.841  29.426  25.472  1.00  0.00     0.163 HD
BRANCH  11  14
ATOM     14  C   UNL A   1      32.982  27.478  23.422  1.00  0.00     0.061 C 
ATOM     15  H   UNL A   1      32.870  26.853  24.284  1.00  0.00     0.045 H 
BRANCH  14  16
ATOM     16  C   UNL A   1      33.494  26.672  22.228  1.00  0.00    -0.049 C 
ATOM     17  H   UNL A   1      34.554  26.553  22.306  1.00  0.00     0.024 H 
ATOM     18  H   UNL A   1      33.260  27.190  21.322  1.00  0.00     0.024 H 
ATOM     19  H   UNL A   1      33.026  25.710  22.220  1.00  0.00     0.024 H 
ENDBRANCH  14  16
BRANCH  14  20
ATOM     20  C   UNL A   1      31.576  28.009  23.097  1.00  0.00    -0.028 A 
ATOM     21  C   UNL A   1      31.422  29.112  22.235  1.00  0.00    -0.057 A 
ATOM     22  C   UNL A   1      30.402  27.344  23.543  1.00  0.00    -0.014 A 
ATOM     23  C   UNL A   1      30.168  29.613  21.895  1.00  0.00    -0.059 A 
ATOM     24  H   UNL A   1      32.263  29.562  21.844  1.00  0.00     0.063 H 
ATOM     25  C   UNL A   1      29.140  27.886  23.203  1.00  0.00    -0.051 A 
ATOM     26  C   UNL A   1      29.012  29.026  22.400  1.00  0.00    -0.047 A 
ATOM     27  H   UNL A   1      30.097  30.426  21.264  1.00  0.00     0.063 H 
ATOM     28  H   UNL A   1      28.287  27.427  23.559  1.00  0.00     0.063 H 
BRANCH  22  29
ATOM     29  C   UNL A   1      30.425  26.041  24.240  1.00  0.00    -0.018 A 
ATOM     30  C   UNL A   1      30.635  24.862  23.499  1.00  0.00    -0.054 A 
ATOM     31  C   UNL A   1      30.271  25.926  25.629  1.00  0.00    -0.054 A 
ATOM     32  C   UNL A   1      30.724  23.617  24.126  1.00  0.00    -0.062 A 
ATOM     33  H   UNL A   1      30.726  24.919  22.472  1.00  0.00     0.063 H 
ATOM     34  C   UNL A   1      30.374  24.681  26.260  1.00  0.00    -0.062 A 
ATOM     35  H   UNL A   1      30.079  26.768  26.192  1.00  0.00     0.063 H 
ATOM     36  C   UNL A   1      30.604  23.529  25.509  1.00  0.00    -0.062 A 
ATOM     37  H   UNL A   1      30.878  22.765  23.564  1.00  0.00     0.062 H 
ATOM     38  H   UNL A   1      30.279  24.616  27.286  1.00  0.00     0.062 H 
ATOM     39  H   UNL A   1      30.685  22.614  25.977  1.00  0.00     0.062 H 
ENDBRANCH  22  29
BRANCH  26  40
ATOM     40  C   UNL A   1      27.660  29.597  22.054  1.00  0.00    -0.018 C 
ATOM     41  H   UNL A   1      26.916  28.928  22.433  1.00  0.00     0.032 H 
ATOM     42  H   UNL A   1      27.657  29.702  20.988  1.00  0.00     0.032 H 
BRANCH  40  43
ATOM     43  C   UNL A   1      27.355  30.995  22.603  1.00  0.00     0.022 C 
ATOM     44  C   UNL A   1      27.826  31.273  24.033  1.00  0.00    -0.043 C 
ATOM     45  C   UNL A   1      28.037  32.097  21.825  1.00  0.00     0.136 C 
ATOM     46  H   UNL A   1      26.287  30.997  22.536  1.00  0.00     0.039 H 
ATOM     47  C   UNL A   1      29.154  32.011  23.913  1.00  0.00    -0.046 C 
ATOM     48  H   UNL A   1      27.960  30.355  24.564  1.00  0.00     0.027 H 
ATOM     49  H   UNL A   1      27.107  31.855  24.572  1.00  0.00     0.027 H 
ATOM     50  C   UNL A   1      29.050  32.849  22.646  1.00  0.00     0.006 C 
ATOM     51  O   UNL A   1      27.780  32.362  20.656  1.00  0.00    -0.299 OA
ATOM     52  H   UNL A   1      29.962  31.314  23.834  1.00  0.00     0.027 H 
ATOM     53  H   UNL A   1      29.345  32.619  24.772  1.00  0.00     0.027 H 
ATOM     54  H   UNL A   1      29.992  32.902  22.142  1.00  0.00     0.035 H 
ATOM     55  H   UNL A   1      28.770  33.865  22.834  1.00  0.00     0.035 H 
ENDBRANCH  40  43
ENDBRANCH  26  40
ENDBRANCH  14  20
ENDBRANCH  11  14
ENDBRANCH   7  10
ENDBRANCH   4   7
ENDBRANCH   1   4
BRANCH   1  56
ATOM     56  C   UNL A   1      31.624  30.723  26.262  1.00  0.00    -0.052 C 
ATOM     57  H   UNL A   1      30.666  30.248  26.301  1.00  0.00     0.027 H 
ATOM     58  H   UNL A   1      32.062  30.707  25.286  1.00  0.00     0.027 H 
BRANCH  56  59
ATOM     59  C   UNL A   1      31.441  32.194  26.631  1.00  0.00    -0.036 C 
ATOM     60  H   UNL A   1      30.591  32.276  27.275  1.00  0.00     0.028 H 
ATOM     61  H   UNL A   1      31.320  32.728  25.711  1.00  0.00     0.028 H 
BRANCH  59  62
ATOM     62  C   UNL A   1      32.638  32.816  27.340  1.00  0.00     0.018 C 
ATOM     63  H   UNL A   1      33.498  32.728  26.710  1.00  0.00     0.049 H 
ATOM     64  H   UNL A   1      32.780  32.296  28.265  1.00  0.00     0.049 H 
BRANCH  62  65
ATOM     65  N   UNL A   1      32.423  34.221  27.646  1.00  0.00    -0.352 N 
ATOM     66  C   UNL A   1      33.016  34.993  28.611  1.00  0.00     0.251 C 
ATOM     67  H   UNL A   1      31.760  34.681  27.081  1.00  0.00     0.163 HD
ATOM     68  O   UNL A   1      32.576  36.111  28.874  1.00  0.00    -0.269 OA
BRANCH  66  69
ATOM     69  C   UNL A   1      34.178  34.465  29.354  1.00  0.00     0.039 A 
ATOM     70  C   UNL A   1      33.959  33.746  30.531  1.00  0.00    -0.049 A 
ATOM     71  C   UNL A   1      35.477  34.673  28.884  1.00  0.00    -0.049 A 
ATOM     72  C   UNL A   1      35.043  33.184  31.206  1.00  0.00    -0.053 A 
ATOM     73  H   UNL A   1      33.002  33.630  30.898  1.00  0.00     0.063 H 
ATOM     74  C   UNL A   1      36.548  34.046  29.514  1.00  0.00    -0.053 A 
ATOM     75  H   UNL A   1      35.643  35.290  28.074  1.00  0.00     0.063 H 
ATOM     76  C   UNL A   1      36.343  33.300  30.684  1.00  0.00    -0.014 A 
ATOM     77  H   UNL A   1      34.889  32.680  32.093  1.00  0.00     0.063 H 
ATOM     78  H   UNL A   1      37.498  34.131  29.119  1.00  0.00     0.063 H 
BRANCH  76  79
ATOM     79  C   UNL A   1      37.499  32.649  31.352  1.00  0.00     0.031 A 
ATOM     80  C   UNL A   1      38.214  31.510  30.680  1.00  0.00     0.074 A 
ATOM     81  C   UNL A   1      37.865  33.045  32.586  1.00  0.00     0.049 A 
ATOM     82  N   UNL A   1      39.200  30.773  31.125  1.00  0.00    -0.248 NA
ATOM     83  C   UNL A   1      37.743  31.131  29.338  1.00  0.00    -0.034 C 
ATOM     84  C   UNL A   1      37.221  34.108  33.359  1.00  0.00    -0.036 A 
ATOM     85  N   UNL A   1      38.864  32.593  33.413  1.00  0.00    -0.354 N 
ATOM     86  C   UNL A   1      39.456  29.841  30.129  1.00  0.00     0.074 A 
ATOM     87  C   UNL A   1      38.487  30.066  29.079  1.00  0.00    -0.034 C 
ATOM     88  H   UNL A   1      37.020  31.577  28.752  1.00  0.00     0.065 H 
ATOM     89  C   UNL A   1      37.854  34.242  34.535  1.00  0.00    -0.036 A 
ATOM     90  H   UNL A   1      36.410  34.666  33.050  1.00  0.00     0.065 H 
ATOM     91  C   UNL A   1      38.920  33.248  34.619  1.00  0.00     0.049 A 
ATOM     92  H   UNL A   1      39.482  31.868  33.165  1.00  0.00     0.167 HD
ATOM     93  C   UNL A   1      40.428  28.899  30.083  1.00  0.00     0.037 A 
ATOM     94  H   UNL A   1      38.389  29.475  28.240  1.00  0.00     0.065 H 
ATOM     95  H   UNL A   1      37.625  34.937  35.264  1.00  0.00     0.065 H 
ATOM     96  C   UNL A   1      39.731  33.060  35.677  1.00  0.00     0.037 A 
ATOM     97  C   UNL A   1      41.404  28.693  31.121  1.00  0.00     0.049 A 
ATOM     98  C   UNL A   1      40.791  31.993  35.606  1.00  0.00     0.074 A 
ATOM     99  C   UNL A   1      42.463  27.803  31.145  1.00  0.00    -0.036 A 
ATOM    100  N   UNL A   1      41.436  29.386  32.324  1.00  0.00    -0.354 N 
ATOM    101  N   UNL A   1      41.069  31.165  34.628  1.00  0.00    -0.248 NA
ATOM    102  C   UNL A   1      41.656  31.839  36.784  1.00  0.00    -0.034 C 
ATOM    103  C   UNL A   1      43.102  27.916  32.384  1.00  0.00    -0.036 A 
ATOM    104  H   UNL A   1      42.735  27.166  30.380  1.00  0.00     0.065 H 
ATOM    105  C   UNL A   1      42.482  28.922  33.107  1.00  0.00     0.049 A 
ATOM    106  H   UNL A   1      40.809  30.099  32.582  1.00  0.00     0.167 HD
ATOM    107  C   UNL A   1      42.159  30.419  35.057  1.00  0.00     0.074 A 
ATOM    108  C   UNL A   1      42.501  30.902  36.379  1.00  0.00    -0.034 C 
ATOM    109  H   UNL A   1      41.616  32.333  37.690  1.00  0.00     0.065 H 
ATOM    110  H   UNL A   1      43.900  27.346  32.706  1.00  0.00     0.065 H 
ATOM    111  C   UNL A   1      42.818  29.423  34.415  1.00  0.00     0.037 A 
ATOM    112  H   UNL A   1      43.301  30.561  36.934  1.00  0.00     0.065 H 
BRANCH  93 113
ATOM    113  C   UNL A   1      40.490  28.016  28.870  1.00  0.00     0.064 A 
ATOM    114  C   UNL A   1      39.783  26.805  28.802  1.00  0.00     0.173 A 
ATOM    115  C   UNL A   1      41.223  28.408  27.740  1.00  0.00     0.173 A 
ATOM    116  F   UNL A   1      39.074  26.377  29.858  1.00  0.00    -0.203 F 
ATOM    117  C   UNL A   1      39.831  26.009  27.661  1.00  0.00     0.198 A 
ATOM    118  C   UNL A   1      41.242  27.626  26.589  1.00  0.00     0.198 A 
ATOM    119  F   UNL A   1      41.913  29.560  27.747  1.00  0.00    -0.203 F 
ATOM    120  F   UNL A   1      39.187  24.833  27.639  1.00  0.00    -0.200 F 
ATOM    121  C   UNL A   1      40.552  26.424  26.552  1.00  0.00     0.200 A 
ATOM    122  F   UNL A   1      41.926  28.037  25.512  1.00  0.00    -0.200 F 
ATOM    123  F   UNL A   1      40.586  25.662  25.450  1.00  0.00    -0.200 F 
ENDBRANCH  93 113
BRANCH  96 124
ATOM    124  C   UNL A   1      39.587  33.908  36.891  1.00  0.00     0.064 A 
ATOM    125  C   UNL A   1      38.803  33.489  37.976  1.00  0.00     0.173 A 
ATOM    126  C   UNL A   1      40.210  35.162  36.984  1.00  0.00     0.173 A 
ATOM    127  F   UNL A   1      38.171  32.307  37.927  1.00  0.00    -0.203 F 
ATOM    128  C   UNL A   1      38.624  34.302  39.093  1.00  0.00     0.198 A 
ATOM    129  C   UNL A   1      40.057  35.959  38.116  1.00  0.00     0.198 A 
ATOM    130  F   UNL A   1      40.975  35.609  35.978  1.00  0.00    -0.203 F 
ATOM    131  F   UNL A   1      37.823  33.901  40.089  1.00  0.00    -0.200 F 
ATOM    132  C   UNL A   1      39.255  35.535  39.164  1.00  0.00     0.200 A 
ATOM    133  F   UNL A   1      40.683  37.142  38.188  1.00  0.00    -0.200 F 
ATOM    134  F   UNL A   1      39.083  36.317  40.238  1.00  0.00    -0.200 F 
ENDBRANCH  96 124
BRANCH 111 135
ATOM    135  C   UNL A   1      44.006  28.820  35.110  1.00  0.00     0.064 A 
ATOM    136  C   UNL A   1      43.886  27.695  35.939  1.00  0.00     0.173 A 
ATOM    137  C   UNL A   1      45.289  29.352  34.907  1.00  0.00     0.173 A 
ATOM    138  F   UNL A   1      42.681  27.157  36.178  1.00  0.00    -0.203 F 
ATOM    139  C   UNL A   1      45.003  27.144  36.562  1.00  0.00     0.198 A 
ATOM    140  C   UNL A   1      46.407  28.777  35.503  1.00  0.00     0.198 A 
ATOM    141  F   UNL A   1      45.460  30.422  34.116  1.00  0.00    -0.203 F 
ATOM    142  F   UNL A   1      44.857  26.103  37.393  1.00  0.00    -0.200 F 
ATOM    143  C   UNL A   1      46.263  27.679  36.337  1.00  0.00     0.200 A 
ATOM    144  F   UNL A   1      47.624  29.285  35.269  1.00  0.00    -0.200 F 
ATOM    145  F   UNL A   1      47.337  27.141  36.930  1.00  0.00    -0.200 F 
ENDBRANCH 111 135
ENDBRANCH  76  79
ENDBRANCH  66  69
ENDBRANCH  62  65
ENDBRANCH  59  62
ENDBRANCH  56  59
ENDBRANCH   1  56
TORSDOF 18
ENDMDL
MODEL 2
REMARK VINA RESULT:     -12.4      1.899      4.432
REMARK SMILES C[C@@H](C(=O)NCCCCCCNC(=O)c1ccc(-c2c3nc(c(-c4c(F)c(F)c(F)c(F)c4F)c4ccc([nH]4)c(-c4c(F)c(F)c(F)c(F)c4F)c4nc(c(-c5c(F)c(F)c(F)c(F)c5F)c5ccc2[nH]5)C=C4)C=C3)cc1)c1ccc(C[C@H]2CCCC2=O)cc1-c1ccccc1
REMARK SMILES IDX 8 1 7 4 6 7 5 10 3 11 4 12 2 14 1 16 78 20 79 21 90 22 80 23
REMARK SMILES IDX 89 25 81 26 91 29 92 30 96 31 93 32 95 34 94 36 82 40 83 43
REMARK SMILES IDX 84 44 87 45 85 47 86 50 88 51 9 56 10 59 11 62 12 65 13 66
REMARK SMILES IDX 14 68 15 69 16 70 77 71 17 72 76 74 18 76 19 79 20 80 70 81
REMARK SMILES IDX 21 82 75 83 69 84 71 85 22 86 74 87 68 89 67 91 23 93 55 96
REMARK SMILES IDX 35 97 54 98 36 99 39 100 53 101 72 102 37 103 38 105 52 107
REMARK SMILES IDX 73 108 40 111 24 113 25 114 33 115 26 116 27 117 31 118
REMARK SMILES IDX 34 119 28 120 29 121 32 122 30 123 56 124 57 125 65 126
REMARK SMILES IDX 58 127 59 128 63 129 66 130 60 131 61 132 64 133 62 134
REMARK SMILES IDX 41 135 42 136 50 137 43 138 44 139 48 140 51 141 45 142
REMARK SMILES IDX 46 143 49 144 47 145
REMARK H PARENT 8 2 8 3 7 5 7 6 6 8 6 9 5 13 2 15 1 17 1 18 1 19 79 24 80 27
REMARK H PARENT 89 28 92 33 96 35 93 37 95 38 94 39 82 41 82 42 83 46 84 48
REMARK H PARENT 84 49 85 52 85 53 86 54 86 55 9 57 9 58 10 60 10 61 11 63
REMARK H PARENT 11 64 12 67 16 73 77 75 17 77 76 78 75 88 69 90 71 92 74 94
REMARK H PARENT 68 95 36 104 39 106 72 109 37 110 73 112
REMARK Flexibility Score: inf
ROOT
ATOM      1  C   UNL A   1      29.845  31.093  24.357  1.00  0.00    -0.052 C 
ATOM      2  H   UNL A   1      28.940  31.137  24.927  1.00  0.00     0.027 H 
ATOM      3  H   UNL A   1      30.024  31.972  23.775  1.00  0.00     0.027 H 
ENDROOT
BRANCH   1   4
ATOM      4  C   UNL A   1      29.723  29.935  23.358  1.00  0.00    -0.036 C 
ATOM      5  H   UNL A   1      28.691  29.827  23.095  1.00  0.00     0.028 H 
ATOM      6  H   UNL A   1      30.343  30.187  22.524  1.00  0.00     0.028 H 
BRANCH   4   7
ATOM      7  C   UNL A   1      30.226  28.589  23.883  1.00  0.00     0.017 C 
ATOM      8  H   UNL A   1      31.174  28.728  24.357  1.00  0.00     0.049 H 
ATOM      9  H   UNL A   1      29.514  28.204  24.583  1.00  0.00     0.049 H 
BRANCH   7  10
ATOM     10  N   UNL A   1      30.371  27.642  22.802  1.00  0.00    -0.356 N 
ATOM     11  C   UNL A   1      31.484  27.058  22.271  1.00  0.00     0.227 C 
ATOM     12  O   UNL A   1      31.280  26.386  21.259  1.00  0.00    -0.274 OA
ATOM     13  H   UNL A   1      29.525  27.372  22.376  1.00  0.00     0.163 HD
BRANCH  11  14
ATOM     14  C   UNL A   1      32.856  27.236  22.961  1.00  0.00     0.061 C 
ATOM     15  H   UNL A   1      32.623  27.922  23.750  1.00  0.00     0.045 H 
BRANCH  14  16
ATOM     16  C   UNL A   1      33.905  27.827  22.018  1.00  0.00    -0.049 C 
ATOM     17  H   UNL A   1      33.423  28.442  21.288  1.00  0.00     0.024 H 
ATOM     18  H   UNL A   1      34.428  27.033  21.527  1.00  0.00     0.024 H 
ATOM     19  H   UNL A   1      34.597  28.417  22.581  1.00  0.00     0.024 H 
ENDBRANCH  14  16
BRANCH  14  20
ATOM     20  C   UNL A   1      33.445  25.990  23.642  1.00  0.00    -0.028 A 
ATOM     21  C   UNL A   1      33.954  24.935  22.860  1.00  0.00    -0.057 A 
ATOM     22  C   UNL A   1      33.609  25.912  25.051  1.00  0.00    -0.014 A 
ATOM     23  C   UNL A   1      34.517  23.797  23.432  1.00  0.00    -0.059 A 
ATOM     24  H   UNL A   1      33.909  25.008  21.832  1.00  0.00     0.063 H 
ATOM     25  C   UNL A   1      34.162  24.735  25.610  1.00  0.00    -0.051 A 
ATOM     26  C   UNL A   1      34.599  23.669  24.815  1.00  0.00    -0.047 A 
ATOM     27  H   UNL A   1      34.875  23.044  22.825  1.00  0.00     0.063 H 
ATOM     28  H   UNL A   1      34.245  24.661  26.636  1.00  0.00     0.063 H 
BRANCH  22  29
ATOM     29  C   UNL A   1      33.347  27.047  25.961  1.00  0.00    -0.018 A 
ATOM     30  C   UNL A   1      32.112  27.126  26.634  1.00  0.00    -0.054 A 
ATOM     31  C   UNL A   1      34.295  28.051  26.206  1.00  0.00    -0.054 A 
ATOM     32  C   UNL A   1      31.848  28.149  27.546  1.00  0.00    -0.062 A 
ATOM     33  H   UNL A   1      31.390  26.413  26.449  1.00  0.00     0.063 H 
ATOM     34  C   UNL A   1      34.036  29.069  27.131  1.00  0.00    -0.062 A 
ATOM     35  H   UNL A   1      35.193  28.039  25.699  1.00  0.00     0.063 H 
ATOM     36  C   UNL A   1      32.816  29.115  27.803  1.00  0.00    -0.062 A 
ATOM     37  H   UNL A   1      30.936  28.188  28.029  1.00  0.00     0.062 H 
ATOM     38  H   UNL A   1      34.753  29.788  27.317  1.00  0.00     0.062 H 
ATOM     39  H   UNL A   1      32.630  29.863  28.488  1.00  0.00     0.062 H 
ENDBRANCH  22  29
BRANCH  26  40
ATOM     40  C   UNL A   1      35.178  22.418  25.426  1.00  0.00    -0.018 C 
ATOM     41  H   UNL A   1      35.750  22.707  26.283  1.00  0.00     0.032 H 
ATOM     42  H   UNL A   1      35.752  21.958  24.647  1.00  0.00     0.032 H 
BRANCH  40  43
ATOM     43  C   UNL A   1      34.170  21.354  25.875  1.00  0.00     0.022 C 
ATOM     44  C   UNL A   1      32.713  21.813  25.986  1.00  0.00    -0.043 C 
ATOM     45  C   UNL A   1      34.064  20.196  24.909  1.00  0.00     0.136 C 
ATOM     46  H   UNL A   1      34.575  21.100  26.832  1.00  0.00     0.039 H 
ATOM     47  C   UNL A   1      32.028  21.389  24.693  1.00  0.00    -0.046 C 
ATOM     48  H   UNL A   1      32.668  22.875  26.098  1.00  0.00     0.027 H 
ATOM     49  H   UNL A   1      32.234  21.378  26.839  1.00  0.00     0.027 H 
ATOM     50  C   UNL A   1      32.705  20.092  24.269  1.00  0.00     0.006 C 
ATOM     51  O   UNL A   1      34.981  19.414  24.683  1.00  0.00    -0.299 OA
ATOM     52  H   UNL A   1      32.157  22.139  23.940  1.00  0.00     0.027 H 
ATOM     53  H   UNL A   1      30.976  21.257  24.830  1.00  0.00     0.027 H 
ATOM     54  H   UNL A   1      32.784  20.030  23.205  1.00  0.00     0.035 H 
ATOM     55  H   UNL A   1      32.164  19.218  24.568  1.00  0.00     0.035 H 
ENDBRANCH  40  43
ENDBRANCH  26  40
ENDBRANCH  14  20
ENDBRANCH  11  14
ENDBRANCH   7  10
ENDBRANCH   4   7
ENDBRANCH   1   4
BRANCH   1  56
ATOM     56  C   UNL A   1      31.016  30.984  25.337  1.00  0.00    -0.052 C 
ATOM     57  H   UNL A   1      31.923  31.129  24.789  1.00  0.00     0.027 H 
ATOM     58  H   UNL A   1      30.946  30.016  25.786  1.00  0.00     0.027 H 
BRANCH  56  59
ATOM     59  C   UNL A   1      30.985  31.996  26.482  1.00  0.00    -0.036 C 
ATOM     60  H   UNL A   1      30.568  31.516  27.342  1.00  0.00     0.028 H 
ATOM     61  H   UNL A   1      30.398  32.824  26.142  1.00  0.00     0.028 H 
BRANCH  59  62
ATOM     62  C   UNL A   1      32.350  32.556  26.862  1.00  0.00     0.018 C 
ATOM     63  H   UNL A   1      32.987  32.527  26.003  1.00  0.00     0.049 H 
ATOM     64  H   UNL A   1      32.743  31.956  27.657  1.00  0.00     0.049 H 
BRANCH  62  65
ATOM     65  N   UNL A   1      32.265  33.927  27.337  1.00  0.00    -0.352 N 
ATOM     66  C   UNL A   1      32.997  34.545  28.318  1.00  0.00     0.251 C 
ATOM     67  H   UNL A   1      31.589  34.489  26.893  1.00  0.00     0.163 HD
ATOM     68  O   UNL A   1      32.664  35.651  28.741  1.00  0.00    -0.269 OA
BRANCH  66  69
ATOM     69  C   UNL A   1      34.180  33.865  28.883  1.00  0.00     0.039 A 
ATOM     70  C   UNL A   1      35.441  34.438  28.704  1.00  0.00    -0.049 A 
ATOM     71  C   UNL A   1      34.041  32.671  29.596  1.00  0.00    -0.049 A 
ATOM     72  C   UNL A   1      36.557  33.842  29.291  1.00  0.00    -0.053 A 
ATOM     73  H   UNL A   1      35.545  35.297  28.141  1.00  0.00     0.063 H 
ATOM     74  C   UNL A   1      35.142  32.123  30.245  1.00  0.00    -0.053 A 
ATOM     75  H   UNL A   1      33.126  32.197  29.639  1.00  0.00     0.063 H 
ATOM     76  C   UNL A   1      36.413  32.699  30.095  1.00  0.00    -0.014 A 
ATOM     77  H   UNL A   1      37.495  34.244  29.132  1.00  0.00     0.063 H 
ATOM     78  H   UNL A   1      35.025  31.287  30.841  1.00  0.00     0.063 H 
BRANCH  76  79
ATOM     79  C   UNL A   1      37.580  32.092  30.784  1.00  0.00     0.031 A 
ATOM     80  C   UNL A   1      38.391  31.027  30.099  1.00  0.00     0.074 A 
ATOM     81  C   UNL A   1      37.873  32.459  32.046  1.00  0.00     0.049 A 
ATOM     82  N   UNL A   1      39.402  30.333  30.556  1.00  0.00    -0.248 NA
ATOM     83  C   UNL A   1      37.997  30.675  28.726  1.00  0.00    -0.034 C 
ATOM     84  C   UNL A   1      37.134  33.448  32.833  1.00  0.00    -0.036 A 
ATOM     85  N   UNL A   1      38.865  32.035  32.896  1.00  0.00    -0.354 N 
ATOM     86  C   UNL A   1      39.755  29.460  29.537  1.00  0.00     0.074 A 
ATOM     87  C   UNL A   1      38.815  29.669  28.457  1.00  0.00    -0.034 C 
ATOM     88  H   UNL A   1      37.271  31.101  28.128  1.00  0.00     0.065 H 
ATOM     89  C   UNL A   1      37.710  33.573  34.038  1.00  0.00    -0.036 A 
ATOM     90  H   UNL A   1      36.302  33.968  32.512  1.00  0.00     0.065 H 
ATOM     91  C   UNL A   1      38.832  32.642  34.128  1.00  0.00     0.049 A 
ATOM     92  H   UNL A   1      39.536  31.359  32.646  1.00  0.00     0.167 HD
ATOM     93  C   UNL A   1      40.784  28.581  29.495  1.00  0.00     0.037 A 
ATOM     94  H   UNL A   1      38.787  29.108  27.592  1.00  0.00     0.065 H 
ATOM     95  H   UNL A   1      37.410  34.221  34.782  1.00  0.00     0.065 H 
ATOM     96  C   UNL A   1      39.612  32.461  35.211  1.00  0.00     0.037 A 
ATOM     97  C   UNL A   1      41.730  28.393  30.564  1.00  0.00     0.049 A 
ATOM     98  C   UNL A   1      40.738  31.464  35.143  1.00  0.00     0.074 A 
ATOM     99  C   UNL A   1      42.840  27.568  30.598  1.00  0.00    -0.036 A 
ATOM    100  N   UNL A   1      41.671  29.036  31.793  1.00  0.00    -0.354 N 
ATOM    101  N   UNL A   1      41.105  30.694  34.147  1.00  0.00    -0.248 NA
ATOM    102  C   UNL A   1      41.564  31.314  36.349  1.00  0.00    -0.034 C 
ATOM    103  C   UNL A   1      43.422  27.669  31.866  1.00  0.00    -0.036 A 
ATOM    104  H   UNL A   1      43.181  26.981  29.821  1.00  0.00     0.065 H 
ATOM    105  C   UNL A   1      42.713  28.605  32.600  1.00  0.00     0.049 A 
ATOM    106  H   UNL A   1      40.992  29.699  32.052  1.00  0.00     0.167 HD
ATOM    107  C   UNL A   1      42.221  29.999  34.591  1.00  0.00     0.074 A 
ATOM    108  C   UNL A   1      42.481  30.448  35.944  1.00  0.00    -0.034 C 
ATOM    109  H   UNL A   1      41.458  31.767  37.271  1.00  0.00     0.065 H 
ATOM    110  H   UNL A   1      44.240  27.136  32.198  1.00  0.00     0.065 H 
ATOM    111  C   UNL A   1      42.965  29.072  33.940  1.00  0.00     0.037 A 
ATOM    112  H   UNL A   1      43.278  30.133  36.518  1.00  0.00     0.065 H 
BRANCH  93 113
ATOM    113  C   UNL A   1      40.948  27.754  28.252  1.00  0.00     0.064 A 
ATOM    114  C   UNL A   1      41.728  28.193  27.171  1.00  0.00     0.173 A 
ATOM    115  C   UNL A   1      40.358  26.484  28.159  1.00  0.00     0.173 A 
ATOM    116  F   UNL A   1      42.306  29.404  27.203  1.00  0.00    -0.203 F 
ATOM    117  C   UNL A   1      41.889  27.404  26.035  1.00  0.00     0.198 A 
ATOM    118  C   UNL A   1      40.549  25.685  27.036  1.00  0.00     0.198 A 
ATOM    119  F   UNL A   1      39.606  26.012  29.165  1.00  0.00    -0.203 F 
ATOM    120  F   UNL A   1      42.600  27.866  24.997  1.00  0.00    -0.200 F 
ATOM    121  C   UNL A   1      41.308  26.147  25.972  1.00  0.00     0.200 A 
ATOM    122  F   UNL A   1      39.999  24.463  26.984  1.00  0.00    -0.200 F 
ATOM    123  F   UNL A   1      41.476  25.384  24.883  1.00  0.00    -0.200 F 
ENDBRANCH  93 113
BRANCH  96 124
ATOM    124  C   UNL A   1      39.367  33.248  36.449  1.00  0.00     0.064 A 
ATOM    125  C   UNL A   1      39.991  34.488  36.652  1.00  0.00     0.173 A 
ATOM    126  C   UNL A   1      38.524  32.770  37.464  1.00  0.00     0.173 A 
ATOM    127  F   UNL A   1      40.821  34.979  35.720  1.00  0.00    -0.203 F 
ATOM    128  C   UNL A   1      39.805  35.204  37.832  1.00  0.00     0.198 A 
ATOM    129  C   UNL A   1      38.313  33.504  38.629  1.00  0.00     0.198 A 
ATOM    130  F   UNL A   1      37.899  31.593  37.319  1.00  0.00    -0.203 F 
ATOM    131  F   UNL A   1      40.459  36.358  38.022  1.00  0.00    -0.200 F 
ATOM    132  C   UNL A   1      38.962  34.714  38.818  1.00  0.00     0.200 A 
ATOM    133  F   UNL A   1      37.483  33.034  39.572  1.00  0.00    -0.200 F 
ATOM    134  F   UNL A   1      38.783  35.403  39.952  1.00  0.00    -0.200 F 
ENDBRANCH  96 124
BRANCH 111 135
ATOM    135  C   UNL A   1      44.160  28.514  34.659  1.00  0.00     0.064 A 
ATOM    136  C   UNL A   1      44.085  27.335  35.415  1.00  0.00     0.173 A 
ATOM    137  C   UNL A   1      45.408  29.148  34.554  1.00  0.00     0.173 A 
ATOM    138  F   UNL A   1      42.914  26.698  35.559  1.00  0.00    -0.203 F 
ATOM    139  C   UNL A   1      45.209  26.828  36.063  1.00  0.00     0.198 A 
ATOM    140  C   UNL A   1      46.536  28.619  35.174  1.00  0.00     0.198 A 
ATOM    141  F   UNL A   1      45.537  30.274  33.836  1.00  0.00    -0.203 F 
ATOM    142  F   UNL A   1      45.102  25.730  36.823  1.00  0.00    -0.200 F 
ATOM    143  C   UNL A   1      46.435  27.464  35.935  1.00  0.00     0.200 A 
ATOM    144  F   UNL A   1      47.722  29.227  35.034  1.00  0.00    -0.200 F 
ATOM    145  F   UNL A   1      47.517  26.969  36.551  1.00  0.00    -0.200 F 
ENDBRANCH 111 135
ENDBRANCH  76  79
ENDBRANCH  66  69
ENDBRANCH  62  65
ENDBRANCH  59  62
ENDBRANCH  56  59
ENDBRANCH   1  56
TORSDOF 18
ENDMDL
MODEL 3
REMARK VINA RESULT:     -12.4      2.077      8.292
REMARK SMILES C[C@@H](C(=O)NCCCCCCNC(=O)c1ccc(-c2c3nc(c(-c4c(F)c(F)c(F)c(F)c4F)c4ccc([nH]4)c(-c4c(F)c(F)c(F)c(F)c4F)c4nc(c(-c5c(F)c(F)c(F)c(F)c5F)c5ccc2[nH]5)C=C4)C=C3)cc1)c1ccc(C[C@H]2CCCC2=O)cc1-c1ccccc1
REMARK SMILES IDX 8 1 7 4 6 7 5 10 3 11 4 12 2 14 1 16 78 20 79 21 90 22 80 23
REMARK SMILES IDX 89 25 81 26 91 29 92 30 96 31 93 32 95 34 94 36 82 40 83 43
REMARK SMILES IDX 84 44 87 45 85 47 86 50 88 51 9 56 10 59 11 62 12 65 13 66
REMARK SMILES IDX 14 68 15 69 16 70 77 71 17 72 76 74 18 76 19 79 20 80 70 81
REMARK SMILES IDX 21 82 75 83 69 84 71 85 22 86 74 87 68 89 67 91 23 93 55 96
REMARK SMILES IDX 35 97 54 98 36 99 39 100 53 101 72 102 37 103 38 105 52 107
REMARK SMILES IDX 73 108 40 111 24 113 25 114 33 115 26 116 27 117 31 118
REMARK SMILES IDX 34 119 28 120 29 121 32 122 30 123 56 124 57 125 65 126
REMARK SMILES IDX 58 127 59 128 63 129 66 130 60 131 61 132 64 133 62 134
REMARK SMILES IDX 41 135 42 136 50 137 43 138 44 139 48 140 51 141 45 142
REMARK SMILES IDX 46 143 49 144 47 145
REMARK H PARENT 8 2 8 3 7 5 7 6 6 8 6 9 5 13 2 15 1 17 1 18 1 19 79 24 80 27
REMARK H PARENT 89 28 92 33 96 35 93 37 95 38 94 39 82 41 82 42 83 46 84 48
REMARK H PARENT 84 49 85 52 85 53 86 54 86 55 9 57 9 58 10 60 10 61 11 63
REMARK H PARENT 11 64 12 67 16 73 77 75 17 77 76 78 75 88 69 90 71 92 74 94
REMARK H PARENT 68 95 36 104 39 106 72 109 37 110 73 112
REMARK Flexibility Score: inf
ROOT
ATOM      1  C   UNL A   1      29.905  30.841  24.296  1.00  0.00    -0.052 C 
ATOM      2  H   UNL A   1      28.978  31.045  24.790  1.00  0.00     0.027 H 
ATOM      3  H   UNL A   1      30.132  31.535  23.515  1.00  0.00     0.027 H 
ENDROOT
BRANCH   1   4
ATOM      4  C   UNL A   1      29.796  29.465  23.628  1.00  0.00    -0.036 C 
ATOM      5  H   UNL A   1      30.026  28.718  24.359  1.00  0.00     0.028 H 
ATOM      6  H   UNL A   1      28.797  29.387  23.252  1.00  0.00     0.028 H 
BRANCH   4   7
ATOM      7  C   UNL A   1      30.728  29.265  22.431  1.00  0.00     0.017 C 
ATOM      8  H   UNL A   1      30.399  29.884  21.622  1.00  0.00     0.049 H 
ATOM      9  H   UNL A   1      31.722  29.531  22.720  1.00  0.00     0.049 H 
BRANCH   7  10
ATOM     10  N   UNL A   1      30.721  27.885  22.003  1.00  0.00    -0.356 N 
ATOM     11  C   UNL A   1      31.663  26.907  22.133  1.00  0.00     0.227 C 
ATOM     12  O   UNL A   1      31.402  25.859  21.541  1.00  0.00    -0.274 OA
ATOM     13  H   UNL A   1      29.899  27.603  21.541  1.00  0.00     0.163 HD
BRANCH  11  14
ATOM     14  C   UNL A   1      32.916  27.149  23.005  1.00  0.00     0.061 C 
ATOM     15  H   UNL A   1      32.531  27.775  23.784  1.00  0.00     0.045 H 
BRANCH  14  16
ATOM     16  C   UNL A   1      34.027  27.864  22.233  1.00  0.00    -0.049 C 
ATOM     17  H   UNL A   1      34.176  28.840  22.646  1.00  0.00     0.024 H 
ATOM     18  H   UNL A   1      33.746  27.951  21.205  1.00  0.00     0.024 H 
ATOM     19  H   UNL A   1      34.933  27.301  22.310  1.00  0.00     0.024 H 
ENDBRANCH  14  16
BRANCH  14  20
ATOM     20  C   UNL A   1      33.512  25.917  23.704  1.00  0.00    -0.028 A 
ATOM     21  C   UNL A   1      34.075  24.877  22.939  1.00  0.00    -0.057 A 
ATOM     22  C   UNL A   1      33.627  25.839  25.118  1.00  0.00    -0.014 A 
ATOM     23  C   UNL A   1      34.645  23.752  23.529  1.00  0.00    -0.059 A 
ATOM     24  H   UNL A   1      34.064  24.951  21.910  1.00  0.00     0.063 H 
ATOM     25  C   UNL A   1      34.190  24.675  25.695  1.00  0.00    -0.051 A 
ATOM     26  C   UNL A   1      34.681  23.622  24.914  1.00  0.00    -0.047 A 
ATOM     27  H   UNL A   1      35.043  23.009  22.934  1.00  0.00     0.063 H 
ATOM     28  H   UNL A   1      34.238  24.601  26.723  1.00  0.00     0.063 H 
BRANCH  22  29
ATOM     29  C   UNL A   1      33.305  26.966  26.019  1.00  0.00    -0.018 A 
ATOM     30  C   UNL A   1      34.256  27.986  26.220  1.00  0.00    -0.054 A 
ATOM     31  C   UNL A   1      32.070  27.080  26.673  1.00  0.00    -0.054 A 
ATOM     32  C   UNL A   1      33.969  29.097  27.016  1.00  0.00    -0.062 A 
ATOM     33  H   UNL A   1      35.181  27.910  25.771  1.00  0.00     0.063 H 
ATOM     34  C   UNL A   1      31.777  28.200  27.458  1.00  0.00    -0.062 A 
ATOM     35  H   UNL A   1      31.369  26.329  26.573  1.00  0.00     0.063 H 
ATOM     36  C   UNL A   1      32.723  29.209  27.626  1.00  0.00    -0.062 A 
ATOM     37  H   UNL A   1      34.680  29.834  27.150  1.00  0.00     0.062 H 
ATOM     38  H   UNL A   1      30.854  28.279  27.915  1.00  0.00     0.062 H 
ATOM     39  H   UNL A   1      32.502  30.036  28.201  1.00  0.00     0.062 H 
ENDBRANCH  22  29
BRANCH  26  40
ATOM     40  C   UNL A   1      35.269  22.384  25.543  1.00  0.00    -0.018 C 
ATOM     41  H   UNL A   1      35.798  22.685  26.423  1.00  0.00     0.032 H 
ATOM     42  H   UNL A   1      35.886  21.944  24.787  1.00  0.00     0.032 H 
BRANCH  40  43
ATOM     43  C   UNL A   1      34.273  21.292  25.946  1.00  0.00     0.022 C 
ATOM     44  C   UNL A   1      32.817  21.736  26.113  1.00  0.00    -0.043 C 
ATOM     45  C   UNL A   1      34.152  20.193  24.915  1.00  0.00     0.136 C 
ATOM     46  H   UNL A   1      34.697  20.983  26.879  1.00  0.00     0.039 H 
ATOM     47  C   UNL A   1      32.109  21.387  24.809  1.00  0.00    -0.046 C 
ATOM     48  H   UNL A   1      32.771  22.790  26.289  1.00  0.00     0.027 H 
ATOM     49  H   UNL A   1      32.356  21.249  26.947  1.00  0.00     0.027 H 
ATOM     50  C   UNL A   1      32.782  20.121  24.296  1.00  0.00     0.006 C 
ATOM     51  O   UNL A   1      35.068  19.429  24.626  1.00  0.00    -0.299 OA
ATOM     52  H   UNL A   1      32.221  22.181  24.101  1.00  0.00     0.027 H 
ATOM     53  H   UNL A   1      31.060  21.243  24.958  1.00  0.00     0.027 H 
ATOM     54  H   UNL A   1      32.841  20.123  23.229  1.00  0.00     0.035 H 
ATOM     55  H   UNL A   1      32.250  19.228  24.552  1.00  0.00     0.035 H 
ENDBRANCH  40  43
ENDBRANCH  26  40
ENDBRANCH  14  20
ENDBRANCH  11  14
ENDBRANCH   7  10
ENDBRANCH   4   7
ENDBRANCH   1   4
BRANCH   1  56
ATOM     56  C   UNL A   1      31.029  30.976  25.327  1.00  0.00    -0.052 C 
ATOM     57  H   UNL A   1      31.963  30.922  24.809  1.00  0.00     0.027 H 
ATOM     58  H   UNL A   1      30.891  30.182  26.030  1.00  0.00     0.027 H 
BRANCH  56  59
ATOM     59  C   UNL A   1      31.004  32.276  26.130  1.00  0.00    -0.036 C 
ATOM     60  H   UNL A   1      30.189  32.228  26.820  1.00  0.00     0.028 H 
ATOM     61  H   UNL A   1      30.904  33.072  25.421  1.00  0.00     0.028 H 
BRANCH  59  62
ATOM     62  C   UNL A   1      32.280  32.552  26.916  1.00  0.00     0.018 C 
ATOM     63  H   UNL A   1      33.123  32.354  26.288  1.00  0.00     0.049 H 
ATOM     64  H   UNL A   1      32.280  31.917  27.778  1.00  0.00     0.049 H 
BRANCH  62  65
ATOM     65  N   UNL A   1      32.351  33.929  27.377  1.00  0.00    -0.352 N 
ATOM     66  C   UNL A   1      33.184  34.482  28.314  1.00  0.00     0.251 C 
ATOM     67  H   UNL A   1      31.712  34.550  26.956  1.00  0.00     0.163 HD
ATOM     68  O   UNL A   1      32.981  35.618  28.737  1.00  0.00    -0.269 OA
BRANCH  66  69
ATOM     69  C   UNL A   1      34.321  33.695  28.833  1.00  0.00     0.039 A 
ATOM     70  C   UNL A   1      35.609  34.228  28.750  1.00  0.00    -0.049 A 
ATOM     71  C   UNL A   1      34.113  32.439  29.409  1.00  0.00    -0.049 A 
ATOM     72  C   UNL A   1      36.682  33.525  29.298  1.00  0.00    -0.053 A 
ATOM     73  H   UNL A   1      35.765  35.136  28.285  1.00  0.00     0.063 H 
ATOM     74  C   UNL A   1      35.170  31.777  30.025  1.00  0.00    -0.053 A 
ATOM     75  H   UNL A   1      33.178  32.003  29.378  1.00  0.00     0.063 H 
ATOM     76  C   UNL A   1      36.467  32.310  29.970  1.00  0.00    -0.014 A 
ATOM     77  H   UNL A   1      37.640  33.900  29.208  1.00  0.00     0.063 H 
ATOM     78  H   UNL A   1      35.001  30.889  30.523  1.00  0.00     0.063 H 
BRANCH  76  79
ATOM     79  C   UNL A   1      37.587  31.583  30.620  1.00  0.00     0.031 A 
ATOM     80  C   UNL A   1      37.985  31.917  32.031  1.00  0.00     0.074 A 
ATOM     81  C   UNL A   1      38.282  30.666  29.920  1.00  0.00     0.049 A 
ATOM     82  N   UNL A   1      38.972  31.442  32.748  1.00  0.00    -0.248 NA
ATOM     83  C   UNL A   1      37.183  32.940  32.721  1.00  0.00    -0.034 C 
ATOM     84  C   UNL A   1      38.021  30.288  28.530  1.00  0.00    -0.036 A 
ATOM     85  N   UNL A   1      39.358  29.891  30.278  1.00  0.00    -0.354 N 
ATOM     86  C   UNL A   1      38.916  32.115  33.962  1.00  0.00     0.074 A 
ATOM     87  C   UNL A   1      37.835  33.071  33.866  1.00  0.00    -0.034 C 
ATOM     88  H   UNL A   1      36.334  33.430  32.397  1.00  0.00     0.065 H 
ATOM     89  C   UNL A   1      38.894  29.338  28.161  1.00  0.00    -0.036 A 
ATOM     90  H   UNL A   1      37.283  30.686  27.929  1.00  0.00     0.065 H 
ATOM     91  C   UNL A   1      39.805  29.070  29.271  1.00  0.00     0.049 A 
ATOM     92  H   UNL A   1      39.770  29.921  31.171  1.00  0.00     0.167 HD
ATOM     93  C   UNL A   1      39.681  31.933  35.064  1.00  0.00     0.037 A 
ATOM     94  H   UNL A   1      37.604  33.764  34.595  1.00  0.00     0.065 H 
ATOM     95  H   UNL A   1      38.919  28.871  27.241  1.00  0.00     0.065 H 
ATOM     96  C   UNL A   1      40.839  28.209  29.243  1.00  0.00     0.037 A 
ATOM     97  C   UNL A   1      40.742  30.964  35.161  1.00  0.00     0.049 A 
ATOM     98  C   UNL A   1      41.685  28.040  30.477  1.00  0.00     0.074 A 
ATOM     99  C   UNL A   1      41.538  30.664  36.252  1.00  0.00    -0.036 A 
ATOM    100  N   UNL A   1      41.157  30.141  34.123  1.00  0.00    -0.354 N 
ATOM    101  N   UNL A   1      41.577  28.630  31.642  1.00  0.00    -0.248 NA
ATOM    102  C   UNL A   1      42.793  27.078  30.394  1.00  0.00    -0.034 C 
ATOM    103  C   UNL A   1      42.473  29.700  35.859  1.00  0.00    -0.036 A 
ATOM    104  H   UNL A   1      41.456  31.078  37.193  1.00  0.00     0.065 H 
ATOM    105  C   UNL A   1      42.218  29.352  34.543  1.00  0.00     0.049 A 
ATOM    106  H   UNL A   1      40.759  30.121  33.223  1.00  0.00     0.167 HD
ATOM    107  C   UNL A   1      42.576  28.088  32.440  1.00  0.00     0.074 A 
ATOM    108  C   UNL A   1      43.272  27.110  31.629  1.00  0.00    -0.034 C 
ATOM    109  H   UNL A   1      43.113  26.522  29.586  1.00  0.00     0.065 H 
ATOM    110  H   UNL A   1      43.226  29.314  36.449  1.00  0.00     0.065 H 
ATOM    111  C   UNL A   1      42.890  28.373  33.727  1.00  0.00     0.037 A 
ATOM    112  H   UNL A   1      44.042  26.514  31.970  1.00  0.00     0.065 H 
BRANCH  93 113
ATOM    113  C   UNL A   1      39.401  32.797  36.260  1.00  0.00     0.064 A 
ATOM    114  C   UNL A   1      40.049  34.028  36.448  1.00  0.00     0.173 A 
ATOM    115  C   UNL A   1      38.437  32.415  37.205  1.00  0.00     0.173 A 
ATOM    116  F   UNL A   1      40.987  34.437  35.581  1.00  0.00    -0.203 F 
ATOM    117  C   UNL A   1      39.761  34.829  37.550  1.00  0.00     0.198 A 
ATOM    118  C   UNL A   1      38.128  33.233  38.287  1.00  0.00     0.198 A 
ATOM    119  F   UNL A   1      37.783  31.250  37.072  1.00  0.00    -0.203 F 
ATOM    120  F   UNL A   1      40.428  35.977  37.733  1.00  0.00    -0.200 F 
ATOM    121  C   UNL A   1      38.795  34.436  38.463  1.00  0.00     0.200 A 
ATOM    122  F   UNL A   1      37.182  32.859  39.160  1.00  0.00    -0.200 F 
ATOM    123  F   UNL A   1      38.510  35.215  39.516  1.00  0.00    -0.200 F 
ENDBRANCH  93 113
BRANCH  96 124
ATOM    124  C   UNL A   1      41.128  27.427  28.011  1.00  0.00     0.064 A 
ATOM    125  C   UNL A   1      40.602  26.139  27.833  1.00  0.00     0.173 A 
ATOM    126  C   UNL A   1      41.951  27.940  26.996  1.00  0.00     0.173 A 
ATOM    127  F   UNL A   1      39.826  25.596  28.782  1.00  0.00    -0.203 F 
ATOM    128  C   UNL A   1      40.912  25.383  26.704  1.00  0.00     0.198 A 
ATOM    129  C   UNL A   1      42.232  27.196  25.852  1.00  0.00     0.198 A 
ATOM    130  F   UNL A   1      42.475  29.168  27.113  1.00  0.00    -0.203 F 
ATOM    131  F   UNL A   1      40.443  24.134  26.588  1.00  0.00    -0.200 F 
ATOM    132  C   UNL A   1      41.723  25.915  25.712  1.00  0.00     0.200 A 
ATOM    133  F   UNL A   1      43.002  27.720  24.888  1.00  0.00    -0.200 F 
ATOM    134  F   UNL A   1      42.020  25.188  24.626  1.00  0.00    -0.200 F 
ENDBRANCH  96 124
BRANCH 111 135
ATOM    135  C   UNL A   1      44.004  27.586  34.358  1.00  0.00     0.064 A 
ATOM    136  C   UNL A   1      45.322  28.064  34.389  1.00  0.00     0.173 A 
ATOM    137  C   UNL A   1      43.737  26.356  34.978  1.00  0.00     0.173 A 
ATOM    138  F   UNL A   1      45.634  29.227  33.799  1.00  0.00    -0.203 F 
ATOM    139  C   UNL A   1      46.337  27.324  34.991  1.00  0.00     0.198 A 
ATOM    140  C   UNL A   1      44.747  25.637  35.610  1.00  0.00     0.198 A 
ATOM    141  F   UNL A   1      42.491  25.858  34.985  1.00  0.00    -0.203 F 
ATOM    142  F   UNL A   1      47.599  27.774  34.961  1.00  0.00    -0.200 F 
ATOM    143  C   UNL A   1      46.047  26.116  35.609  1.00  0.00     0.200 A 
ATOM    144  F   UNL A   1      44.461  24.478  36.220  1.00  0.00    -0.200 F 
ATOM    145  F   UNL A   1      47.023  25.411  36.196  1.00  0.00    -0.200 F 
ENDBRANCH 111 135
ENDBRANCH  76  79
ENDBRANCH  66  69
ENDBRANCH  62  65
ENDBRANCH  59  62
ENDBRANCH  56  59
ENDBRANCH   1  56
TORSDOF 18
ENDMDL
MODEL 4
REMARK VINA RESULT:     -12.4      0.537      7.143
REMARK SMILES C[C@@H](C(=O)NCCCCCCNC(=O)c1ccc(-c2c3nc(c(-c4c(F)c(F)c(F)c(F)c4F)c4ccc([nH]4)c(-c4c(F)c(F)c(F)c(F)c4F)c4nc(c(-c5c(F)c(F)c(F)c(F)c5F)c5ccc2[nH]5)C=C4)C=C3)cc1)c1ccc(C[C@H]2CCCC2=O)cc1-c1ccccc1
REMARK SMILES IDX 8 1 7 4 6 7 5 10 3 11 4 12 2 14 1 16 78 20 79 21 90 22 80 23
REMARK SMILES IDX 89 25 81 26 91 29 92 30 96 31 93 32 95 34 94 36 82 40 83 43
REMARK SMILES IDX 84 44 87 45 85 47 86 50 88 51 9 56 10 59 11 62 12 65 13 66
REMARK SMILES IDX 14 68 15 69 16 70 77 71 17 72 76 74 18 76 19 79 20 80 70 81
REMARK SMILES IDX 21 82 75 83 69 84 71 85 22 86 74 87 68 89 67 91 23 93 55 96
REMARK SMILES IDX 35 97 54 98 36 99 39 100 53 101 72 102 37 103 38 105 52 107
REMARK SMILES IDX 73 108 40 111 24 113 25 114 33 115 26 116 27 117 31 118
REMARK SMILES IDX 34 119 28 120 29 121 32 122 30 123 56 124 57 125 65 126
REMARK SMILES IDX 58 127 59 128 63 129 66 130 60 131 61 132 64 133 62 134
REMARK SMILES IDX 41 135 42 136 50 137 43 138 44 139 48 140 51 141 45 142
REMARK SMILES IDX 46 143 49 144 47 145
REMARK H PARENT 8 2 8 3 7 5 7 6 6 8 6 9 5 13 2 15 1 17 1 18 1 19 79 24 80 27
REMARK H PARENT 89 28 92 33 96 35 93 37 95 38 94 39 82 41 82 42 83 46 84 48
REMARK H PARENT 84 49 85 52 85 53 86 54 86 55 9 57 9 58 10 60 10 61 11 63
REMARK H PARENT 11 64 12 67 16 73 77 75 17 77 76 78 75 88 69 90 71 92 74 94
REMARK H PARENT 68 95 36 104 39 106 72 109 37 110 73 112
REMARK Flexibility Score: inf
ROOT
ATOM      1  C   UNL A   1      32.465  30.288  26.046  1.00  0.00    -0.052 C 
ATOM      2  H   UNL A   1      32.365  30.106  24.996  1.00  0.00     0.027 H 
ATOM      3  H   UNL A   1      33.312  30.893  26.294  1.00  0.00     0.027 H 
ENDROOT
BRANCH   1   4
ATOM      4  C   UNL A   1      32.682  28.940  26.744  1.00  0.00    -0.036 C 
ATOM      5  H   UNL A   1      32.922  29.128  27.770  1.00  0.00     0.028 H 
ATOM      6  H   UNL A   1      31.775  28.385  26.622  1.00  0.00     0.028 H 
BRANCH   4   7
ATOM      7  C   UNL A   1      33.799  28.086  26.140  1.00  0.00     0.017 C 
ATOM      8  H   UNL A   1      34.611  28.027  26.834  1.00  0.00     0.049 H 
ATOM      9  H   UNL A   1      33.415  27.110  25.936  1.00  0.00     0.049 H 
BRANCH   7  10
ATOM     10  N   UNL A   1      34.274  28.667  24.905  1.00  0.00    -0.356 N 
ATOM     11  C   UNL A   1      34.008  28.342  23.607  1.00  0.00     0.227 C 
ATOM     12  O   UNL A   1      34.679  28.954  22.775  1.00  0.00    -0.274 OA
ATOM     13  H   UNL A   1      34.893  29.424  25.019  1.00  0.00     0.163 HD
BRANCH  11  14
ATOM     14  C   UNL A   1      32.907  27.307  23.278  1.00  0.00     0.061 C 
ATOM     15  H   UNL A   1      32.868  26.726  24.177  1.00  0.00     0.045 H 
BRANCH  14  16
ATOM     16  C   UNL A   1      33.277  26.432  22.080  1.00  0.00    -0.049 C 
ATOM     17  H   UNL A   1      33.330  25.409  22.388  1.00  0.00     0.024 H 
ATOM     18  H   UNL A   1      34.227  26.739  21.695  1.00  0.00     0.024 H 
ATOM     19  H   UNL A   1      32.532  26.537  21.319  1.00  0.00     0.024 H 
ENDBRANCH  14  16
BRANCH  14  20
ATOM     20  C   UNL A   1      31.488  27.861  23.069  1.00  0.00    -0.028 A 
ATOM     21  C   UNL A   1      31.273  28.926  22.173  1.00  0.00    -0.057 A 
ATOM     22  C   UNL A   1      30.350  27.253  23.663  1.00  0.00    -0.014 A 
ATOM     23  C   UNL A   1      30.004  29.446  21.934  1.00  0.00    -0.059 A 
ATOM     24  H   UNL A   1      32.081  29.333  21.676  1.00  0.00     0.063 H 
ATOM     25  C   UNL A   1      29.073  27.813  23.425  1.00  0.00    -0.051 A 
ATOM     26  C   UNL A   1      28.891  28.917  22.582  1.00  0.00    -0.047 A 
ATOM     27  H   UNL A   1      29.888  30.229  21.273  1.00  0.00     0.063 H 
ATOM     28  H   UNL A   1      28.250  27.397  23.887  1.00  0.00     0.063 H 
BRANCH  22  29
ATOM     29  C   UNL A   1      30.414  25.984  24.421  1.00  0.00    -0.018 A 
ATOM     30  C   UNL A   1      30.527  24.766  23.723  1.00  0.00    -0.054 A 
ATOM     31  C   UNL A   1      30.390  25.940  25.821  1.00  0.00    -0.054 A 
ATOM     32  C   UNL A   1      30.650  23.551  24.400  1.00  0.00    -0.062 A 
ATOM     33  H   UNL A   1      30.520  24.772  22.691  1.00  0.00     0.063 H 
ATOM     34  C   UNL A   1      30.528  24.725  26.502  1.00  0.00    -0.062 A 
ATOM     35  H   UNL A   1      30.271  26.814  26.357  1.00  0.00     0.063 H 
ATOM     36  C   UNL A   1      30.662  23.533  25.792  1.00  0.00    -0.062 A 
ATOM     37  H   UNL A   1      30.732  22.669  23.870  1.00  0.00     0.062 H 
ATOM     38  H   UNL A   1      30.531  24.712  27.534  1.00  0.00     0.062 H 
ATOM     39  H   UNL A   1      30.768  22.639  26.296  1.00  0.00     0.062 H 
ENDBRANCH  22  29
BRANCH  26  40
ATOM     40  C   UNL A   1      27.525  29.509  22.345  1.00  0.00    -0.018 C 
ATOM     41  H   UNL A   1      26.814  28.916  22.881  1.00  0.00     0.032 H 
ATOM     42  H   UNL A   1      27.391  29.505  21.282  1.00  0.00     0.032 H 
BRANCH  40  43
ATOM     43  C   UNL A   1      27.336  30.968  22.775  1.00  0.00     0.022 C 
ATOM     44  C   UNL A   1      27.914  31.347  24.141  1.00  0.00    -0.043 C 
ATOM     45  C   UNL A   1      28.026  31.949  21.856  1.00  0.00     0.136 C 
ATOM     46  H   UNL A   1      26.267  31.030  22.772  1.00  0.00     0.039 H 
ATOM     47  C   UNL A   1      29.270  31.987  23.872  1.00  0.00    -0.046 C 
ATOM     48  H   UNL A   1      28.031  30.474  24.748  1.00  0.00     0.027 H 
ATOM     49  H   UNL A   1      27.265  32.019  24.664  1.00  0.00     0.027 H 
ATOM     50  C   UNL A   1      29.132  32.709  22.539  1.00  0.00     0.006 C 
ATOM     51  O   UNL A   1      27.709  32.121  20.684  1.00  0.00    -0.299 OA
ATOM     52  H   UNL A   1      30.031  31.236  23.811  1.00  0.00     0.027 H 
ATOM     53  H   UNL A   1      29.551  32.658  24.656  1.00  0.00     0.027 H 
ATOM     54  H   UNL A   1      30.040  32.657  21.977  1.00  0.00     0.035 H 
ATOM     55  H   UNL A   1      28.922  33.754  22.646  1.00  0.00     0.035 H 
ENDBRANCH  40  43
ENDBRANCH  26  40
ENDBRANCH  14  20
ENDBRANCH  11  14
ENDBRANCH   7  10
ENDBRANCH   4   7
ENDBRANCH   1   4
BRANCH   1  56
ATOM     56  C   UNL A   1      31.233  31.069  26.511  1.00  0.00    -0.052 C 
ATOM     57  H   UNL A   1      30.998  30.759  27.507  1.00  0.00     0.027 H 
ATOM     58  H   UNL A   1      30.456  30.854  25.808  1.00  0.00     0.027 H 
BRANCH  56  59
ATOM     59  C   UNL A   1      31.405  32.588  26.514  1.00  0.00    -0.036 C 
ATOM     60  H   UNL A   1      30.533  33.024  26.953  1.00  0.00     0.028 H 
ATOM     61  H   UNL A   1      31.550  32.882  25.495  1.00  0.00     0.028 H 
BRANCH  59  62
ATOM     62  C   UNL A   1      32.623  33.080  27.287  1.00  0.00     0.018 C 
ATOM     63  H   UNL A   1      33.485  33.008  26.656  1.00  0.00     0.049 H 
ATOM     64  H   UNL A   1      32.730  32.468  28.159  1.00  0.00     0.049 H 
BRANCH  62  65
ATOM     65  N   UNL A   1      32.474  34.458  27.723  1.00  0.00    -0.352 N 
ATOM     66  C   UNL A   1      33.108  35.110  28.749  1.00  0.00     0.251 C 
ATOM     67  H   UNL A   1      31.829  34.997  27.211  1.00  0.00     0.163 HD
ATOM     68  O   UNL A   1      32.721  36.217  29.118  1.00  0.00    -0.269 OA
BRANCH  66  69
ATOM     69  C   UNL A   1      34.250  34.465  29.428  1.00  0.00     0.039 A 
ATOM     70  C   UNL A   1      34.020  33.742  30.600  1.00  0.00    -0.049 A 
ATOM     71  C   UNL A   1      35.540  34.565  28.901  1.00  0.00    -0.049 A 
ATOM     72  C   UNL A   1      35.078  33.071  31.214  1.00  0.00    -0.053 A 
ATOM     73  H   UNL A   1      33.074  33.705  31.010  1.00  0.00     0.063 H 
ATOM     74  C   UNL A   1      36.577  33.832  29.469  1.00  0.00    -0.053 A 
ATOM     75  H   UNL A   1      35.724  35.182  28.094  1.00  0.00     0.063 H 
ATOM     76  C   UNL A   1      36.358  33.082  30.634  1.00  0.00    -0.014 A 
ATOM     77  H   UNL A   1      34.919  32.564  32.099  1.00  0.00     0.063 H 
ATOM     78  H   UNL A   1      37.512  33.839  29.031  1.00  0.00     0.063 H 
BRANCH  76  79
ATOM     79  C   UNL A   1      37.480  32.316  31.235  1.00  0.00     0.031 A 
ATOM     80  C   UNL A   1      37.978  32.661  32.611  1.00  0.00     0.074 A 
ATOM     81  C   UNL A   1      38.086  31.350  30.518  1.00  0.00     0.049 A 
ATOM     82  N   UNL A   1      38.982  32.155  33.280  1.00  0.00    -0.248 NA
ATOM     83  C   UNL A   1      37.269  33.738  33.321  1.00  0.00    -0.034 C 
ATOM     84  C   UNL A   1      37.724  30.953  29.157  1.00  0.00    -0.036 A 
ATOM     85  N   UNL A   1      39.143  30.531  30.832  1.00  0.00    -0.354 N 
ATOM     86  C   UNL A   1      39.032  32.856  34.477  1.00  0.00     0.074 A 
ATOM     87  C   UNL A   1      37.995  33.862  34.422  1.00  0.00    -0.034 C 
ATOM     88  H   UNL A   1      36.426  34.261  33.035  1.00  0.00     0.065 H 
ATOM     89  C   UNL A   1      38.527  29.953  28.761  1.00  0.00    -0.036 A 
ATOM     90  H   UNL A   1      36.971  31.374  28.591  1.00  0.00     0.065 H 
ATOM     91  C   UNL A   1      39.489  29.666  29.821  1.00  0.00     0.049 A 
ATOM     92  H   UNL A   1      39.609  30.560  31.698  1.00  0.00     0.167 HD
ATOM     93  C   UNL A   1      39.853  32.661  35.537  1.00  0.00     0.037 A 
ATOM     94  H   UNL A   1      37.841  34.582  35.145  1.00  0.00     0.065 H 
ATOM     95  H   UNL A   1      38.474  29.465  27.853  1.00  0.00     0.065 H 
ATOM     96  C   UNL A   1      40.477  28.754  29.754  1.00  0.00     0.037 A 
ATOM     97  C   UNL A   1      40.870  31.644  35.595  1.00  0.00     0.049 A 
ATOM     98  C   UNL A   1      41.386  28.572  30.940  1.00  0.00     0.074 A 
ATOM     99  C   UNL A   1      41.715  31.329  36.644  1.00  0.00    -0.036 A 
ATOM    100  N   UNL A   1      41.182  30.778  34.556  1.00  0.00    -0.354 N 
ATOM    101  N   UNL A   1      41.378  29.193  32.094  1.00  0.00    -0.248 NA
ATOM    102  C   UNL A   1      42.440  27.555  30.816  1.00  0.00    -0.034 C 
ATOM    103  C   UNL A   1      42.577  30.312  36.221  1.00  0.00    -0.036 A 
ATOM    104  H   UNL A   1      41.710  31.768  37.578  1.00  0.00     0.065 H 
ATOM    105  C   UNL A   1      42.227  29.948  34.932  1.00  0.00     0.049 A 
ATOM    106  H   UNL A   1      40.729  30.758  33.682  1.00  0.00     0.167 HD
ATOM    107  C   UNL A   1      42.397  28.620  32.844  1.00  0.00     0.074 A 
ATOM    108  C   UNL A   1      42.994  27.591  32.019  1.00  0.00    -0.034 C 
ATOM    109  H   UNL A   1      42.684  26.966  30.004  1.00  0.00     0.065 H 
ATOM    110  H   UNL A   1      43.345  29.902  36.776  1.00  0.00     0.065 H 
ATOM    111  C   UNL A   1      42.801  28.919  34.103  1.00  0.00     0.037 A 
ATOM    112  H   UNL A   1      43.753  26.965  32.328  1.00  0.00     0.065 H 
BRANCH  93 113
ATOM    113  C   UNL A   1      39.687  33.565  36.725  1.00  0.00     0.064 A 
ATOM    114  C   UNL A   1      40.336  34.807  36.802  1.00  0.00     0.173 A 
ATOM    115  C   UNL A   1      38.831  33.208  37.777  1.00  0.00     0.173 A 
ATOM    116  F   UNL A   1      41.175  35.194  35.829  1.00  0.00    -0.203 F 
ATOM    117  C   UNL A   1      40.154  35.644  37.900  1.00  0.00     0.198 A 
ATOM    118  C   UNL A   1      38.625  34.062  38.857  1.00  0.00     0.198 A 
ATOM    119  F   UNL A   1      38.180  32.034  37.753  1.00  0.00    -0.203 F 
ATOM    120  F   UNL A   1      40.822  36.804  37.973  1.00  0.00    -0.200 F 
ATOM    121  C   UNL A   1      39.292  35.276  38.921  1.00  0.00     0.200 A 
ATOM    122  F   UNL A   1      37.779  33.712  39.835  1.00  0.00    -0.200 F 
ATOM    123  F   UNL A   1      39.107  36.090  39.970  1.00  0.00    -0.200 F 
ENDBRANCH  93 113
BRANCH  96 124
ATOM    124  C   UNL A   1      40.653  27.932  28.527  1.00  0.00     0.064 A 
ATOM    125  C   UNL A   1      41.430  28.391  27.454  1.00  0.00     0.173 A 
ATOM    126  C   UNL A   1      40.033  26.680  28.392  1.00  0.00     0.173 A 
ATOM    127  F   UNL A   1      42.028  29.591  27.526  1.00  0.00    -0.203 F 
ATOM    128  C   UNL A   1      41.556  27.647  26.283  1.00  0.00     0.198 A 
ATOM    129  C   UNL A   1      40.188  25.921  27.234  1.00  0.00     0.198 A 
ATOM    130  F   UNL A   1      39.284  26.190  29.390  1.00  0.00    -0.203 F 
ATOM    131  F   UNL A   1      42.257  28.137  25.253  1.00  0.00    -0.200 F 
ATOM    132  C   UNL A   1      40.938  26.410  26.176  1.00  0.00     0.200 A 
ATOM    133  F   UNL A   1      39.603  24.718  27.142  1.00  0.00    -0.200 F 
ATOM    134  F   UNL A   1      41.060  25.694  25.050  1.00  0.00    -0.200 F 
ENDBRANCH  96 124
BRANCH 111 135
ATOM    135  C   UNL A   1      43.912  28.092  34.687  1.00  0.00     0.064 A 
ATOM    136  C   UNL A   1      43.662  26.894  35.371  1.00  0.00     0.173 A 
ATOM    137  C   UNL A   1      45.249  28.486  34.519  1.00  0.00     0.173 A 
ATOM    138  F   UNL A   1      42.403  26.479  35.571  1.00  0.00    -0.203 F 
ATOM    139  C   UNL A   1      44.709  26.137  35.892  1.00  0.00     0.198 A 
ATOM    140  C   UNL A   1      46.293  27.708  35.009  1.00  0.00     0.198 A 
ATOM    141  F   UNL A   1      45.543  29.619  33.864  1.00  0.00    -0.203 F 
ATOM    142  F   UNL A   1      44.444  25.023  36.589  1.00  0.00    -0.200 F 
ATOM    143  C   UNL A   1      46.023  26.539  35.703  1.00  0.00     0.200 A 
ATOM    144  F   UNL A   1      47.561  28.091  34.811  1.00  0.00    -0.200 F 
ATOM    145  F   UNL A   1      47.028  25.804  36.197  1.00  0.00    -0.200 F 
ENDBRANCH 111 135
ENDBRANCH  76  79
ENDBRANCH  66  69
ENDBRANCH  62  65
ENDBRANCH  59  62
ENDBRANCH  56  59
ENDBRANCH   1  56
TORSDOF 18
ENDMDL
MODEL 5
REMARK VINA RESULT:     -12.3      2.085      4.460
REMARK SMILES C[C@@H](C(=O)NCCCCCCNC(=O)c1ccc(-c2c3nc(c(-c4c(F)c(F)c(F)c(F)c4F)c4ccc([nH]4)c(-c4c(F)c(F)c(F)c(F)c4F)c4nc(c(-c5c(F)c(F)c(F)c(F)c5F)c5ccc2[nH]5)C=C4)C=C3)cc1)c1ccc(C[C@H]2CCCC2=O)cc1-c1ccccc1
REMARK SMILES IDX 8 1 7 4 6 7 5 10 3 11 4 12 2 14 1 16 78 20 79 21 90 22 80 23
REMARK SMILES IDX 89 25 81 26 91 29 92 30 96 31 93 32 95 34 94 36 82 40 83 43
REMARK SMILES IDX 84 44 87 45 85 47 86 50 88 51 9 56 10 59 11 62 12 65 13 66
REMARK SMILES IDX 14 68 15 69 16 70 77 71 17 72 76 74 18 76 19 79 20 80 70 81
REMARK SMILES IDX 21 82 75 83 69 84 71 85 22 86 74 87 68 89 67 91 23 93 55 96
REMARK SMILES IDX 35 97 54 98 36 99 39 100 53 101 72 102 37 103 38 105 52 107
REMARK SMILES IDX 73 108 40 111 24 113 25 114 33 115 26 116 27 117 31 118
REMARK SMILES IDX 34 119 28 120 29 121 32 122 30 123 56 124 57 125 65 126
REMARK SMILES IDX 58 127 59 128 63 129 66 130 60 131 61 132 64 133 62 134
REMARK SMILES IDX 41 135 42 136 50 137 43 138 44 139 48 140 51 141 45 142
REMARK SMILES IDX 46 143 49 144 47 145
REMARK H PARENT 8 2 8 3 7 5 7 6 6 8 6 9 5 13 2 15 1 17 1 18 1 19 79 24 80 27
REMARK H PARENT 89 28 92 33 96 35 93 37 95 38 94 39 82 41 82 42 83 46 84 48
REMARK H PARENT 84 49 85 52 85 53 86 54 86 55 9 57 9 58 10 60 10 61 11 63
REMARK H PARENT 11 64 12 67 16 73 77 75 17 77 76 78 75 88 69 90 71 92 74 94
REMARK H PARENT 68 95 36 104 39 106 72 109 37 110 73 112
REMARK Flexibility Score: inf
ROOT
ATOM      1  C   UNL A   1      30.659  30.573  24.909  1.00  0.00    -0.052 C 
ATOM      2  H   UNL A   1      29.717  30.408  25.389  1.00  0.00     0.027 H 
ATOM      3  H   UNL A   1      30.642  31.380  24.207  1.00  0.00     0.027 H 
ENDROOT
BRANCH   1   4
ATOM      4  C   UNL A   1      31.010  29.314  24.106  1.00  0.00    -0.036 C 
ATOM      5  H   UNL A   1      31.842  29.541  23.473  1.00  0.00     0.028 H 
ATOM      6  H   UNL A   1      31.225  28.547  24.821  1.00  0.00     0.028 H 
BRANCH   4   7
ATOM      7  C   UNL A   1      29.873  28.784  23.228  1.00  0.00     0.017 C 
ATOM      8  H   UNL A   1      29.018  29.417  23.340  1.00  0.00     0.049 H 
ATOM      9  H   UNL A   1      30.199  28.776  22.210  1.00  0.00     0.049 H 
BRANCH   7  10
ATOM     10  N   UNL A   1      29.519  27.436  23.612  1.00  0.00    -0.356 N 
ATOM     11  C   UNL A   1      30.178  26.255  23.435  1.00  0.00     0.227 C 
ATOM     12  O   UNL A   1      29.541  25.255  23.767  1.00  0.00    -0.274 OA
ATOM     13  H   UNL A   1      28.656  27.357  24.081  1.00  0.00     0.163 HD
BRANCH  11  14
ATOM     14  C   UNL A   1      31.626  26.251  22.893  1.00  0.00     0.061 C 
ATOM     15  H   UNL A   1      32.033  27.141  23.330  1.00  0.00     0.045 H 
BRANCH  14  16
ATOM     16  C   UNL A   1      31.671  26.326  21.366  1.00  0.00    -0.049 C 
ATOM     17  H   UNL A   1      30.757  25.944  20.963  1.00  0.00     0.024 H 
ATOM     18  H   UNL A   1      32.492  25.742  21.006  1.00  0.00     0.024 H 
ATOM     19  H   UNL A   1      31.797  27.344  21.063  1.00  0.00     0.024 H 
ENDBRANCH  14  16
BRANCH  14  20
ATOM     20  C   UNL A   1      32.528  25.097  23.360  1.00  0.00    -0.028 A 
ATOM     21  C   UNL A   1      32.941  24.111  22.444  1.00  0.00    -0.057 A 
ATOM     22  C   UNL A   1      33.067  25.051  24.674  1.00  0.00    -0.014 A 
ATOM     23  C   UNL A   1      33.775  23.060  22.816  1.00  0.00    -0.059 A 
ATOM     24  H   UNL A   1      32.617  24.170  21.466  1.00  0.00     0.063 H 
ATOM     25  C   UNL A   1      33.893  23.961  25.036  1.00  0.00    -0.051 A 
ATOM     26  C   UNL A   1      34.236  22.954  24.125  1.00  0.00    -0.047 A 
ATOM     27  H   UNL A   1      34.053  22.355  22.116  1.00  0.00     0.063 H 
ATOM     28  H   UNL A   1      34.254  23.906  26.001  1.00  0.00     0.063 H 
BRANCH  22  29
ATOM     29  C   UNL A   1      32.913  26.151  25.651  1.00  0.00    -0.018 A 
ATOM     30  C   UNL A   1      33.946  27.098  25.796  1.00  0.00    -0.054 A 
ATOM     31  C   UNL A   1      31.761  26.310  26.433  1.00  0.00    -0.054 A 
ATOM     32  C   UNL A   1      33.816  28.185  26.663  1.00  0.00    -0.062 A 
ATOM     33  H   UNL A   1      34.815  26.987  25.250  1.00  0.00     0.063 H 
ATOM     34  C   UNL A   1      31.624  27.406  27.291  1.00  0.00    -0.062 A 
ATOM     35  H   UNL A   1      31.005  25.610  26.374  1.00  0.00     0.063 H 
ATOM     36  C   UNL A   1      32.648  28.344  27.403  1.00  0.00    -0.062 A 
ATOM     37  H   UNL A   1      34.584  28.868  26.754  1.00  0.00     0.062 H 
ATOM     38  H   UNL A   1      30.759  27.520  27.843  1.00  0.00     0.062 H 
ATOM     39  H   UNL A   1      32.542  29.155  28.032  1.00  0.00     0.062 H 
ENDBRANCH  22  29
BRANCH  26  40
ATOM     40  C   UNL A   1      35.110  21.793  24.528  1.00  0.00    -0.018 C 
ATOM     41  H   UNL A   1      34.710  20.911  24.074  1.00  0.00     0.032 H 
ATOM     42  H   UNL A   1      35.099  21.784  25.598  1.00  0.00     0.032 H 
BRANCH  40  43
ATOM     43  C   UNL A   1      36.588  21.891  24.135  1.00  0.00     0.022 C 
ATOM     44  C   UNL A   1      37.253  23.254  24.352  1.00  0.00    -0.043 C 
ATOM     45  C   UNL A   1      37.477  20.974  24.944  1.00  0.00     0.136 C 
ATOM     46  H   UNL A   1      36.526  21.648  23.095  1.00  0.00     0.039 H 
ATOM     47  C   UNL A   1      37.992  23.165  25.682  1.00  0.00    -0.046 C 
ATOM     48  H   UNL A   1      36.513  24.024  24.390  1.00  0.00     0.027 H 
ATOM     49  H   UNL A   1      37.924  23.490  23.551  1.00  0.00     0.027 H 
ATOM     50  C   UNL A   1      38.462  21.722  25.802  1.00  0.00     0.006 C 
ATOM     51  O   UNL A   1      37.413  19.750  24.894  1.00  0.00    -0.299 OA
ATOM     52  H   UNL A   1      37.334  23.411  26.490  1.00  0.00     0.027 H 
ATOM     53  H   UNL A   1      38.812  23.851  25.723  1.00  0.00     0.027 H 
ATOM     54  H   UNL A   1      38.422  21.388  26.817  1.00  0.00     0.035 H 
ATOM     55  H   UNL A   1      39.478  21.583  25.495  1.00  0.00     0.035 H 
ENDBRANCH  40  43
ENDBRANCH  26  40
ENDBRANCH  14  20
ENDBRANCH  11  14
ENDBRANCH   7  10
ENDBRANCH   4   7
ENDBRANCH   1   4
BRANCH   1  56
ATOM     56  C   UNL A   1      31.677  30.962  25.984  1.00  0.00    -0.052 C 
ATOM     57  H   UNL A   1      32.636  31.047  25.519  1.00  0.00     0.027 H 
ATOM     58  H   UNL A   1      31.636  30.197  26.730  1.00  0.00     0.027 H 
BRANCH  56  59
ATOM     59  C   UNL A   1      31.376  32.280  26.697  1.00  0.00    -0.036 C 
ATOM     60  H   UNL A   1      30.618  32.099  27.430  1.00  0.00     0.028 H 
ATOM     61  H   UNL A   1      31.069  32.974  25.942  1.00  0.00     0.028 H 
BRANCH  59  62
ATOM     62  C   UNL A   1      32.578  32.902  27.398  1.00  0.00     0.018 C 
ATOM     63  H   UNL A   1      33.438  32.793  26.771  1.00  0.00     0.049 H 
ATOM     64  H   UNL A   1      32.712  32.398  28.333  1.00  0.00     0.049 H 
BRANCH  62  65
ATOM     65  N   UNL A   1      32.376  34.314  27.678  1.00  0.00    -0.352 N 
ATOM     66  C   UNL A   1      32.975  35.097  28.630  1.00  0.00     0.251 C 
ATOM     67  H   UNL A   1      31.720  34.771  27.103  1.00  0.00     0.163 HD
ATOM     68  O   UNL A   1      32.546  36.225  28.871  1.00  0.00    -0.269 OA
BRANCH  66  69
ATOM     69  C   UNL A   1      34.129  34.571  29.387  1.00  0.00     0.039 A 
ATOM     70  C   UNL A   1      33.912  33.997  30.641  1.00  0.00    -0.049 A 
ATOM     71  C   UNL A   1      35.419  34.636  28.854  1.00  0.00    -0.049 A 
ATOM     72  C   UNL A   1      34.983  33.434  31.336  1.00  0.00    -0.053 A 
ATOM     73  H   UNL A   1      32.965  33.988  31.051  1.00  0.00     0.063 H 
ATOM     74  C   UNL A   1      36.471  34.006  29.511  1.00  0.00    -0.053 A 
ATOM     75  H   UNL A   1      35.592  35.151  27.976  1.00  0.00     0.063 H 
ATOM     76  C   UNL A   1      36.265  33.404  30.761  1.00  0.00    -0.014 A 
ATOM     77  H   UNL A   1      34.833  33.039  32.277  1.00  0.00     0.063 H 
ATOM     78  H   UNL A   1      37.407  33.982  29.077  1.00  0.00     0.063 H 
BRANCH  76  79
ATOM     79  C   UNL A   1      37.402  32.747  31.455  1.00  0.00     0.031 A 
ATOM     80  C   UNL A   1      38.101  31.578  30.819  1.00  0.00     0.074 A 
ATOM     81  C   UNL A   1      37.765  33.168  32.682  1.00  0.00     0.049 A 
ATOM     82  N   UNL A   1      39.068  30.833  31.293  1.00  0.00    -0.248 NA
ATOM     83  C   UNL A   1      37.634  31.173  29.484  1.00  0.00    -0.034 C 
ATOM     84  C   UNL A   1      37.136  34.262  33.422  1.00  0.00    -0.036 A 
ATOM     85  N   UNL A   1      38.748  32.717  33.530  1.00  0.00    -0.354 N 
ATOM     86  C   UNL A   1      39.314  29.870  30.323  1.00  0.00     0.074 A 
ATOM     87  C   UNL A   1      38.359  30.088  29.259  1.00  0.00    -0.034 C 
ATOM     88  H   UNL A   1      36.925  31.619  28.880  1.00  0.00     0.065 H 
ATOM     89  C   UNL A   1      37.761  34.414  34.601  1.00  0.00    -0.036 A 
ATOM     90  H   UNL A   1      36.338  34.828  33.092  1.00  0.00     0.065 H 
ATOM     91  C   UNL A   1      38.806  33.402  34.720  1.00  0.00     0.049 A 
ATOM     92  H   UNL A   1      39.354  31.974  33.306  1.00  0.00     0.167 HD
ATOM     93  C   UNL A   1      40.267  28.909  30.309  1.00  0.00     0.037 A 
ATOM     94  H   UNL A   1      38.256  29.478  28.433  1.00  0.00     0.065 H 
ATOM     95  H   UNL A   1      37.539  35.131  35.309  1.00  0.00     0.065 H 
ATOM     96  C   UNL A   1      39.604  33.225  35.790  1.00  0.00     0.037 A 
ATOM     97  C   UNL A   1      41.229  28.711  31.362  1.00  0.00     0.049 A 
ATOM     98  C   UNL A   1      40.643  32.136  35.755  1.00  0.00     0.074 A 
ATOM     99  C   UNL A   1      42.270  27.801  31.418  1.00  0.00    -0.036 A 
ATOM    100  N   UNL A   1      41.265  29.433  32.546  1.00  0.00    -0.354 N 
ATOM    101  N   UNL A   1      40.913  31.278  34.802  1.00  0.00    -0.248 NA
ATOM    102  C   UNL A   1      41.495  31.995  36.945  1.00  0.00    -0.034 C 
ATOM    103  C   UNL A   1      42.901  27.933  32.660  1.00  0.00    -0.036 A 
ATOM    104  H   UNL A   1      42.537  27.139  30.672  1.00  0.00     0.065 H 
ATOM    105  C   UNL A   1      42.294  28.969  33.351  1.00  0.00     0.049 A 
ATOM    106  H   UNL A   1      40.650  30.165  32.781  1.00  0.00     0.167 HD
ATOM    107  C   UNL A   1      41.984  30.521  35.259  1.00  0.00     0.074 A 
ATOM    108  C   UNL A   1      42.324  31.032  36.572  1.00  0.00    -0.034 C 
ATOM    109  H   UNL A   1      41.457  32.512  37.837  1.00  0.00     0.065 H 
ATOM    110  H   UNL A   1      43.684  27.356  33.003  1.00  0.00     0.065 H 
ATOM    111  C   UNL A   1      42.628  29.497  34.649  1.00  0.00     0.037 A 
ATOM    112  H   UNL A   1      43.112  30.689  37.143  1.00  0.00     0.065 H 
BRANCH  93 113
ATOM    113  C   UNL A   1      40.322  27.994  29.120  1.00  0.00     0.064 A 
ATOM    114  C   UNL A   1      39.613  26.783  29.088  1.00  0.00     0.173 A 
ATOM    115  C   UNL A   1      41.050  28.355  27.976  1.00  0.00     0.173 A 
ATOM    116  F   UNL A   1      38.909  26.383  30.158  1.00  0.00    -0.203 F 
ATOM    117  C   UNL A   1      39.655  25.956  27.968  1.00  0.00     0.198 A 
ATOM    118  C   UNL A   1      41.062  27.543  26.846  1.00  0.00     0.198 A 
ATOM    119  F   UNL A   1      41.741  29.506  27.949  1.00  0.00    -0.203 F 
ATOM    120  F   UNL A   1      39.009  24.782  27.980  1.00  0.00    -0.200 F 
ATOM    121  C   UNL A   1      40.371  26.342  26.845  1.00  0.00     0.200 A 
ATOM    122  F   UNL A   1      41.742  27.925  25.755  1.00  0.00    -0.200 F 
ATOM    123  F   UNL A   1      40.399  25.551  25.763  1.00  0.00    -0.200 F 
ENDBRANCH  93 113
BRANCH  96 124
ATOM    124  C   UNL A   1      39.466  34.106  36.980  1.00  0.00     0.064 A 
ATOM    125  C   UNL A   1      40.100  35.356  37.031  1.00  0.00     0.173 A 
ATOM    126  C   UNL A   1      38.717  33.711  38.098  1.00  0.00     0.173 A 
ATOM    127  F   UNL A   1      40.845  35.772  35.995  1.00  0.00    -0.203 F 
ATOM    128  C   UNL A   1      40.015  36.163  38.164  1.00  0.00     0.198 A 
ATOM    129  C   UNL A   1      38.604  34.533  39.217  1.00  0.00     0.198 A 
ATOM    130  F   UNL A   1      38.085  32.528  38.100  1.00  0.00    -0.203 F 
ATOM    131  F   UNL A   1      40.679  37.325  38.206  1.00  0.00    -0.200 F 
ATOM    132  C   UNL A   1      39.263  35.752  39.254  1.00  0.00     0.200 A 
ATOM    133  F   UNL A   1      37.863  34.140  40.262  1.00  0.00    -0.200 F 
ATOM    134  F   UNL A   1      39.181  36.528  40.344  1.00  0.00    -0.200 F 
ENDBRANCH  96 124
BRANCH 111 135
ATOM    135  C   UNL A   1      43.798  28.888  35.370  1.00  0.00     0.064 A 
ATOM    136  C   UNL A   1      43.636  27.855  36.304  1.00  0.00     0.173 A 
ATOM    137  C   UNL A   1      45.104  29.319  35.088  1.00  0.00     0.173 A 
ATOM    138  F   UNL A   1      42.408  27.416  36.620  1.00  0.00    -0.203 F 
ATOM    139  C   UNL A   1      44.735  27.296  36.950  1.00  0.00     0.198 A 
ATOM    140  C   UNL A   1      46.203  28.733  35.709  1.00  0.00     0.198 A 
ATOM    141  F   UNL A   1      45.316  30.299  34.196  1.00  0.00    -0.203 F 
ATOM    142  F   UNL A   1      44.552  26.347  37.879  1.00  0.00    -0.200 F 
ATOM    143  C   UNL A   1      46.018  27.729  36.646  1.00  0.00     0.200 A 
ATOM    144  F   UNL A   1      47.441  29.142  35.401  1.00  0.00    -0.200 F 
ATOM    145  F   UNL A   1      47.075  27.183  37.262  1.00  0.00    -0.200 F 
ENDBRANCH 111 135
ENDBRANCH  76  79
ENDBRANCH  66  69
ENDBRANCH  62  65
ENDBRANCH  59  62
ENDBRANCH  56  59
ENDBRANCH   1  56
TORSDOF 18
ENDMDL
MODEL 6
REMARK VINA RESULT:     -12.2      4.039      7.841
REMARK SMILES C[C@@H](C(=O)NCCCCCCNC(=O)c1ccc(-c2c3nc(c(-c4c(F)c(F)c(F)c(F)c4F)c4ccc([nH]4)c(-c4c(F)c(F)c(F)c(F)c4F)c4nc(c(-c5c(F)c(F)c(F)c(F)c5F)c5ccc2[nH]5)C=C4)C=C3)cc1)c1ccc(C[C@H]2CCCC2=O)cc1-c1ccccc1
REMARK SMILES IDX 8 1 7 4 6 7 5 10 3 11 4 12 2 14 1 16 78 20 79 21 90 22 80 23
REMARK SMILES IDX 89 25 81 26 91 29 92 30 96 31 93 32 95 34 94 36 82 40 83 43
REMARK SMILES IDX 84 44 87 45 85 47 86 50 88 51 9 56 10 59 11 62 12 65 13 66
REMARK SMILES IDX 14 68 15 69 16 70 77 71 17 72 76 74 18 76 19 79 20 80 70 81
REMARK SMILES IDX 21 82 75 83 69 84 71 85 22 86 74 87 68 89 67 91 23 93 55 96
REMARK SMILES IDX 35 97 54 98 36 99 39 100 53 101 72 102 37 103 38 105 52 107
REMARK SMILES IDX 73 108 40 111 24 113 25 114 33 115 26 116 27 117 31 118
REMARK SMILES IDX 34 119 28 120 29 121 32 122 30 123 56 124 57 125 65 126
REMARK SMILES IDX 58 127 59 128 63 129 66 130 60 131 61 132 64 133 62 134
REMARK SMILES IDX 41 135 42 136 50 137 43 138 44 139 48 140 51 141 45 142
REMARK SMILES IDX 46 143 49 144 47 145
REMARK H PARENT 8 2 8 3 7 5 7 6 6 8 6 9 5 13 2 15 1 17 1 18 1 19 79 24 80 27
REMARK H PARENT 89 28 92 33 96 35 93 37 95 38 94 39 82 41 82 42 83 46 84 48
REMARK H PARENT 84 49 85 52 85 53 86 54 86 55 9 57 9 58 10 60 10 61 11 63
REMARK H PARENT 11 64 12 67 16 73 77 75 17 77 76 78 75 88 69 90 71 92 74 94
REMARK H PARENT 68 95 36 104 39 106 72 109 37 110 73 112
REMARK Flexibility Score: inf
ROOT
ATOM      1  C   UNL A   1      34.017  23.344  22.959  1.00  0.00    -0.052 C 
ATOM      2  H   UNL A   1      33.985  23.854  22.018  1.00  0.00     0.027 H 
ATOM      3  H   UNL A   1      34.148  22.287  22.864  1.00  0.00     0.027 H 
ENDROOT
BRANCH   1   4
ATOM      4  C   UNL A   1      32.666  23.548  23.656  1.00  0.00    -0.036 C 
ATOM      5  H   UNL A   1      32.131  24.313  23.134  1.00  0.00     0.028 H 
ATOM      6  H   UNL A   1      32.168  22.601  23.636  1.00  0.00     0.028 H 
BRANCH   4   7
ATOM      7  C   UNL A   1      32.768  23.955  25.128  1.00  0.00     0.017 C 
ATOM      8  H   UNL A   1      33.375  23.245  25.648  1.00  0.00     0.049 H 
ATOM      9  H   UNL A   1      33.204  24.930  25.187  1.00  0.00     0.049 H 
BRANCH   7  10
ATOM     10  N   UNL A   1      31.458  23.995  25.737  1.00  0.00    -0.356 N 
ATOM     11  C   UNL A   1      30.782  25.019  26.333  1.00  0.00     0.227 C 
ATOM     12  O   UNL A   1      29.725  24.693  26.875  1.00  0.00    -0.274 OA
ATOM     13  H   UNL A   1      30.971  23.139  25.719  1.00  0.00     0.163 HD
BRANCH  11  14
ATOM     14  C   UNL A   1      31.339  26.460  26.261  1.00  0.00     0.061 C 
ATOM     15  H   UNL A   1      32.389  26.289  26.135  1.00  0.00     0.045 H 
BRANCH  14  16
ATOM     16  C   UNL A   1      31.066  27.250  27.541  1.00  0.00    -0.049 C 
ATOM     17  H   UNL A   1      30.966  28.289  27.305  1.00  0.00     0.024 H 
ATOM     18  H   UNL A   1      31.879  27.116  28.222  1.00  0.00     0.024 H 
ATOM     19  H   UNL A   1      30.162  26.898  27.991  1.00  0.00     0.024 H 
ENDBRANCH  14  16
BRANCH  14  20
ATOM     20  C   UNL A   1      30.899  27.303  25.053  1.00  0.00    -0.028 A 
ATOM     21  C   UNL A   1      29.791  26.902  24.281  1.00  0.00    -0.057 A 
ATOM     22  C   UNL A   1      31.500  28.555  24.753  1.00  0.00    -0.014 A 
ATOM     23  C   UNL A   1      29.342  27.645  23.192  1.00  0.00    -0.059 A 
ATOM     24  H   UNL A   1      29.297  26.031  24.530  1.00  0.00     0.063 H 
ATOM     25  C   UNL A   1      31.042  29.280  23.628  1.00  0.00    -0.051 A 
ATOM     26  C   UNL A   1      29.982  28.827  22.832  1.00  0.00    -0.047 A 
ATOM     27  H   UNL A   1      28.530  27.316  22.649  1.00  0.00     0.063 H 
ATOM     28  H   UNL A   1      31.504  30.170  23.385  1.00  0.00     0.063 H 
BRANCH  22  29
ATOM     29  C   UNL A   1      32.499  29.203  25.629  1.00  0.00    -0.018 A 
ATOM     30  C   UNL A   1      32.148  30.373  26.332  1.00  0.00    -0.054 A 
ATOM     31  C   UNL A   1      33.789  28.687  25.813  1.00  0.00    -0.054 A 
ATOM     32  C   UNL A   1      33.041  30.983  27.215  1.00  0.00    -0.062 A 
ATOM     33  H   UNL A   1      31.213  30.786  26.192  1.00  0.00     0.063 H 
ATOM     34  C   UNL A   1      34.680  29.289  26.709  1.00  0.00    -0.062 A 
ATOM     35  H   UNL A   1      34.085  27.853  25.283  1.00  0.00     0.063 H 
ATOM     36  C   UNL A   1      34.305  30.433  27.411  1.00  0.00    -0.062 A 
ATOM     37  H   UNL A   1      32.765  31.839  27.720  1.00  0.00     0.062 H 
ATOM     38  H   UNL A   1      35.619  28.884  26.850  1.00  0.00     0.062 H 
ATOM     39  H   UNL A   1      34.961  30.872  28.075  1.00  0.00     0.062 H 
ENDBRANCH  22  29
BRANCH  26  40
ATOM     40  C   UNL A   1      29.511  29.607  21.631  1.00  0.00    -0.018 C 
ATOM     41  H   UNL A   1      29.395  28.919  20.820  1.00  0.00     0.032 H 
ATOM     42  H   UNL A   1      30.255  30.360  21.468  1.00  0.00     0.032 H 
BRANCH  40  43
ATOM     43  C   UNL A   1      28.189  30.366  21.792  1.00  0.00     0.022 C 
ATOM     44  C   UNL A   1      27.701  30.569  23.229  1.00  0.00    -0.043 C 
ATOM     45  C   UNL A   1      28.257  31.786  21.277  1.00  0.00     0.136 C 
ATOM     46  H   UNL A   1      27.533  29.724  21.243  1.00  0.00     0.039 H 
ATOM     47  C   UNL A   1      28.133  31.973  23.636  1.00  0.00    -0.046 C 
ATOM     48  H   UNL A   1      28.146  29.844  23.876  1.00  0.00     0.027 H 
ATOM     49  H   UNL A   1      26.639  30.455  23.297  1.00  0.00     0.027 H 
ATOM     50  C   UNL A   1      28.075  32.810  22.365  1.00  0.00     0.006 C 
ATOM     51  O   UNL A   1      28.424  32.073  20.097  1.00  0.00    -0.299 OA
ATOM     52  H   UNL A   1      29.128  31.958  24.027  1.00  0.00     0.027 H 
ATOM     53  H   UNL A   1      27.500  32.373  24.400  1.00  0.00     0.027 H 
ATOM     54  H   UNL A   1      28.860  33.536  22.347  1.00  0.00     0.035 H 
ATOM     55  H   UNL A   1      27.167  33.370  22.270  1.00  0.00     0.035 H 
ENDBRANCH  40  43
ENDBRANCH  26  40
ENDBRANCH  14  20
ENDBRANCH  11  14
ENDBRANCH   7  10
ENDBRANCH   4   7
ENDBRANCH   1   4
BRANCH   1  56
ATOM     56  C   UNL A   1      35.233  23.858  23.735  1.00  0.00    -0.052 C 
ATOM     57  H   UNL A   1      34.895  24.589  24.437  1.00  0.00     0.027 H 
ATOM     58  H   UNL A   1      35.910  24.254  23.008  1.00  0.00     0.027 H 
BRANCH  56  59
ATOM     59  C   UNL A   1      36.000  22.781  24.501  1.00  0.00    -0.036 C 
ATOM     60  H   UNL A   1      36.606  22.241  23.805  1.00  0.00     0.028 H 
ATOM     61  H   UNL A   1      35.267  22.166  24.981  1.00  0.00     0.028 H 
BRANCH  59  62
ATOM     62  C   UNL A   1      36.905  23.319  25.603  1.00  0.00     0.018 C 
ATOM     63  H   UNL A   1      36.322  23.467  26.488  1.00  0.00     0.049 H 
ATOM     64  H   UNL A   1      37.331  24.240  25.260  1.00  0.00     0.049 H 
BRANCH  62  65
ATOM     65  N   UNL A   1      37.996  22.408  25.907  1.00  0.00    -0.352 N 
ATOM     66  C   UNL A   1      39.243  22.693  26.400  1.00  0.00     0.251 C 
ATOM     67  H   UNL A   1      37.814  21.456  25.735  1.00  0.00     0.163 HD
ATOM     68  O   UNL A   1      40.122  21.832  26.410  1.00  0.00    -0.269 OA
BRANCH  66  69
ATOM     69  C   UNL A   1      39.536  24.051  26.902  1.00  0.00     0.039 A 
ATOM     70  C   UNL A   1      39.231  24.363  28.228  1.00  0.00    -0.049 A 
ATOM     71  C   UNL A   1      40.119  25.007  26.067  1.00  0.00    -0.049 A 
ATOM     72  C   UNL A   1      39.565  25.620  28.734  1.00  0.00    -0.053 A 
ATOM     73  H   UNL A   1      38.762  23.669  28.830  1.00  0.00     0.063 H 
ATOM     74  C   UNL A   1      40.523  26.230  26.593  1.00  0.00    -0.053 A 
ATOM     75  H   UNL A   1      40.250  24.808  25.062  1.00  0.00     0.063 H 
ATOM     76  C   UNL A   1      40.245  26.552  27.931  1.00  0.00    -0.014 A 
ATOM     77  H   UNL A   1      39.311  25.867  29.703  1.00  0.00     0.063 H 
ATOM     78  H   UNL A   1      41.029  26.904  25.998  1.00  0.00     0.063 H 
BRANCH  76  79
ATOM     79  C   UNL A   1      40.670  27.867  28.473  1.00  0.00     0.031 A 
ATOM     80  C   UNL A   1      42.109  28.102  28.840  1.00  0.00     0.074 A 
ATOM     81  C   UNL A   1      39.751  28.827  28.688  1.00  0.00     0.049 A 
ATOM     82  N   UNL A   1      42.664  29.155  29.386  1.00  0.00    -0.248 NA
ATOM     83  C   UNL A   1      43.047  26.996  28.586  1.00  0.00    -0.034 C 
ATOM     84  C   UNL A   1      38.319  28.704  28.415  1.00  0.00    -0.036 A 
ATOM     85  N   UNL A   1      39.883  30.096  29.198  1.00  0.00    -0.354 N 
ATOM     86  C   UNL A   1      44.005  28.834  29.549  1.00  0.00     0.074 A 
ATOM     87  C   UNL A   1      44.172  27.470  29.099  1.00  0.00    -0.034 C 
ATOM     88  H   UNL A   1      42.873  26.088  28.127  1.00  0.00     0.065 H 
ATOM     89  C   UNL A   1      37.708  29.855  28.736  1.00  0.00    -0.036 A 
ATOM     90  H   UNL A   1      37.852  27.866  28.035  1.00  0.00     0.065 H 
ATOM     91  C   UNL A   1      38.696  30.784  29.279  1.00  0.00     0.049 A 
ATOM     92  H   UNL A   1      40.746  30.477  29.479  1.00  0.00     0.167 HD
ATOM     93  C   UNL A   1      45.011  29.616  30.009  1.00  0.00     0.037 A 
ATOM     94  H   UNL A   1      45.053  26.937  29.169  1.00  0.00     0.065 H 
ATOM     95  H   UNL A   1      36.702  30.054  28.618  1.00  0.00     0.065 H 
ATOM     96  C   UNL A   1      38.433  32.018  29.747  1.00  0.00     0.037 A 
ATOM     97  C   UNL A   1      44.842  30.981  30.435  1.00  0.00     0.049 A 
ATOM     98  C   UNL A   1      39.567  32.859  30.270  1.00  0.00     0.074 A 
ATOM     99  C   UNL A   1      45.807  31.875  30.865  1.00  0.00    -0.036 A 
ATOM    100  N   UNL A   1      43.626  31.647  30.490  1.00  0.00    -0.354 N 
ATOM    101  N   UNL A   1      40.844  32.570  30.353  1.00  0.00    -0.248 NA
ATOM    102  C   UNL A   1      39.226  34.202  30.759  1.00  0.00    -0.034 C 
ATOM    103  C   UNL A   1      45.169  33.064  31.234  1.00  0.00    -0.036 A 
ATOM    104  H   UNL A   1      46.822  31.696  30.905  1.00  0.00     0.065 H 
ATOM    105  C   UNL A   1      43.814  32.933  30.973  1.00  0.00     0.049 A 
ATOM    106  H   UNL A   1      42.759  31.263  30.227  1.00  0.00     0.167 HD
ATOM    107  C   UNL A   1      41.460  33.703  30.868  1.00  0.00     0.074 A 
ATOM    108  C   UNL A   1      40.418  34.691  31.065  1.00  0.00    -0.034 C 
ATOM    109  H   UNL A   1      38.299  34.648  30.841  1.00  0.00     0.065 H 
ATOM    110  H   UNL A   1      45.628  33.897  31.633  1.00  0.00     0.065 H 
ATOM    111  C   UNL A   1      42.769  33.909  31.151  1.00  0.00     0.037 A 
ATOM    112  H   UNL A   1      40.585  35.652  31.400  1.00  0.00     0.065 H 
BRANCH  93 113
ATOM    113  C   UNL A   1      46.387  29.019  30.075  1.00  0.00     0.064 A 
ATOM    114  C   UNL A   1      46.853  28.367  31.228  1.00  0.00     0.173 A 
ATOM    115  C   UNL A   1      47.233  29.054  28.957  1.00  0.00     0.173 A 
ATOM    116  F   UNL A   1      46.090  28.314  32.329  1.00  0.00    -0.203 F 
ATOM    117  C   UNL A   1      48.123  27.798  31.265  1.00  0.00     0.198 A 
ATOM    118  C   UNL A   1      48.489  28.454  28.987  1.00  0.00     0.198 A 
ATOM    119  F   UNL A   1      46.836  29.659  27.826  1.00  0.00    -0.203 F 
ATOM    120  F   UNL A   1      48.564  27.223  32.393  1.00  0.00    -0.200 F 
ATOM    121  C   UNL A   1      48.936  27.833  30.143  1.00  0.00     0.200 A 
ATOM    122  F   UNL A   1      49.267  28.475  27.896  1.00  0.00    -0.200 F 
ATOM    123  F   UNL A   1      50.153  27.272  30.177  1.00  0.00    -0.200 F 
ENDBRANCH  93 113
BRANCH  96 124
ATOM    124  C   UNL A   1      37.042  32.543  29.733  1.00  0.00     0.064 A 
ATOM    125  C   UNL A   1      36.548  33.250  28.627  1.00  0.00     0.173 A 
ATOM    126  C   UNL A   1      36.184  32.369  30.830  1.00  0.00     0.173 A 
ATOM    127  F   UNL A   1      37.335  33.460  27.561  1.00  0.00    -0.203 F 
ATOM    128  C   UNL A   1      35.262  33.787  28.630  1.00  0.00     0.198 A 
ATOM    129  C   UNL A   1      34.887  32.878  30.818  1.00  0.00     0.198 A 
ATOM    130  F   UNL A   1      36.604  31.696  31.911  1.00  0.00    -0.203 F 
ATOM    131  F   UNL A   1      34.838  34.508  27.583  1.00  0.00    -0.200 F 
ATOM    132  C   UNL A   1      34.431  33.597  29.724  1.00  0.00     0.200 A 
ATOM    133  F   UNL A   1      34.082  32.676  31.870  1.00  0.00    -0.200 F 
ATOM    134  F   UNL A   1      33.195  34.114  29.726  1.00  0.00    -0.200 F 
ENDBRANCH  96 124
BRANCH 111 135
ATOM    135  C   UNL A   1      43.161  35.267  31.660  1.00  0.00     0.064 A 
ATOM    136  C   UNL A   1      43.629  36.273  30.801  1.00  0.00     0.173 A 
ATOM    137  C   UNL A   1      43.026  35.577  33.022  1.00  0.00     0.173 A 
ATOM    138  F   UNL A   1      43.790  36.024  29.493  1.00  0.00    -0.203 F 
ATOM    139  C   UNL A   1      43.974  37.529  31.293  1.00  0.00     0.198 A 
ATOM    140  C   UNL A   1      43.337  36.845  33.503  1.00  0.00     0.198 A 
ATOM    141  F   UNL A   1      42.574  34.655  33.885  1.00  0.00    -0.203 F 
ATOM    142  F   UNL A   1      44.470  38.458  30.463  1.00  0.00    -0.200 F 
ATOM    143  C   UNL A   1      43.820  37.818  32.641  1.00  0.00     0.200 A 
ATOM    144  F   UNL A   1      43.171  37.126  34.803  1.00  0.00    -0.200 F 
ATOM    145  F   UNL A   1      44.143  39.030  33.110  1.00  0.00    -0.200 F 
ENDBRANCH 111 135
ENDBRANCH  76  79
ENDBRANCH  66  69
ENDBRANCH  62  65
ENDBRANCH  59  62
ENDBRANCH  56  59
ENDBRANCH   1  56
TORSDOF 18
ENDMDL
MODEL 7
REMARK VINA RESULT:     -12.1      5.696     10.850
REMARK SMILES C[C@@H](C(=O)NCCCCCCNC(=O)c1ccc(-c2c3nc(c(-c4c(F)c(F)c(F)c(F)c4F)c4ccc([nH]4)c(-c4c(F)c(F)c(F)c(F)c4F)c4nc(c(-c5c(F)c(F)c(F)c(F)c5F)c5ccc2[nH]5)C=C4)C=C3)cc1)c1ccc(C[C@H]2CCCC2=O)cc1-c1ccccc1
REMARK SMILES IDX 8 1 7 4 6 7 5 10 3 11 4 12 2 14 1 16 78 20 79 21 90 22 80 23
REMARK SMILES IDX 89 25 81 26 91 29 92 30 96 31 93 32 95 34 94 36 82 40 83 43
REMARK SMILES IDX 84 44 87 45 85 47 86 50 88 51 9 56 10 59 11 62 12 65 13 66
REMARK SMILES IDX 14 68 15 69 16 70 77 71 17 72 76 74 18 76 19 79 20 80 70 81
REMARK SMILES IDX 21 82 75 83 69 84 71 85 22 86 74 87 68 89 67 91 23 93 55 96
REMARK SMILES IDX 35 97 54 98 36 99 39 100 53 101 72 102 37 103 38 105 52 107
REMARK SMILES IDX 73 108 40 111 24 113 25 114 33 115 26 116 27 117 31 118
REMARK SMILES IDX 34 119 28 120 29 121 32 122 30 123 56 124 57 125 65 126
REMARK SMILES IDX 58 127 59 128 63 129 66 130 60 131 61 132 64 133 62 134
REMARK SMILES IDX 41 135 42 136 50 137 43 138 44 139 48 140 51 141 45 142
REMARK SMILES IDX 46 143 49 144 47 145
REMARK H PARENT 8 2 8 3 7 5 7 6 6 8 6 9 5 13 2 15 1 17 1 18 1 19 79 24 80 27
REMARK H PARENT 89 28 92 33 96 35 93 37 95 38 94 39 82 41 82 42 83 46 84 48
REMARK H PARENT 84 49 85 52 85 53 86 54 86 55 9 57 9 58 10 60 10 61 11 63
REMARK H PARENT 11 64 12 67 16 73 77 75 17 77 76 78 75 88 69 90 71 92 74 94
REMARK H PARENT 68 95 36 104 39 106 72 109 37 110 73 112
REMARK Flexibility Score: inf
ROOT
ATOM      1  C   UNL A   1      35.770  20.109  25.335  1.00  0.00    -0.052 C 
ATOM      2  H   UNL A   1      35.749  19.594  26.273  1.00  0.00     0.027 H 
ATOM      3  H   UNL A   1      35.907  21.165  25.434  1.00  0.00     0.027 H 
ENDROOT
BRANCH   1   4
ATOM      4  C   UNL A   1      34.409  19.915  24.655  1.00  0.00    -0.036 C 
ATOM      5  H   UNL A   1      34.199  20.787  24.072  1.00  0.00     0.028 H 
ATOM      6  H   UNL A   1      34.489  19.027  24.064  1.00  0.00     0.028 H 
BRANCH   4   7
ATOM      7  C   UNL A   1      33.243  19.692  25.620  1.00  0.00     0.017 C 
ATOM      8  H   UNL A   1      32.929  18.671  25.562  1.00  0.00     0.049 H 
ATOM      9  H   UNL A   1      33.568  19.924  26.612  1.00  0.00     0.049 H 
BRANCH   7  10
ATOM     10  N   UNL A   1      32.130  20.550  25.283  1.00  0.00    -0.356 N 
ATOM     11  C   UNL A   1      31.860  21.840  25.635  1.00  0.00     0.227 C 
ATOM     12  O   UNL A   1      30.752  22.247  25.284  1.00  0.00    -0.274 OA
ATOM     13  H   UNL A   1      31.453  20.134  24.701  1.00  0.00     0.163 HD
BRANCH  11  14
ATOM     14  C   UNL A   1      32.924  22.678  26.379  1.00  0.00     0.061 C 
ATOM     15  H   UNL A   1      33.835  22.330  25.936  1.00  0.00     0.045 H 
BRANCH  14  16
ATOM     16  C   UNL A   1      32.917  22.416  27.886  1.00  0.00    -0.049 C 
ATOM     17  H   UNL A   1      32.196  21.658  28.112  1.00  0.00     0.024 H 
ATOM     18  H   UNL A   1      32.662  23.317  28.402  1.00  0.00     0.024 H 
ATOM     19  H   UNL A   1      33.887  22.089  28.195  1.00  0.00     0.024 H 
ENDBRANCH  14  16
BRANCH  14  20
ATOM     20  C   UNL A   1      32.888  24.196  26.140  1.00  0.00    -0.028 A 
ATOM     21  C   UNL A   1      31.839  24.969  26.674  1.00  0.00    -0.057 A 
ATOM     22  C   UNL A   1      33.953  24.879  25.492  1.00  0.00    -0.014 A 
ATOM     23  C   UNL A   1      31.776  26.349  26.502  1.00  0.00    -0.059 A 
ATOM     24  H   UNL A   1      31.093  24.498  27.210  1.00  0.00     0.063 H 
ATOM     25  C   UNL A   1      33.855  26.279  25.308  1.00  0.00    -0.051 A 
ATOM     26  C   UNL A   1      32.767  27.018  25.789  1.00  0.00    -0.047 A 
ATOM     27  H   UNL A   1      30.988  26.879  26.905  1.00  0.00     0.063 H 
ATOM     28  H   UNL A   1      34.609  26.771  24.803  1.00  0.00     0.063 H 
BRANCH  22  29
ATOM     29  C   UNL A   1      35.220  24.223  25.109  1.00  0.00    -0.018 A 
ATOM     30  C   UNL A   1      36.243  24.077  26.067  1.00  0.00    -0.054 A 
ATOM     31  C   UNL A   1      35.446  23.709  23.824  1.00  0.00    -0.054 A 
ATOM     32  C   UNL A   1      37.431  23.411  25.763  1.00  0.00    -0.062 A 
ATOM     33  H   UNL A   1      36.110  24.471  27.012  1.00  0.00     0.063 H 
ATOM     34  C   UNL A   1      36.631  23.028  23.523  1.00  0.00    -0.062 A 
ATOM     35  H   UNL A   1      34.730  23.834  23.092  1.00  0.00     0.063 H 
ATOM     36  C   UNL A   1      37.620  22.876  24.493  1.00  0.00    -0.062 A 
ATOM     37  H   UNL A   1      38.168  23.315  26.480  1.00  0.00     0.062 H 
ATOM     38  H   UNL A   1      36.772  22.637  22.578  1.00  0.00     0.062 H 
ATOM     39  H   UNL A   1      38.490  22.369  24.270  1.00  0.00     0.062 H 
ENDBRANCH  22  29
BRANCH  26  40
ATOM     40  C   UNL A   1      32.672  28.508  25.578  1.00  0.00    -0.018 C 
ATOM     41  H   UNL A   1      33.618  28.935  25.839  1.00  0.00     0.032 H 
ATOM     42  H   UNL A   1      31.856  28.833  26.190  1.00  0.00     0.032 H 
BRANCH  40  43
ATOM     43  C   UNL A   1      32.327  28.969  24.158  1.00  0.00     0.022 C 
ATOM     44  C   UNL A   1      33.462  28.897  23.132  1.00  0.00    -0.043 C 
ATOM     45  C   UNL A   1      31.257  28.124  23.505  1.00  0.00     0.136 C 
ATOM     46  H   UNL A   1      32.039  29.981  24.351  1.00  0.00     0.039 H 
ATOM     47  C   UNL A   1      33.264  27.596  22.363  1.00  0.00    -0.046 C 
ATOM     48  H   UNL A   1      34.409  28.892  23.629  1.00  0.00     0.027 H 
ATOM     49  H   UNL A   1      33.446  29.742  22.476  1.00  0.00     0.027 H 
ATOM     50  C   UNL A   1      31.759  27.375  22.300  1.00  0.00     0.006 C 
ATOM     51  O   UNL A   1      30.099  28.067  23.905  1.00  0.00    -0.299 OA
ATOM     52  H   UNL A   1      33.739  26.785  22.875  1.00  0.00     0.027 H 
ATOM     53  H   UNL A   1      33.696  27.648  21.386  1.00  0.00     0.027 H 
ATOM     54  H   UNL A   1      31.520  26.335  22.365  1.00  0.00     0.035 H 
ATOM     55  H   UNL A   1      31.322  27.711  21.382  1.00  0.00     0.035 H 
ENDBRANCH  40  43
ENDBRANCH  26  40
ENDBRANCH  14  20
ENDBRANCH  11  14
ENDBRANCH   7  10
ENDBRANCH   4   7
ENDBRANCH   1   4
BRANCH   1  56
ATOM     56  C   UNL A   1      36.973  19.595  24.540  1.00  0.00    -0.052 C 
ATOM     57  H   UNL A   1      37.445  20.433  24.072  1.00  0.00     0.027 H 
ATOM     58  H   UNL A   1      36.591  18.882  23.841  1.00  0.00     0.027 H 
BRANCH  56  59
ATOM     59  C   UNL A   1      38.023  18.863  25.376  1.00  0.00    -0.036 C 
ATOM     60  H   UNL A   1      38.307  17.974  24.853  1.00  0.00     0.028 H 
ATOM     61  H   UNL A   1      37.572  18.662  26.326  1.00  0.00     0.028 H 
BRANCH  59  62
ATOM     62  C   UNL A   1      39.282  19.675  25.654  1.00  0.00     0.018 C 
ATOM     63  H   UNL A   1      39.127  20.262  26.535  1.00  0.00     0.049 H 
ATOM     64  H   UNL A   1      39.469  20.297  24.802  1.00  0.00     0.049 H 
BRANCH  62  65
ATOM     65  N   UNL A   1      40.446  18.828  25.853  1.00  0.00    -0.352 N 
ATOM     66  C   UNL A   1      41.746  19.192  26.092  1.00  0.00     0.251 C 
ATOM     67  H   UNL A   1      40.277  17.859  25.811  1.00  0.00     0.163 HD
ATOM     68  O   UNL A   1      42.648  18.359  26.034  1.00  0.00    -0.269 OA
BRANCH  66  69
ATOM     69  C   UNL A   1      42.063  20.602  26.398  1.00  0.00     0.039 A 
ATOM     70  C   UNL A   1      42.283  20.974  27.725  1.00  0.00    -0.049 A 
ATOM     71  C   UNL A   1      42.151  21.550  25.375  1.00  0.00    -0.049 A 
ATOM     72  C   UNL A   1      42.651  22.287  28.020  1.00  0.00    -0.053 A 
ATOM     73  H   UNL A   1      42.176  20.282  28.483  1.00  0.00     0.063 H 
ATOM     74  C   UNL A   1      42.594  22.837  25.662  1.00  0.00    -0.053 A 
ATOM     75  H   UNL A   1      41.888  21.297  24.409  1.00  0.00     0.063 H 
ATOM     76  C   UNL A   1      42.843  23.221  26.988  1.00  0.00    -0.014 A 
ATOM     77  H   UNL A   1      42.782  22.574  29.003  1.00  0.00     0.063 H 
ATOM     78  H   UNL A   1      42.740  23.513  24.895  1.00  0.00     0.063 H 
BRANCH  76  79
ATOM     79  C   UNL A   1      43.302  24.603  27.278  1.00  0.00     0.031 A 
ATOM     80  C   UNL A   1      42.331  25.626  27.799  1.00  0.00     0.074 A 
ATOM     81  C   UNL A   1      44.576  24.950  27.018  1.00  0.00     0.049 A 
ATOM     82  N   UNL A   1      42.522  26.897  28.051  1.00  0.00    -0.248 NA
ATOM     83  C   UNL A   1      40.954  25.169  28.044  1.00  0.00    -0.034 C 
ATOM     84  C   UNL A   1      45.600  24.060  26.469  1.00  0.00    -0.036 A 
ATOM     85  N   UNL A   1      45.228  26.150  27.169  1.00  0.00    -0.354 N 
ATOM     86  C   UNL A   1      41.293  27.389  28.471  1.00  0.00     0.074 A 
ATOM     87  C   UNL A   1      40.349  26.297  28.386  1.00  0.00    -0.034 C 
ATOM     88  H   UNL A   1      40.561  24.217  27.969  1.00  0.00     0.065 H 
ATOM     89  C   UNL A   1      46.755  24.734  26.353  1.00  0.00    -0.036 A 
ATOM     90  H   UNL A   1      45.458  23.070  26.213  1.00  0.00     0.065 H 
ATOM     91  C   UNL A   1      46.544  26.116  26.776  1.00  0.00     0.049 A 
ATOM     92  H   UNL A   1      44.793  26.958  27.526  1.00  0.00     0.167 HD
ATOM     93  C   UNL A   1      40.987  28.632  28.912  1.00  0.00     0.037 A 
ATOM     94  H   UNL A   1      39.337  26.385  28.567  1.00  0.00     0.065 H 
ATOM     95  H   UNL A   1      47.648  24.341  26.019  1.00  0.00     0.065 H 
ATOM     96  C   UNL A   1      47.472  27.091  26.749  1.00  0.00     0.037 A 
ATOM     97  C   UNL A   1      41.937  29.709  29.015  1.00  0.00     0.049 A 
ATOM     98  C   UNL A   1      47.098  28.469  27.228  1.00  0.00     0.074 A 
ATOM     99  C   UNL A   1      41.738  30.989  29.501  1.00  0.00    -0.036 A 
ATOM    100  N   UNL A   1      43.264  29.633  28.619  1.00  0.00    -0.354 N 
ATOM    101  N   UNL A   1      45.951  28.904  27.690  1.00  0.00    -0.248 NA
ATOM    102  C   UNL A   1      48.153  29.493  27.188  1.00  0.00    -0.034 C 
ATOM    103  C   UNL A   1      42.930  31.705  29.348  1.00  0.00    -0.036 A 
ATOM    104  H   UNL A   1      40.862  31.353  29.909  1.00  0.00     0.065 H 
ATOM    105  C   UNL A   1      43.889  30.853  28.826  1.00  0.00     0.049 A 
ATOM    106  H   UNL A   1      43.698  28.832  28.246  1.00  0.00     0.167 HD
ATOM    107  C   UNL A   1      46.154  30.236  28.027  1.00  0.00     0.074 A 
ATOM    108  C   UNL A   1      47.540  30.534  27.730  1.00  0.00    -0.034 C 
ATOM    109  H   UNL A   1      49.118  29.418  26.831  1.00  0.00     0.065 H 
ATOM    110  H   UNL A   1      43.071  32.700  29.583  1.00  0.00     0.065 H 
ATOM    111  C   UNL A   1      45.273  31.130  28.538  1.00  0.00     0.037 A 
ATOM    112  H   UNL A   1      47.992  31.442  27.918  1.00  0.00     0.065 H 
BRANCH  93 113
ATOM    113  C   UNL A   1      39.567  28.899  29.319  1.00  0.00     0.064 A 
ATOM    114  C   UNL A   1      39.128  28.702  30.638  1.00  0.00     0.173 A 
ATOM    115  C   UNL A   1      38.644  29.407  28.392  1.00  0.00     0.173 A 
ATOM    116  F   UNL A   1      39.966  28.208  31.562  1.00  0.00    -0.203 F 
ATOM    117  C   UNL A   1      37.813  28.977  31.005  1.00  0.00     0.198 A 
ATOM    118  C   UNL A   1      37.340  29.713  28.771  1.00  0.00     0.198 A 
ATOM    119  F   UNL A   1      39.010  29.621  27.119  1.00  0.00    -0.203 F 
ATOM    120  F   UNL A   1      37.406  28.734  32.259  1.00  0.00    -0.200 F 
ATOM    121  C   UNL A   1      36.923  29.491  30.075  1.00  0.00     0.200 A 
ATOM    122  F   UNL A   1      36.485  30.224  27.874  1.00  0.00    -0.200 F 
ATOM    123  F   UNL A   1      35.662  29.767  30.434  1.00  0.00    -0.200 F 
ENDBRANCH  93 113
BRANCH  96 124
ATOM    124  C   UNL A   1      48.848  26.802  26.267  1.00  0.00     0.064 A 
ATOM    125  C   UNL A   1      49.189  26.961  24.916  1.00  0.00     0.173 A 
ATOM    126  C   UNL A   1      49.846  26.340  27.138  1.00  0.00     0.173 A 
ATOM    127  F   UNL A   1      48.265  27.382  24.038  1.00  0.00    -0.203 F 
ATOM    128  C   UNL A   1      50.462  26.642  24.450  1.00  0.00     0.198 A 
ATOM    129  C   UNL A   1      51.129  26.053  26.678  1.00  0.00     0.198 A 
ATOM    130  F   UNL A   1      49.576  26.175  28.442  1.00  0.00    -0.203 F 
ATOM    131  F   UNL A   1      50.742  26.750  23.144  1.00  0.00    -0.200 F 
ATOM    132  C   UNL A   1      51.433  26.193  25.333  1.00  0.00     0.200 A 
ATOM    133  F   UNL A   1      52.069  25.636  27.537  1.00  0.00    -0.200 F 
ATOM    134  F   UNL A   1      52.658  25.887  24.885  1.00  0.00    -0.200 F 
ENDBRANCH  96 124
BRANCH 111 135
ATOM    135  C   UNL A   1      45.790  32.506  28.854  1.00  0.00     0.064 A 
ATOM    136  C   UNL A   1      46.427  32.796  30.069  1.00  0.00     0.173 A 
ATOM    137  C   UNL A   1      45.683  33.536  27.906  1.00  0.00     0.173 A 
ATOM    138  F   UNL A   1      46.543  31.852  31.014  1.00  0.00    -0.203 F 
ATOM    139  C   UNL A   1      46.910  34.075  30.335  1.00  0.00     0.198 A 
ATOM    140  C   UNL A   1      46.199  34.802  28.162  1.00  0.00     0.198 A 
ATOM    141  F   UNL A   1      45.090  33.309  26.724  1.00  0.00    -0.203 F 
ATOM    142  F   UNL A   1      47.467  34.344  31.524  1.00  0.00    -0.200 F 
ATOM    143  C   UNL A   1      46.805  35.074  29.379  1.00  0.00     0.200 A 
ATOM    144  F   UNL A   1      46.110  35.760  27.229  1.00  0.00    -0.200 F 
ATOM    145  F   UNL A   1      47.279  36.301  29.633  1.00  0.00    -0.200 F 
ENDBRANCH 111 135
ENDBRANCH  76  79
ENDBRANCH  66  69
ENDBRANCH  62  65
ENDBRANCH  59  62
ENDBRANCH  56  59
ENDBRANCH   1  56
TORSDOF 18
ENDMDL
MODEL 8
REMARK VINA RESULT:     -12.1      5.549      9.452
REMARK SMILES C[C@@H](C(=O)NCCCCCCNC(=O)c1ccc(-c2c3nc(c(-c4c(F)c(F)c(F)c(F)c4F)c4ccc([nH]4)c(-c4c(F)c(F)c(F)c(F)c4F)c4nc(c(-c5c(F)c(F)c(F)c(F)c5F)c5ccc2[nH]5)C=C4)C=C3)cc1)c1ccc(C[C@H]2CCCC2=O)cc1-c1ccccc1
REMARK SMILES IDX 8 1 7 4 6 7 5 10 3 11 4 12 2 14 1 16 78 20 79 21 90 22 80 23
REMARK SMILES IDX 89 25 81 26 91 29 92 30 96 31 93 32 95 34 94 36 82 40 83 43
REMARK SMILES IDX 84 44 87 45 85 47 86 50 88 51 9 56 10 59 11 62 12 65 13 66
REMARK SMILES IDX 14 68 15 69 16 70 77 71 17 72 76 74 18 76 19 79 20 80 70 81
REMARK SMILES IDX 21 82 75 83 69 84 71 85 22 86 74 87 68 89 67 91 23 93 55 96
REMARK SMILES IDX 35 97 54 98 36 99 39 100 53 101 72 102 37 103 38 105 52 107
REMARK SMILES IDX 73 108 40 111 24 113 25 114 33 115 26 116 27 117 31 118
REMARK SMILES IDX 34 119 28 120 29 121 32 122 30 123 56 124 57 125 65 126
REMARK SMILES IDX 58 127 59 128 63 129 66 130 60 131 61 132 64 133 62 134
REMARK SMILES IDX 41 135 42 136 50 137 43 138 44 139 48 140 51 141 45 142
REMARK SMILES IDX 46 143 49 144 47 145
REMARK H PARENT 8 2 8 3 7 5 7 6 6 8 6 9 5 13 2 15 1 17 1 18 1 19 79 24 80 27
REMARK H PARENT 89 28 92 33 96 35 93 37 95 38 94 39 82 41 82 42 83 46 84 48
REMARK H PARENT 84 49 85 52 85 53 86 54 86 55 9 57 9 58 10 60 10 61 11 63
REMARK H PARENT 11 64 12 67 16 73 77 75 17 77 76 78 75 88 69 90 71 92 74 94
REMARK H PARENT 68 95 36 104 39 106 72 109 37 110 73 112
REMARK Flexibility Score: inf
ROOT
ATOM      1  C   UNL A   1      35.613  20.269  25.305  1.00  0.00    -0.052 C 
ATOM      2  H   UNL A   1      35.675  19.790  26.259  1.00  0.00     0.027 H 
ATOM      3  H   UNL A   1      35.621  21.337  25.364  1.00  0.00     0.027 H 
ENDROOT
BRANCH   1   4
ATOM      4  C   UNL A   1      34.272  19.886  24.666  1.00  0.00    -0.036 C 
ATOM      5  H   UNL A   1      33.999  20.654  23.974  1.00  0.00     0.028 H 
ATOM      6  H   UNL A   1      34.420  18.935  24.197  1.00  0.00     0.028 H 
BRANCH   4   7
ATOM      7  C   UNL A   1      33.124  19.706  25.661  1.00  0.00     0.017 C 
ATOM      8  H   UNL A   1      32.780  18.694  25.623  1.00  0.00     0.049 H 
ATOM      9  H   UNL A   1      33.478  19.941  26.642  1.00  0.00     0.049 H 
BRANCH   7  10
ATOM     10  N   UNL A   1      32.028  20.591  25.339  1.00  0.00    -0.356 N 
ATOM     11  C   UNL A   1      31.798  21.890  25.687  1.00  0.00     0.227 C 
ATOM     12  O   UNL A   1      30.695  22.325  25.355  1.00  0.00    -0.274 OA
ATOM     13  H   UNL A   1      31.328  20.189  24.774  1.00  0.00     0.163 HD
BRANCH  11  14
ATOM     14  C   UNL A   1      32.898  22.705  26.404  1.00  0.00     0.061 C 
ATOM     15  H   UNL A   1      33.790  22.345  25.932  1.00  0.00     0.045 H 
BRANCH  14  16
ATOM     16  C   UNL A   1      32.932  22.432  27.908  1.00  0.00    -0.049 C 
ATOM     17  H   UNL A   1      33.752  21.784  28.135  1.00  0.00     0.024 H 
ATOM     18  H   UNL A   1      32.016  21.966  28.206  1.00  0.00     0.024 H 
ATOM     19  H   UNL A   1      33.051  23.355  28.435  1.00  0.00     0.024 H 
ENDBRANCH  14  16
BRANCH  14  20
ATOM     20  C   UNL A   1      32.882  24.225  26.176  1.00  0.00    -0.028 A 
ATOM     21  C   UNL A   1      31.834  25.005  26.702  1.00  0.00    -0.057 A 
ATOM     22  C   UNL A   1      33.962  24.902  25.547  1.00  0.00    -0.014 A 
ATOM     23  C   UNL A   1      31.787  26.387  26.540  1.00  0.00    -0.059 A 
ATOM     24  H   UNL A   1      31.077  24.537  27.225  1.00  0.00     0.063 H 
ATOM     25  C   UNL A   1      33.881  26.304  25.373  1.00  0.00    -0.051 A 
ATOM     26  C   UNL A   1      32.795  27.050  25.845  1.00  0.00    -0.047 A 
ATOM     27  H   UNL A   1      31.000  26.922  26.937  1.00  0.00     0.063 H 
ATOM     28  H   UNL A   1      34.647  26.791  24.882  1.00  0.00     0.063 H 
BRANCH  22  29
ATOM     29  C   UNL A   1      35.228  24.235  25.176  1.00  0.00    -0.018 A 
ATOM     30  C   UNL A   1      35.409  23.780  23.854  1.00  0.00    -0.054 A 
ATOM     31  C   UNL A   1      36.280  24.053  26.084  1.00  0.00    -0.054 A 
ATOM     32  C   UNL A   1      36.611  23.199  23.447  1.00  0.00    -0.062 A 
ATOM     33  H   UNL A   1      34.639  23.879  23.175  1.00  0.00     0.063 H 
ATOM     34  C   UNL A   1      37.490  23.484  25.673  1.00  0.00    -0.062 A 
ATOM     35  H   UNL A   1      36.161  24.343  27.067  1.00  0.00     0.063 H 
ATOM     36  C   UNL A   1      37.657  23.062  24.355  1.00  0.00    -0.062 A 
ATOM     37  H   UNL A   1      36.724  22.872  22.474  1.00  0.00     0.062 H 
ATOM     38  H   UNL A   1      38.263  23.378  26.349  1.00  0.00     0.062 H 
ATOM     39  H   UNL A   1      38.552  22.648  24.053  1.00  0.00     0.062 H 
ENDBRANCH  22  29
BRANCH  26  40
ATOM     40  C   UNL A   1      32.718  28.543  25.644  1.00  0.00    -0.018 C 
ATOM     41  H   UNL A   1      33.676  28.954  25.885  1.00  0.00     0.032 H 
ATOM     42  H   UNL A   1      31.922  28.877  26.277  1.00  0.00     0.032 H 
BRANCH  40  43
ATOM     43  C   UNL A   1      32.347  29.017  24.235  1.00  0.00     0.022 C 
ATOM     44  C   UNL A   1      33.470  28.981  23.195  1.00  0.00    -0.043 C 
ATOM     45  C   UNL A   1      31.285  28.161  23.584  1.00  0.00     0.136 C 
ATOM     46  H   UNL A   1      32.042  30.021  24.446  1.00  0.00     0.039 H 
ATOM     47  C   UNL A   1      33.288  27.688  22.409  1.00  0.00    -0.046 C 
ATOM     48  H   UNL A   1      34.423  28.988  23.680  1.00  0.00     0.027 H 
ATOM     49  H   UNL A   1      33.430  29.835  22.551  1.00  0.00     0.027 H 
ATOM     50  C   UNL A   1      31.786  27.439  22.361  1.00  0.00     0.006 C 
ATOM     51  O   UNL A   1      30.133  28.077  23.996  1.00  0.00    -0.299 OA
ATOM     52  H   UNL A   1      33.784  26.879  22.904  1.00  0.00     0.027 H 
ATOM     53  H   UNL A   1      33.706  27.762  21.428  1.00  0.00     0.027 H 
ATOM     54  H   UNL A   1      31.568  26.393  22.415  1.00  0.00     0.035 H 
ATOM     55  H   UNL A   1      31.331  27.780  21.454  1.00  0.00     0.035 H 
ENDBRANCH  40  43
ENDBRANCH  26  40
ENDBRANCH  14  20
ENDBRANCH  11  14
ENDBRANCH   7  10
ENDBRANCH   4   7
ENDBRANCH   1   4
BRANCH   1  56
ATOM     56  C   UNL A   1      36.853  19.878  24.497  1.00  0.00    -0.052 C 
ATOM     57  H   UNL A   1      37.289  20.771  24.102  1.00  0.00     0.027 H 
ATOM     58  H   UNL A   1      36.519  19.201  23.739  1.00  0.00     0.027 H 
BRANCH  56  59
ATOM     59  C   UNL A   1      37.926  19.138  25.296  1.00  0.00    -0.036 C 
ATOM     60  H   UNL A   1      38.240  18.288  24.728  1.00  0.00     0.028 H 
ATOM     61  H   UNL A   1      37.481  18.872  26.232  1.00  0.00     0.028 H 
BRANCH  59  62
ATOM     62  C   UNL A   1      39.156  19.976  25.621  1.00  0.00     0.018 C 
ATOM     63  H   UNL A   1      38.914  20.653  26.414  1.00  0.00     0.049 H 
ATOM     64  H   UNL A   1      39.440  20.504  24.733  1.00  0.00     0.049 H 
BRANCH  62  65
ATOM     65  N   UNL A   1      40.283  19.155  26.032  1.00  0.00    -0.352 N 
ATOM     66  C   UNL A   1      41.531  19.549  26.440  1.00  0.00     0.251 C 
ATOM     67  H   UNL A   1      40.128  18.183  26.015  1.00  0.00     0.163 HD
ATOM     68  O   UNL A   1      42.438  18.726  26.558  1.00  0.00    -0.269 OA
BRANCH  66  69
ATOM     69  C   UNL A   1      41.792  20.976  26.716  1.00  0.00     0.039 A 
ATOM     70  C   UNL A   1      42.200  21.355  27.997  1.00  0.00    -0.049 A 
ATOM     71  C   UNL A   1      41.642  21.935  25.711  1.00  0.00    -0.049 A 
ATOM     72  C   UNL A   1      42.515  22.690  28.253  1.00  0.00    -0.053 A 
ATOM     73  H   UNL A   1      42.269  20.651  28.749  1.00  0.00     0.063 H 
ATOM     74  C   UNL A   1      42.032  23.249  25.946  1.00  0.00    -0.053 A 
ATOM     75  H   UNL A   1      41.243  21.669  24.797  1.00  0.00     0.063 H 
ATOM     76  C   UNL A   1      42.466  23.642  27.221  1.00  0.00    -0.014 A 
ATOM     77  H   UNL A   1      42.784  22.979  29.206  1.00  0.00     0.063 H 
ATOM     78  H   UNL A   1      42.000  23.940  25.179  1.00  0.00     0.063 H 
BRANCH  76  79
ATOM     79  C   UNL A   1      42.865  25.052  27.458  1.00  0.00     0.031 A 
ATOM     80  C   UNL A   1      44.259  25.508  27.128  1.00  0.00     0.074 A 
ATOM     81  C   UNL A   1      41.990  25.905  28.025  1.00  0.00     0.049 A 
ATOM     82  N   UNL A   1      44.817  26.677  27.320  1.00  0.00    -0.248 NA
ATOM     83  C   UNL A   1      45.157  24.510  26.523  1.00  0.00    -0.034 C 
ATOM     84  C   UNL A   1      40.625  25.570  28.432  1.00  0.00    -0.036 A 
ATOM     85  N   UNL A   1      42.123  27.229  28.367  1.00  0.00    -0.354 N 
ATOM     86  C   UNL A   1      46.125  26.550  26.875  1.00  0.00     0.074 A 
ATOM     87  C   UNL A   1      46.298  25.177  26.454  1.00  0.00    -0.034 C 
ATOM     88  H   UNL A   1      44.950  23.542  26.231  1.00  0.00     0.065 H 
ATOM     89  C   UNL A   1      40.038  26.663  28.946  1.00  0.00    -0.036 A 
ATOM     90  H   UNL A   1      40.183  24.643  28.339  1.00  0.00     0.065 H 
ATOM     91  C   UNL A   1      40.997  27.764  28.946  1.00  0.00     0.049 A 
ATOM     92  H   UNL A   1      42.946  27.746  28.213  1.00  0.00     0.167 HD
ATOM     93  C   UNL A   1      47.088  27.500  26.799  1.00  0.00     0.037 A 
ATOM     94  H   UNL A   1      47.194  24.772  26.142  1.00  0.00     0.065 H 
ATOM     95  H   UNL A   1      39.065  26.717  29.286  1.00  0.00     0.065 H 
ATOM     96  C   UNL A   1      40.769  28.999  29.432  1.00  0.00     0.037 A 
ATOM     97  C   UNL A   1      46.902  28.871  27.199  1.00  0.00     0.049 A 
ATOM     98  C   UNL A   1      41.863  30.030  29.352  1.00  0.00     0.074 A 
ATOM     99  C   UNL A   1      47.797  29.923  27.110  1.00  0.00    -0.036 A 
ATOM    100  N   UNL A   1      45.743  29.378  27.769  1.00  0.00    -0.354 N 
ATOM    101  N   UNL A   1      43.074  29.917  28.862  1.00  0.00    -0.248 NA
ATOM    102  C   UNL A   1      41.556  31.364  29.886  1.00  0.00    -0.034 C 
ATOM    103  C   UNL A   1      47.201  31.054  27.678  1.00  0.00    -0.036 A 
ATOM    104  H   UNL A   1      48.741  29.881  26.696  1.00  0.00     0.065 H 
ATOM    105  C   UNL A   1      45.911  30.723  28.061  1.00  0.00     0.049 A 
ATOM    106  H   UNL A   1      44.924  28.860  27.940  1.00  0.00     0.167 HD
ATOM    107  C   UNL A   1      43.659  31.170  28.997  1.00  0.00     0.074 A 
ATOM    108  C   UNL A   1      42.664  32.032  29.601  1.00  0.00    -0.034 C 
ATOM    109  H   UNL A   1      40.700  31.695  30.359  1.00  0.00     0.065 H 
ATOM    110  H   UNL A   1      47.646  31.977  27.793  1.00  0.00     0.065 H 
ATOM    111  C   UNL A   1      44.906  31.571  28.650  1.00  0.00     0.037 A 
ATOM    112  H   UNL A   1      42.800  33.037  29.785  1.00  0.00     0.065 H 
BRANCH  93 113
ATOM    113  C   UNL A   1      48.430  27.095  26.263  1.00  0.00     0.064 A 
ATOM    114  C   UNL A   1      49.442  26.603  27.102  1.00  0.00     0.173 A 
ATOM    115  C   UNL A   1      48.693  27.150  24.886  1.00  0.00     0.173 A 
ATOM    116  F   UNL A   1      49.248  26.539  28.428  1.00  0.00    -0.203 F 
ATOM    117  C   UNL A   1      50.674  26.209  26.586  1.00  0.00     0.198 A 
ATOM    118  C   UNL A   1      49.914  26.724  24.370  1.00  0.00     0.198 A 
ATOM    119  F   UNL A   1      47.760  27.607  24.036  1.00  0.00    -0.203 F 
ATOM    120  F   UNL A   1      51.640  25.788  27.414  1.00  0.00    -0.200 F 
ATOM    121  C   UNL A   1      50.905  26.260  25.221  1.00  0.00     0.200 A 
ATOM    122  F   UNL A   1      50.130  26.759  23.047  1.00  0.00    -0.200 F 
ATOM    123  F   UNL A   1      52.087  25.868  24.725  1.00  0.00    -0.200 F 
ENDBRANCH  93 113
BRANCH  96 124
ATOM    124  C   UNL A   1      39.447  29.337  30.024  1.00  0.00     0.064 A 
ATOM    125  C   UNL A   1      39.182  29.099  31.381  1.00  0.00     0.173 A 
ATOM    126  C   UNL A   1      38.416  29.884  29.246  1.00  0.00     0.173 A 
ATOM    127  F   UNL A   1      40.128  28.559  32.163  1.00  0.00    -0.203 F 
ATOM    128  C   UNL A   1      37.929  29.367  31.928  1.00  0.00     0.198 A 
ATOM    129  C   UNL A   1      37.175  30.183  29.802  1.00  0.00     0.198 A 
ATOM    130  F   UNL A   1      38.618  30.137  27.945  1.00  0.00    -0.203 F 
ATOM    131  F   UNL A   1      37.686  29.076  33.213  1.00  0.00    -0.200 F 
ATOM    132  C   UNL A   1      36.928  29.914  31.139  1.00  0.00     0.200 A 
ATOM    133  F   UNL A   1      36.215  30.727  29.040  1.00  0.00    -0.200 F 
ATOM    134  F   UNL A   1      35.723  30.171  31.666  1.00  0.00    -0.200 F 
ENDBRANCH  96 124
BRANCH 111 135
ATOM    135  C   UNL A   1      45.254  33.016  28.871  1.00  0.00     0.064 A 
ATOM    136  C   UNL A   1      45.901  33.452  30.037  1.00  0.00     0.173 A 
ATOM    137  C   UNL A   1      44.973  33.970  27.881  1.00  0.00     0.173 A 
ATOM    138  F   UNL A   1      46.179  32.583  31.020  1.00  0.00    -0.203 F 
ATOM    139  C   UNL A   1      46.226  34.794  30.215  1.00  0.00     0.198 A 
ATOM    140  C   UNL A   1      45.332  35.304  28.047  1.00  0.00     0.198 A 
ATOM    141  F   UNL A   1      44.364  33.604  26.743  1.00  0.00    -0.203 F 
ATOM    142  F   UNL A   1      46.795  35.197  31.360  1.00  0.00    -0.200 F 
ATOM    143  C   UNL A   1      45.950  35.717  29.217  1.00  0.00     0.200 A 
ATOM    144  F   UNL A   1      45.080  36.190  27.074  1.00  0.00    -0.200 F 
ATOM    145  F   UNL A   1      46.273  37.006  29.386  1.00  0.00    -0.200 F 
ENDBRANCH 111 135
ENDBRANCH  76  79
ENDBRANCH  66  69
ENDBRANCH  62  65
ENDBRANCH  59  62
ENDBRANCH  56  59
ENDBRANCH   1  56
TORSDOF 18
ENDMDL
MODEL 9
REMARK VINA RESULT:     -12.0      2.136      8.215
REMARK SMILES C[C@@H](C(=O)NCCCCCCNC(=O)c1ccc(-c2c3nc(c(-c4c(F)c(F)c(F)c(F)c4F)c4ccc([nH]4)c(-c4c(F)c(F)c(F)c(F)c4F)c4nc(c(-c5c(F)c(F)c(F)c(F)c5F)c5ccc2[nH]5)C=C4)C=C3)cc1)c1ccc(C[C@H]2CCCC2=O)cc1-c1ccccc1
REMARK SMILES IDX 8 1 7 4 6 7 5 10 3 11 4 12 2 14 1 16 78 20 79 21 90 22 80 23
REMARK SMILES IDX 89 25 81 26 91 29 92 30 96 31 93 32 95 34 94 36 82 40 83 43
REMARK SMILES IDX 84 44 87 45 85 47 86 50 88 51 9 56 10 59 11 62 12 65 13 66
REMARK SMILES IDX 14 68 15 69 16 70 77 71 17 72 76 74 18 76 19 79 20 80 70 81
REMARK SMILES IDX 21 82 75 83 69 84 71 85 22 86 74 87 68 89 67 91 23 93 55 96
REMARK SMILES IDX 35 97 54 98 36 99 39 100 53 101 72 102 37 103 38 105 52 107
REMARK SMILES IDX 73 108 40 111 24 113 25 114 33 115 26 116 27 117 31 118
REMARK SMILES IDX 34 119 28 120 29 121 32 122 30 123 56 124 57 125 65 126
REMARK SMILES IDX 58 127 59 128 63 129 66 130 60 131 61 132 64 133 62 134
REMARK SMILES IDX 41 135 42 136 50 137 43 138 44 139 48 140 51 141 45 142
REMARK SMILES IDX 46 143 49 144 47 145
REMARK H PARENT 8 2 8 3 7 5 7 6 6 8 6 9 5 13 2 15 1 17 1 18 1 19 79 24 80 27
REMARK H PARENT 89 28 92 33 96 35 93 37 95 38 94 39 82 41 82 42 83 46 84 48
REMARK H PARENT 84 49 85 52 85 53 86 54 86 55 9 57 9 58 10 60 10 61 11 63
REMARK H PARENT 11 64 12 67 16 73 77 75 17 77 76 78 75 88 69 90 71 92 74 94
REMARK H PARENT 68 95 36 104 39 106 72 109 37 110 73 112
REMARK Flexibility Score: inf
ROOT
ATOM      1  C   UNL A   1      30.660  30.690  24.664  1.00  0.00    -0.052 C 
ATOM      2  H   UNL A   1      29.624  30.541  24.889  1.00  0.00     0.027 H 
ATOM      3  H   UNL A   1      30.843  31.550  24.055  1.00  0.00     0.027 H 
ENDROOT
BRANCH   1   4
ATOM      4  C   UNL A   1      31.150  29.481  23.857  1.00  0.00    -0.036 C 
ATOM      5  H   UNL A   1      31.975  29.794  23.253  1.00  0.00     0.028 H 
ATOM      6  H   UNL A   1      31.414  28.727  24.569  1.00  0.00     0.028 H 
BRANCH   4   7
ATOM      7  C   UNL A   1      30.093  28.861  22.940  1.00  0.00     0.017 C 
ATOM      8  H   UNL A   1      29.233  29.497  22.914  1.00  0.00     0.049 H 
ATOM      9  H   UNL A   1      30.507  28.757  21.959  1.00  0.00     0.049 H 
BRANCH   7  10
ATOM     10  N   UNL A   1      29.704  27.555  23.420  1.00  0.00    -0.356 N 
ATOM     11  C   UNL A   1      30.330  26.347  23.328  1.00  0.00     0.227 C 
ATOM     12  O   UNL A   1      29.668  25.391  23.731  1.00  0.00    -0.274 OA
ATOM     13  H   UNL A   1      28.841  27.533  23.894  1.00  0.00     0.163 HD
BRANCH  11  14
ATOM     14  C   UNL A   1      31.776  26.265  22.786  1.00  0.00     0.061 C 
ATOM     15  H   UNL A   1      32.218  27.154  23.187  1.00  0.00     0.045 H 
BRANCH  14  16
ATOM     16  C   UNL A   1      31.822  26.276  21.257  1.00  0.00    -0.049 C 
ATOM     17  H   UNL A   1      32.122  27.245  20.917  1.00  0.00     0.024 H 
ATOM     18  H   UNL A   1      30.851  26.047  20.871  1.00  0.00     0.024 H 
ATOM     19  H   UNL A   1      32.524  25.545  20.916  1.00  0.00     0.024 H 
ENDBRANCH  14  16
BRANCH  14  20
ATOM     20  C   UNL A   1      32.633  25.096  23.299  1.00  0.00    -0.028 A 
ATOM     21  C   UNL A   1      33.062  24.093  22.408  1.00  0.00    -0.057 A 
ATOM     22  C   UNL A   1      33.117  25.051  24.634  1.00  0.00    -0.014 A 
ATOM     23  C   UNL A   1      33.857  23.028  22.823  1.00  0.00    -0.059 A 
ATOM     24  H   UNL A   1      32.779  24.150  21.418  1.00  0.00     0.063 H 
ATOM     25  C   UNL A   1      33.905  23.946  25.038  1.00  0.00    -0.051 A 
ATOM     26  C   UNL A   1      34.262  22.924  24.150  1.00  0.00    -0.047 A 
ATOM     27  H   UNL A   1      34.147  22.311  22.140  1.00  0.00     0.063 H 
ATOM     28  H   UNL A   1      34.224  23.892  26.018  1.00  0.00     0.063 H 
BRANCH  22  29
ATOM     29  C   UNL A   1      32.948  26.162  25.595  1.00  0.00    -0.018 A 
ATOM     30  C   UNL A   1      33.959  27.136  25.712  1.00  0.00    -0.054 A 
ATOM     31  C   UNL A   1      31.801  26.306  26.387  1.00  0.00    -0.054 A 
ATOM     32  C   UNL A   1      33.812  28.233  26.563  1.00  0.00    -0.062 A 
ATOM     33  H   UNL A   1      34.824  27.037  25.159  1.00  0.00     0.063 H 
ATOM     34  C   UNL A   1      31.646  27.413  27.229  1.00  0.00    -0.062 A 
ATOM     35  H   UNL A   1      31.061  25.588  26.348  1.00  0.00     0.063 H 
ATOM     36  C   UNL A   1      32.649  28.377  27.314  1.00  0.00    -0.062 A 
ATOM     37  H   UNL A   1      34.565  28.936  26.635  1.00  0.00     0.062 H 
ATOM     38  H   UNL A   1      30.785  27.515  27.789  1.00  0.00     0.062 H 
ATOM     39  H   UNL A   1      32.531  29.194  27.931  1.00  0.00     0.062 H 
ENDBRANCH  22  29
BRANCH  26  40
ATOM     40  C   UNL A   1      35.094  21.749  24.597  1.00  0.00    -0.018 C 
ATOM     41  H   UNL A   1      34.655  20.863  24.187  1.00  0.00     0.032 H 
ATOM     42  H   UNL A   1      35.092  21.787  25.668  1.00  0.00     0.032 H 
BRANCH  40  43
ATOM     43  C   UNL A   1      36.571  21.771  24.190  1.00  0.00     0.022 C 
ATOM     44  C   UNL A   1      37.316  23.087  24.432  1.00  0.00    -0.043 C 
ATOM     45  C   UNL A   1      37.413  20.784  24.966  1.00  0.00     0.136 C 
ATOM     46  H   UNL A   1      36.484  21.557  23.145  1.00  0.00     0.039 H 
ATOM     47  C   UNL A   1      38.062  22.923  25.751  1.00  0.00    -0.046 C 
ATOM     48  H   UNL A   1      36.622  23.897  24.497  1.00  0.00     0.027 H 
ATOM     49  H   UNL A   1      37.991  23.303  23.629  1.00  0.00     0.027 H 
ATOM     50  C   UNL A   1      38.449  21.452  25.830  1.00  0.00     0.006 C 
ATOM     51  O   UNL A   1      37.278  19.567  24.888  1.00  0.00    -0.299 OA
ATOM     52  H   UNL A   1      37.428  23.186  26.572  1.00  0.00     0.027 H 
ATOM     53  H   UNL A   1      38.920  23.559  25.799  1.00  0.00     0.027 H 
ATOM     54  H   UNL A   1      38.400  21.096  26.837  1.00  0.00     0.035 H 
ATOM     55  H   UNL A   1      39.452  21.263  25.508  1.00  0.00     0.035 H 
ENDBRANCH  40  43
ENDBRANCH  26  40
ENDBRANCH  14  20
ENDBRANCH  11  14
ENDBRANCH   7  10
ENDBRANCH   4   7
ENDBRANCH   1   4
BRANCH   1  56
ATOM     56  C   UNL A   1      31.400  30.934  25.982  1.00  0.00    -0.052 C 
ATOM     57  H   UNL A   1      32.442  30.759  25.816  1.00  0.00     0.027 H 
ATOM     58  H   UNL A   1      30.969  30.268  26.699  1.00  0.00     0.027 H 
BRANCH  56  59
ATOM     59  C   UNL A   1      31.240  32.344  26.551  1.00  0.00    -0.036 C 
ATOM     60  H   UNL A   1      30.423  32.336  27.242  1.00  0.00     0.028 H 
ATOM     61  H   UNL A   1      31.073  32.993  25.716  1.00  0.00     0.028 H 
BRANCH  59  62
ATOM     62  C   UNL A   1      32.472  32.872  27.274  1.00  0.00     0.018 C 
ATOM     63  H   UNL A   1      33.327  32.739  26.644  1.00  0.00     0.049 H 
ATOM     64  H   UNL A   1      32.576  32.327  28.190  1.00  0.00     0.049 H 
BRANCH  62  65
ATOM     65  N   UNL A   1      32.348  34.282  27.606  1.00  0.00    -0.352 N 
ATOM     66  C   UNL A   1      33.017  35.004  28.560  1.00  0.00     0.251 C 
ATOM     67  H   UNL A   1      31.694  34.788  27.071  1.00  0.00     0.163 HD
ATOM     68  O   UNL A   1      32.652  36.142  28.853  1.00  0.00    -0.269 OA
BRANCH  66  69
ATOM     69  C   UNL A   1      34.172  34.400  29.255  1.00  0.00     0.039 A 
ATOM     70  C   UNL A   1      33.950  33.659  30.418  1.00  0.00    -0.049 A 
ATOM     71  C   UNL A   1      35.467  34.557  28.754  1.00  0.00    -0.049 A 
ATOM     72  C   UNL A   1      35.023  33.026  31.046  1.00  0.00    -0.053 A 
ATOM     73  H   UNL A   1      32.998  33.580  30.810  1.00  0.00     0.063 H 
ATOM     74  C   UNL A   1      36.522  33.861  29.336  1.00  0.00    -0.053 A 
ATOM     75  H   UNL A   1      35.641  35.187  27.955  1.00  0.00     0.063 H 
ATOM     76  C   UNL A   1      36.312  33.093  30.491  1.00  0.00    -0.014 A 
ATOM     77  H   UNL A   1      34.868  32.506  31.925  1.00  0.00     0.063 H 
ATOM     78  H   UNL A   1      37.463  33.910  28.915  1.00  0.00     0.063 H 
BRANCH  76  79
ATOM     79  C   UNL A   1      37.452  32.368  31.108  1.00  0.00     0.031 A 
ATOM     80  C   UNL A   1      37.933  32.747  32.481  1.00  0.00     0.074 A 
ATOM     81  C   UNL A   1      38.090  31.411  30.407  1.00  0.00     0.049 A 
ATOM     82  N   UNL A   1      38.949  32.278  33.162  1.00  0.00    -0.248 NA
ATOM     83  C   UNL A   1      37.190  33.811  33.173  1.00  0.00    -0.034 C 
ATOM     84  C   UNL A   1      37.746  30.987  29.049  1.00  0.00    -0.036 A 
ATOM     85  N   UNL A   1      39.169  30.628  30.736  1.00  0.00    -0.354 N 
ATOM     86  C   UNL A   1      38.972  32.997  34.349  1.00  0.00     0.074 A 
ATOM     87  C   UNL A   1      37.906  33.971  34.276  1.00  0.00    -0.034 C 
ATOM     88  H   UNL A   1      36.333  34.306  32.876  1.00  0.00     0.065 H 
ATOM     89  C   UNL A   1      38.580  30.005  28.670  1.00  0.00    -0.036 A 
ATOM     90  H   UNL A   1      36.984  31.378  28.474  1.00  0.00     0.065 H 
ATOM     91  C   UNL A   1      39.545  29.761  29.738  1.00  0.00     0.049 A 
ATOM     92  H   UNL A   1      39.630  30.682  31.604  1.00  0.00     0.167 HD
ATOM     93  C   UNL A   1      39.793  32.840  35.415  1.00  0.00     0.037 A 
ATOM     94  H   UNL A   1      37.728  34.695  34.989  1.00  0.00     0.065 H 
ATOM     95  H   UNL A   1      38.546  29.504  27.769  1.00  0.00     0.065 H 
ATOM     96  C   UNL A   1      40.559  28.877  29.687  1.00  0.00     0.037 A 
ATOM     97  C   UNL A   1      40.838  31.853  35.491  1.00  0.00     0.049 A 
ATOM     98  C   UNL A   1      41.467  28.736  30.880  1.00  0.00     0.074 A 
ATOM     99  C   UNL A   1      41.687  31.577  36.549  1.00  0.00    -0.036 A 
ATOM    100  N   UNL A   1      41.181  30.984  34.466  1.00  0.00    -0.354 N 
ATOM    101  N   UNL A   1      41.435  29.372  32.026  1.00  0.00    -0.248 NA
ATOM    102  C   UNL A   1      42.551  27.749  30.775  1.00  0.00    -0.034 C 
ATOM    103  C   UNL A   1      42.581  30.580  36.144  1.00  0.00    -0.036 A 
ATOM    104  H   UNL A   1      41.665  32.028  37.477  1.00  0.00     0.065 H 
ATOM    105  C   UNL A   1      42.247  30.189  34.857  1.00  0.00     0.049 A 
ATOM    106  H   UNL A   1      40.733  30.939  33.590  1.00  0.00     0.167 HD
ATOM    107  C   UNL A   1      42.466  28.840  32.789  1.00  0.00     0.074 A 
ATOM    108  C   UNL A   1      43.097  27.817  31.980  1.00  0.00    -0.034 C 
ATOM    109  H   UNL A   1      42.816  27.157  29.972  1.00  0.00     0.065 H 
ATOM    110  H   UNL A   1      43.357  30.201  36.707  1.00  0.00     0.065 H 
ATOM    111  C   UNL A   1      42.855  29.166  34.045  1.00  0.00     0.037 A 
ATOM    112  H   UNL A   1      43.873  27.218  32.301  1.00  0.00     0.065 H 
BRANCH  93 113
ATOM    113  C   UNL A   1      39.595  33.754  36.590  1.00  0.00     0.064 A 
ATOM    114  C   UNL A   1      38.805  33.381  37.690  1.00  0.00     0.173 A 
ATOM    115  C   UNL A   1      40.242  34.997  36.642  1.00  0.00     0.173 A 
ATOM    116  F   UNL A   1      38.155  32.208  37.688  1.00  0.00    -0.203 F 
ATOM    117  C   UNL A   1      38.651  34.231  38.782  1.00  0.00     0.198 A 
ATOM    118  C   UNL A   1      40.113  35.829  37.751  1.00  0.00     0.198 A 
ATOM    119  F   UNL A   1      41.014  35.402  35.621  1.00  0.00    -0.203 F 
ATOM    120  F   UNL A   1      37.853  33.873  39.798  1.00  0.00    -0.200 F 
ATOM    121  C   UNL A   1      39.312  35.449  38.817  1.00  0.00     0.200 A 
ATOM    122  F   UNL A   1      40.765  37.000  37.789  1.00  0.00    -0.200 F 
ATOM    123  F   UNL A   1      39.172  36.259  39.875  1.00  0.00    -0.200 F 
ENDBRANCH  93 113
BRANCH  96 124
ATOM    124  C   UNL A   1      40.765  28.044  28.473  1.00  0.00     0.064 A 
ATOM    125  C   UNL A   1      40.230  26.750  28.385  1.00  0.00     0.173 A 
ATOM    126  C   UNL A   1      41.518  28.512  27.385  1.00  0.00     0.173 A 
ATOM    127  F   UNL A   1      39.519  26.249  29.406  1.00  0.00    -0.203 F 
ATOM    128  C   UNL A   1      40.463  25.947  27.270  1.00  0.00     0.198 A 
ATOM    129  C   UNL A   1      41.722  27.720  26.257  1.00  0.00     0.198 A 
ATOM    130  F   UNL A   1      42.047  29.743  27.415  1.00  0.00    -0.203 F 
ATOM    131  F   UNL A   1      39.988  24.695  27.239  1.00  0.00    -0.200 F 
ATOM    132  C   UNL A   1      41.205  26.435  26.205  1.00  0.00     0.200 A 
ATOM    133  F   UNL A   1      42.425  28.202  25.222  1.00  0.00    -0.200 F 
ATOM    134  F   UNL A   1      41.430  25.663  25.133  1.00  0.00    -0.200 F 
ENDBRANCH  96 124
BRANCH 111 135
ATOM    135  C   UNL A   1      43.987  28.380  34.645  1.00  0.00     0.064 A 
ATOM    136  C   UNL A   1      43.771  27.171  35.323  1.00  0.00     0.173 A 
ATOM    137  C   UNL A   1      45.311  28.824  34.499  1.00  0.00     0.173 A 
ATOM    138  F   UNL A   1      42.525  26.710  35.502  1.00  0.00    -0.203 F 
ATOM    139  C   UNL A   1      44.837  26.453  35.859  1.00  0.00     0.198 A 
ATOM    140  C   UNL A   1      46.375  28.085  35.005  1.00  0.00     0.198 A 
ATOM    141  F   UNL A   1      45.573  29.969  33.851  1.00  0.00    -0.203 F 
ATOM    142  F   UNL A   1      44.603  25.328  36.550  1.00  0.00    -0.200 F 
ATOM    143  C   UNL A   1      46.138  26.904  35.692  1.00  0.00     0.200 A 
ATOM    144  F   UNL A   1      47.632  28.515  34.827  1.00  0.00    -0.200 F 
ATOM    145  F   UNL A   1      47.162  26.206  36.200  1.00  0.00    -0.200 F 
ENDBRANCH 111 135
ENDBRANCH  76  79
ENDBRANCH  66  69
ENDBRANCH  62  65
ENDBRANCH  59  62
ENDBRANCH  56  59
ENDBRANCH   1  56
TORSDOF 18
ENDMDL
MODEL 10
REMARK VINA RESULT:     -12.0      2.512      4.786
REMARK SMILES C[C@@H](C(=O)NCCCCCCNC(=O)c1ccc(-c2c3nc(c(-c4c(F)c(F)c(F)c(F)c4F)c4ccc([nH]4)c(-c4c(F)c(F)c(F)c(F)c4F)c4nc(c(-c5c(F)c(F)c(F)c(F)c5F)c5ccc2[nH]5)C=C4)C=C3)cc1)c1ccc(C[C@H]2CCCC2=O)cc1-c1ccccc1
REMARK SMILES IDX 8 1 7 4 6 7 5 10 3 11 4 12 2 14 1 16 78 20 79 21 90 22 80 23
REMARK SMILES IDX 89 25 81 26 91 29 92 30 96 31 93 32 95 34 94 36 82 40 83 43
REMARK SMILES IDX 84 44 87 45 85 47 86 50 88 51 9 56 10 59 11 62 12 65 13 66
REMARK SMILES IDX 14 68 15 69 16 70 77 71 17 72 76 74 18 76 19 79 20 80 70 81
REMARK SMILES IDX 21 82 75 83 69 84 71 85 22 86 74 87 68 89 67 91 23 93 55 96
REMARK SMILES IDX 35 97 54 98 36 99 39 100 53 101 72 102 37 103 38 105 52 107
REMARK SMILES IDX 73 108 40 111 24 113 25 114 33 115 26 116 27 117 31 118
REMARK SMILES IDX 34 119 28 120 29 121 32 122 30 123 56 124 57 125 65 126
REMARK SMILES IDX 58 127 59 128 63 129 66 130 60 131 61 132 64 133 62 134
REMARK SMILES IDX 41 135 42 136 50 137 43 138 44 139 48 140 51 141 45 142
REMARK SMILES IDX 46 143 49 144 47 145
REMARK H PARENT 8 2 8 3 7 5 7 6 6 8 6 9 5 13 2 15 1 17 1 18 1 19 79 24 80 27
REMARK H PARENT 89 28 92 33 96 35 93 37 95 38 94 39 82 41 82 42 83 46 84 48
REMARK H PARENT 84 49 85 52 85 53 86 54 86 55 9 57 9 58 10 60 10 61 11 63
REMARK H PARENT 11 64 12 67 16 73 77 75 17 77 76 78 75 88 69 90 71 92 74 94
REMARK H PARENT 68 95 36 104 39 106 72 109 37 110 73 112
REMARK Flexibility Score: inf
ROOT
ATOM      1  C   UNL A   1      32.119  29.253  26.655  1.00  0.00    -0.052 C 
ATOM      2  H   UNL A   1      33.061  29.465  27.117  1.00  0.00     0.027 H 
ATOM      3  H   UNL A   1      31.322  29.124  27.356  1.00  0.00     0.027 H 
ENDROOT
BRANCH   1   4
ATOM      4  C   UNL A   1      32.247  27.923  25.901  1.00  0.00    -0.036 C 
ATOM      5  H   UNL A   1      31.782  27.160  26.488  1.00  0.00     0.028 H 
ATOM      6  H   UNL A   1      31.777  28.066  24.951  1.00  0.00     0.028 H 
BRANCH   4   7
ATOM      7  C   UNL A   1      33.688  27.494  25.613  1.00  0.00     0.017 C 
ATOM      8  H   UNL A   1      34.320  28.357  25.623  1.00  0.00     0.049 H 
ATOM      9  H   UNL A   1      33.997  26.799  26.364  1.00  0.00     0.049 H 
BRANCH   7  10
ATOM     10  N   UNL A   1      33.780  26.854  24.321  1.00  0.00    -0.356 N 
ATOM     11  C   UNL A   1      34.191  25.600  23.974  1.00  0.00     0.227 C 
ATOM     12  O   UNL A   1      34.275  25.403  22.761  1.00  0.00    -0.274 OA
ATOM     13  H   UNL A   1      33.498  27.416  23.563  1.00  0.00     0.163 HD
BRANCH  11  14
ATOM     14  C   UNL A   1      34.474  24.547  25.070  1.00  0.00     0.061 C 
ATOM     15  H   UNL A   1      33.901  24.921  25.894  1.00  0.00     0.045 H 
BRANCH  14  16
ATOM     16  C   UNL A   1      35.958  24.471  25.429  1.00  0.00    -0.049 C 
ATOM     17  H   UNL A   1      36.150  25.080  26.287  1.00  0.00     0.024 H 
ATOM     18  H   UNL A   1      36.542  24.823  24.604  1.00  0.00     0.024 H 
ATOM     19  H   UNL A   1      36.221  23.457  25.645  1.00  0.00     0.024 H 
ENDBRANCH  14  16
BRANCH  14  20
ATOM     20  C   UNL A   1      33.954  23.125  24.802  1.00  0.00    -0.028 A 
ATOM     21  C   UNL A   1      34.838  22.031  24.856  1.00  0.00    -0.057 A 
ATOM     22  C   UNL A   1      32.572  22.854  24.617  1.00  0.00    -0.014 A 
ATOM     23  C   UNL A   1      34.410  20.724  24.643  1.00  0.00    -0.059 A 
ATOM     24  H   UNL A   1      35.835  22.203  25.061  1.00  0.00     0.063 H 
ATOM     25  C   UNL A   1      32.163  21.520  24.379  1.00  0.00    -0.051 A 
ATOM     26  C   UNL A   1      33.072  20.455  24.370  1.00  0.00    -0.047 A 
ATOM     27  H   UNL A   1      35.090  19.949  24.687  1.00  0.00     0.063 H 
ATOM     28  H   UNL A   1      31.164  21.327  24.206  1.00  0.00     0.063 H 
BRANCH  22  29
ATOM     29  C   UNL A   1      31.517  23.876  24.786  1.00  0.00    -0.018 A 
ATOM     30  C   UNL A   1      30.957  24.488  23.647  1.00  0.00    -0.054 A 
ATOM     31  C   UNL A   1      31.024  24.251  26.044  1.00  0.00    -0.054 A 
ATOM     32  C   UNL A   1      29.918  25.414  23.759  1.00  0.00    -0.062 A 
ATOM     33  H   UNL A   1      31.322  24.247  22.713  1.00  0.00     0.063 H 
ATOM     34  C   UNL A   1      29.973  25.168  26.156  1.00  0.00    -0.062 A 
ATOM     35  H   UNL A   1      31.441  23.847  26.896  1.00  0.00     0.063 H 
ATOM     36  C   UNL A   1      29.418  25.745  25.016  1.00  0.00    -0.062 A 
ATOM     37  H   UNL A   1      29.521  25.851  22.913  1.00  0.00     0.062 H 
ATOM     38  H   UNL A   1      29.607  25.417  27.089  1.00  0.00     0.062 H 
ATOM     39  H   UNL A   1      28.640  26.417  25.101  1.00  0.00     0.062 H 
ENDBRANCH  22  29
BRANCH  26  40
ATOM     40  C   UNL A   1      32.623  19.040  24.105  1.00  0.00    -0.018 C 
ATOM     41  H   UNL A   1      32.594  18.900  23.045  1.00  0.00     0.032 H 
ATOM     42  H   UNL A   1      31.672  18.946  24.588  1.00  0.00     0.032 H 
BRANCH  40  43
ATOM     43  C   UNL A   1      33.496  17.930  24.700  1.00  0.00     0.022 C 
ATOM     44  C   UNL A   1      33.043  17.369  26.051  1.00  0.00    -0.043 C 
ATOM     45  C   UNL A   1      33.540  16.688  23.840  1.00  0.00     0.136 C 
ATOM     46  H   UNL A   1      34.430  18.447  24.785  1.00  0.00     0.039 H 
ATOM     47  C   UNL A   1      32.269  16.092  25.748  1.00  0.00    -0.046 C 
ATOM     48  H   UNL A   1      32.414  18.073  26.551  1.00  0.00     0.027 H 
ATOM     49  H   UNL A   1      33.880  17.173  26.690  1.00  0.00     0.027 H 
ATOM     50  C   UNL A   1      32.926  15.490  24.513  1.00  0.00     0.006 C 
ATOM     51  O   UNL A   1      34.039  16.655  22.720  1.00  0.00    -0.299 OA
ATOM     52  H   UNL A   1      31.241  16.317  25.551  1.00  0.00     0.027 H 
ATOM     53  H   UNL A   1      32.290  15.414  26.575  1.00  0.00     0.027 H 
ATOM     54  H   UNL A   1      32.201  15.022  23.882  1.00  0.00     0.035 H 
ATOM     55  H   UNL A   1      33.638  14.725  24.746  1.00  0.00     0.035 H 
ENDBRANCH  40  43
ENDBRANCH  26  40
ENDBRANCH  14  20
ENDBRANCH  11  14
ENDBRANCH   7  10
ENDBRANCH   4   7
ENDBRANCH   1   4
BRANCH   1  56
ATOM     56  C   UNL A   1      31.735  30.456  25.789  1.00  0.00    -0.052 C 
ATOM     57  H   UNL A   1      30.860  30.199  25.231  1.00  0.00     0.027 H 
ATOM     58  H   UNL A   1      32.583  30.666  25.171  1.00  0.00     0.027 H 
BRANCH  56  59
ATOM     59  C   UNL A   1      31.442  31.736  26.571  1.00  0.00    -0.036 C 
ATOM     60  H   UNL A   1      30.788  31.491  27.381  1.00  0.00     0.028 H 
ATOM     61  H   UNL A   1      31.007  32.425  25.878  1.00  0.00     0.028 H 
BRANCH  59  62
ATOM     62  C   UNL A   1      32.678  32.418  27.145  1.00  0.00     0.018 C 
ATOM     63  H   UNL A   1      33.473  32.348  26.433  1.00  0.00     0.049 H 
ATOM     64  H   UNL A   1      32.932  31.924  28.060  1.00  0.00     0.049 H 
BRANCH  62  65
ATOM     65  N   UNL A   1      32.438  33.820  27.446  1.00  0.00    -0.352 N 
ATOM     66  C   UNL A   1      33.012  34.603  28.414  1.00  0.00     0.251 C 
ATOM     67  H   UNL A   1      31.772  34.268  26.876  1.00  0.00     0.163 HD
ATOM     68  O   UNL A   1      32.553  35.715  28.671  1.00  0.00    -0.269 OA
BRANCH  66  69
ATOM     69  C   UNL A   1      34.177  34.095  29.166  1.00  0.00     0.039 A 
ATOM     70  C   UNL A   1      33.971  33.162  30.184  1.00  0.00    -0.049 A 
ATOM     71  C   UNL A   1      35.468  34.533  28.860  1.00  0.00    -0.049 A 
ATOM     72  C   UNL A   1      35.069  32.623  30.857  1.00  0.00    -0.053 A 
ATOM     73  H   UNL A   1      33.014  32.872  30.437  1.00  0.00     0.063 H 
ATOM     74  C   UNL A   1      36.564  33.938  29.476  1.00  0.00    -0.053 A 
ATOM     75  H   UNL A   1      35.609  35.297  28.180  1.00  0.00     0.063 H 
ATOM     76  C   UNL A   1      36.376  32.981  30.485  1.00  0.00    -0.014 A 
ATOM     77  H   UNL A   1      34.919  31.958  31.632  1.00  0.00     0.063 H 
ATOM     78  H   UNL A   1      37.521  34.201  29.190  1.00  0.00     0.063 H 
BRANCH  76  79
ATOM     79  C   UNL A   1      37.557  32.365  31.142  1.00  0.00     0.031 A 
ATOM     80  C   UNL A   1      38.298  31.246  30.466  1.00  0.00     0.074 A 
ATOM     81  C   UNL A   1      37.923  32.774  32.372  1.00  0.00     0.049 A 
ATOM     82  N   UNL A   1      39.310  30.539  30.903  1.00  0.00    -0.248 NA
ATOM     83  C   UNL A   1      37.825  30.850  29.129  1.00  0.00    -0.034 C 
ATOM     84  C   UNL A   1      37.256  33.819  33.150  1.00  0.00    -0.036 A 
ATOM     85  N   UNL A   1      38.943  32.353  33.190  1.00  0.00    -0.354 N 
ATOM     86  C   UNL A   1      39.583  29.612  29.906  1.00  0.00     0.074 A 
ATOM     87  C   UNL A   1      38.597  29.807  28.865  1.00  0.00    -0.034 C 
ATOM     88  H   UNL A   1      37.084  31.274  28.549  1.00  0.00     0.065 H 
ATOM     89  C   UNL A   1      37.896  33.975  34.319  1.00  0.00    -0.036 A 
ATOM     90  H   UNL A   1      36.426  34.353  32.847  1.00  0.00     0.065 H 
ATOM     91  C   UNL A   1      38.991  33.012  34.395  1.00  0.00     0.049 A 
ATOM     92  H   UNL A   1      39.579  31.646  32.937  1.00  0.00     0.167 HD
ATOM     93  C   UNL A   1      40.581  28.698  29.852  1.00  0.00     0.037 A 
ATOM     94  H   UNL A   1      38.508  29.211  28.027  1.00  0.00     0.065 H 
ATOM     95  H   UNL A   1      37.654  34.663  35.048  1.00  0.00     0.065 H 
ATOM     96  C   UNL A   1      39.818  32.850  35.445  1.00  0.00     0.037 A 
ATOM     97  C   UNL A   1      41.572  28.524  30.881  1.00  0.00     0.049 A 
ATOM     98  C   UNL A   1      40.907  31.814  35.365  1.00  0.00     0.074 A 
ATOM     99  C   UNL A   1      42.657  27.664  30.896  1.00  0.00    -0.036 A 
ATOM    100  N   UNL A   1      41.596  29.219  32.082  1.00  0.00    -0.354 N 
ATOM    101  N   UNL A   1      41.200  30.992  34.387  1.00  0.00    -0.248 NA
ATOM    102  C   UNL A   1      41.788  31.688  36.535  1.00  0.00    -0.034 C 
ATOM    103  C   UNL A   1      43.304  27.799  32.129  1.00  0.00    -0.036 A 
ATOM    104  H   UNL A   1      42.940  27.034  30.130  1.00  0.00     0.065 H 
ATOM    105  C   UNL A   1      42.662  28.788  32.856  1.00  0.00     0.049 A 
ATOM    106  H   UNL A   1      40.951  29.915  32.345  1.00  0.00     0.167 HD
ATOM    107  C   UNL A   1      42.315  30.279  34.807  1.00  0.00     0.074 A 
ATOM    108  C   UNL A   1      42.655  30.775  36.124  1.00  0.00    -0.034 C 
ATOM    109  H   UNL A   1      41.742  32.182  37.440  1.00  0.00     0.065 H 
ATOM    110  H   UNL A   1      44.121  27.253  32.444  1.00  0.00     0.065 H 
ATOM    111  C   UNL A   1      42.996  29.302  34.160  1.00  0.00     0.037 A 
ATOM    112  H   UNL A   1      43.470  30.458  36.672  1.00  0.00     0.065 H 
BRANCH  93 113
ATOM    113  C   UNL A   1      40.656  27.815  28.640  1.00  0.00     0.064 A 
ATOM    114  C   UNL A   1      39.938  26.612  28.558  1.00  0.00     0.173 A 
ATOM    115  C   UNL A   1      41.416  28.199  27.525  1.00  0.00     0.173 A 
ATOM    116  F   UNL A   1      39.204  26.192  29.599  1.00  0.00    -0.203 F 
ATOM    117  C   UNL A   1      40.000  25.816  27.418  1.00  0.00     0.198 A 
ATOM    118  C   UNL A   1      41.449  27.417  26.374  1.00  0.00     0.198 A 
ATOM    119  F   UNL A   1      42.119  29.343  27.545  1.00  0.00    -0.203 F 
ATOM    120  F   UNL A   1      39.343  24.648  27.383  1.00  0.00    -0.200 F 
ATOM    121  C   UNL A   1      40.746  26.223  26.323  1.00  0.00     0.200 A 
ATOM    122  F   UNL A   1      42.159  27.821  25.311  1.00  0.00    -0.200 F 
ATOM    123  F   UNL A   1      40.794  25.461  25.222  1.00  0.00    -0.200 F 
ENDBRANCH  93 113
BRANCH  96 124
ATOM    124  C   UNL A   1      39.660  33.696  36.658  1.00  0.00     0.064 A 
ATOM    125  C   UNL A   1      38.866  33.275  37.735  1.00  0.00     0.173 A 
ATOM    126  C   UNL A   1      40.282  34.950  36.760  1.00  0.00     0.173 A 
ATOM    127  F   UNL A   1      38.234  32.092  37.678  1.00  0.00    -0.203 F 
ATOM    128  C   UNL A   1      38.675  34.086  38.851  1.00  0.00     0.198 A 
ATOM    129  C   UNL A   1      40.117  35.745  37.892  1.00  0.00     0.198 A 
ATOM    130  F   UNL A   1      41.058  35.398  35.762  1.00  0.00    -0.203 F 
ATOM    131  F   UNL A   1      37.864  33.683  39.838  1.00  0.00    -0.200 F 
ATOM    132  C   UNL A   1      39.305  35.319  38.930  1.00  0.00     0.200 A 
ATOM    133  F   UNL A   1      40.742  36.928  37.972  1.00  0.00    -0.200 F 
ATOM    134  F   UNL A   1      39.121  36.099  40.004  1.00  0.00    -0.200 F 
ENDBRANCH  96 124
BRANCH 111 135
ATOM    135  C   UNL A   1      44.208  28.734  34.844  1.00  0.00     0.064 A 
ATOM    136  C   UNL A   1      44.127  27.613  35.683  1.00  0.00     0.173 A 
ATOM    137  C   UNL A   1      45.474  29.298  34.621  1.00  0.00     0.173 A 
ATOM    138  F   UNL A   1      42.940  27.045  35.940  1.00  0.00    -0.203 F 
ATOM    139  C   UNL A   1      45.266  27.096  36.296  1.00  0.00     0.198 A 
ATOM    140  C   UNL A   1      46.614  28.756  35.207  1.00  0.00     0.198 A 
ATOM    141  F   UNL A   1      45.608  30.366  33.820  1.00  0.00    -0.203 F 
ATOM    142  F   UNL A   1      45.157  26.057  37.136  1.00  0.00    -0.200 F 
ATOM    143  C   UNL A   1      46.508  27.661  36.051  1.00  0.00     0.200 A 
ATOM    144  F   UNL A   1      47.814  29.294  34.955  1.00  0.00    -0.200 F 
ATOM    145  F   UNL A   1      47.603  27.156  36.635  1.00  0.00    -0.200 F 
ENDBRANCH 111 135
ENDBRANCH  76  79
ENDBRANCH  66  69
ENDBRANCH  62  65
ENDBRANCH  59  62
ENDBRANCH  56  59
ENDBRANCH   1  56
TORSDOF 18
ENDMDL
