MODEL 1
REMARK VINA RESULT:     -12.6      0.000      0.000
REMARK SMILES O=C(NCCCCCCNC(=O)c1ccccc1Nc1nc(Cl)nc(Nc2ccc(N3CCOCC3=O)cc2)n1)c1ccc(-c2c3nc(c(-c4c(F)c(F)c(F)c(F)c4F)c4ccc([nH]4)c(-c4c(F)c(F)c(F)c(F)c4F)c4nc(c(-c5c(F)c(F)c(F)c(F)c5F)c5ccc2[nH]5)C=C4)C=C3)cc1
REMARK SMILES IDX 8 1 7 4 6 7 5 10 4 13 3 16 1 17 2 18 41 20 42 21 103 22
REMARK SMILES IDX 43 23 102 25 44 27 45 30 46 31 96 32 47 33 101 34 95 35
REMARK SMILES IDX 97 36 48 37 100 38 94 40 93 42 49 44 81 47 61 48 80 49 62 50
REMARK SMILES IDX 65 51 79 52 98 53 63 54 64 56 78 58 99 59 66 62 50 64 51 65
REMARK SMILES IDX 59 66 52 67 53 68 57 69 60 70 54 71 55 72 58 73 56 74 82 75
REMARK SMILES IDX 83 76 91 77 84 78 85 79 89 80 92 81 86 82 87 83 90 84 88 85
REMARK SMILES IDX 67 86 68 87 76 88 69 89 70 90 74 91 77 92 71 93 72 94 75 95
REMARK SMILES IDX 73 96 9 97 10 100 11 101 12 103 13 104 14 105 18 106 15 107
REMARK SMILES IDX 17 109 16 110 19 114 20 116 21 117 40 118 22 119 25 120
REMARK SMILES IDX 23 121 24 122 26 123 27 125 28 126 39 127 29 128 38 130
REMARK SMILES IDX 30 132 31 135 32 136 36 137 33 138 35 141 37 142 34 143
REMARK H PARENT 8 2 8 3 7 5 7 6 6 8 6 9 5 11 5 12 4 14 4 15 3 19 42 24 103 26
REMARK H PARENT 43 28 102 29 101 39 95 41 97 43 100 45 94 46 62 55 65 57 98 60
REMARK H PARENT 63 61 99 63 9 98 9 99 10 102 14 108 15 111 17 112 16 113
REMARK H PARENT 19 115 26 124 28 129 39 131 29 133 38 134 32 139 32 140 33 144
REMARK H PARENT 33 145 35 146 35 147
REMARK Flexibility Score: inf
ROOT
ATOM      1  C   UNL A   1      34.807  32.185  29.063  1.00  0.00    -0.036 C 
ATOM      2  H   UNL A   1      34.040  31.699  29.628  1.00  0.00     0.028 H 
ATOM      3  H   UNL A   1      35.793  32.005  29.436  1.00  0.00     0.028 H 
ENDROOT
BRANCH   1   4
ATOM      4  C   UNL A   1      34.583  33.698  29.166  1.00  0.00    -0.052 C 
ATOM      5  H   UNL A   1      34.733  33.984  30.186  1.00  0.00     0.027 H 
ATOM      6  H   UNL A   1      35.277  34.142  28.484  1.00  0.00     0.027 H 
BRANCH   4   7
ATOM      7  C   UNL A   1      33.200  34.197  28.737  1.00  0.00    -0.052 C 
ATOM      8  H   UNL A   1      32.979  33.774  27.779  1.00  0.00     0.027 H 
ATOM      9  H   UNL A   1      32.525  33.891  29.510  1.00  0.00     0.027 H 
BRANCH   7  10
ATOM     10  C   UNL A   1      33.052  35.716  28.627  1.00  0.00    -0.036 C 
ATOM     11  H   UNL A   1      33.635  36.046  27.793  1.00  0.00     0.028 H 
ATOM     12  H   UNL A   1      32.005  35.906  28.517  1.00  0.00     0.028 H 
BRANCH  10  13
ATOM     13  C   UNL A   1      33.500  36.498  29.856  1.00  0.00     0.018 C 
ATOM     14  H   UNL A   1      34.417  36.078  30.215  1.00  0.00     0.049 H 
ATOM     15  H   UNL A   1      33.623  37.520  29.566  1.00  0.00     0.049 H 
BRANCH  13  16
ATOM     16  N   UNL A   1      32.519  36.456  30.928  1.00  0.00    -0.352 N 
ATOM     17  O   UNL A   1      31.535  35.695  32.810  1.00  0.00    -0.269 OA
ATOM     18  C   UNL A   1      32.536  35.740  32.096  1.00  0.00     0.251 C 
ATOM     19  H   UNL A   1      31.727  37.026  30.796  1.00  0.00     0.163 HD
BRANCH  18  20
ATOM     20  C   UNL A   1      33.750  34.999  32.492  1.00  0.00     0.039 A 
ATOM     21  C   UNL A   1      35.008  35.611  32.463  1.00  0.00    -0.049 A 
ATOM     22  C   UNL A   1      33.620  33.678  32.925  1.00  0.00    -0.049 A 
ATOM     23  C   UNL A   1      36.147  34.869  32.758  1.00  0.00    -0.053 A 
ATOM     24  H   UNL A   1      35.091  36.611  32.222  1.00  0.00     0.063 H 
ATOM     25  C   UNL A   1      34.757  32.956  33.290  1.00  0.00    -0.053 A 
ATOM     26  H   UNL A   1      32.688  33.238  32.976  1.00  0.00     0.063 H 
ATOM     27  C   UNL A   1      36.031  33.538  33.188  1.00  0.00    -0.014 A 
ATOM     28  H   UNL A   1      37.080  35.298  32.661  1.00  0.00     0.063 H 
ATOM     29  H   UNL A   1      34.661  31.988  33.636  1.00  0.00     0.063 H 
BRANCH  27  30
ATOM     30  C   UNL A   1      37.233  32.767  33.583  1.00  0.00     0.031 A 
ATOM     31  C   UNL A   1      37.947  33.069  34.867  1.00  0.00     0.074 A 
ATOM     32  C   UNL A   1      37.709  31.823  32.749  1.00  0.00     0.049 A 
ATOM     33  N   UNL A   1      39.076  32.585  35.321  1.00  0.00    -0.248 NA
ATOM     34  C   UNL A   1      37.315  34.058  35.752  1.00  0.00    -0.034 C 
ATOM     35  C   UNL A   1      37.098  31.444  31.474  1.00  0.00    -0.036 A 
ATOM     36  N   UNL A   1      38.823  31.030  32.836  1.00  0.00    -0.354 N 
ATOM     37  C   UNL A   1      39.303  33.228  36.531  1.00  0.00     0.074 A 
ATOM     38  C   UNL A   1      38.207  34.154  36.728  1.00  0.00    -0.034 C 
ATOM     39  H   UNL A   1      36.413  34.547  35.643  1.00  0.00     0.065 H 
ATOM     40  C   UNL A   1      37.845  30.493  30.897  1.00  0.00    -0.036 A 
ATOM     41  H   UNL A   1      36.231  31.845  31.083  1.00  0.00     0.065 H 
ATOM     42  C   UNL A   1      39.018  30.243  31.727  1.00  0.00     0.049 A 
ATOM     43  H   UNL A   1      39.425  31.025  33.615  1.00  0.00     0.167 HD
ATOM     44  C   UNL A   1      40.332  33.055  37.396  1.00  0.00     0.037 A 
ATOM     45  H   UNL A   1      38.131  34.806  37.524  1.00  0.00     0.065 H 
ATOM     46  H   UNL A   1      37.626  30.014  30.009  1.00  0.00     0.065 H 
ATOM     47  C   UNL A   1      40.048  29.442  31.395  1.00  0.00     0.037 A 
ATOM     48  C   UNL A   1      41.415  32.128  37.186  1.00  0.00     0.049 A 
ATOM     49  C   UNL A   1      41.202  29.299  32.345  1.00  0.00     0.074 A 
ATOM     50  C   UNL A   1      42.484  31.845  38.018  1.00  0.00    -0.036 A 
ATOM     51  N   UNL A   1      41.576  31.344  36.050  1.00  0.00    -0.354 N 
ATOM     52  N   UNL A   1      41.391  29.879  33.504  1.00  0.00    -0.248 NA
ATOM     53  C   UNL A   1      42.284  28.391  31.943  1.00  0.00    -0.034 C 
ATOM     54  C   UNL A   1      43.323  30.941  37.360  1.00  0.00    -0.036 A 
ATOM     55  H   UNL A   1      42.635  32.235  38.962  1.00  0.00     0.065 H 
ATOM     56  C   UNL A   1      42.743  30.603  36.148  1.00  0.00     0.049 A 
ATOM     57  H   UNL A   1      40.953  31.318  35.289  1.00  0.00     0.167 HD
ATOM     58  C   UNL A   1      42.595  29.386  33.986  1.00  0.00     0.074 A 
ATOM     59  C   UNL A   1      43.093  28.459  32.992  1.00  0.00    -0.034 C 
ATOM     60  H   UNL A   1      42.387  27.845  31.073  1.00  0.00     0.065 H 
ATOM     61  H   UNL A   1      44.225  30.586  37.717  1.00  0.00     0.065 H 
ATOM     62  C   UNL A   1      43.222  29.673  35.154  1.00  0.00     0.037 A 
ATOM     63  H   UNL A   1      43.968  27.919  33.087  1.00  0.00     0.065 H 
BRANCH  44  64
ATOM     64  C   UNL A   1      40.354  33.917  38.628  1.00  0.00     0.064 A 
ATOM     65  C   UNL A   1      41.036  35.143  38.667  1.00  0.00     0.173 A 
ATOM     66  C   UNL A   1      39.674  33.513  39.787  1.00  0.00     0.173 A 
ATOM     67  F   UNL A   1      41.709  35.577  37.590  1.00  0.00    -0.203 F 
ATOM     68  C   UNL A   1      41.073  35.908  39.831  1.00  0.00     0.198 A 
ATOM     69  C   UNL A   1      39.682  34.297  40.938  1.00  0.00     0.198 A 
ATOM     70  F   UNL A   1      38.994  32.357  39.805  1.00  0.00    -0.203 F 
ATOM     71  F   UNL A   1      41.785  37.044  39.862  1.00  0.00    -0.200 F 
ATOM     72  C   UNL A   1      40.394  35.487  40.963  1.00  0.00     0.200 A 
ATOM     73  F   UNL A   1      39.009  33.896  42.025  1.00  0.00    -0.200 F 
ATOM     74  F   UNL A   1      40.429  36.224  42.082  1.00  0.00    -0.200 F 
ENDBRANCH  44  64
BRANCH  47  75
ATOM     75  C   UNL A   1      40.015  28.730  30.092  1.00  0.00     0.064 A 
ATOM     76  C   UNL A   1      40.630  29.272  28.957  1.00  0.00     0.173 A 
ATOM     77  C   UNL A   1      39.420  27.464  29.973  1.00  0.00     0.173 A 
ATOM     78  F   UNL A   1      41.199  30.486  29.020  1.00  0.00    -0.203 F 
ATOM     79  C   UNL A   1      40.650  28.577  27.750  1.00  0.00     0.198 A 
ATOM     80  C   UNL A   1      39.466  26.758  28.774  1.00  0.00     0.198 A 
ATOM     81  F   UNL A   1      38.827  26.899  31.034  1.00  0.00    -0.203 F 
ATOM     82  F   UNL A   1      41.224  29.128  26.672  1.00  0.00    -0.200 F 
ATOM     83  C   UNL A   1      40.078  27.316  27.662  1.00  0.00     0.200 A 
ATOM     84  F   UNL A   1      38.931  25.531  28.700  1.00  0.00    -0.200 F 
ATOM     85  F   UNL A   1      40.117  26.640  26.507  1.00  0.00    -0.200 F 
ENDBRANCH  47  75
BRANCH  62  86
ATOM     86  C   UNL A   1      44.496  28.937  35.457  1.00  0.00     0.064 A 
ATOM     87  C   UNL A   1      45.755  29.488  35.182  1.00  0.00     0.173 A 
ATOM     88  C   UNL A   1      44.450  27.694  36.108  1.00  0.00     0.173 A 
ATOM     89  F   UNL A   1      45.853  30.666  34.547  1.00  0.00    -0.203 F 
ATOM     90  C   UNL A   1      46.922  28.818  35.540  1.00  0.00     0.198 A 
ATOM     91  C   UNL A   1      45.617  27.041  36.491  1.00  0.00     0.198 A 
ATOM     92  F   UNL A   1      43.269  27.125  36.396  1.00  0.00    -0.203 F 
ATOM     93  F   UNL A   1      48.116  29.347  35.241  1.00  0.00    -0.200 F 
ATOM     94  C   UNL A   1      46.851  27.602  36.205  1.00  0.00     0.200 A 
ATOM     95  F   UNL A   1      45.546  25.874  37.146  1.00  0.00    -0.200 F 
ATOM     96  F   UNL A   1      47.976  26.969  36.569  1.00  0.00    -0.200 F 
ENDBRANCH  62  86
ENDBRANCH  27  30
ENDBRANCH  18  20
ENDBRANCH  13  16
ENDBRANCH  10  13
ENDBRANCH   7  10
ENDBRANCH   4   7
ENDBRANCH   1   4
BRANCH   1  97
ATOM     97  C   UNL A   1      34.781  31.618  27.646  1.00  0.00     0.018 C 
ATOM     98  H   UNL A   1      35.655  31.950  27.126  1.00  0.00     0.049 H 
ATOM     99  H   UNL A   1      33.888  31.967  27.171  1.00  0.00     0.049 H 
BRANCH  97 100
ATOM    100  N   UNL A   1      34.753  30.165  27.634  1.00  0.00    -0.352 N 
ATOM    101  C   UNL A   1      33.812  29.325  27.092  1.00  0.00     0.253 C 
ATOM    102  H   UNL A   1      35.514  29.722  28.075  1.00  0.00     0.163 HD
ATOM    103  O   UNL A   1      33.911  28.111  27.246  1.00  0.00    -0.269 OA
BRANCH 101 104
ATOM    104  C   UNL A   1      32.663  29.871  26.340  1.00  0.00     0.063 A 
ATOM    105  C   UNL A   1      32.085  31.046  26.844  1.00  0.00    -0.047 A 
ATOM    106  C   UNL A   1      32.141  29.241  25.194  1.00  0.00     0.054 A 
ATOM    107  C   UNL A   1      31.013  31.640  26.179  1.00  0.00    -0.061 A 
ATOM    108  H   UNL A   1      32.454  31.473  27.708  1.00  0.00     0.063 H 
ATOM    109  C   UNL A   1      31.093  29.888  24.518  1.00  0.00    -0.038 A 
ATOM    110  C   UNL A   1      30.528  31.067  25.009  1.00  0.00    -0.060 A 
ATOM    111  H   UNL A   1      30.582  32.499  26.554  1.00  0.00     0.062 H 
ATOM    112  H   UNL A   1      30.733  29.483  23.640  1.00  0.00     0.064 H 
ATOM    113  H   UNL A   1      29.749  31.516  24.501  1.00  0.00     0.062 H 
BRANCH 106 114
ATOM    114  N   UNL A   1      32.646  28.015  24.732  1.00  0.00    -0.323 N 
ATOM    115  H   UNL A   1      33.547  28.056  24.337  1.00  0.00     0.170 HD
BRANCH 114 116
ATOM    116  C   UNL A   1      32.065  26.754  24.751  1.00  0.00     0.233 A 
ATOM    117  N   UNL A   1      31.102  26.488  25.617  1.00  0.00    -0.182 NA
ATOM    118  N   UNL A   1      32.535  25.880  23.869  1.00  0.00    -0.176 NA
ATOM    119  C   UNL A   1      30.633  25.257  25.529  1.00  0.00     0.228 A 
ATOM    120  C   UNL A   1      32.038  24.648  23.929  1.00  0.00     0.233 A 
ATOM    121  Cl  UNL A   1      29.378  24.851  26.615  1.00  0.00    -0.041 Cl
ATOM    122  N   UNL A   1      31.044  24.294  24.727  1.00  0.00    -0.182 NA
BRANCH 120 123
ATOM    123  N   UNL A   1      32.719  23.688  23.185  1.00  0.00    -0.324 N 
ATOM    124  H   UNL A   1      33.077  23.994  22.320  1.00  0.00     0.170 HD
BRANCH 123 125
ATOM    125  C   UNL A   1      32.962  22.351  23.502  1.00  0.00     0.041 A 
ATOM    126  C   UNL A   1      33.913  22.031  24.476  1.00  0.00    -0.036 A 
ATOM    127  C   UNL A   1      32.200  21.320  22.949  1.00  0.00    -0.036 A 
ATOM    128  C   UNL A   1      34.093  20.706  24.895  1.00  0.00    -0.036 A 
ATOM    129  H   UNL A   1      34.490  22.778  24.892  1.00  0.00     0.065 H 
ATOM    130  C   UNL A   1      32.419  19.992  23.320  1.00  0.00    -0.036 A 
ATOM    131  H   UNL A   1      31.468  21.542  22.257  1.00  0.00     0.065 H 
ATOM    132  C   UNL A   1      33.357  19.674  24.306  1.00  0.00     0.044 A 
ATOM    133  H   UNL A   1      34.773  20.492  25.642  1.00  0.00     0.065 H 
ATOM    134  H   UNL A   1      31.882  19.239  22.862  1.00  0.00     0.065 H 
BRANCH 132 135
ATOM    135  N   UNL A   1      33.523  18.325  24.733  1.00  0.00    -0.308 N 
ATOM    136  C   UNL A   1      32.302  17.530  24.905  1.00  0.00     0.049 C 
ATOM    137  C   UNL A   1      34.777  17.706  24.659  1.00  0.00     0.253 C 
ATOM    138  C   UNL A   1      32.547  16.186  25.581  1.00  0.00     0.065 C 
ATOM    139  H   UNL A   1      31.874  17.352  23.941  1.00  0.00     0.052 H 
ATOM    140  H   UNL A   1      31.647  18.089  25.540  1.00  0.00     0.052 H 
ATOM    141  C   UNL A   1      34.797  16.206  24.994  1.00  0.00     0.126 C 
ATOM    142  O   UNL A   1      35.838  18.299  24.447  1.00  0.00    -0.272 OA
ATOM    143  O   UNL A   1      33.579  15.488  24.890  1.00  0.00    -0.370 OA
ATOM    144  H   UNL A   1      31.647  15.607  25.558  1.00  0.00     0.059 H 
ATOM    145  H   UNL A   1      32.844  16.347  26.596  1.00  0.00     0.059 H 
ATOM    146  H   UNL A   1      35.499  15.742  24.331  1.00  0.00     0.067 H 
ATOM    147  H   UNL A   1      35.046  16.165  26.033  1.00  0.00     0.067 H 
ENDBRANCH 132 135
ENDBRANCH 123 125
ENDBRANCH 120 123
ENDBRANCH 114 116
ENDBRANCH 106 114
ENDBRANCH 101 104
ENDBRANCH  97 100
ENDBRANCH   1  97
TORSDOF 18
ENDMDL
MODEL 2
REMARK VINA RESULT:     -12.5      1.756      2.672
REMARK SMILES O=C(NCCCCCCNC(=O)c1ccccc1Nc1nc(Cl)nc(Nc2ccc(N3CCOCC3=O)cc2)n1)c1ccc(-c2c3nc(c(-c4c(F)c(F)c(F)c(F)c4F)c4ccc([nH]4)c(-c4c(F)c(F)c(F)c(F)c4F)c4nc(c(-c5c(F)c(F)c(F)c(F)c5F)c5ccc2[nH]5)C=C4)C=C3)cc1
REMARK SMILES IDX 8 1 7 4 6 7 5 10 4 13 3 16 1 17 2 18 41 20 42 21 103 22
REMARK SMILES IDX 43 23 102 25 44 27 45 30 46 31 96 32 47 33 101 34 95 35
REMARK SMILES IDX 97 36 48 37 100 38 94 40 93 42 49 44 81 47 61 48 80 49 62 50
REMARK SMILES IDX 65 51 79 52 98 53 63 54 64 56 78 58 99 59 66 62 50 64 51 65
REMARK SMILES IDX 59 66 52 67 53 68 57 69 60 70 54 71 55 72 58 73 56 74 82 75
REMARK SMILES IDX 83 76 91 77 84 78 85 79 89 80 92 81 86 82 87 83 90 84 88 85
REMARK SMILES IDX 67 86 68 87 76 88 69 89 70 90 74 91 77 92 71 93 72 94 75 95
REMARK SMILES IDX 73 96 9 97 10 100 11 101 12 103 13 104 14 105 18 106 15 107
REMARK SMILES IDX 17 109 16 110 19 114 20 116 21 117 40 118 22 119 25 120
REMARK SMILES IDX 23 121 24 122 26 123 27 125 28 126 39 127 29 128 38 130
REMARK SMILES IDX 30 132 31 135 32 136 36 137 33 138 35 141 37 142 34 143
REMARK H PARENT 8 2 8 3 7 5 7 6 6 8 6 9 5 11 5 12 4 14 4 15 3 19 42 24 103 26
REMARK H PARENT 43 28 102 29 101 39 95 41 97 43 100 45 94 46 62 55 65 57 98 60
REMARK H PARENT 63 61 99 63 9 98 9 99 10 102 14 108 15 111 17 112 16 113
REMARK H PARENT 19 115 26 124 28 129 39 131 29 133 38 134 32 139 32 140 33 144
REMARK H PARENT 33 145 35 146 35 147
REMARK Flexibility Score: inf
ROOT
ATOM      1  C   UNL A   1      35.102  32.070  29.065  1.00  0.00    -0.036 C 
ATOM      2  H   UNL A   1      34.299  31.603  29.595  1.00  0.00     0.028 H 
ATOM      3  H   UNL A   1      36.069  31.823  29.449  1.00  0.00     0.028 H 
ENDROOT
BRANCH   1   4
ATOM      4  C   UNL A   1      34.956  33.587  29.224  1.00  0.00    -0.052 C 
ATOM      5  H   UNL A   1      34.567  33.779  30.202  1.00  0.00     0.027 H 
ATOM      6  H   UNL A   1      35.932  33.993  29.057  1.00  0.00     0.027 H 
BRANCH   4   7
ATOM      7  C   UNL A   1      34.038  34.277  28.210  1.00  0.00    -0.052 C 
ATOM      8  H   UNL A   1      34.638  34.936  27.617  1.00  0.00     0.027 H 
ATOM      9  H   UNL A   1      33.576  33.492  27.650  1.00  0.00     0.027 H 
BRANCH   7  10
ATOM     10  C   UNL A   1      32.892  35.096  28.809  1.00  0.00    -0.036 C 
ATOM     11  H   UNL A   1      32.311  35.491  28.003  1.00  0.00     0.028 H 
ATOM     12  H   UNL A   1      32.346  34.427  29.440  1.00  0.00     0.028 H 
BRANCH  10  13
ATOM     13  C   UNL A   1      33.325  36.258  29.695  1.00  0.00     0.018 C 
ATOM     14  H   UNL A   1      34.311  36.061  30.063  1.00  0.00     0.049 H 
ATOM     15  H   UNL A   1      33.299  37.148  29.101  1.00  0.00     0.049 H 
BRANCH  13  16
ATOM     16  N   UNL A   1      32.435  36.454  30.827  1.00  0.00    -0.352 N 
ATOM     17  O   UNL A   1      31.545  36.048  32.859  1.00  0.00    -0.269 OA
ATOM     18  C   UNL A   1      32.485  35.900  32.079  1.00  0.00     0.251 C 
ATOM     19  H   UNL A   1      31.688  37.077  30.672  1.00  0.00     0.163 HD
BRANCH  18  20
ATOM     20  C   UNL A   1      33.657  35.102  32.489  1.00  0.00     0.039 A 
ATOM     21  C   UNL A   1      33.517  33.767  32.884  1.00  0.00    -0.049 A 
ATOM     22  C   UNL A   1      34.920  35.695  32.451  1.00  0.00    -0.049 A 
ATOM     23  C   UNL A   1      34.622  33.061  33.348  1.00  0.00    -0.053 A 
ATOM     24  H   UNL A   1      32.594  33.307  32.832  1.00  0.00     0.063 H 
ATOM     25  C   UNL A   1      36.039  34.963  32.848  1.00  0.00    -0.053 A 
ATOM     26  H   UNL A   1      35.026  36.670  32.129  1.00  0.00     0.063 H 
ATOM     27  C   UNL A   1      35.896  33.649  33.321  1.00  0.00    -0.014 A 
ATOM     28  H   UNL A   1      34.506  32.103  33.712  1.00  0.00     0.063 H 
ATOM     29  H   UNL A   1      36.978  35.391  32.795  1.00  0.00     0.063 H 
BRANCH  27  30
ATOM     30  C   UNL A   1      37.091  32.876  33.737  1.00  0.00     0.031 A 
ATOM     31  C   UNL A   1      37.786  33.180  35.031  1.00  0.00     0.074 A 
ATOM     32  C   UNL A   1      37.578  31.929  32.913  1.00  0.00     0.049 A 
ATOM     33  N   UNL A   1      38.906  32.696  35.504  1.00  0.00    -0.248 NA
ATOM     34  C   UNL A   1      37.142  34.172  35.904  1.00  0.00    -0.034 C 
ATOM     35  C   UNL A   1      36.986  31.548  31.630  1.00  0.00    -0.036 A 
ATOM     36  N   UNL A   1      38.689  31.134  33.019  1.00  0.00    -0.354 N 
ATOM     37  C   UNL A   1      39.116  33.341  36.715  1.00  0.00     0.074 A 
ATOM     38  C   UNL A   1      38.019  34.270  36.893  1.00  0.00    -0.034 C 
ATOM     39  H   UNL A   1      36.243  34.663  35.780  1.00  0.00     0.065 H 
ATOM     40  C   UNL A   1      37.740  30.594  31.066  1.00  0.00    -0.036 A 
ATOM     41  H   UNL A   1      36.126  31.949  31.225  1.00  0.00     0.065 H 
ATOM     42  C   UNL A   1      38.900  30.344  31.915  1.00  0.00     0.049 A 
ATOM     43  H   UNL A   1      39.279  31.130  33.807  1.00  0.00     0.167 HD
ATOM     44  C   UNL A   1      40.132  33.169  37.597  1.00  0.00     0.037 A 
ATOM     45  H   UNL A   1      37.932  34.923  37.686  1.00  0.00     0.065 H 
ATOM     46  H   UNL A   1      37.534  30.114  30.176  1.00  0.00     0.065 H 
ATOM     47  C   UNL A   1      39.933  29.540  31.600  1.00  0.00     0.037 A 
ATOM     48  C   UNL A   1      41.216  32.240  37.405  1.00  0.00     0.049 A 
ATOM     49  C   UNL A   1      41.072  29.398  32.568  1.00  0.00     0.074 A 
ATOM     50  C   UNL A   1      42.271  31.957  38.254  1.00  0.00    -0.036 A 
ATOM     51  N   UNL A   1      41.393  31.452  36.274  1.00  0.00    -0.354 N 
ATOM     52  N   UNL A   1      41.245  29.981  33.729  1.00  0.00    -0.248 NA
ATOM     53  C   UNL A   1      42.159  28.487  32.186  1.00  0.00    -0.034 C 
ATOM     54  C   UNL A   1      43.119  31.049  37.612  1.00  0.00    -0.036 A 
ATOM     55  H   UNL A   1      42.409  32.348  39.199  1.00  0.00     0.065 H 
ATOM     56  C   UNL A   1      42.557  30.709  36.391  1.00  0.00     0.049 A 
ATOM     57  H   UNL A   1      40.782  31.425  35.503  1.00  0.00     0.167 HD
ATOM     58  C   UNL A   1      42.440  29.487  34.231  1.00  0.00     0.074 A 
ATOM     59  C   UNL A   1      42.952  28.557  33.247  1.00  0.00    -0.034 C 
ATOM     60  H   UNL A   1      42.274  27.939  31.319  1.00  0.00     0.065 H 
ATOM     61  H   UNL A   1      44.015  30.694  37.983  1.00  0.00     0.065 H 
ATOM     62  C   UNL A   1      43.050  29.776  35.407  1.00  0.00     0.037 A 
ATOM     63  H   UNL A   1      43.824  28.015  33.356  1.00  0.00     0.065 H 
BRANCH  44  64
ATOM     64  C   UNL A   1      40.137  34.034  38.827  1.00  0.00     0.064 A 
ATOM     65  C   UNL A   1      39.505  33.641  40.016  1.00  0.00     0.173 A 
ATOM     66  C   UNL A   1      40.794  35.274  38.816  1.00  0.00     0.173 A 
ATOM     67  F   UNL A   1      38.857  32.468  40.081  1.00  0.00    -0.203 F 
ATOM     68  C   UNL A   1      39.492  34.475  41.133  1.00  0.00     0.198 A 
ATOM     69  C   UNL A   1      40.810  36.090  39.944  1.00  0.00     0.198 A 
ATOM     70  F   UNL A   1      41.426  35.697  37.711  1.00  0.00    -0.203 F 
ATOM     71  F   UNL A   1      38.827  34.105  42.236  1.00  0.00    -0.200 F 
ATOM     72  C   UNL A   1      40.147  35.696  41.097  1.00  0.00     0.200 A 
ATOM     73  F   UNL A   1      41.460  37.262  39.914  1.00  0.00    -0.200 F 
ATOM     74  F   UNL A   1      40.135  36.497  42.172  1.00  0.00    -0.200 F 
ENDBRANCH  44  64
BRANCH  47  75
ATOM     75  C   UNL A   1      39.919  28.826  30.300  1.00  0.00     0.064 A 
ATOM     76  C   UNL A   1      40.526  29.378  29.165  1.00  0.00     0.173 A 
ATOM     77  C   UNL A   1      39.351  27.547  30.181  1.00  0.00     0.173 A 
ATOM     78  F   UNL A   1      41.070  30.603  29.227  1.00  0.00    -0.203 F 
ATOM     79  C   UNL A   1      40.564  28.680  27.960  1.00  0.00     0.198 A 
ATOM     80  C   UNL A   1      39.415  26.839  28.983  1.00  0.00     0.198 A 
ATOM     81  F   UNL A   1      38.765  26.972  31.242  1.00  0.00    -0.203 F 
ATOM     82  F   UNL A   1      41.131  29.241  26.882  1.00  0.00    -0.200 F 
ATOM     83  C   UNL A   1      40.018  27.408  27.873  1.00  0.00     0.200 A 
ATOM     84  F   UNL A   1      38.905  25.602  28.911  1.00  0.00    -0.200 F 
ATOM     85  F   UNL A   1      40.075  26.730  26.719  1.00  0.00    -0.200 F 
ENDBRANCH  47  75
BRANCH  62  86
ATOM     86  C   UNL A   1      44.317  29.039  35.732  1.00  0.00     0.064 A 
ATOM     87  C   UNL A   1      44.309  27.810  36.406  1.00  0.00     0.173 A 
ATOM     88  C   UNL A   1      45.553  29.537  35.288  1.00  0.00     0.173 A 
ATOM     89  F   UNL A   1      43.156  27.299  36.866  1.00  0.00    -0.203 F 
ATOM     90  C   UNL A   1      45.492  27.110  36.631  1.00  0.00     0.198 A 
ATOM     91  C   UNL A   1      46.729  28.820  35.487  1.00  0.00     0.198 A 
ATOM     92  F   UNL A   1      45.614  30.708  34.635  1.00  0.00    -0.203 F 
ATOM     93  F   UNL A   1      45.466  25.952  37.305  1.00  0.00    -0.200 F 
ATOM     94  C   UNL A   1      46.697  27.609  36.160  1.00  0.00     0.200 A 
ATOM     95  F   UNL A   1      47.890  29.298  35.019  1.00  0.00    -0.200 F 
ATOM     96  F   UNL A   1      47.832  26.923  36.358  1.00  0.00    -0.200 F 
ENDBRANCH  62  86
ENDBRANCH  27  30
ENDBRANCH  18  20
ENDBRANCH  13  16
ENDBRANCH  10  13
ENDBRANCH   7  10
ENDBRANCH   4   7
ENDBRANCH   1   4
BRANCH   1  97
ATOM     97  C   UNL A   1      35.076  31.560  27.625  1.00  0.00     0.018 C 
ATOM     98  H   UNL A   1      35.997  31.825  27.149  1.00  0.00     0.049 H 
ATOM     99  H   UNL A   1      34.239  32.012  27.135  1.00  0.00     0.049 H 
BRANCH  97 100
ATOM    100  N   UNL A   1      34.909  30.118  27.553  1.00  0.00    -0.352 N 
ATOM    101  C   UNL A   1      33.853  29.397  27.056  1.00  0.00     0.253 C 
ATOM    102  H   UNL A   1      35.657  29.587  27.910  1.00  0.00     0.163 HD
ATOM    103  O   UNL A   1      33.848  28.173  27.149  1.00  0.00    -0.269 OA
BRANCH 101 104
ATOM    104  C   UNL A   1      32.705  30.083  26.425  1.00  0.00     0.063 A 
ATOM    105  C   UNL A   1      32.255  31.255  27.051  1.00  0.00    -0.047 A 
ATOM    106  C   UNL A   1      32.065  29.583  25.275  1.00  0.00     0.054 A 
ATOM    107  C   UNL A   1      31.193  31.975  26.506  1.00  0.00    -0.061 A 
ATOM    108  H   UNL A   1      32.709  31.584  27.916  1.00  0.00     0.063 H 
ATOM    109  C   UNL A   1      31.031  30.356  24.721  1.00  0.00    -0.038 A 
ATOM    110  C   UNL A   1      30.592  31.532  25.333  1.00  0.00    -0.060 A 
ATOM    111  H   UNL A   1      30.855  32.832  26.971  1.00  0.00     0.062 H 
ATOM    112  H   UNL A   1      30.586  30.048  23.843  1.00  0.00     0.064 H 
ATOM    113  H   UNL A   1      29.820  32.075  24.914  1.00  0.00     0.062 H 
BRANCH 106 114
ATOM    114  N   UNL A   1      32.442  28.362  24.692  1.00  0.00    -0.323 N 
ATOM    115  H   UNL A   1      33.407  28.256  24.533  1.00  0.00     0.170 HD
BRANCH 114 116
ATOM    116  C   UNL A   1      31.657  27.284  24.308  1.00  0.00     0.233 A 
ATOM    117  N   UNL A   1      30.339  27.369  24.391  1.00  0.00    -0.182 NA
ATOM    118  N   UNL A   1      32.307  26.212  23.873  1.00  0.00    -0.176 NA
ATOM    119  C   UNL A   1      29.711  26.279  23.992  1.00  0.00     0.228 A 
ATOM    120  C   UNL A   1      31.567  25.147  23.574  1.00  0.00     0.233 A 
ATOM    121  Cl  UNL A   1      28.004  26.327  24.065  1.00  0.00    -0.041 Cl
ATOM    122  N   UNL A   1      30.245  25.145  23.581  1.00  0.00    -0.182 NA
BRANCH 120 123
ATOM    123  N   UNL A   1      32.272  23.964  23.373  1.00  0.00    -0.324 N 
ATOM    124  H   UNL A   1      31.829  23.294  22.804  1.00  0.00     0.170 HD
BRANCH 123 125
ATOM    125  C   UNL A   1      33.524  23.601  23.872  1.00  0.00     0.041 A 
ATOM    126  C   UNL A   1      34.620  23.521  23.005  1.00  0.00    -0.036 A 
ATOM    127  C   UNL A   1      33.741  23.420  25.239  1.00  0.00    -0.036 A 
ATOM    128  C   UNL A   1      35.907  23.272  23.497  1.00  0.00    -0.036 A 
ATOM    129  H   UNL A   1      34.478  23.645  21.991  1.00  0.00     0.065 H 
ATOM    130  C   UNL A   1      35.013  23.113  25.727  1.00  0.00    -0.036 A 
ATOM    131  H   UNL A   1      32.952  23.513  25.897  1.00  0.00     0.065 H 
ATOM    132  C   UNL A   1      36.110  23.050  24.862  1.00  0.00     0.044 A 
ATOM    133  H   UNL A   1      36.710  23.254  22.849  1.00  0.00     0.065 H 
ATOM    134  H   UNL A   1      35.143  22.931  26.734  1.00  0.00     0.065 H 
BRANCH 132 135
ATOM    135  N   UNL A   1      37.417  22.808  25.376  1.00  0.00    -0.308 N 
ATOM    136  C   UNL A   1      38.012  23.869  26.197  1.00  0.00     0.049 C 
ATOM    137  C   UNL A   1      37.950  21.514  25.381  1.00  0.00     0.253 C 
ATOM    138  C   UNL A   1      39.485  23.636  26.509  1.00  0.00     0.065 C 
ATOM    139  H   UNL A   1      37.475  23.925  27.120  1.00  0.00     0.052 H 
ATOM    140  H   UNL A   1      37.947  24.778  25.636  1.00  0.00     0.052 H 
ATOM    141  C   UNL A   1      39.296  21.354  26.105  1.00  0.00     0.126 C 
ATOM    142  O   UNL A   1      37.465  20.556  24.774  1.00  0.00    -0.272 OA
ATOM    143  O   UNL A   1      39.653  22.335  27.064  1.00  0.00    -0.370 OA
ATOM    144  H   UNL A   1      39.821  24.370  27.211  1.00  0.00     0.059 H 
ATOM    145  H   UNL A   1      40.057  23.715  25.608  1.00  0.00     0.059 H 
ATOM    146  H   UNL A   1      39.277  20.408  26.607  1.00  0.00     0.067 H 
ATOM    147  H   UNL A   1      40.030  21.452  25.333  1.00  0.00     0.067 H 
ENDBRANCH 132 135
ENDBRANCH 123 125
ENDBRANCH 120 123
ENDBRANCH 114 116
ENDBRANCH 106 114
ENDBRANCH 101 104
ENDBRANCH  97 100
ENDBRANCH   1  97
TORSDOF 18
ENDMDL
MODEL 3
REMARK VINA RESULT:     -12.3      5.924     12.106
REMARK SMILES O=C(NCCCCCCNC(=O)c1ccccc1Nc1nc(Cl)nc(Nc2ccc(N3CCOCC3=O)cc2)n1)c1ccc(-c2c3nc(c(-c4c(F)c(F)c(F)c(F)c4F)c4ccc([nH]4)c(-c4c(F)c(F)c(F)c(F)c4F)c4nc(c(-c5c(F)c(F)c(F)c(F)c5F)c5ccc2[nH]5)C=C4)C=C3)cc1
REMARK SMILES IDX 8 1 7 4 6 7 5 10 4 13 3 16 1 17 2 18 41 20 42 21 103 22
REMARK SMILES IDX 43 23 102 25 44 27 45 30 46 31 96 32 47 33 101 34 95 35
REMARK SMILES IDX 97 36 48 37 100 38 94 40 93 42 49 44 81 47 61 48 80 49 62 50
REMARK SMILES IDX 65 51 79 52 98 53 63 54 64 56 78 58 99 59 66 62 50 64 51 65
REMARK SMILES IDX 59 66 52 67 53 68 57 69 60 70 54 71 55 72 58 73 56 74 82 75
REMARK SMILES IDX 83 76 91 77 84 78 85 79 89 80 92 81 86 82 87 83 90 84 88 85
REMARK SMILES IDX 67 86 68 87 76 88 69 89 70 90 74 91 77 92 71 93 72 94 75 95
REMARK SMILES IDX 73 96 9 97 10 100 11 101 12 103 13 104 14 105 18 106 15 107
REMARK SMILES IDX 17 109 16 110 19 114 20 116 21 117 40 118 22 119 25 120
REMARK SMILES IDX 23 121 24 122 26 123 27 125 28 126 39 127 29 128 38 130
REMARK SMILES IDX 30 132 31 135 32 136 36 137 33 138 35 141 37 142 34 143
REMARK H PARENT 8 2 8 3 7 5 7 6 6 8 6 9 5 11 5 12 4 14 4 15 3 19 42 24 103 26
REMARK H PARENT 43 28 102 29 101 39 95 41 97 43 100 45 94 46 62 55 65 57 98 60
REMARK H PARENT 63 61 99 63 9 98 9 99 10 102 14 108 15 111 17 112 16 113
REMARK H PARENT 19 115 26 124 28 129 39 131 29 133 38 134 32 139 32 140 33 144
REMARK H PARENT 33 145 35 146 35 147
REMARK Flexibility Score: inf
ROOT
ATOM      1  C   UNL A   1      36.968  22.128  23.963  1.00  0.00    -0.036 C 
ATOM      2  H   UNL A   1      36.945  21.124  23.593  1.00  0.00     0.028 H 
ATOM      3  H   UNL A   1      37.405  22.826  23.281  1.00  0.00     0.028 H 
ENDROOT
BRANCH   1   4
ATOM      4  C   UNL A   1      37.848  22.151  25.218  1.00  0.00    -0.052 C 
ATOM      5  H   UNL A   1      38.706  22.754  25.006  1.00  0.00     0.027 H 
ATOM      6  H   UNL A   1      37.229  22.535  26.001  1.00  0.00     0.027 H 
BRANCH   4   7
ATOM      7  C   UNL A   1      38.343  20.786  25.708  1.00  0.00    -0.052 C 
ATOM      8  H   UNL A   1      37.997  20.651  26.712  1.00  0.00     0.027 H 
ATOM      9  H   UNL A   1      37.954  20.067  25.017  1.00  0.00     0.027 H 
BRANCH   7  10
ATOM     10  C   UNL A   1      39.861  20.595  25.704  1.00  0.00    -0.036 C 
ATOM     11  H   UNL A   1      40.160  20.346  24.707  1.00  0.00     0.028 H 
ATOM     12  H   UNL A   1      40.278  21.514  26.057  1.00  0.00     0.028 H 
BRANCH  10  13
ATOM     13  C   UNL A   1      40.376  19.506  26.638  1.00  0.00     0.018 C 
ATOM     14  H   UNL A   1      40.594  19.945  27.589  1.00  0.00     0.049 H 
ATOM     15  H   UNL A   1      39.615  18.757  26.717  1.00  0.00     0.049 H 
BRANCH  13  16
ATOM     16  N   UNL A   1      41.579  18.865  26.134  1.00  0.00    -0.352 N 
ATOM     17  O   UNL A   1      43.625  18.745  25.192  1.00  0.00    -0.269 OA
ATOM     18  C   UNL A   1      42.772  19.425  25.762  1.00  0.00     0.251 C 
ATOM     19  H   UNL A   1      41.528  17.885  26.047  1.00  0.00     0.163 HD
BRANCH  18  20
ATOM     20  C   UNL A   1      43.032  20.854  26.024  1.00  0.00     0.039 A 
ATOM     21  C   UNL A   1      43.174  21.765  24.970  1.00  0.00    -0.049 A 
ATOM     22  C   UNL A   1      43.108  21.292  27.347  1.00  0.00    -0.049 A 
ATOM     23  C   UNL A   1      43.503  23.090  25.238  1.00  0.00    -0.053 A 
ATOM     24  H   UNL A   1      43.035  21.454  23.996  1.00  0.00     0.063 H 
ATOM     25  C   UNL A   1      43.368  22.636  27.616  1.00  0.00    -0.053 A 
ATOM     26  H   UNL A   1      42.972  20.626  28.123  1.00  0.00     0.063 H 
ATOM     27  C   UNL A   1      43.590  23.541  26.564  1.00  0.00    -0.014 A 
ATOM     28  H   UNL A   1      43.684  23.743  24.461  1.00  0.00     0.063 H 
ATOM     29  H   UNL A   1      43.397  22.968  28.593  1.00  0.00     0.063 H 
BRANCH  27  30
ATOM     30  C   UNL A   1      43.859  24.968  26.858  1.00  0.00     0.031 A 
ATOM     31  C   UNL A   1      45.252  25.517  26.766  1.00  0.00     0.074 A 
ATOM     32  C   UNL A   1      42.845  25.757  27.260  1.00  0.00     0.049 A 
ATOM     33  N   UNL A   1      45.700  26.702  27.098  1.00  0.00    -0.248 NA
ATOM     34  C   UNL A   1      46.283  24.609  26.243  1.00  0.00    -0.034 C 
ATOM     35  C   UNL A   1      41.451  25.332  27.387  1.00  0.00    -0.036 A 
ATOM     36  N   UNL A   1      42.834  27.069  27.657  1.00  0.00    -0.354 N 
ATOM     37  C   UNL A   1      47.066  26.674  26.850  1.00  0.00     0.074 A 
ATOM     38  C   UNL A   1      47.377  25.346  26.363  1.00  0.00    -0.034 C 
ATOM     39  H   UNL A   1      46.181  23.648  25.879  1.00  0.00     0.065 H 
ATOM     40  C   UNL A   1      40.719  26.362  27.832  1.00  0.00    -0.036 A 
ATOM     41  H   UNL A   1      41.089  24.391  27.168  1.00  0.00     0.065 H 
ATOM     42  C   UNL A   1      41.601  27.497  28.083  1.00  0.00     0.049 A 
ATOM     43  H   UNL A   1      43.630  27.647  27.639  1.00  0.00     0.167 HD
ATOM     44  C   UNL A   1      47.972  27.669  27.013  1.00  0.00     0.037 A 
ATOM     45  H   UNL A   1      48.329  25.016  26.139  1.00  0.00     0.065 H 
ATOM     46  H   UNL A   1      39.696  26.355  27.974  1.00  0.00     0.065 H 
ATOM     47  C   UNL A   1      41.228  28.658  28.654  1.00  0.00     0.037 A 
ATOM     48  C   UNL A   1      47.645  28.985  27.499  1.00  0.00     0.049 A 
ATOM     49  C   UNL A   1      42.256  29.731  28.870  1.00  0.00     0.074 A 
ATOM     50  C   UNL A   1      48.479  30.077  27.661  1.00  0.00    -0.036 A 
ATOM     51  N   UNL A   1      46.382  29.383  27.917  1.00  0.00    -0.354 N 
ATOM     52  N   UNL A   1      43.537  29.712  28.597  1.00  0.00    -0.248 NA
ATOM     53  C   UNL A   1      41.787  30.987  29.471  1.00  0.00    -0.034 C 
ATOM     54  C   UNL A   1      47.737  31.113  28.237  1.00  0.00    -0.036 A 
ATOM     55  H   UNL A   1      49.477  30.120  27.401  1.00  0.00     0.065 H 
ATOM     56  C   UNL A   1      46.422  30.693  28.367  1.00  0.00     0.049 A 
ATOM     57  H   UNL A   1      45.576  28.818  27.897  1.00  0.00     0.167 HD
ATOM     58  C   UNL A   1      44.025  30.959  28.962  1.00  0.00     0.074 A 
ATOM     59  C   UNL A   1      42.900  31.711  29.478  1.00  0.00    -0.034 C 
ATOM     60  H   UNL A   1      40.843  31.239  29.800  1.00  0.00     0.065 H 
ATOM     61  H   UNL A   1      48.105  32.035  28.519  1.00  0.00     0.065 H 
ATOM     62  C   UNL A   1      45.291  31.435  28.868  1.00  0.00     0.037 A 
ATOM     63  H   UNL A   1      42.955  32.687  29.810  1.00  0.00     0.065 H 
BRANCH  44  64
ATOM     64  C   UNL A   1      49.410  27.355  26.702  1.00  0.00     0.064 A 
ATOM     65  C   UNL A   1      49.924  27.430  25.399  1.00  0.00     0.173 A 
ATOM     66  C   UNL A   1      50.290  26.980  27.730  1.00  0.00     0.173 A 
ATOM     67  F   UNL A   1      49.126  27.777  24.377  1.00  0.00    -0.203 F 
ATOM     68  C   UNL A   1      51.250  27.100  25.129  1.00  0.00     0.198 A 
ATOM     69  C   UNL A   1      51.624  26.686  27.463  1.00  0.00     0.198 A 
ATOM     70  F   UNL A   1      49.858  26.904  28.997  1.00  0.00    -0.203 F 
ATOM     71  F   UNL A   1      51.700  27.118  23.867  1.00  0.00    -0.200 F 
ATOM     72  C   UNL A   1      52.100  26.732  26.161  1.00  0.00     0.200 A 
ATOM     73  F   UNL A   1      52.448  26.349  28.465  1.00  0.00    -0.200 F 
ATOM     74  F   UNL A   1      53.376  26.416  25.901  1.00  0.00    -0.200 F 
ENDBRANCH  44  64
BRANCH  47  75
ATOM     75  C   UNL A   1      39.812  28.839  29.062  1.00  0.00     0.064 A 
ATOM     76  C   UNL A   1      39.397  28.564  30.370  1.00  0.00     0.173 A 
ATOM     77  C   UNL A   1      38.859  29.348  28.165  1.00  0.00     0.173 A 
ATOM     78  F   UNL A   1      40.268  28.063  31.258  1.00  0.00    -0.203 F 
ATOM     79  C   UNL A   1      38.080  28.790  30.767  1.00  0.00     0.198 A 
ATOM     80  C   UNL A   1      37.551  29.600  28.572  1.00  0.00     0.198 A 
ATOM     81  F   UNL A   1      39.211  29.635  26.903  1.00  0.00    -0.203 F 
ATOM     82  F   UNL A   1      37.702  28.496  32.020  1.00  0.00    -0.200 F 
ATOM     83  C   UNL A   1      37.162  29.317  29.872  1.00  0.00     0.200 A 
ATOM     84  F   UNL A   1      36.673  30.130  27.709  1.00  0.00    -0.200 F 
ATOM     85  F   UNL A   1      35.903  29.554  30.262  1.00  0.00    -0.200 F 
ENDBRANCH  47  75
BRANCH  62  86
ATOM     86  C   UNL A   1      45.529  32.860  29.279  1.00  0.00     0.064 A 
ATOM     87  C   UNL A   1      45.349  33.929  28.391  1.00  0.00     0.173 A 
ATOM     88  C   UNL A   1      45.867  33.159  30.609  1.00  0.00     0.173 A 
ATOM     89  F   UNL A   1      45.043  33.695  27.105  1.00  0.00    -0.203 F 
ATOM     90  C   UNL A   1      45.505  35.245  28.816  1.00  0.00     0.198 A 
ATOM     91  C   UNL A   1      45.992  34.477  31.038  1.00  0.00     0.198 A 
ATOM     92  F   UNL A   1      46.048  32.172  31.499  1.00  0.00    -0.203 F 
ATOM     93  F   UNL A   1      45.358  36.252  27.944  1.00  0.00    -0.200 F 
ATOM     94  C   UNL A   1      45.813  35.518  30.141  1.00  0.00     0.200 A 
ATOM     95  F   UNL A   1      46.276  34.738  32.321  1.00  0.00    -0.200 F 
ATOM     96  F   UNL A   1      45.941  36.788  30.553  1.00  0.00    -0.200 F 
ENDBRANCH  62  86
ENDBRANCH  27  30
ENDBRANCH  18  20
ENDBRANCH  13  16
ENDBRANCH  10  13
ENDBRANCH   7  10
ENDBRANCH   4   7
ENDBRANCH   1   4
BRANCH   1  97
ATOM     97  C   UNL A   1      35.526  22.586  24.171  1.00  0.00     0.018 C 
ATOM     98  H   UNL A   1      34.892  22.040  23.505  1.00  0.00     0.049 H 
ATOM     99  H   UNL A   1      35.486  23.637  23.976  1.00  0.00     0.049 H 
BRANCH  97 100
ATOM    100  N   UNL A   1      35.069  22.370  25.534  1.00  0.00    -0.352 N 
ATOM    101  C   UNL A   1      34.345  21.323  26.045  1.00  0.00     0.253 C 
ATOM    102  H   UNL A   1      35.314  23.072  26.180  1.00  0.00     0.163 HD
ATOM    103  O   UNL A   1      33.975  21.344  27.215  1.00  0.00    -0.269 OA
BRANCH 101 104
ATOM    104  C   UNL A   1      33.983  20.173  25.189  1.00  0.00     0.063 A 
ATOM    105  C   UNL A   1      34.963  19.184  25.019  1.00  0.00    -0.047 A 
ATOM    106  C   UNL A   1      32.736  20.073  24.544  1.00  0.00     0.054 A 
ATOM    107  C   UNL A   1      34.694  18.055  24.248  1.00  0.00    -0.061 A 
ATOM    108  H   UNL A   1      35.887  19.292  25.466  1.00  0.00     0.063 H 
ATOM    109  C   UNL A   1      32.473  18.902  23.813  1.00  0.00    -0.038 A 
ATOM    110  C   UNL A   1      33.443  17.909  23.658  1.00  0.00    -0.060 A 
ATOM    111  H   UNL A   1      35.418  17.332  24.116  1.00  0.00     0.062 H 
ATOM    112  H   UNL A   1      31.545  18.773  23.383  1.00  0.00     0.064 H 
ATOM    113  H   UNL A   1      33.231  17.063  23.105  1.00  0.00     0.062 H 
BRANCH 106 114
ATOM    114  N   UNL A   1      31.779  21.099  24.625  1.00  0.00    -0.323 N 
ATOM    115  H   UNL A   1      31.030  20.924  25.240  1.00  0.00     0.170 HD
BRANCH 114 116
ATOM    116  C   UNL A   1      31.733  22.322  23.970  1.00  0.00     0.233 A 
ATOM    117  N   UNL A   1      32.482  22.521  22.899  1.00  0.00    -0.182 NA
ATOM    118  N   UNL A   1      30.913  23.231  24.484  1.00  0.00    -0.176 NA
ATOM    119  C   UNL A   1      32.343  23.722  22.368  1.00  0.00     0.228 A 
ATOM    120  C   UNL A   1      30.918  24.430  23.908  1.00  0.00     0.233 A 
ATOM    121  Cl  UNL A   1      33.278  24.041  20.974  1.00  0.00    -0.041 Cl
ATOM    122  N   UNL A   1      31.596  24.715  22.809  1.00  0.00    -0.182 NA
BRANCH 120 123
ATOM    123  N   UNL A   1      30.259  25.435  24.610  1.00  0.00    -0.324 N 
ATOM    124  H   UNL A   1      30.010  25.216  25.538  1.00  0.00     0.170 HD
BRANCH 123 125
ATOM    125  C   UNL A   1      29.904  26.713  24.174  1.00  0.00     0.041 A 
ATOM    126  C   UNL A   1      30.852  27.741  24.196  1.00  0.00    -0.036 A 
ATOM    127  C   UNL A   1      28.653  26.970  23.612  1.00  0.00    -0.036 A 
ATOM    128  C   UNL A   1      30.557  29.000  23.658  1.00  0.00    -0.036 A 
ATOM    129  H   UNL A   1      31.779  27.571  24.614  1.00  0.00     0.065 H 
ATOM    130  C   UNL A   1      28.334  28.241  23.129  1.00  0.00    -0.036 A 
ATOM    131  H   UNL A   1      27.955  26.213  23.552  1.00  0.00     0.065 H 
ATOM    132  C   UNL A   1      29.288  29.264  23.135  1.00  0.00     0.044 A 
ATOM    133  H   UNL A   1      31.280  29.736  23.648  1.00  0.00     0.065 H 
ATOM    134  H   UNL A   1      27.387  28.426  22.764  1.00  0.00     0.065 H 
BRANCH 132 135
ATOM    135  N   UNL A   1      28.980  30.537  22.574  1.00  0.00    -0.308 N 
ATOM    136  C   UNL A   1      28.287  30.540  21.280  1.00  0.00     0.049 C 
ATOM    137  C   UNL A   1      29.029  31.692  23.363  1.00  0.00     0.253 C 
ATOM    138  C   UNL A   1      28.204  31.922  20.643  1.00  0.00     0.065 C 
ATOM    139  H   UNL A   1      27.292  30.175  21.427  1.00  0.00     0.052 H 
ATOM    140  H   UNL A   1      28.851  29.919  20.617  1.00  0.00     0.052 H 
ATOM    141  C   UNL A   1      28.522  32.977  22.691  1.00  0.00     0.126 C 
ATOM    142  O   UNL A   1      29.532  31.748  24.488  1.00  0.00    -0.272 OA
ATOM    143  O   UNL A   1      27.653  32.844  21.578  1.00  0.00    -0.370 OA
ATOM    144  H   UNL A   1      27.580  31.877  19.775  1.00  0.00     0.059 H 
ATOM    145  H   UNL A   1      29.185  32.244  20.362  1.00  0.00     0.059 H 
ATOM    146  H   UNL A   1      28.002  33.542  23.437  1.00  0.00     0.067 H 
ATOM    147  H   UNL A   1      29.401  33.438  22.293  1.00  0.00     0.067 H 
ENDBRANCH 132 135
ENDBRANCH 123 125
ENDBRANCH 120 123
ENDBRANCH 114 116
ENDBRANCH 106 114
ENDBRANCH 101 104
ENDBRANCH  97 100
ENDBRANCH   1  97
TORSDOF 18
ENDMDL
MODEL 4
REMARK VINA RESULT:     -12.3      3.431      9.240
REMARK SMILES O=C(NCCCCCCNC(=O)c1ccccc1Nc1nc(Cl)nc(Nc2ccc(N3CCOCC3=O)cc2)n1)c1ccc(-c2c3nc(c(-c4c(F)c(F)c(F)c(F)c4F)c4ccc([nH]4)c(-c4c(F)c(F)c(F)c(F)c4F)c4nc(c(-c5c(F)c(F)c(F)c(F)c5F)c5ccc2[nH]5)C=C4)C=C3)cc1
REMARK SMILES IDX 8 1 7 4 6 7 5 10 4 13 3 16 1 17 2 18 41 20 42 21 103 22
REMARK SMILES IDX 43 23 102 25 44 27 45 30 46 31 96 32 47 33 101 34 95 35
REMARK SMILES IDX 97 36 48 37 100 38 94 40 93 42 49 44 81 47 61 48 80 49 62 50
REMARK SMILES IDX 65 51 79 52 98 53 63 54 64 56 78 58 99 59 66 62 50 64 51 65
REMARK SMILES IDX 59 66 52 67 53 68 57 69 60 70 54 71 55 72 58 73 56 74 82 75
REMARK SMILES IDX 83 76 91 77 84 78 85 79 89 80 92 81 86 82 87 83 90 84 88 85
REMARK SMILES IDX 67 86 68 87 76 88 69 89 70 90 74 91 77 92 71 93 72 94 75 95
REMARK SMILES IDX 73 96 9 97 10 100 11 101 12 103 13 104 14 105 18 106 15 107
REMARK SMILES IDX 17 109 16 110 19 114 20 116 21 117 40 118 22 119 25 120
REMARK SMILES IDX 23 121 24 122 26 123 27 125 28 126 39 127 29 128 38 130
REMARK SMILES IDX 30 132 31 135 32 136 36 137 33 138 35 141 37 142 34 143
REMARK H PARENT 8 2 8 3 7 5 7 6 6 8 6 9 5 11 5 12 4 14 4 15 3 19 42 24 103 26
REMARK H PARENT 43 28 102 29 101 39 95 41 97 43 100 45 94 46 62 55 65 57 98 60
REMARK H PARENT 63 61 99 63 9 98 9 99 10 102 14 108 15 111 17 112 16 113
REMARK H PARENT 19 115 26 124 28 129 39 131 29 133 38 134 32 139 32 140 33 144
REMARK H PARENT 33 145 35 146 35 147
REMARK Flexibility Score: inf
ROOT
ATOM      1  C   UNL A   1      40.290  25.201  27.514  1.00  0.00    -0.036 C 
ATOM      2  H   UNL A   1      39.907  26.024  28.081  1.00  0.00     0.028 H 
ATOM      3  H   UNL A   1      41.203  24.801  27.901  1.00  0.00     0.028 H 
ENDROOT
BRANCH   1   4
ATOM      4  C   UNL A   1      40.613  25.709  26.104  1.00  0.00    -0.052 C 
ATOM      5  H   UNL A   1      40.382  24.926  25.412  1.00  0.00     0.027 H 
ATOM      6  H   UNL A   1      40.025  26.593  25.971  1.00  0.00     0.027 H 
BRANCH   4   7
ATOM      7  C   UNL A   1      42.065  26.133  25.866  1.00  0.00    -0.052 C 
ATOM      8  H   UNL A   1      42.055  27.090  25.387  1.00  0.00     0.027 H 
ATOM      9  H   UNL A   1      42.531  26.138  26.829  1.00  0.00     0.027 H 
BRANCH   7  10
ATOM     10  C   UNL A   1      42.896  25.183  25.002  1.00  0.00    -0.036 C 
ATOM     11  H   UNL A   1      42.468  25.165  24.022  1.00  0.00     0.028 H 
ATOM     12  H   UNL A   1      43.897  25.559  25.022  1.00  0.00     0.028 H 
BRANCH  10  13
ATOM     13  C   UNL A   1      42.971  23.748  25.511  1.00  0.00     0.018 C 
ATOM     14  H   UNL A   1      42.347  23.658  26.377  1.00  0.00     0.049 H 
ATOM     15  H   UNL A   1      42.642  23.104  24.722  1.00  0.00     0.049 H 
BRANCH  13  16
ATOM     16  N   UNL A   1      44.324  23.356  25.870  1.00  0.00    -0.352 N 
ATOM     17  O   UNL A   1      46.326  23.516  26.896  1.00  0.00    -0.269 OA
ATOM     18  C   UNL A   1      45.143  23.852  26.848  1.00  0.00     0.251 C 
ATOM     19  H   UNL A   1      44.707  22.626  25.330  1.00  0.00     0.163 HD
BRANCH  18  20
ATOM     20  C   UNL A   1      44.616  24.812  27.838  1.00  0.00     0.039 A 
ATOM     21  C   UNL A   1      43.721  24.402  28.833  1.00  0.00    -0.049 A 
ATOM     22  C   UNL A   1      45.047  26.139  27.784  1.00  0.00    -0.049 A 
ATOM     23  C   UNL A   1      43.171  25.340  29.701  1.00  0.00    -0.053 A 
ATOM     24  H   UNL A   1      43.469  23.405  28.921  1.00  0.00     0.063 H 
ATOM     25  C   UNL A   1      44.549  27.065  28.701  1.00  0.00    -0.053 A 
ATOM     26  H   UNL A   1      45.731  26.433  27.070  1.00  0.00     0.063 H 
ATOM     27  C   UNL A   1      43.591  26.678  29.652  1.00  0.00    -0.014 A 
ATOM     28  H   UNL A   1      42.453  25.051  30.383  1.00  0.00     0.063 H 
ATOM     29  H   UNL A   1      44.887  28.040  28.680  1.00  0.00     0.063 H 
BRANCH  27  30
ATOM     30  C   UNL A   1      43.071  27.666  30.626  1.00  0.00     0.031 A 
ATOM     31  C   UNL A   1      43.730  27.840  31.963  1.00  0.00     0.074 A 
ATOM     32  C   UNL A   1      41.967  28.372  30.319  1.00  0.00     0.049 A 
ATOM     33  N   UNL A   1      43.351  28.564  32.986  1.00  0.00    -0.248 NA
ATOM     34  C   UNL A   1      44.974  27.089  32.184  1.00  0.00    -0.034 C 
ATOM     35  C   UNL A   1      41.243  28.285  29.050  1.00  0.00    -0.036 A 
ATOM     36  N   UNL A   1      41.250  29.280  31.054  1.00  0.00    -0.354 N 
ATOM     37  C   UNL A   1      44.293  28.337  33.980  1.00  0.00     0.074 A 
ATOM     38  C   UNL A   1      45.249  27.388  33.446  1.00  0.00    -0.034 C 
ATOM     39  H   UNL A   1      45.497  26.487  31.529  1.00  0.00     0.065 H 
ATOM     40  C   UNL A   1      40.183  29.105  29.095  1.00  0.00    -0.036 A 
ATOM     41  H   UNL A   1      41.505  27.689  28.250  1.00  0.00     0.065 H 
ATOM     42  C   UNL A   1      40.118  29.723  30.415  1.00  0.00     0.049 A 
ATOM     43  H   UNL A   1      41.519  29.584  31.950  1.00  0.00     0.167 HD
ATOM     44  C   UNL A   1      44.353  28.875  35.223  1.00  0.00     0.037 A 
ATOM     45  H   UNL A   1      46.040  26.996  33.979  1.00  0.00     0.065 H 
ATOM     46  H   UNL A   1      39.521  29.272  28.321  1.00  0.00     0.065 H 
ATOM     47  C   UNL A   1      39.115  30.505  30.856  1.00  0.00     0.037 A 
ATOM     48  C   UNL A   1      43.394  29.819  35.740  1.00  0.00     0.049 A 
ATOM     49  C   UNL A   1      39.175  31.055  32.253  1.00  0.00     0.074 A 
ATOM     50  C   UNL A   1      43.385  30.456  36.967  1.00  0.00    -0.036 A 
ATOM     51  N   UNL A   1      42.261  30.248  35.060  1.00  0.00    -0.354 N 
ATOM     52  N   UNL A   1      40.088  30.867  33.173  1.00  0.00    -0.248 NA
ATOM     53  C   UNL A   1      38.068  31.924  32.672  1.00  0.00    -0.034 C 
ATOM     54  C   UNL A   1      42.217  31.219  37.056  1.00  0.00    -0.036 A 
ATOM     55  H   UNL A   1      44.116  30.382  37.693  1.00  0.00     0.065 H 
ATOM     56  C   UNL A   1      41.531  31.115  35.856  1.00  0.00     0.049 A 
ATOM     57  H   UNL A   1      42.013  29.976  34.147  1.00  0.00     0.167 HD
ATOM     58  C   UNL A   1      39.686  31.617  34.269  1.00  0.00     0.074 A 
ATOM     59  C   UNL A   1      38.444  32.262  33.899  1.00  0.00    -0.034 C 
ATOM     60  H   UNL A   1      37.222  32.199  32.149  1.00  0.00     0.065 H 
ATOM     61  H   UNL A   1      41.914  31.766  37.878  1.00  0.00     0.065 H 
ATOM     62  C   UNL A   1      40.300  31.761  35.470  1.00  0.00     0.037 A 
ATOM     63  H   UNL A   1      37.917  32.905  34.511  1.00  0.00     0.065 H 
BRANCH  44  64
ATOM     64  C   UNL A   1      45.470  28.422  36.122  1.00  0.00     0.064 A 
ATOM     65  C   UNL A   1      45.336  27.319  36.979  1.00  0.00     0.173 A 
ATOM     66  C   UNL A   1      46.699  29.099  36.119  1.00  0.00     0.173 A 
ATOM     67  F   UNL A   1      44.181  26.638  37.027  1.00  0.00    -0.203 F 
ATOM     68  C   UNL A   1      46.372  26.939  37.829  1.00  0.00     0.198 A 
ATOM     69  C   UNL A   1      47.746  28.696  36.943  1.00  0.00     0.198 A 
ATOM     70  F   UNL A   1      46.891  30.153  35.311  1.00  0.00    -0.203 F 
ATOM     71  F   UNL A   1      46.196  25.922  38.684  1.00  0.00    -0.200 F 
ATOM     72  C   UNL A   1      47.577  27.624  37.808  1.00  0.00     0.200 A 
ATOM     73  F   UNL A   1      48.916  29.348  36.908  1.00  0.00    -0.200 F 
ATOM     74  F   UNL A   1      48.574  27.258  38.626  1.00  0.00    -0.200 F 
ENDBRANCH  44  64
BRANCH  47  75
ATOM     75  C   UNL A   1      37.974  30.794  29.952  1.00  0.00     0.064 A 
ATOM     76  C   UNL A   1      37.852  32.036  29.317  1.00  0.00     0.173 A 
ATOM     77  C   UNL A   1      37.016  29.810  29.657  1.00  0.00     0.173 A 
ATOM     78  F   UNL A   1      38.735  33.011  29.578  1.00  0.00    -0.203 F 
ATOM     79  C   UNL A   1      36.813  32.285  28.422  1.00  0.00     0.198 A 
ATOM     80  C   UNL A   1      35.996  30.052  28.741  1.00  0.00     0.198 A 
ATOM     81  F   UNL A   1      37.096  28.602  30.233  1.00  0.00    -0.203 F 
ATOM     82  F   UNL A   1      36.705  33.490  27.846  1.00  0.00    -0.200 F 
ATOM     83  C   UNL A   1      35.893  31.290  28.127  1.00  0.00     0.200 A 
ATOM     84  F   UNL A   1      35.122  29.081  28.443  1.00  0.00    -0.200 F 
ATOM     85  F   UNL A   1      34.908  31.525  27.251  1.00  0.00    -0.200 F 
ENDBRANCH  47  75
BRANCH  62  86
ATOM     86  C   UNL A   1      39.672  32.697  36.463  1.00  0.00     0.064 A 
ATOM     87  C   UNL A   1      38.613  32.300  37.291  1.00  0.00     0.173 A 
ATOM     88  C   UNL A   1      40.197  33.988  36.640  1.00  0.00     0.173 A 
ATOM     89  F   UNL A   1      38.065  31.083  37.150  1.00  0.00    -0.203 F 
ATOM     90  C   UNL A   1      38.098  33.163  38.254  1.00  0.00     0.198 A 
ATOM     91  C   UNL A   1      39.699  34.836  37.624  1.00  0.00     0.198 A 
ATOM     92  F   UNL A   1      41.213  34.414  35.874  1.00  0.00    -0.203 F 
ATOM     93  F   UNL A   1      37.065  32.775  39.015  1.00  0.00    -0.200 F 
ATOM     94  C   UNL A   1      38.649  34.423  38.428  1.00  0.00     0.200 A 
ATOM     95  F   UNL A   1      40.244  36.048  37.799  1.00  0.00    -0.200 F 
ATOM     96  F   UNL A   1      38.165  35.244  39.372  1.00  0.00    -0.200 F 
ENDBRANCH  62  86
ENDBRANCH  27  30
ENDBRANCH  18  20
ENDBRANCH  13  16
ENDBRANCH  10  13
ENDBRANCH   7  10
ENDBRANCH   4   7
ENDBRANCH   1   4
BRANCH   1  97
ATOM     97  C   UNL A   1      39.269  24.068  27.580  1.00  0.00     0.018 C 
ATOM     98  H   UNL A   1      38.952  23.948  28.595  1.00  0.00     0.049 H 
ATOM     99  H   UNL A   1      39.741  23.181  27.211  1.00  0.00     0.049 H 
BRANCH  97 100
ATOM    100  N   UNL A   1      38.101  24.327  26.753  1.00  0.00    -0.352 N 
ATOM    101  C   UNL A   1      37.487  23.502  25.846  1.00  0.00     0.253 C 
ATOM    102  H   UNL A   1      37.697  25.218  26.860  1.00  0.00     0.163 HD
ATOM    103  O   UNL A   1      36.549  23.919  25.173  1.00  0.00    -0.269 OA
BRANCH 101 104
ATOM    104  C   UNL A   1      37.958  22.114  25.654  1.00  0.00     0.063 A 
ATOM    105  C   UNL A   1      39.272  21.836  26.060  1.00  0.00    -0.047 A 
ATOM    106  C   UNL A   1      37.156  21.117  25.068  1.00  0.00     0.054 A 
ATOM    107  C   UNL A   1      39.785  20.546  25.936  1.00  0.00    -0.061 A 
ATOM    108  H   UNL A   1      39.861  22.588  26.450  1.00  0.00     0.063 H 
ATOM    109  C   UNL A   1      37.681  19.816  25.001  1.00  0.00    -0.038 A 
ATOM    110  C   UNL A   1      38.984  19.534  25.420  1.00  0.00    -0.060 A 
ATOM    111  H   UNL A   1      40.755  20.344  26.226  1.00  0.00     0.062 H 
ATOM    112  H   UNL A   1      37.092  19.052  24.635  1.00  0.00     0.064 H 
ATOM    113  H   UNL A   1      39.351  18.572  25.348  1.00  0.00     0.062 H 
BRANCH 106 114
ATOM    114  N   UNL A   1      35.873  21.401  24.569  1.00  0.00    -0.323 N 
ATOM    115  H   UNL A   1      35.829  22.149  23.931  1.00  0.00     0.170 HD
BRANCH 114 116
ATOM    116  C   UNL A   1      34.660  20.782  24.841  1.00  0.00     0.233 A 
ATOM    117  N   UNL A   1      34.474  19.520  24.492  1.00  0.00    -0.182 NA
ATOM    118  N   UNL A   1      33.747  21.527  25.452  1.00  0.00    -0.176 NA
ATOM    119  C   UNL A   1      33.282  19.051  24.810  1.00  0.00     0.228 A 
ATOM    120  C   UNL A   1      32.557  20.967  25.649  1.00  0.00     0.233 A 
ATOM    121  Cl  UNL A   1      32.981  17.421  24.394  1.00  0.00    -0.041 Cl
ATOM    122  N   UNL A   1      32.285  19.702  25.377  1.00  0.00    -0.182 NA
BRANCH 120 123
ATOM    123  N   UNL A   1      31.543  21.835  26.046  1.00  0.00    -0.324 N 
ATOM    124  H   UNL A   1      31.021  21.552  26.831  1.00  0.00     0.170 HD
BRANCH 123 125
ATOM    125  C   UNL A   1      31.169  23.054  25.478  1.00  0.00     0.041 A 
ATOM    126  C   UNL A   1      31.034  24.185  26.291  1.00  0.00    -0.036 A 
ATOM    127  C   UNL A   1      31.031  23.205  24.098  1.00  0.00    -0.036 A 
ATOM    128  C   UNL A   1      30.773  25.443  25.732  1.00  0.00    -0.036 A 
ATOM    129  H   UNL A   1      31.126  24.092  27.314  1.00  0.00     0.065 H 
ATOM    130  C   UNL A   1      30.712  24.445  23.542  1.00  0.00    -0.036 A 
ATOM    131  H   UNL A   1      31.165  22.390  23.480  1.00  0.00     0.065 H 
ATOM    132  C   UNL A   1      30.594  25.579  24.353  1.00  0.00     0.044 A 
ATOM    133  H   UNL A   1      30.714  26.273  26.343  1.00  0.00     0.065 H 
ATOM    134  H   UNL A   1      30.562  24.526  22.525  1.00  0.00     0.065 H 
BRANCH 132 135
ATOM    135  N   UNL A   1      30.340  26.855  23.772  1.00  0.00    -0.308 N 
ATOM    136  C   UNL A   1      31.481  27.539  23.154  1.00  0.00     0.049 C 
ATOM    137  C   UNL A   1      29.029  27.268  23.509  1.00  0.00     0.253 C 
ATOM    138  C   UNL A   1      31.183  28.983  22.769  1.00  0.00     0.065 C 
ATOM    139  H   UNL A   1      31.761  27.004  22.271  1.00  0.00     0.052 H 
ATOM    140  H   UNL A   1      32.268  27.561  23.879  1.00  0.00     0.052 H 
ATOM    141  C   UNL A   1      28.891  28.589  22.737  1.00  0.00     0.126 C 
ATOM    142  O   UNL A   1      28.019  26.701  23.935  1.00  0.00    -0.272 OA
ATOM    143  O   UNL A   1      30.003  29.028  21.973  1.00  0.00    -0.370 OA
ATOM    144  H   UNL A   1      32.006  29.380  22.211  1.00  0.00     0.059 H 
ATOM    145  H   UNL A   1      31.038  29.565  23.655  1.00  0.00     0.059 H 
ATOM    146  H   UNL A   1      28.065  28.480  22.064  1.00  0.00     0.067 H 
ATOM    147  H   UNL A   1      28.775  29.334  23.495  1.00  0.00     0.067 H 
ENDBRANCH 132 135
ENDBRANCH 123 125
ENDBRANCH 120 123
ENDBRANCH 114 116
ENDBRANCH 106 114
ENDBRANCH 101 104
ENDBRANCH  97 100
ENDBRANCH   1  97
TORSDOF 18
ENDMDL
MODEL 5
REMARK VINA RESULT:     -11.9      6.228     12.030
REMARK SMILES O=C(NCCCCCCNC(=O)c1ccccc1Nc1nc(Cl)nc(Nc2ccc(N3CCOCC3=O)cc2)n1)c1ccc(-c2c3nc(c(-c4c(F)c(F)c(F)c(F)c4F)c4ccc([nH]4)c(-c4c(F)c(F)c(F)c(F)c4F)c4nc(c(-c5c(F)c(F)c(F)c(F)c5F)c5ccc2[nH]5)C=C4)C=C3)cc1
REMARK SMILES IDX 8 1 7 4 6 7 5 10 4 13 3 16 1 17 2 18 41 20 42 21 103 22
REMARK SMILES IDX 43 23 102 25 44 27 45 30 46 31 96 32 47 33 101 34 95 35
REMARK SMILES IDX 97 36 48 37 100 38 94 40 93 42 49 44 81 47 61 48 80 49 62 50
REMARK SMILES IDX 65 51 79 52 98 53 63 54 64 56 78 58 99 59 66 62 50 64 51 65
REMARK SMILES IDX 59 66 52 67 53 68 57 69 60 70 54 71 55 72 58 73 56 74 82 75
REMARK SMILES IDX 83 76 91 77 84 78 85 79 89 80 92 81 86 82 87 83 90 84 88 85
REMARK SMILES IDX 67 86 68 87 76 88 69 89 70 90 74 91 77 92 71 93 72 94 75 95
REMARK SMILES IDX 73 96 9 97 10 100 11 101 12 103 13 104 14 105 18 106 15 107
REMARK SMILES IDX 17 109 16 110 19 114 20 116 21 117 40 118 22 119 25 120
REMARK SMILES IDX 23 121 24 122 26 123 27 125 28 126 39 127 29 128 38 130
REMARK SMILES IDX 30 132 31 135 32 136 36 137 33 138 35 141 37 142 34 143
REMARK H PARENT 8 2 8 3 7 5 7 6 6 8 6 9 5 11 5 12 4 14 4 15 3 19 42 24 103 26
REMARK H PARENT 43 28 102 29 101 39 95 41 97 43 100 45 94 46 62 55 65 57 98 60
REMARK H PARENT 63 61 99 63 9 98 9 99 10 102 14 108 15 111 17 112 16 113
REMARK H PARENT 19 115 26 124 28 129 39 131 29 133 38 134 32 139 32 140 33 144
REMARK H PARENT 33 145 35 146 35 147
REMARK Flexibility Score: inf
ROOT
ATOM      1  C   UNL A   1      37.544  20.904  24.732  1.00  0.00    -0.036 C 
ATOM      2  H   UNL A   1      37.176  19.927  24.966  1.00  0.00     0.028 H 
ATOM      3  H   UNL A   1      37.925  20.991  23.737  1.00  0.00     0.028 H 
ENDROOT
BRANCH   1   4
ATOM      4  C   UNL A   1      38.722  21.202  25.667  1.00  0.00    -0.052 C 
ATOM      5  H   UNL A   1      39.215  22.079  25.303  1.00  0.00     0.027 H 
ATOM      6  H   UNL A   1      38.298  21.314  26.642  1.00  0.00     0.027 H 
BRANCH   4   7
ATOM      7  C   UNL A   1      39.770  20.091  25.792  1.00  0.00    -0.052 C 
ATOM      8  H   UNL A   1      39.466  19.439  26.583  1.00  0.00     0.027 H 
ATOM      9  H   UNL A   1      39.810  19.617  24.833  1.00  0.00     0.027 H 
BRANCH   7  10
ATOM     10  C   UNL A   1      41.195  20.561  26.088  1.00  0.00    -0.036 C 
ATOM     11  H   UNL A   1      41.547  21.110  25.240  1.00  0.00     0.028 H 
ATOM     12  H   UNL A   1      41.137  21.147  26.981  1.00  0.00     0.028 H 
BRANCH  10  13
ATOM     13  C   UNL A   1      42.194  19.446  26.376  1.00  0.00     0.018 C 
ATOM     14  H   UNL A   1      42.814  19.743  27.196  1.00  0.00     0.049 H 
ATOM     15  H   UNL A   1      41.638  18.561  26.604  1.00  0.00     0.049 H 
BRANCH  13  16
ATOM     16  N   UNL A   1      43.043  19.153  25.233  1.00  0.00    -0.352 N 
ATOM     17  O   UNL A   1      44.426  19.602  23.508  1.00  0.00    -0.269 OA
ATOM     18  C   UNL A   1      43.916  19.971  24.566  1.00  0.00     0.251 C 
ATOM     19  H   UNL A   1      42.982  18.233  24.888  1.00  0.00     0.163 HD
BRANCH  18  20
ATOM     20  C   UNL A   1      44.234  21.309  25.102  1.00  0.00     0.039 A 
ATOM     21  C   UNL A   1      44.890  21.455  26.330  1.00  0.00    -0.049 A 
ATOM     22  C   UNL A   1      43.892  22.434  24.349  1.00  0.00    -0.049 A 
ATOM     23  C   UNL A   1      45.101  22.725  26.856  1.00  0.00    -0.053 A 
ATOM     24  H   UNL A   1      45.215  20.622  26.844  1.00  0.00     0.063 H 
ATOM     25  C   UNL A   1      44.170  23.708  24.845  1.00  0.00    -0.053 A 
ATOM     26  H   UNL A   1      43.437  22.324  23.430  1.00  0.00     0.063 H 
ATOM     27  C   UNL A   1      44.756  23.864  26.112  1.00  0.00    -0.014 A 
ATOM     28  H   UNL A   1      45.514  22.831  27.795  1.00  0.00     0.063 H 
ATOM     29  H   UNL A   1      43.943  24.540  24.278  1.00  0.00     0.063 H 
BRANCH  27  30
ATOM     30  C   UNL A   1      45.054  25.221  26.629  1.00  0.00     0.031 A 
ATOM     31  C   UNL A   1      43.965  26.070  27.216  1.00  0.00     0.074 A 
ATOM     32  C   UNL A   1      46.305  25.704  26.519  1.00  0.00     0.049 A 
ATOM     33  N   UNL A   1      44.008  27.318  27.608  1.00  0.00    -0.248 NA
ATOM     34  C   UNL A   1      42.648  25.435  27.371  1.00  0.00    -0.034 C 
ATOM     35  C   UNL A   1      47.443  24.969  25.965  1.00  0.00    -0.036 A 
ATOM     36  N   UNL A   1      46.824  26.931  26.844  1.00  0.00    -0.354 N 
ATOM     37  C   UNL A   1      42.722  27.627  28.031  1.00  0.00     0.074 A 
ATOM     38  C   UNL A   1      41.915  26.442  27.824  1.00  0.00    -0.034 C 
ATOM     39  H   UNL A   1      42.368  24.461  27.177  1.00  0.00     0.065 H 
ATOM     40  C   UNL A   1      48.525  25.759  25.987  1.00  0.00    -0.036 A 
ATOM     41  H   UNL A   1      47.416  23.999  25.615  1.00  0.00     0.065 H 
ATOM     42  C   UNL A   1      48.144  27.072  26.494  1.00  0.00     0.049 A 
ATOM     43  H   UNL A   1      46.302  27.640  27.284  1.00  0.00     0.167 HD
ATOM     44  C   UNL A   1      42.262  28.793  28.546  1.00  0.00     0.037 A 
ATOM     45  H   UNL A   1      40.901  26.389  28.006  1.00  0.00     0.065 H 
ATOM     46  H   UNL A   1      49.476  25.482  25.693  1.00  0.00     0.065 H 
ATOM     47  C   UNL A   1      48.948  28.151  26.536  1.00  0.00     0.037 A 
ATOM     48  C   UNL A   1      43.078  29.964  28.746  1.00  0.00     0.049 A 
ATOM     49  C   UNL A   1      48.407  29.448  27.066  1.00  0.00     0.074 A 
ATOM     50  C   UNL A   1      42.722  31.181  29.299  1.00  0.00    -0.036 A 
ATOM     51  N   UNL A   1      44.415  30.067  28.383  1.00  0.00    -0.354 N 
ATOM     52  N   UNL A   1      47.202  29.722  27.500  1.00  0.00    -0.248 NA
ATOM     53  C   UNL A   1      49.336  30.584  27.114  1.00  0.00    -0.034 C 
ATOM     54  C   UNL A   1      43.822  32.040  29.212  1.00  0.00    -0.036 A 
ATOM     55  H   UNL A   1      41.803  31.414  29.707  1.00  0.00     0.065 H 
ATOM     56  C   UNL A   1      44.887  31.338  28.670  1.00  0.00     0.049 A 
ATOM     57  H   UNL A   1      44.949  29.345  27.981  1.00  0.00     0.167 HD
ATOM     58  C   UNL A   1      47.232  31.049  27.902  1.00  0.00     0.074 A 
ATOM     59  C   UNL A   1      48.577  31.527  27.659  1.00  0.00    -0.034 C 
ATOM     60  H   UNL A   1      50.319  30.636  26.806  1.00  0.00     0.065 H 
ATOM     61  H   UNL A   1      43.837  33.031  29.500  1.00  0.00     0.065 H 
ATOM     62  C   UNL A   1      46.234  31.798  28.433  1.00  0.00     0.037 A 
ATOM     63  H   UNL A   1      48.905  32.480  27.880  1.00  0.00     0.065 H 
BRANCH  44  64
ATOM     64  C   UNL A   1      40.800  28.871  28.890  1.00  0.00     0.064 A 
ATOM     65  C   UNL A   1      39.826  29.193  27.932  1.00  0.00     0.173 A 
ATOM     66  C   UNL A   1      40.366  28.609  30.199  1.00  0.00     0.173 A 
ATOM     67  F   UNL A   1      40.185  29.458  26.667  1.00  0.00    -0.203 F 
ATOM     68  C   UNL A   1      38.481  29.294  28.281  1.00  0.00     0.198 A 
ATOM     69  C   UNL A   1      39.017  28.675  30.537  1.00  0.00     0.198 A 
ATOM     70  F   UNL A   1      41.250  28.283  31.153  1.00  0.00    -0.203 F 
ATOM     71  F   UNL A   1      37.578  29.666  27.363  1.00  0.00    -0.200 F 
ATOM     72  C   UNL A   1      38.077  29.032  29.581  1.00  0.00     0.200 A 
ATOM     73  F   UNL A   1      38.627  28.403  31.790  1.00  0.00    -0.200 F 
ATOM     74  F   UNL A   1      36.782  29.128  29.916  1.00  0.00    -0.200 F 
ENDBRANCH  44  64
BRANCH  47  75
ATOM     75  C   UNL A   1      50.344  28.029  26.047  1.00  0.00     0.064 A 
ATOM     76  C   UNL A   1      50.632  28.031  24.677  1.00  0.00     0.173 A 
ATOM     77  C   UNL A   1      51.424  27.968  26.943  1.00  0.00     0.173 A 
ATOM     78  F   UNL A   1      49.633  28.074  23.782  1.00  0.00    -0.203 F 
ATOM     79  C   UNL A   1      51.947  27.976  24.220  1.00  0.00     0.198 A 
ATOM     80  C   UNL A   1      52.738  27.942  26.484  1.00  0.00     0.198 A 
ATOM     81  F   UNL A   1      51.199  27.972  28.265  1.00  0.00    -0.203 F 
ATOM     82  F   UNL A   1      52.195  27.956  22.902  1.00  0.00    -0.200 F 
ATOM     83  C   UNL A   1      52.999  27.942  25.123  1.00  0.00     0.200 A 
ATOM     84  F   UNL A   1      53.751  27.930  27.361  1.00  0.00    -0.200 F 
ATOM     85  F   UNL A   1      54.263  27.910  24.682  1.00  0.00    -0.200 F 
ENDBRANCH  47  75
BRANCH  62  86
ATOM     86  C   UNL A   1      46.564  33.204  28.844  1.00  0.00     0.064 A 
ATOM     87  C   UNL A   1      46.377  34.293  27.982  1.00  0.00     0.173 A 
ATOM     88  C   UNL A   1      46.998  33.469  30.153  1.00  0.00     0.173 A 
ATOM     89  F   UNL A   1      45.981  34.092  26.716  1.00  0.00    -0.203 F 
ATOM     90  C   UNL A   1      46.621  35.595  28.411  1.00  0.00     0.198 A 
ATOM     91  C   UNL A   1      47.212  34.774  30.588  1.00  0.00     0.198 A 
ATOM     92  F   UNL A   1      47.189  32.461  31.018  1.00  0.00    -0.203 F 
ATOM     93  F   UNL A   1      46.466  36.620  27.562  1.00  0.00    -0.200 F 
ATOM     94  C   UNL A   1      47.025  35.834  29.717  1.00  0.00     0.200 A 
ATOM     95  F   UNL A   1      47.588  35.002  31.854  1.00  0.00    -0.200 F 
ATOM     96  F   UNL A   1      47.237  37.091  30.135  1.00  0.00    -0.200 F 
ENDBRANCH  62  86
ENDBRANCH  27  30
ENDBRANCH  18  20
ENDBRANCH  13  16
ENDBRANCH  10  13
ENDBRANCH   7  10
ENDBRANCH   4   7
ENDBRANCH   1   4
BRANCH   1  97
ATOM     97  C   UNL A   1      36.375  21.882  24.825  1.00  0.00     0.018 C 
ATOM     98  H   UNL A   1      35.675  21.657  24.048  1.00  0.00     0.049 H 
ATOM     99  H   UNL A   1      36.769  22.872  24.722  1.00  0.00     0.049 H 
BRANCH  97 100
ATOM    100  N   UNL A   1      35.692  21.807  26.106  1.00  0.00    -0.352 N 
ATOM    101  C   UNL A   1      34.556  21.113  26.437  1.00  0.00     0.253 C 
ATOM    102  H   UNL A   1      36.102  22.324  26.836  1.00  0.00     0.163 HD
ATOM    103  O   UNL A   1      34.071  21.229  27.559  1.00  0.00    -0.269 OA
BRANCH 101 104
ATOM    104  C   UNL A   1      33.893  20.241  25.445  1.00  0.00     0.063 A 
ATOM    105  C   UNL A   1      34.654  19.179  24.935  1.00  0.00    -0.047 A 
ATOM    106  C   UNL A   1      32.576  20.468  24.999  1.00  0.00     0.054 A 
ATOM    107  C   UNL A   1      34.095  18.295  24.014  1.00  0.00    -0.061 A 
ATOM    108  H   UNL A   1      35.631  19.051  25.243  1.00  0.00     0.063 H 
ATOM    109  C   UNL A   1      32.022  19.533  24.108  1.00  0.00    -0.038 A 
ATOM    110  C   UNL A   1      32.775  18.465  23.613  1.00  0.00    -0.060 A 
ATOM    111  H   UNL A   1      34.658  17.519  23.632  1.00  0.00     0.062 H 
ATOM    112  H   UNL A   1      31.039  19.638  23.814  1.00  0.00     0.064 H 
ATOM    113  H   UNL A   1      32.349  17.800  22.948  1.00  0.00     0.062 H 
BRANCH 106 114
ATOM    114  N   UNL A   1      31.834  21.580  25.427  1.00  0.00    -0.323 N 
ATOM    115  H   UNL A   1      31.117  21.382  26.072  1.00  0.00     0.170 HD
BRANCH 114 116
ATOM    116  C   UNL A   1      31.961  22.918  25.078  1.00  0.00     0.233 A 
ATOM    117  N   UNL A   1      33.066  23.575  25.388  1.00  0.00    -0.182 NA
ATOM    118  N   UNL A   1      30.930  23.457  24.438  1.00  0.00    -0.176 NA
ATOM    119  C   UNL A   1      33.062  24.836  24.997  1.00  0.00     0.228 A 
ATOM    120  C   UNL A   1      31.012  24.756  24.166  1.00  0.00     0.233 A 
ATOM    121  Cl  UNL A   1      34.467  25.739  25.359  1.00  0.00    -0.041 Cl
ATOM    122  N   UNL A   1      32.089  25.489  24.394  1.00  0.00    -0.182 NA
BRANCH 120 123
ATOM    123  N   UNL A   1      29.831  25.355  23.736  1.00  0.00    -0.324 N 
ATOM    124  H   UNL A   1      29.060  24.750  23.629  1.00  0.00     0.170 HD
BRANCH 123 125
ATOM    125  C   UNL A   1      29.593  26.697  23.437  1.00  0.00     0.041 A 
ATOM    126  C   UNL A   1      30.607  27.468  22.858  1.00  0.00    -0.036 A 
ATOM    127  C   UNL A   1      28.330  27.269  23.600  1.00  0.00    -0.036 A 
ATOM    128  C   UNL A   1      30.359  28.783  22.443  1.00  0.00    -0.036 A 
ATOM    129  H   UNL A   1      31.548  27.065  22.736  1.00  0.00     0.065 H 
ATOM    130  C   UNL A   1      28.096  28.598  23.242  1.00  0.00    -0.036 A 
ATOM    131  H   UNL A   1      27.561  26.703  23.990  1.00  0.00     0.065 H 
ATOM    132  C   UNL A   1      29.104  29.363  22.648  1.00  0.00     0.044 A 
ATOM    133  H   UNL A   1      31.107  29.325  21.983  1.00  0.00     0.065 H 
ATOM    134  H   UNL A   1      27.171  29.019  23.418  1.00  0.00     0.065 H 
BRANCH 132 135
ATOM    135  N   UNL A   1      28.837  30.695  22.218  1.00  0.00    -0.308 N 
ATOM    136  C   UNL A   1      28.125  30.850  20.945  1.00  0.00     0.049 C 
ATOM    137  C   UNL A   1      28.943  31.765  23.115  1.00  0.00     0.253 C 
ATOM    138  C   UNL A   1      28.086  32.289  20.445  1.00  0.00     0.065 C 
ATOM    139  H   UNL A   1      27.119  30.509  21.074  1.00  0.00     0.052 H 
ATOM    140  H   UNL A   1      28.655  30.275  20.214  1.00  0.00     0.052 H 
ATOM    141  C   UNL A   1      28.476  33.128  22.580  1.00  0.00     0.126 C 
ATOM    142  O   UNL A   1      29.464  31.693  24.230  1.00  0.00    -0.272 OA
ATOM    143  O   UNL A   1      27.585  33.135  21.476  1.00  0.00    -0.370 OA
ATOM    144  H   UNL A   1      27.448  32.352  19.589  1.00  0.00     0.059 H 
ATOM    145  H   UNL A   1      29.075  32.600  20.178  1.00  0.00     0.059 H 
ATOM    146  H   UNL A   1      27.989  33.636  23.387  1.00  0.00     0.067 H 
ATOM    147  H   UNL A   1      29.366  33.592  22.211  1.00  0.00     0.067 H 
ENDBRANCH 132 135
ENDBRANCH 123 125
ENDBRANCH 120 123
ENDBRANCH 114 116
ENDBRANCH 106 114
ENDBRANCH 101 104
ENDBRANCH  97 100
ENDBRANCH   1  97
TORSDOF 18
ENDMDL
MODEL 6
REMARK VINA RESULT:     -11.7      5.663      9.839
REMARK SMILES O=C(NCCCCCCNC(=O)c1ccccc1Nc1nc(Cl)nc(Nc2ccc(N3CCOCC3=O)cc2)n1)c1ccc(-c2c3nc(c(-c4c(F)c(F)c(F)c(F)c4F)c4ccc([nH]4)c(-c4c(F)c(F)c(F)c(F)c4F)c4nc(c(-c5c(F)c(F)c(F)c(F)c5F)c5ccc2[nH]5)C=C4)C=C3)cc1
REMARK SMILES IDX 8 1 7 4 6 7 5 10 4 13 3 16 1 17 2 18 41 20 42 21 103 22
REMARK SMILES IDX 43 23 102 25 44 27 45 30 46 31 96 32 47 33 101 34 95 35
REMARK SMILES IDX 97 36 48 37 100 38 94 40 93 42 49 44 81 47 61 48 80 49 62 50
REMARK SMILES IDX 65 51 79 52 98 53 63 54 64 56 78 58 99 59 66 62 50 64 51 65
REMARK SMILES IDX 59 66 52 67 53 68 57 69 60 70 54 71 55 72 58 73 56 74 82 75
REMARK SMILES IDX 83 76 91 77 84 78 85 79 89 80 92 81 86 82 87 83 90 84 88 85
REMARK SMILES IDX 67 86 68 87 76 88 69 89 70 90 74 91 77 92 71 93 72 94 75 95
REMARK SMILES IDX 73 96 9 97 10 100 11 101 12 103 13 104 14 105 18 106 15 107
REMARK SMILES IDX 17 109 16 110 19 114 20 116 21 117 40 118 22 119 25 120
REMARK SMILES IDX 23 121 24 122 26 123 27 125 28 126 39 127 29 128 38 130
REMARK SMILES IDX 30 132 31 135 32 136 36 137 33 138 35 141 37 142 34 143
REMARK H PARENT 8 2 8 3 7 5 7 6 6 8 6 9 5 11 5 12 4 14 4 15 3 19 42 24 103 26
REMARK H PARENT 43 28 102 29 101 39 95 41 97 43 100 45 94 46 62 55 65 57 98 60
REMARK H PARENT 63 61 99 63 9 98 9 99 10 102 14 108 15 111 17 112 16 113
REMARK H PARENT 19 115 26 124 28 129 39 131 29 133 38 134 32 139 32 140 33 144
REMARK H PARENT 33 145 35 146 35 147
REMARK Flexibility Score: inf
ROOT
ATOM      1  C   UNL A   1      39.396  27.449  28.224  1.00  0.00    -0.036 C 
ATOM      2  H   UNL A   1      38.677  26.692  28.458  1.00  0.00     0.028 H 
ATOM      3  H   UNL A   1      39.577  27.559  27.176  1.00  0.00     0.028 H 
ENDROOT
BRANCH   1   4
ATOM      4  C   UNL A   1      40.735  27.037  28.846  1.00  0.00    -0.052 C 
ATOM      5  H   UNL A   1      41.450  27.801  28.620  1.00  0.00     0.027 H 
ATOM      6  H   UNL A   1      40.545  26.916  29.892  1.00  0.00     0.027 H 
BRANCH   4   7
ATOM      7  C   UNL A   1      41.308  25.700  28.367  1.00  0.00    -0.052 C 
ATOM      8  H   UNL A   1      42.361  25.824  28.226  1.00  0.00     0.027 H 
ATOM      9  H   UNL A   1      41.055  24.985  29.122  1.00  0.00     0.027 H 
BRANCH   7  10
ATOM     10  C   UNL A   1      40.718  25.160  27.063  1.00  0.00    -0.036 C 
ATOM     11  H   UNL A   1      41.004  24.133  26.970  1.00  0.00     0.028 H 
ATOM     12  H   UNL A   1      39.660  25.303  27.132  1.00  0.00     0.028 H 
BRANCH  10  13
ATOM     13  C   UNL A   1      41.165  25.891  25.802  1.00  0.00     0.018 C 
ATOM     14  H   UNL A   1      40.514  25.616  24.998  1.00  0.00     0.049 H 
ATOM     15  H   UNL A   1      41.122  26.941  26.002  1.00  0.00     0.049 H 
BRANCH  13  16
ATOM     16  N   UNL A   1      42.531  25.566  25.428  1.00  0.00    -0.352 N 
ATOM     17  O   UNL A   1      44.716  25.950  25.019  1.00  0.00    -0.269 OA
ATOM     18  C   UNL A   1      43.669  26.319  25.550  1.00  0.00     0.251 C 
ATOM     19  H   UNL A   1      42.657  24.675  25.028  1.00  0.00     0.163 HD
BRANCH  18  20
ATOM     20  C   UNL A   1      43.639  27.589  26.301  1.00  0.00     0.039 A 
ATOM     21  C   UNL A   1      42.711  28.589  25.988  1.00  0.00    -0.049 A 
ATOM     22  C   UNL A   1      44.537  27.768  27.355  1.00  0.00    -0.049 A 
ATOM     23  C   UNL A   1      42.757  29.811  26.652  1.00  0.00    -0.053 A 
ATOM     24  H   UNL A   1      41.995  28.421  25.264  1.00  0.00     0.063 H 
ATOM     25  C   UNL A   1      44.534  28.967  28.068  1.00  0.00    -0.053 A 
ATOM     26  H   UNL A   1      45.199  27.018  27.606  1.00  0.00     0.063 H 
ATOM     27  C   UNL A   1      43.660  30.006  27.708  1.00  0.00    -0.014 A 
ATOM     28  H   UNL A   1      42.126  30.575  26.368  1.00  0.00     0.063 H 
ATOM     29  H   UNL A   1      45.179  29.092  28.866  1.00  0.00     0.063 H 
BRANCH  27  30
ATOM     30  C   UNL A   1      43.660  31.274  28.475  1.00  0.00     0.031 A 
ATOM     31  C   UNL A   1      44.605  32.383  28.118  1.00  0.00     0.074 A 
ATOM     32  C   UNL A   1      42.835  31.401  29.531  1.00  0.00     0.049 A 
ATOM     33  N   UNL A   1      44.833  33.511  28.741  1.00  0.00    -0.248 NA
ATOM     34  C   UNL A   1      45.413  32.192  26.904  1.00  0.00    -0.034 C 
ATOM     35  C   UNL A   1      41.874  30.390  29.972  1.00  0.00    -0.036 A 
ATOM     36  N   UNL A   1      42.689  32.420  30.436  1.00  0.00    -0.354 N 
ATOM     37  C   UNL A   1      45.826  34.153  28.013  1.00  0.00     0.074 A 
ATOM     38  C   UNL A   1      46.175  33.276  26.914  1.00  0.00    -0.034 C 
ATOM     39  H   UNL A   1      45.391  31.417  26.223  1.00  0.00     0.065 H 
ATOM     40  C   UNL A   1      41.239  30.836  31.064  1.00  0.00    -0.036 A 
ATOM     41  H   UNL A   1      41.712  29.479  29.515  1.00  0.00     0.065 H 
ATOM     42  C   UNL A   1      41.792  32.134  31.436  1.00  0.00     0.049 A 
ATOM     43  H   UNL A   1      43.178  33.272  30.377  1.00  0.00     0.167 HD
ATOM     44  C   UNL A   1      46.390  35.364  28.243  1.00  0.00     0.037 A 
ATOM     45  H   UNL A   1      46.921  33.470  26.229  1.00  0.00     0.065 H 
ATOM     46  H   UNL A   1      40.480  30.343  31.560  1.00  0.00     0.065 H 
ATOM     47  C   UNL A   1      41.480  32.819  32.553  1.00  0.00     0.037 A 
ATOM     48  C   UNL A   1      46.031  36.225  29.342  1.00  0.00     0.049 A 
ATOM     49  C   UNL A   1      42.150  34.137  32.815  1.00  0.00     0.074 A 
ATOM     50  C   UNL A   1      46.510  37.487  29.641  1.00  0.00    -0.036 A 
ATOM     51  N   UNL A   1      45.113  35.901  30.333  1.00  0.00    -0.354 N 
ATOM     52  N   UNL A   1      43.059  34.755  32.102  1.00  0.00    -0.248 NA
ATOM     53  C   UNL A   1      41.751  34.853  34.033  1.00  0.00    -0.034 C 
ATOM     54  C   UNL A   1      45.933  37.901  30.846  1.00  0.00    -0.036 A 
ATOM     55  H   UNL A   1      47.179  38.031  29.073  1.00  0.00     0.065 H 
ATOM     56  C   UNL A   1      45.038  36.927  31.262  1.00  0.00     0.049 A 
ATOM     57  H   UNL A   1      44.593  35.067  30.371  1.00  0.00     0.167 HD
ATOM     58  C   UNL A   1      43.321  35.945  32.765  1.00  0.00     0.074 A 
ATOM     59  C   UNL A   1      42.474  35.962  33.940  1.00  0.00    -0.034 C 
ATOM     60  H   UNL A   1      41.085  34.568  34.768  1.00  0.00     0.065 H 
ATOM     61  H   UNL A   1      46.139  38.782  31.343  1.00  0.00     0.065 H 
ATOM     62  C   UNL A   1      44.180  36.936  32.422  1.00  0.00     0.037 A 
ATOM     63  H   UNL A   1      42.436  36.739  34.619  1.00  0.00     0.065 H 
BRANCH  44  64
ATOM     64  C   UNL A   1      47.484  35.807  27.311  1.00  0.00     0.064 A 
ATOM     65  C   UNL A   1      48.772  35.253  27.358  1.00  0.00     0.173 A 
ATOM     66  C   UNL A   1      47.234  36.799  26.349  1.00  0.00     0.173 A 
ATOM     67  F   UNL A   1      49.068  34.306  28.261  1.00  0.00    -0.203 F 
ATOM     68  C   UNL A   1      49.780  35.705  26.508  1.00  0.00     0.198 A 
ATOM     69  C   UNL A   1      48.234  37.223  25.477  1.00  0.00     0.198 A 
ATOM     70  F   UNL A   1      46.018  37.355  26.250  1.00  0.00    -0.203 F 
ATOM     71  F   UNL A   1      51.019  35.205  26.616  1.00  0.00    -0.200 F 
ATOM     72  C   UNL A   1      49.509  36.686  25.567  1.00  0.00     0.200 A 
ATOM     73  F   UNL A   1      47.964  38.158  24.556  1.00  0.00    -0.200 F 
ATOM     74  F   UNL A   1      50.479  37.120  24.749  1.00  0.00    -0.200 F 
ENDBRANCH  44  64
BRANCH  47  75
ATOM     75  C   UNL A   1      40.489  32.245  33.497  1.00  0.00     0.064 A 
ATOM     76  C   UNL A   1      39.142  32.623  33.449  1.00  0.00     0.173 A 
ATOM     77  C   UNL A   1      40.860  31.260  34.427  1.00  0.00     0.173 A 
ATOM     78  F   UNL A   1      38.743  33.570  32.586  1.00  0.00    -0.203 F 
ATOM     79  C   UNL A   1      38.202  32.040  34.296  1.00  0.00     0.198 A 
ATOM     80  C   UNL A   1      39.914  30.658  35.253  1.00  0.00     0.198 A 
ATOM     81  F   UNL A   1      42.137  30.858  34.505  1.00  0.00    -0.203 F 
ATOM     82  F   UNL A   1      36.922  32.437  34.246  1.00  0.00    -0.200 F 
ATOM     83  C   UNL A   1      38.587  31.051  35.189  1.00  0.00     0.200 A 
ATOM     84  F   UNL A   1      40.287  29.689  36.099  1.00  0.00    -0.200 F 
ATOM     85  F   UNL A   1      37.678  30.477  35.988  1.00  0.00    -0.200 F 
ENDBRANCH  47  75
BRANCH  62  86
ATOM     86  C   UNL A   1      44.216  38.158  33.295  1.00  0.00     0.064 A 
ATOM     87  C   UNL A   1      43.509  39.324  32.969  1.00  0.00     0.173 A 
ATOM     88  C   UNL A   1      44.906  38.128  34.517  1.00  0.00     0.173 A 
ATOM     89  F   UNL A   1      42.848  39.410  31.804  1.00  0.00    -0.203 F 
ATOM     90  C   UNL A   1      43.499  40.418  33.830  1.00  0.00     0.198 A 
ATOM     91  C   UNL A   1      44.869  39.211  35.390  1.00  0.00     0.198 A 
ATOM     92  F   UNL A   1      45.595  37.034  34.877  1.00  0.00    -0.203 F 
ATOM     93  F   UNL A   1      42.843  41.534  33.486  1.00  0.00    -0.200 F 
ATOM     94  C   UNL A   1      44.167  40.355  35.044  1.00  0.00     0.200 A 
ATOM     95  F   UNL A   1      45.503  39.142  36.568  1.00  0.00    -0.200 F 
ATOM     96  F   UNL A   1      44.137  41.401  35.883  1.00  0.00    -0.200 F 
ENDBRANCH  62  86
ENDBRANCH  27  30
ENDBRANCH  18  20
ENDBRANCH  13  16
ENDBRANCH  10  13
ENDBRANCH   7  10
ENDBRANCH   4   7
ENDBRANCH   1   4
BRANCH   1  97
ATOM     97  C   UNL A   1      38.841  28.789  28.702  1.00  0.00     0.018 C 
ATOM     98  H   UNL A   1      38.341  29.266  27.884  1.00  0.00     0.049 H 
ATOM     99  H   UNL A   1      39.663  29.377  29.053  1.00  0.00     0.049 H 
BRANCH  97 100
ATOM    100  N   UNL A   1      37.900  28.638  29.800  1.00  0.00    -0.352 N 
ATOM    101  C   UNL A   1      36.996  29.545  30.292  1.00  0.00     0.253 C 
ATOM    102  H   UNL A   1      37.915  27.764  30.252  1.00  0.00     0.163 HD
ATOM    103  O   UNL A   1      36.330  29.271  31.286  1.00  0.00    -0.269 OA
BRANCH 101 104
ATOM    104  C   UNL A   1      36.831  30.865  29.647  1.00  0.00     0.063 A 
ATOM    105  C   UNL A   1      37.723  31.872  30.042  1.00  0.00    -0.047 A 
ATOM    106  C   UNL A   1      35.815  31.125  28.707  1.00  0.00     0.054 A 
ATOM    107  C   UNL A   1      37.651  33.138  29.463  1.00  0.00    -0.061 A 
ATOM    108  H   UNL A   1      38.436  31.676  30.762  1.00  0.00     0.063 H 
ATOM    109  C   UNL A   1      35.797  32.394  28.105  1.00  0.00    -0.038 A 
ATOM    110  C   UNL A   1      36.696  33.393  28.485  1.00  0.00    -0.060 A 
ATOM    111  H   UNL A   1      38.301  33.882  29.760  1.00  0.00     0.062 H 
ATOM    112  H   UNL A   1      35.105  32.592  27.366  1.00  0.00     0.064 H 
ATOM    113  H   UNL A   1      36.654  34.322  28.037  1.00  0.00     0.062 H 
BRANCH 106 114
ATOM    114  N   UNL A   1      34.855  30.156  28.371  1.00  0.00    -0.323 N 
ATOM    115  H   UNL A   1      34.754  29.425  29.022  1.00  0.00     0.170 HD
BRANCH 114 116
ATOM    116  C   UNL A   1      34.026  30.078  27.260  1.00  0.00     0.233 A 
ATOM    117  N   UNL A   1      32.896  30.765  27.235  1.00  0.00    -0.182 NA
ATOM    118  N   UNL A   1      34.442  29.295  26.273  1.00  0.00    -0.176 NA
ATOM    119  C   UNL A   1      32.203  30.607  26.123  1.00  0.00     0.228 A 
ATOM    120  C   UNL A   1      33.620  29.155  25.237  1.00  0.00     0.233 A 
ATOM    121  Cl  UNL A   1      30.735  31.476  26.022  1.00  0.00    -0.041 Cl
ATOM    122  N   UNL A   1      32.492  29.830  25.097  1.00  0.00    -0.182 NA
BRANCH 120 123
ATOM    123  N   UNL A   1      33.948  28.139  24.343  1.00  0.00    -0.324 N 
ATOM    124  H   UNL A   1      34.359  28.430  23.497  1.00  0.00     0.170 HD
BRANCH 123 125
ATOM    125  C   UNL A   1      33.772  26.762  24.488  1.00  0.00     0.041 A 
ATOM    126  C   UNL A   1      33.756  25.942  23.355  1.00  0.00    -0.036 A 
ATOM    127  C   UNL A   1      33.719  26.161  25.747  1.00  0.00    -0.036 A 
ATOM    128  C   UNL A   1      33.697  24.548  23.479  1.00  0.00    -0.036 A 
ATOM    129  H   UNL A   1      33.788  26.368  22.416  1.00  0.00     0.065 H 
ATOM    130  C   UNL A   1      33.599  24.776  25.874  1.00  0.00    -0.036 A 
ATOM    131  H   UNL A   1      33.768  26.748  26.594  1.00  0.00     0.065 H 
ATOM    132  C   UNL A   1      33.601  23.955  24.741  1.00  0.00     0.044 A 
ATOM    133  H   UNL A   1      33.724  23.956  22.634  1.00  0.00     0.065 H 
ATOM    134  H   UNL A   1      33.509  24.354  26.811  1.00  0.00     0.065 H 
BRANCH 132 135
ATOM    135  N   UNL A   1      33.552  22.538  24.880  1.00  0.00    -0.308 N 
ATOM    136  C   UNL A   1      32.276  21.886  24.569  1.00  0.00     0.049 C 
ATOM    137  C   UNL A   1      34.734  21.792  24.974  1.00  0.00     0.253 C 
ATOM    138  C   UNL A   1      32.237  20.414  24.964  1.00  0.00     0.065 C 
ATOM    139  H   UNL A   1      32.105  21.959  23.516  1.00  0.00     0.052 H 
ATOM    140  H   UNL A   1      31.518  22.386  25.136  1.00  0.00     0.052 H 
ATOM    141  C   UNL A   1      34.558  20.266  24.957  1.00  0.00     0.126 C 
ATOM    142  O   UNL A   1      35.852  22.277  25.163  1.00  0.00    -0.272 OA
ATOM    143  O   UNL A   1      33.362  19.743  24.403  1.00  0.00    -0.370 OA
ATOM    144  H   UNL A   1      31.336  19.971  24.595  1.00  0.00     0.059 H 
ATOM    145  H   UNL A   1      32.267  20.331  26.030  1.00  0.00     0.059 H 
ATOM    146  H   UNL A   1      35.375  19.858  24.397  1.00  0.00     0.067 H 
ATOM    147  H   UNL A   1      34.521  19.988  25.989  1.00  0.00     0.067 H 
ENDBRANCH 132 135
ENDBRANCH 123 125
ENDBRANCH 120 123
ENDBRANCH 114 116
ENDBRANCH 106 114
ENDBRANCH 101 104
ENDBRANCH  97 100
ENDBRANCH   1  97
TORSDOF 18
ENDMDL
MODEL 7
REMARK VINA RESULT:     -11.7      6.233     12.534
REMARK SMILES O=C(NCCCCCCNC(=O)c1ccccc1Nc1nc(Cl)nc(Nc2ccc(N3CCOCC3=O)cc2)n1)c1ccc(-c2c3nc(c(-c4c(F)c(F)c(F)c(F)c4F)c4ccc([nH]4)c(-c4c(F)c(F)c(F)c(F)c4F)c4nc(c(-c5c(F)c(F)c(F)c(F)c5F)c5ccc2[nH]5)C=C4)C=C3)cc1
REMARK SMILES IDX 8 1 7 4 6 7 5 10 4 13 3 16 1 17 2 18 41 20 42 21 103 22
REMARK SMILES IDX 43 23 102 25 44 27 45 30 46 31 96 32 47 33 101 34 95 35
REMARK SMILES IDX 97 36 48 37 100 38 94 40 93 42 49 44 81 47 61 48 80 49 62 50
REMARK SMILES IDX 65 51 79 52 98 53 63 54 64 56 78 58 99 59 66 62 50 64 51 65
REMARK SMILES IDX 59 66 52 67 53 68 57 69 60 70 54 71 55 72 58 73 56 74 82 75
REMARK SMILES IDX 83 76 91 77 84 78 85 79 89 80 92 81 86 82 87 83 90 84 88 85
REMARK SMILES IDX 67 86 68 87 76 88 69 89 70 90 74 91 77 92 71 93 72 94 75 95
REMARK SMILES IDX 73 96 9 97 10 100 11 101 12 103 13 104 14 105 18 106 15 107
REMARK SMILES IDX 17 109 16 110 19 114 20 116 21 117 40 118 22 119 25 120
REMARK SMILES IDX 23 121 24 122 26 123 27 125 28 126 39 127 29 128 38 130
REMARK SMILES IDX 30 132 31 135 32 136 36 137 33 138 35 141 37 142 34 143
REMARK H PARENT 8 2 8 3 7 5 7 6 6 8 6 9 5 11 5 12 4 14 4 15 3 19 42 24 103 26
REMARK H PARENT 43 28 102 29 101 39 95 41 97 43 100 45 94 46 62 55 65 57 98 60
REMARK H PARENT 63 61 99 63 9 98 9 99 10 102 14 108 15 111 17 112 16 113
REMARK H PARENT 19 115 26 124 28 129 39 131 29 133 38 134 32 139 32 140 33 144
REMARK H PARENT 33 145 35 146 35 147
REMARK Flexibility Score: inf
ROOT
ATOM      1  C   UNL A   1      37.748  34.011  33.577  1.00  0.00    -0.036 C 
ATOM      2  H   UNL A   1      37.555  33.070  34.049  1.00  0.00     0.028 H 
ATOM      3  H   UNL A   1      38.201  33.921  32.612  1.00  0.00     0.028 H 
ENDROOT
BRANCH   1   4
ATOM      4  C   UNL A   1      38.749  34.781  34.446  1.00  0.00    -0.052 C 
ATOM      5  H   UNL A   1      39.717  34.678  34.001  1.00  0.00     0.027 H 
ATOM      6  H   UNL A   1      38.391  35.788  34.479  1.00  0.00     0.027 H 
BRANCH   4   7
ATOM      7  C   UNL A   1      38.852  34.325  35.905  1.00  0.00    -0.052 C 
ATOM      8  H   UNL A   1      38.404  35.079  36.518  1.00  0.00     0.027 H 
ATOM      9  H   UNL A   1      38.355  33.379  35.953  1.00  0.00     0.027 H 
BRANCH   7  10
ATOM     10  C   UNL A   1      40.271  34.080  36.420  1.00  0.00    -0.036 C 
ATOM     11  H   UNL A   1      40.956  34.526  35.730  1.00  0.00     0.028 H 
ATOM     12  H   UNL A   1      40.312  34.510  37.398  1.00  0.00     0.028 H 
BRANCH  10  13
ATOM     13  C   UNL A   1      40.653  32.613  36.583  1.00  0.00     0.018 C 
ATOM     14  H   UNL A   1      41.287  32.331  35.768  1.00  0.00     0.049 H 
ATOM     15  H   UNL A   1      41.152  32.508  37.523  1.00  0.00     0.049 H 
BRANCH  13  16
ATOM     16  N   UNL A   1      39.494  31.736  36.596  1.00  0.00    -0.352 N 
ATOM     17  O   UNL A   1      37.977  30.292  35.759  1.00  0.00    -0.269 OA
ATOM     18  C   UNL A   1      39.082  30.825  35.660  1.00  0.00     0.251 C 
ATOM     19  H   UNL A   1      38.921  31.808  37.394  1.00  0.00     0.163 HD
BRANCH  18  20
ATOM     20  C   UNL A   1      39.953  30.494  34.516  1.00  0.00     0.039 A 
ATOM     21  C   UNL A   1      40.969  29.539  34.638  1.00  0.00    -0.049 A 
ATOM     22  C   UNL A   1      39.730  31.132  33.294  1.00  0.00    -0.049 A 
ATOM     23  C   UNL A   1      41.833  29.306  33.572  1.00  0.00    -0.053 A 
ATOM     24  H   UNL A   1      41.078  29.010  35.517  1.00  0.00     0.063 H 
ATOM     25  C   UNL A   1      40.552  30.843  32.204  1.00  0.00    -0.053 A 
ATOM     26  H   UNL A   1      38.960  31.812  33.197  1.00  0.00     0.063 H 
ATOM     27  C   UNL A   1      41.623  29.946  32.341  1.00  0.00    -0.014 A 
ATOM     28  H   UNL A   1      42.629  28.660  33.686  1.00  0.00     0.063 H 
ATOM     29  H   UNL A   1      40.372  31.293  31.292  1.00  0.00     0.063 H 
BRANCH  27  30
ATOM     30  C   UNL A   1      42.489  29.641  31.177  1.00  0.00     0.031 A 
ATOM     31  C   UNL A   1      42.165  28.494  30.264  1.00  0.00     0.074 A 
ATOM     32  C   UNL A   1      43.600  30.373  30.976  1.00  0.00     0.049 A 
ATOM     33  N   UNL A   1      42.863  28.003  29.271  1.00  0.00    -0.248 NA
ATOM     34  C   UNL A   1      40.893  27.799  30.509  1.00  0.00    -0.034 C 
ATOM     35  C   UNL A   1      44.015  31.510  31.799  1.00  0.00    -0.036 A 
ATOM     36  N   UNL A   1      44.592  30.259  30.037  1.00  0.00    -0.354 N 
ATOM     37  C   UNL A   1      42.130  26.927  28.789  1.00  0.00     0.074 A 
ATOM     38  C   UNL A   1      40.945  26.822  29.616  1.00  0.00    -0.034 C 
ATOM     39  H   UNL A   1      40.154  28.015  31.196  1.00  0.00     0.065 H 
ATOM     40  C   UNL A   1      45.176  31.988  31.331  1.00  0.00    -0.036 A 
ATOM     41  H   UNL A   1      43.497  31.884  32.609  1.00  0.00     0.065 H 
ATOM     42  C   UNL A   1      45.618  31.153  30.218  1.00  0.00     0.049 A 
ATOM     43  H   UNL A   1      44.571  29.600  29.306  1.00  0.00     0.167 HD
ATOM     44  C   UNL A   1      42.423  26.106  27.751  1.00  0.00     0.037 A 
ATOM     45  H   UNL A   1      40.233  26.081  29.521  1.00  0.00     0.065 H 
ATOM     46  H   UNL A   1      45.677  32.813  31.697  1.00  0.00     0.065 H 
ATOM     47  C   UNL A   1      46.803  31.263  29.589  1.00  0.00     0.037 A 
ATOM     48  C   UNL A   1      43.607  26.224  26.938  1.00  0.00     0.049 A 
ATOM     49  C   UNL A   1      47.129  30.314  28.472  1.00  0.00     0.074 A 
ATOM     50  C   UNL A   1      43.978  25.473  25.838  1.00  0.00    -0.036 A 
ATOM     51  N   UNL A   1      44.623  27.148  27.151  1.00  0.00    -0.354 N 
ATOM     52  N   UNL A   1      46.415  29.325  27.996  1.00  0.00    -0.248 NA
ATOM     53  C   UNL A   1      48.424  30.498  27.802  1.00  0.00    -0.034 C 
ATOM     54  C   UNL A   1      45.245  25.897  25.425  1.00  0.00    -0.036 A 
ATOM     55  H   UNL A   1      43.416  24.727  25.397  1.00  0.00     0.065 H 
ATOM     56  C   UNL A   1      45.634  26.962  26.222  1.00  0.00     0.049 A 
ATOM     57  H   UNL A   1      44.624  27.834  27.857  1.00  0.00     0.167 HD
ATOM     58  C   UNL A   1      47.155  28.785  26.954  1.00  0.00     0.074 A 
ATOM     59  C   UNL A   1      48.376  29.558  26.867  1.00  0.00    -0.034 C 
ATOM     60  H   UNL A   1      49.172  31.178  28.007  1.00  0.00     0.065 H 
ATOM     61  H   UNL A   1      45.798  25.485  24.657  1.00  0.00     0.065 H 
ATOM     62  C   UNL A   1      46.842  27.748  26.139  1.00  0.00     0.037 A 
ATOM     63  H   UNL A   1      49.117  29.399  26.165  1.00  0.00     0.065 H 
BRANCH  44  64
ATOM     64  C   UNL A   1      41.465  24.983  27.464  1.00  0.00     0.064 A 
ATOM     65  C   UNL A   1      41.683  23.679  27.934  1.00  0.00     0.173 A 
ATOM     66  C   UNL A   1      40.303  25.219  26.712  1.00  0.00     0.173 A 
ATOM     67  F   UNL A   1      42.780  23.395  28.653  1.00  0.00    -0.203 F 
ATOM     68  C   UNL A   1      40.801  22.646  27.626  1.00  0.00     0.198 A 
ATOM     69  C   UNL A   1      39.404  24.192  26.436  1.00  0.00     0.198 A 
ATOM     70  F   UNL A   1      40.035  26.448  26.247  1.00  0.00    -0.203 F 
ATOM     71  F   UNL A   1      41.065  21.397  28.033  1.00  0.00    -0.200 F 
ATOM     72  C   UNL A   1      39.661  22.904  26.881  1.00  0.00     0.200 A 
ATOM     73  F   UNL A   1      38.292  24.448  25.731  1.00  0.00    -0.200 F 
ATOM     74  F   UNL A   1      38.811  21.910  26.585  1.00  0.00    -0.200 F 
ENDBRANCH  44  64
BRANCH  47  75
ATOM     75  C   UNL A   1      47.756  32.314  30.026  1.00  0.00     0.064 A 
ATOM     76  C   UNL A   1      48.708  32.057  31.019  1.00  0.00     0.173 A 
ATOM     77  C   UNL A   1      47.772  33.578  29.414  1.00  0.00     0.173 A 
ATOM     78  F   UNL A   1      48.722  30.869  31.642  1.00  0.00    -0.203 F 
ATOM     79  C   UNL A   1      49.641  33.025  31.387  1.00  0.00     0.198 A 
ATOM     80  C   UNL A   1      48.723  34.533  29.762  1.00  0.00     0.198 A 
ATOM     81  F   UNL A   1      46.886  33.868  28.450  1.00  0.00    -0.203 F 
ATOM     82  F   UNL A   1      50.527  32.762  32.358  1.00  0.00    -0.200 F 
ATOM     83  C   UNL A   1      49.654  34.258  30.751  1.00  0.00     0.200 A 
ATOM     84  F   UNL A   1      48.745  35.715  29.130  1.00  0.00    -0.200 F 
ATOM     85  F   UNL A   1      50.565  35.179  31.091  1.00  0.00    -0.200 F 
ENDBRANCH  47  75
BRANCH  62  86
ATOM     86  C   UNL A   1      47.806  27.413  25.038  1.00  0.00     0.064 A 
ATOM     87  C   UNL A   1      47.579  27.799  23.709  1.00  0.00     0.173 A 
ATOM     88  C   UNL A   1      49.015  26.764  25.336  1.00  0.00     0.173 A 
ATOM     89  F   UNL A   1      46.432  28.406  23.369  1.00  0.00    -0.203 F 
ATOM     90  C   UNL A   1      48.523  27.542  22.719  1.00  0.00     0.198 A 
ATOM     91  C   UNL A   1      49.970  26.536  24.350  1.00  0.00     0.198 A 
ATOM     92  F   UNL A   1      49.281  26.377  26.593  1.00  0.00    -0.203 F 
ATOM     93  F   UNL A   1      48.274  27.891  21.450  1.00  0.00    -0.200 F 
ATOM     94  C   UNL A   1      49.722  26.922  23.043  1.00  0.00     0.200 A 
ATOM     95  F   UNL A   1      51.132  25.950  24.668  1.00  0.00    -0.200 F 
ATOM     96  F   UNL A   1      50.639  26.695  22.091  1.00  0.00    -0.200 F 
ENDBRANCH  62  86
ENDBRANCH  27  30
ENDBRANCH  18  20
ENDBRANCH  13  16
ENDBRANCH  10  13
ENDBRANCH   7  10
ENDBRANCH   4   7
ENDBRANCH   1   4
BRANCH   1  97
ATOM     97  C   UNL A   1      36.408  34.709  33.353  1.00  0.00     0.018 C 
ATOM     98  H   UNL A   1      36.376  35.077  32.348  1.00  0.00     0.049 H 
ATOM     99  H   UNL A   1      36.332  35.505  34.064  1.00  0.00     0.049 H 
BRANCH  97 100
ATOM    100  N   UNL A   1      35.280  33.817  33.560  1.00  0.00    -0.352 N 
ATOM    101  C   UNL A   1      34.086  33.767  32.886  1.00  0.00     0.253 C 
ATOM    102  H   UNL A   1      35.387  33.159  34.284  1.00  0.00     0.163 HD
ATOM    103  O   UNL A   1      33.206  32.993  33.252  1.00  0.00    -0.269 OA
BRANCH 101 104
ATOM    104  C   UNL A   1      33.837  34.656  31.732  1.00  0.00     0.063 A 
ATOM    105  C   UNL A   1      33.256  35.901  32.012  1.00  0.00    -0.047 A 
ATOM    106  C   UNL A   1      34.134  34.277  30.408  1.00  0.00     0.054 A 
ATOM    107  C   UNL A   1      33.012  36.808  30.983  1.00  0.00    -0.061 A 
ATOM    108  H   UNL A   1      33.007  36.146  32.983  1.00  0.00     0.063 H 
ATOM    109  C   UNL A   1      33.923  35.230  29.397  1.00  0.00    -0.038 A 
ATOM    110  C   UNL A   1      33.359  36.477  29.678  1.00  0.00    -0.060 A 
ATOM    111  H   UNL A   1      32.575  37.720  31.188  1.00  0.00     0.062 H 
ATOM    112  H   UNL A   1      34.191  35.003  28.427  1.00  0.00     0.064 H 
ATOM    113  H   UNL A   1      33.201  37.154  28.915  1.00  0.00     0.062 H 
BRANCH 106 114
ATOM    114  N   UNL A   1      34.628  32.999  30.100  1.00  0.00    -0.323 N 
ATOM    115  H   UNL A   1      33.949  32.287  30.060  1.00  0.00     0.170 HD
BRANCH 114 116
ATOM    116  C   UNL A   1      35.929  32.590  29.840  1.00  0.00     0.233 A 
ATOM    117  N   UNL A   1      36.153  31.380  29.356  1.00  0.00    -0.182 NA
ATOM    118  N   UNL A   1      36.884  33.474  30.105  1.00  0.00    -0.176 NA
ATOM    119  C   UNL A   1      37.430  31.118  29.150  1.00  0.00     0.228 A 
ATOM    120  C   UNL A   1      38.138  33.066  29.931  1.00  0.00     0.233 A 
ATOM    121  Cl  UNL A   1      37.787  29.573  28.515  1.00  0.00    -0.041 Cl
ATOM    122  N   UNL A   1      38.464  31.894  29.411  1.00  0.00    -0.182 NA
BRANCH 120 123
ATOM    123  N   UNL A   1      39.119  33.901  30.457  1.00  0.00    -0.324 N 
ATOM    124  H   UNL A   1      38.951  34.237  31.367  1.00  0.00     0.170 HD
BRANCH 123 125
ATOM    125  C   UNL A   1      40.310  34.325  29.865  1.00  0.00     0.041 A 
ATOM    126  C   UNL A   1      41.506  33.664  30.162  1.00  0.00    -0.036 A 
ATOM    127  C   UNL A   1      40.326  35.328  28.894  1.00  0.00    -0.036 A 
ATOM    128  C   UNL A   1      42.693  33.994  29.496  1.00  0.00    -0.036 A 
ATOM    129  H   UNL A   1      41.516  32.925  30.881  1.00  0.00     0.065 H 
ATOM    130  C   UNL A   1      41.518  35.701  28.271  1.00  0.00    -0.036 A 
ATOM    131  H   UNL A   1      39.446  35.800  28.634  1.00  0.00     0.065 H 
ATOM    132  C   UNL A   1      42.710  35.028  28.556  1.00  0.00     0.044 A 
ATOM    133  H   UNL A   1      43.559  33.471  29.700  1.00  0.00     0.065 H 
ATOM    134  H   UNL A   1      41.519  36.480  27.594  1.00  0.00     0.065 H 
BRANCH 132 135
ATOM    135  N   UNL A   1      43.909  35.365  27.863  1.00  0.00    -0.308 N 
ATOM    136  C   UNL A   1      44.056  34.840  26.501  1.00  0.00     0.049 C 
ATOM    137  C   UNL A   1      44.728  36.403  28.322  1.00  0.00     0.253 C 
ATOM    138  C   UNL A   1      45.450  35.045  25.921  1.00  0.00     0.065 C 
ATOM    139  H   UNL A   1      43.349  35.335  25.868  1.00  0.00     0.052 H 
ATOM    140  H   UNL A   1      43.885  33.785  26.548  1.00  0.00     0.052 H 
ATOM    141  C   UNL A   1      45.902  36.778  27.406  1.00  0.00     0.126 C 
ATOM    142  O   UNL A   1      44.619  36.942  29.427  1.00  0.00    -0.272 OA
ATOM    143  O   UNL A   1      45.815  36.417  26.037  1.00  0.00    -0.370 OA
ATOM    144  H   UNL A   1      45.453  34.760  24.890  1.00  0.00     0.059 H 
ATOM    145  H   UNL A   1      46.152  34.444  26.460  1.00  0.00     0.059 H 
ATOM    146  H   UNL A   1      46.014  37.842  27.449  1.00  0.00     0.067 H 
ATOM    147  H   UNL A   1      46.728  36.211  27.781  1.00  0.00     0.067 H 
ENDBRANCH 132 135
ENDBRANCH 123 125
ENDBRANCH 120 123
ENDBRANCH 114 116
ENDBRANCH 106 114
ENDBRANCH 101 104
ENDBRANCH  97 100
ENDBRANCH   1  97
TORSDOF 18
ENDMDL
MODEL 8
REMARK VINA RESULT:     -11.5      5.989     11.931
REMARK SMILES O=C(NCCCCCCNC(=O)c1ccccc1Nc1nc(Cl)nc(Nc2ccc(N3CCOCC3=O)cc2)n1)c1ccc(-c2c3nc(c(-c4c(F)c(F)c(F)c(F)c4F)c4ccc([nH]4)c(-c4c(F)c(F)c(F)c(F)c4F)c4nc(c(-c5c(F)c(F)c(F)c(F)c5F)c5ccc2[nH]5)C=C4)C=C3)cc1
REMARK SMILES IDX 8 1 7 4 6 7 5 10 4 13 3 16 1 17 2 18 41 20 42 21 103 22
REMARK SMILES IDX 43 23 102 25 44 27 45 30 46 31 96 32 47 33 101 34 95 35
REMARK SMILES IDX 97 36 48 37 100 38 94 40 93 42 49 44 81 47 61 48 80 49 62 50
REMARK SMILES IDX 65 51 79 52 98 53 63 54 64 56 78 58 99 59 66 62 50 64 51 65
REMARK SMILES IDX 59 66 52 67 53 68 57 69 60 70 54 71 55 72 58 73 56 74 82 75
REMARK SMILES IDX 83 76 91 77 84 78 85 79 89 80 92 81 86 82 87 83 90 84 88 85
REMARK SMILES IDX 67 86 68 87 76 88 69 89 70 90 74 91 77 92 71 93 72 94 75 95
REMARK SMILES IDX 73 96 9 97 10 100 11 101 12 103 13 104 14 105 18 106 15 107
REMARK SMILES IDX 17 109 16 110 19 114 20 116 21 117 40 118 22 119 25 120
REMARK SMILES IDX 23 121 24 122 26 123 27 125 28 126 39 127 29 128 38 130
REMARK SMILES IDX 30 132 31 135 32 136 36 137 33 138 35 141 37 142 34 143
REMARK H PARENT 8 2 8 3 7 5 7 6 6 8 6 9 5 11 5 12 4 14 4 15 3 19 42 24 103 26
REMARK H PARENT 43 28 102 29 101 39 95 41 97 43 100 45 94 46 62 55 65 57 98 60
REMARK H PARENT 63 61 99 63 9 98 9 99 10 102 14 108 15 111 17 112 16 113
REMARK H PARENT 19 115 26 124 28 129 39 131 29 133 38 134 32 139 32 140 33 144
REMARK H PARENT 33 145 35 146 35 147
REMARK Flexibility Score: inf
ROOT
ATOM      1  C   UNL A   1      37.380  21.132  24.606  1.00  0.00    -0.036 C 
ATOM      2  H   UNL A   1      37.056  20.127  24.775  1.00  0.00     0.028 H 
ATOM      3  H   UNL A   1      37.790  21.292  23.631  1.00  0.00     0.028 H 
ENDROOT
BRANCH   1   4
ATOM      4  C   UNL A   1      38.510  21.437  25.597  1.00  0.00    -0.052 C 
ATOM      5  H   UNL A   1      39.074  22.259  25.209  1.00  0.00     0.027 H 
ATOM      6  H   UNL A   1      38.030  21.643  26.531  1.00  0.00     0.027 H 
BRANCH   4   7
ATOM      7  C   UNL A   1      39.482  20.287  25.872  1.00  0.00    -0.052 C 
ATOM      8  H   UNL A   1      39.069  19.685  26.655  1.00  0.00     0.027 H 
ATOM      9  H   UNL A   1      39.594  19.768  24.943  1.00  0.00     0.027 H 
BRANCH   7  10
ATOM     10  C   UNL A   1      40.893  20.703  26.293  1.00  0.00    -0.036 C 
ATOM     11  H   UNL A   1      41.341  21.229  25.476  1.00  0.00     0.028 H 
ATOM     12  H   UNL A   1      40.778  21.300  27.173  1.00  0.00     0.028 H 
BRANCH  10  13
ATOM     13  C   UNL A   1      41.817  19.552  26.677  1.00  0.00     0.018 C 
ATOM     14  H   UNL A   1      42.417  19.857  27.509  1.00  0.00     0.049 H 
ATOM     15  H   UNL A   1      41.204  18.710  26.922  1.00  0.00     0.049 H 
BRANCH  13  16
ATOM     16  N   UNL A   1      42.696  19.159  25.588  1.00  0.00    -0.352 N 
ATOM     17  O   UNL A   1      44.157  19.450  23.895  1.00  0.00    -0.269 OA
ATOM     18  C   UNL A   1      43.624  19.902  24.908  1.00  0.00     0.251 C 
ATOM     19  H   UNL A   1      42.612  18.222  25.297  1.00  0.00     0.163 HD
BRANCH  18  20
ATOM     20  C   UNL A   1      43.972  21.258  25.374  1.00  0.00     0.039 A 
ATOM     21  C   UNL A   1      44.561  21.459  26.629  1.00  0.00    -0.049 A 
ATOM     22  C   UNL A   1      43.730  22.343  24.530  1.00  0.00    -0.049 A 
ATOM     23  C   UNL A   1      44.801  22.752  27.083  1.00  0.00    -0.053 A 
ATOM     24  H   UNL A   1      44.815  20.649  27.215  1.00  0.00     0.063 H 
ATOM     25  C   UNL A   1      44.038  23.634  24.958  1.00  0.00    -0.053 A 
ATOM     26  H   UNL A   1      43.325  22.191  23.593  1.00  0.00     0.063 H 
ATOM     27  C   UNL A   1      44.556  23.851  26.246  1.00  0.00    -0.014 A 
ATOM     28  H   UNL A   1      45.163  22.903  28.037  1.00  0.00     0.063 H 
ATOM     29  H   UNL A   1      43.886  24.436  24.325  1.00  0.00     0.063 H 
BRANCH  27  30
ATOM     30  C   UNL A   1      44.886  25.225  26.691  1.00  0.00     0.031 A 
ATOM     31  C   UNL A   1      43.820  26.127  27.240  1.00  0.00     0.074 A 
ATOM     32  C   UNL A   1      46.147  25.675  26.549  1.00  0.00     0.049 A 
ATOM     33  N   UNL A   1      43.894  27.393  27.568  1.00  0.00    -0.248 NA
ATOM     34  C   UNL A   1      42.491  25.531  27.435  1.00  0.00    -0.034 C 
ATOM     35  C   UNL A   1      47.264  24.888  26.026  1.00  0.00    -0.036 A 
ATOM     36  N   UNL A   1      46.695  26.905  26.807  1.00  0.00    -0.354 N 
ATOM     37  C   UNL A   1      42.618  27.751  27.982  1.00  0.00     0.074 A 
ATOM     38  C   UNL A   1      41.784  26.575  27.841  1.00  0.00    -0.034 C 
ATOM     39  H   UNL A   1      42.189  24.554  27.294  1.00  0.00     0.065 H 
ATOM     40  C   UNL A   1      48.364  25.653  26.001  1.00  0.00    -0.036 A 
ATOM     41  H   UNL A   1      47.214  23.902  25.726  1.00  0.00     0.065 H 
ATOM     42  C   UNL A   1      48.015  26.999  26.443  1.00  0.00     0.049 A 
ATOM     43  H   UNL A   1      46.192  27.647  27.213  1.00  0.00     0.167 HD
ATOM     44  C   UNL A   1      42.187  28.952  28.440  1.00  0.00     0.037 A 
ATOM     45  H   UNL A   1      40.770  26.554  28.031  1.00  0.00     0.065 H 
ATOM     46  H   UNL A   1      49.306  25.341  25.716  1.00  0.00     0.065 H 
ATOM     47  C   UNL A   1      48.843  28.061  26.424  1.00  0.00     0.037 A 
ATOM     48  C   UNL A   1      43.030  30.113  28.574  1.00  0.00     0.049 A 
ATOM     49  C   UNL A   1      48.334  29.394  26.890  1.00  0.00     0.074 A 
ATOM     50  C   UNL A   1      42.704  31.364  29.066  1.00  0.00    -0.036 A 
ATOM     51  N   UNL A   1      44.366  30.168  28.198  1.00  0.00    -0.354 N 
ATOM     52  N   UNL A   1      47.138  29.716  27.317  1.00  0.00    -0.248 NA
ATOM     53  C   UNL A   1      49.288  30.511  26.874  1.00  0.00    -0.034 C 
ATOM     54  C   UNL A   1      43.822  32.194  28.928  1.00  0.00    -0.036 A 
ATOM     55  H   UNL A   1      41.794  31.639  29.467  1.00  0.00     0.065 H 
ATOM     56  C   UNL A   1      44.868  31.442  28.417  1.00  0.00     0.049 A 
ATOM     57  H   UNL A   1      44.881  29.415  27.830  1.00  0.00     0.167 HD
ATOM     58  C   UNL A   1      47.200  31.062  27.650  1.00  0.00     0.074 A 
ATOM     59  C   UNL A   1      48.554  31.497  27.374  1.00  0.00    -0.034 C 
ATOM     60  H   UNL A   1      50.270  30.524  26.557  1.00  0.00     0.065 H 
ATOM     61  H   UNL A   1      43.861  33.198  29.165  1.00  0.00     0.065 H 
ATOM     62  C   UNL A   1      46.223  31.859  28.148  1.00  0.00     0.037 A 
ATOM     63  H   UNL A   1      48.904  32.452  27.545  1.00  0.00     0.065 H 
BRANCH  44  64
ATOM     64  C   UNL A   1      40.729  29.080  28.787  1.00  0.00     0.064 A 
ATOM     65  C   UNL A   1      39.744  29.275  27.807  1.00  0.00     0.173 A 
ATOM     66  C   UNL A   1      40.312  28.996  30.125  1.00  0.00     0.173 A 
ATOM     67  F   UNL A   1      40.087  29.368  26.514  1.00  0.00    -0.203 F 
ATOM     68  C   UNL A   1      38.404  29.426  28.156  1.00  0.00     0.198 A 
ATOM     69  C   UNL A   1      38.967  29.111  30.467  1.00  0.00     0.198 A 
ATOM     70  F   UNL A   1      41.207  28.797  31.103  1.00  0.00    -0.203 F 
ATOM     71  F   UNL A   1      37.490  29.675  27.208  1.00  0.00    -0.200 F 
ATOM     72  C   UNL A   1      38.016  29.340  29.484  1.00  0.00     0.200 A 
ATOM     73  F   UNL A   1      38.592  29.009  31.750  1.00  0.00    -0.200 F 
ATOM     74  F   UNL A   1      36.726  29.484  29.819  1.00  0.00    -0.200 F 
ENDBRANCH  44  64
BRANCH  47  75
ATOM     75  C   UNL A   1      50.232  27.882  25.933  1.00  0.00     0.064 A 
ATOM     76  C   UNL A   1      50.512  27.826  24.562  1.00  0.00     0.173 A 
ATOM     77  C   UNL A   1      51.315  27.826  26.826  1.00  0.00     0.173 A 
ATOM     78  F   UNL A   1      49.509  27.862  23.672  1.00  0.00    -0.203 F 
ATOM     79  C   UNL A   1      51.823  27.718  24.102  1.00  0.00     0.198 A 
ATOM     80  C   UNL A   1      52.626  27.747  26.362  1.00  0.00     0.198 A 
ATOM     81  F   UNL A   1      51.098  27.886  28.148  1.00  0.00    -0.203 F 
ATOM     82  F   UNL A   1      52.063  27.642  22.785  1.00  0.00    -0.200 F 
ATOM     83  C   UNL A   1      52.878  27.689  25.001  1.00  0.00     0.200 A 
ATOM     84  F   UNL A   1      53.643  27.742  27.235  1.00  0.00    -0.200 F 
ATOM     85  F   UNL A   1      54.139  27.607  24.555  1.00  0.00    -0.200 F 
ENDBRANCH  47  75
BRANCH  62  86
ATOM     86  C   UNL A   1      46.586  33.276  28.485  1.00  0.00     0.064 A 
ATOM     87  C   UNL A   1      46.346  34.335  27.598  1.00  0.00     0.173 A 
ATOM     88  C   UNL A   1      47.110  33.585  29.750  1.00  0.00     0.173 A 
ATOM     89  F   UNL A   1      45.863  34.091  26.370  1.00  0.00    -0.203 F 
ATOM     90  C   UNL A   1      46.624  35.650  27.962  1.00  0.00     0.198 A 
ATOM     91  C   UNL A   1      47.358  34.903  30.122  1.00  0.00     0.198 A 
ATOM     92  F   UNL A   1      47.355  32.608  30.636  1.00  0.00    -0.203 F 
ATOM     93  F   UNL A   1      46.416  36.644  27.088  1.00  0.00    -0.200 F 
ATOM     94  C   UNL A   1      47.117  35.933  29.227  1.00  0.00     0.200 A 
ATOM     95  F   UNL A   1      47.821  35.174  31.350  1.00  0.00    -0.200 F 
ATOM     96  F   UNL A   1      47.363  37.202  29.584  1.00  0.00    -0.200 F 
ENDBRANCH  62  86
ENDBRANCH  27  30
ENDBRANCH  18  20
ENDBRANCH  13  16
ENDBRANCH  10  13
ENDBRANCH   7  10
ENDBRANCH   4   7
ENDBRANCH   1   4
BRANCH   1  97
ATOM     97  C   UNL A   1      36.160  22.045  24.708  1.00  0.00     0.018 C 
ATOM     98  H   UNL A   1      35.473  21.790  23.928  1.00  0.00     0.049 H 
ATOM     99  H   UNL A   1      36.500  23.055  24.616  1.00  0.00     0.049 H 
BRANCH  97 100
ATOM    100  N   UNL A   1      35.482  21.918  25.988  1.00  0.00    -0.352 N 
ATOM    101  C   UNL A   1      34.429  21.108  26.329  1.00  0.00     0.253 C 
ATOM    102  H   UNL A   1      35.825  22.495  26.708  1.00  0.00     0.163 HD
ATOM    103  O   UNL A   1      33.927  21.190  27.446  1.00  0.00    -0.269 OA
BRANCH 101 104
ATOM    104  C   UNL A   1      33.876  20.145  25.353  1.00  0.00     0.063 A 
ATOM    105  C   UNL A   1      34.699  19.065  25.002  1.00  0.00    -0.047 A 
ATOM    106  C   UNL A   1      32.604  20.305  24.771  1.00  0.00     0.054 A 
ATOM    107  C   UNL A   1      34.243  18.099  24.107  1.00  0.00    -0.061 A 
ATOM    108  H   UNL A   1      35.645  18.985  25.406  1.00  0.00     0.063 H 
ATOM    109  C   UNL A   1      32.151  19.290  23.911  1.00  0.00    -0.038 A 
ATOM    110  C   UNL A   1      32.963  18.205  23.573  1.00  0.00    -0.060 A 
ATOM    111  H   UNL A   1      34.852  17.309  23.841  1.00  0.00     0.062 H 
ATOM    112  H   UNL A   1      31.198  19.349  23.520  1.00  0.00     0.064 H 
ATOM    113  H   UNL A   1      32.613  17.480  22.928  1.00  0.00     0.062 H 
BRANCH 106 114
ATOM    114  N   UNL A   1      31.806  21.430  25.039  1.00  0.00    -0.323 N 
ATOM    115  H   UNL A   1      31.173  21.325  25.785  1.00  0.00     0.170 HD
BRANCH 114 116
ATOM    116  C   UNL A   1      31.780  22.667  24.410  1.00  0.00     0.233 A 
ATOM    117  N   UNL A   1      32.477  22.856  23.302  1.00  0.00    -0.182 NA
ATOM    118  N   UNL A   1      31.031  23.600  24.986  1.00  0.00    -0.176 NA
ATOM    119  C   UNL A   1      32.363  24.072  22.803  1.00  0.00     0.228 A 
ATOM    120  C   UNL A   1      31.059  24.810  24.433  1.00  0.00     0.233 A 
ATOM    121  Cl  UNL A   1      33.233  24.379  21.365  1.00  0.00    -0.041 Cl
ATOM    122  N   UNL A   1      31.688  25.088  23.304  1.00  0.00    -0.182 NA
BRANCH 120 123
ATOM    123  N   UNL A   1      30.486  25.828  25.190  1.00  0.00    -0.324 N 
ATOM    124  H   UNL A   1      29.565  25.666  25.497  1.00  0.00     0.170 HD
BRANCH 123 125
ATOM    125  C   UNL A   1      31.045  27.049  25.571  1.00  0.00     0.041 A 
ATOM    126  C   UNL A   1      31.075  28.112  24.663  1.00  0.00    -0.036 A 
ATOM    127  C   UNL A   1      31.480  27.276  26.878  1.00  0.00    -0.036 A 
ATOM    128  C   UNL A   1      31.524  29.380  25.056  1.00  0.00    -0.036 A 
ATOM    129  H   UNL A   1      30.764  27.962  23.691  1.00  0.00     0.065 H 
ATOM    130  C   UNL A   1      31.985  28.522  27.257  1.00  0.00    -0.036 A 
ATOM    131  H   UNL A   1      31.430  26.514  27.572  1.00  0.00     0.065 H 
ATOM    132  C   UNL A   1      31.998  29.589  26.354  1.00  0.00     0.044 A 
ATOM    133  H   UNL A   1      31.504  30.162  24.383  1.00  0.00     0.065 H 
ATOM    134  H   UNL A   1      32.350  28.655  28.213  1.00  0.00     0.065 H 
BRANCH 132 135
ATOM    135  N   UNL A   1      32.446  30.876  26.769  1.00  0.00    -0.308 N 
ATOM    136  C   UNL A   1      31.452  31.956  26.764  1.00  0.00     0.049 C 
ATOM    137  C   UNL A   1      33.656  31.020  27.457  1.00  0.00     0.253 C 
ATOM    138  C   UNL A   1      32.058  33.335  26.991  1.00  0.00     0.065 C 
ATOM    139  H   UNL A   1      30.740  31.766  27.539  1.00  0.00     0.052 H 
ATOM    140  H   UNL A   1      30.999  31.965  25.794  1.00  0.00     0.052 H 
ATOM    141  C   UNL A   1      33.952  32.430  27.992  1.00  0.00     0.126 C 
ATOM    142  O   UNL A   1      34.508  30.135  27.565  1.00  0.00    -0.272 OA
ATOM    143  O   UNL A   1      32.857  33.314  28.170  1.00  0.00    -0.370 OA
ATOM    144  H   UNL A   1      31.273  34.054  27.105  1.00  0.00     0.059 H 
ATOM    145  H   UNL A   1      32.667  33.600  26.153  1.00  0.00     0.059 H 
ATOM    146  H   UNL A   1      34.429  32.316  28.944  1.00  0.00     0.067 H 
ATOM    147  H   UNL A   1      34.547  32.888  27.230  1.00  0.00     0.067 H 
ENDBRANCH 132 135
ENDBRANCH 123 125
ENDBRANCH 120 123
ENDBRANCH 114 116
ENDBRANCH 106 114
ENDBRANCH 101 104
ENDBRANCH  97 100
ENDBRANCH   1  97
TORSDOF 18
ENDMDL
MODEL 9
REMARK VINA RESULT:     -11.5      5.376     12.373
REMARK SMILES O=C(NCCCCCCNC(=O)c1ccccc1Nc1nc(Cl)nc(Nc2ccc(N3CCOCC3=O)cc2)n1)c1ccc(-c2c3nc(c(-c4c(F)c(F)c(F)c(F)c4F)c4ccc([nH]4)c(-c4c(F)c(F)c(F)c(F)c4F)c4nc(c(-c5c(F)c(F)c(F)c(F)c5F)c5ccc2[nH]5)C=C4)C=C3)cc1
REMARK SMILES IDX 8 1 7 4 6 7 5 10 4 13 3 16 1 17 2 18 41 20 42 21 103 22
REMARK SMILES IDX 43 23 102 25 44 27 45 30 46 31 96 32 47 33 101 34 95 35
REMARK SMILES IDX 97 36 48 37 100 38 94 40 93 42 49 44 81 47 61 48 80 49 62 50
REMARK SMILES IDX 65 51 79 52 98 53 63 54 64 56 78 58 99 59 66 62 50 64 51 65
REMARK SMILES IDX 59 66 52 67 53 68 57 69 60 70 54 71 55 72 58 73 56 74 82 75
REMARK SMILES IDX 83 76 91 77 84 78 85 79 89 80 92 81 86 82 87 83 90 84 88 85
REMARK SMILES IDX 67 86 68 87 76 88 69 89 70 90 74 91 77 92 71 93 72 94 75 95
REMARK SMILES IDX 73 96 9 97 10 100 11 101 12 103 13 104 14 105 18 106 15 107
REMARK SMILES IDX 17 109 16 110 19 114 20 116 21 117 40 118 22 119 25 120
REMARK SMILES IDX 23 121 24 122 26 123 27 125 28 126 39 127 29 128 38 130
REMARK SMILES IDX 30 132 31 135 32 136 36 137 33 138 35 141 37 142 34 143
REMARK H PARENT 8 2 8 3 7 5 7 6 6 8 6 9 5 11 5 12 4 14 4 15 3 19 42 24 103 26
REMARK H PARENT 43 28 102 29 101 39 95 41 97 43 100 45 94 46 62 55 65 57 98 60
REMARK H PARENT 63 61 99 63 9 98 9 99 10 102 14 108 15 111 17 112 16 113
REMARK H PARENT 19 115 26 124 28 129 39 131 29 133 38 134 32 139 32 140 33 144
REMARK H PARENT 33 145 35 146 35 147
REMARK Flexibility Score: inf
ROOT
ATOM      1  C   UNL A   1      44.472  24.026  30.411  1.00  0.00    -0.036 C 
ATOM      2  H   UNL A   1      44.937  23.062  30.432  1.00  0.00     0.028 H 
ATOM      3  H   UNL A   1      45.101  24.796  30.018  1.00  0.00     0.028 H 
ENDROOT
BRANCH   1   4
ATOM      4  C   UNL A   1      44.156  24.431  31.855  1.00  0.00    -0.052 C 
ATOM      5  H   UNL A   1      44.465  25.447  31.987  1.00  0.00     0.027 H 
ATOM      6  H   UNL A   1      43.104  24.278  31.977  1.00  0.00     0.027 H 
BRANCH   4   7
ATOM      7  C   UNL A   1      44.829  23.590  32.944  1.00  0.00    -0.052 C 
ATOM      8  H   UNL A   1      45.281  22.742  32.474  1.00  0.00     0.027 H 
ATOM      9  H   UNL A   1      45.529  24.240  33.427  1.00  0.00     0.027 H 
BRANCH   7  10
ATOM     10  C   UNL A   1      43.902  23.078  34.049  1.00  0.00    -0.036 C 
ATOM     11  H   UNL A   1      42.901  23.364  33.800  1.00  0.00     0.028 H 
ATOM     12  H   UNL A   1      44.044  22.019  34.091  1.00  0.00     0.028 H 
BRANCH  10  13
ATOM     13  C   UNL A   1      44.211  23.605  35.445  1.00  0.00     0.018 C 
ATOM     14  H   UNL A   1      44.905  22.941  35.917  1.00  0.00     0.049 H 
ATOM     15  H   UNL A   1      44.617  24.589  35.340  1.00  0.00     0.049 H 
BRANCH  13  16
ATOM     16  N   UNL A   1      43.022  23.703  36.277  1.00  0.00    -0.352 N 
ATOM     17  O   UNL A   1      41.296  24.718  37.315  1.00  0.00    -0.269 OA
ATOM     18  C   UNL A   1      42.155  24.751  36.434  1.00  0.00     0.251 C 
ATOM     19  H   UNL A   1      42.810  22.899  36.803  1.00  0.00     0.163 HD
BRANCH  18  20
ATOM     20  C   UNL A   1      42.260  25.936  35.560  1.00  0.00     0.039 A 
ATOM     21  C   UNL A   1      41.154  26.399  34.838  1.00  0.00    -0.049 A 
ATOM     22  C   UNL A   1      43.481  26.610  35.485  1.00  0.00    -0.049 A 
ATOM     23  C   UNL A   1      41.299  27.465  33.955  1.00  0.00    -0.053 A 
ATOM     24  H   UNL A   1      40.233  25.949  34.959  1.00  0.00     0.063 H 
ATOM     25  C   UNL A   1      43.605  27.723  34.654  1.00  0.00    -0.053 A 
ATOM     26  H   UNL A   1      44.287  26.287  36.042  1.00  0.00     0.063 H 
ATOM     27  C   UNL A   1      42.522  28.146  33.865  1.00  0.00    -0.014 A 
ATOM     28  H   UNL A   1      40.504  27.756  33.365  1.00  0.00     0.063 H 
ATOM     29  H   UNL A   1      44.499  28.240  34.617  1.00  0.00     0.063 H 
BRANCH  27  30
ATOM     30  C   UNL A   1      42.661  29.333  32.989  1.00  0.00     0.031 A 
ATOM     31  C   UNL A   1      43.107  29.183  31.564  1.00  0.00     0.074 A 
ATOM     32  C   UNL A   1      42.432  30.556  33.502  1.00  0.00     0.049 A 
ATOM     33  N   UNL A   1      43.398  30.108  30.686  1.00  0.00    -0.248 NA
ATOM     34  C   UNL A   1      43.257  27.809  31.065  1.00  0.00    -0.034 C 
ATOM     35  C   UNL A   1      41.995  30.823  34.873  1.00  0.00    -0.036 A 
ATOM     36  N   UNL A   1      42.556  31.801  32.941  1.00  0.00    -0.354 N 
ATOM     37  C   UNL A   1      43.792  29.431  29.539  1.00  0.00     0.074 A 
ATOM     38  C   UNL A   1      43.725  28.016  29.843  1.00  0.00    -0.034 C 
ATOM     39  H   UNL A   1      43.052  26.916  31.541  1.00  0.00     0.065 H 
ATOM     40  C   UNL A   1      41.889  32.147  35.048  1.00  0.00    -0.036 A 
ATOM     41  H   UNL A   1      41.800  30.106  35.589  1.00  0.00     0.065 H 
ATOM     42  C   UNL A   1      42.311  32.823  33.825  1.00  0.00     0.049 A 
ATOM     43  H   UNL A   1      42.796  31.948  31.998  1.00  0.00     0.167 HD
ATOM     44  C   UNL A   1      44.171  29.947  28.344  1.00  0.00     0.037 A 
ATOM     45  H   UNL A   1      44.005  27.267  29.191  1.00  0.00     0.065 H 
ATOM     46  H   UNL A   1      41.561  32.615  35.908  1.00  0.00     0.065 H 
ATOM     47  C   UNL A   1      42.453  34.154  33.684  1.00  0.00     0.037 A 
ATOM     48  C   UNL A   1      44.232  31.358  28.058  1.00  0.00     0.049 A 
ATOM     49  C   UNL A   1      42.919  34.704  32.367  1.00  0.00     0.074 A 
ATOM     50  C   UNL A   1      44.562  31.985  26.870  1.00  0.00    -0.036 A 
ATOM     51  N   UNL A   1      43.972  32.364  28.981  1.00  0.00    -0.354 N 
ATOM     52  N   UNL A   1      43.252  34.060  31.276  1.00  0.00    -0.248 NA
ATOM     53  C   UNL A   1      43.029  36.165  32.260  1.00  0.00    -0.034 C 
ATOM     54  C   UNL A   1      44.565  33.366  27.090  1.00  0.00    -0.036 A 
ATOM     55  H   UNL A   1      44.769  31.514  25.975  1.00  0.00     0.065 H 
ATOM     56  C   UNL A   1      44.167  33.605  28.396  1.00  0.00     0.049 A 
ATOM     57  H   UNL A   1      43.691  32.217  29.912  1.00  0.00     0.167 HD
ATOM     58  C   UNL A   1      43.581  35.033  30.343  1.00  0.00     0.074 A 
ATOM     59  C   UNL A   1      43.408  36.313  30.997  1.00  0.00    -0.034 C 
ATOM     60  H   UNL A   1      42.857  36.886  32.979  1.00  0.00     0.065 H 
ATOM     61  H   UNL A   1      44.822  34.086  26.396  1.00  0.00     0.065 H 
ATOM     62  C   UNL A   1      43.980  34.874  29.056  1.00  0.00     0.037 A 
ATOM     63  H   UNL A   1      43.561  37.226  30.540  1.00  0.00     0.065 H 
BRANCH  44  64
ATOM     64  C   UNL A   1      44.589  28.979  27.272  1.00  0.00     0.064 A 
ATOM     65  C   UNL A   1      45.928  28.602  27.090  1.00  0.00     0.173 A 
ATOM     66  C   UNL A   1      43.630  28.412  26.418  1.00  0.00     0.173 A 
ATOM     67  F   UNL A   1      46.888  29.117  27.874  1.00  0.00    -0.203 F 
ATOM     68  C   UNL A   1      46.297  27.731  26.067  1.00  0.00     0.198 A 
ATOM     69  C   UNL A   1      43.997  27.513  25.420  1.00  0.00     0.198 A 
ATOM     70  F   UNL A   1      42.333  28.724  26.554  1.00  0.00    -0.203 F 
ATOM     71  F   UNL A   1      47.590  27.437  25.873  1.00  0.00    -0.200 F 
ATOM     72  C   UNL A   1      45.332  27.184  25.236  1.00  0.00     0.200 A 
ATOM     73  F   UNL A   1      43.059  26.972  24.629  1.00  0.00    -0.200 F 
ATOM     74  F   UNL A   1      45.687  26.345  24.252  1.00  0.00    -0.200 F 
ENDBRANCH  44  64
BRANCH  47  75
ATOM     75  C   UNL A   1      42.152  35.037  34.838  1.00  0.00     0.064 A 
ATOM     76  C   UNL A   1      40.833  35.357  35.179  1.00  0.00     0.173 A 
ATOM     77  C   UNL A   1      43.179  35.531  35.660  1.00  0.00     0.173 A 
ATOM     78  F   UNL A   1      39.819  34.920  34.415  1.00  0.00    -0.203 F 
ATOM     79  C   UNL A   1      40.549  36.138  36.297  1.00  0.00     0.198 A 
ATOM     80  C   UNL A   1      42.892  36.287  36.793  1.00  0.00     0.198 A 
ATOM     81  F   UNL A   1      44.459  35.245  35.379  1.00  0.00    -0.203 F 
ATOM     82  F   UNL A   1      39.278  36.449  36.588  1.00  0.00    -0.200 F 
ATOM     83  C   UNL A   1      41.578  36.593  37.108  1.00  0.00     0.200 A 
ATOM     84  F   UNL A   1      43.888  36.707  37.585  1.00  0.00    -0.200 F 
ATOM     85  F   UNL A   1      41.302  37.326  38.195  1.00  0.00    -0.200 F 
ENDBRANCH  47  75
BRANCH  62  86
ATOM     86  C   UNL A   1      44.209  36.115  28.242  1.00  0.00     0.064 A 
ATOM     87  C   UNL A   1      43.150  36.827  27.661  1.00  0.00     0.173 A 
ATOM     88  C   UNL A   1      45.505  36.639  28.110  1.00  0.00     0.173 A 
ATOM     89  F   UNL A   1      41.895  36.358  27.743  1.00  0.00    -0.203 F 
ATOM     90  C   UNL A   1      43.381  38.015  26.972  1.00  0.00     0.198 A 
ATOM     91  C   UNL A   1      45.728  37.842  27.447  1.00  0.00     0.198 A 
ATOM     92  F   UNL A   1      46.551  35.997  28.651  1.00  0.00    -0.203 F 
ATOM     93  F   UNL A   1      42.359  38.664  26.398  1.00  0.00    -0.200 F 
ATOM     94  C   UNL A   1      44.667  38.527  26.877  1.00  0.00     0.200 A 
ATOM     95  F   UNL A   1      46.969  38.342  27.370  1.00  0.00    -0.200 F 
ATOM     96  F   UNL A   1      44.884  39.682  26.233  1.00  0.00    -0.200 F 
ENDBRANCH  62  86
ENDBRANCH  27  30
ENDBRANCH  18  20
ENDBRANCH  13  16
ENDBRANCH  10  13
ENDBRANCH   7  10
ENDBRANCH   4   7
ENDBRANCH   1   4
BRANCH   1  97
ATOM     97  C   UNL A   1      43.265  23.947  29.478  1.00  0.00     0.018 C 
ATOM     98  H   UNL A   1      43.534  24.369  28.532  1.00  0.00     0.049 H 
ATOM     99  H   UNL A   1      42.464  24.489  29.935  1.00  0.00     0.049 H 
BRANCH  97 100
ATOM    100  N   UNL A   1      42.817  22.580  29.270  1.00  0.00    -0.352 N 
ATOM    101  C   UNL A   1      42.848  21.828  28.123  1.00  0.00     0.253 C 
ATOM    102  H   UNL A   1      42.440  22.133  30.061  1.00  0.00     0.163 HD
ATOM    103  O   UNL A   1      42.349  20.707  28.110  1.00  0.00    -0.269 OA
BRANCH 101 104
ATOM    104  C   UNL A   1      43.460  22.366  26.889  1.00  0.00     0.063 A 
ATOM    105  C   UNL A   1      44.839  22.614  26.930  1.00  0.00    -0.047 A 
ATOM    106  C   UNL A   1      42.707  22.650  25.734  1.00  0.00     0.054 A 
ATOM    107  C   UNL A   1      45.498  23.098  25.800  1.00  0.00    -0.061 A 
ATOM    108  H   UNL A   1      45.369  22.439  27.798  1.00  0.00     0.063 H 
ATOM    109  C   UNL A   1      43.404  23.090  24.596  1.00  0.00    -0.038 A 
ATOM    110  C   UNL A   1      44.781  23.322  24.630  1.00  0.00    -0.060 A 
ATOM    111  H   UNL A   1      46.511  23.290  25.833  1.00  0.00     0.062 H 
ATOM    112  H   UNL A   1      42.888  23.245  23.716  1.00  0.00     0.064 H 
ATOM    113  H   UNL A   1      45.268  23.658  23.784  1.00  0.00     0.062 H 
BRANCH 106 114
ATOM    114  N   UNL A   1      41.310  22.498  25.707  1.00  0.00    -0.323 N 
ATOM    115  H   UNL A   1      40.990  21.646  25.333  1.00  0.00     0.170 HD
BRANCH 114 116
ATOM    116  C   UNL A   1      40.315  23.368  26.131  1.00  0.00     0.233 A 
ATOM    117  N   UNL A   1      39.048  22.996  26.070  1.00  0.00    -0.182 NA
ATOM    118  N   UNL A   1      40.723  24.549  26.581  1.00  0.00    -0.176 NA
ATOM    119  C   UNL A   1      38.203  23.911  26.506  1.00  0.00     0.228 A 
ATOM    120  C   UNL A   1      39.774  25.417  26.919  1.00  0.00     0.233 A 
ATOM    121  Cl  UNL A   1      36.548  23.489  26.463  1.00  0.00    -0.041 Cl
ATOM    122  N   UNL A   1      38.484  25.126  26.936  1.00  0.00    -0.182 NA
BRANCH 120 123
ATOM    123  N   UNL A   1      40.205  26.723  27.136  1.00  0.00    -0.324 N 
ATOM    124  H   UNL A   1      40.849  27.075  26.479  1.00  0.00     0.170 HD
BRANCH 123 125
ATOM    125  C   UNL A   1      39.845  27.599  28.160  1.00  0.00     0.041 A 
ATOM    126  C   UNL A   1      39.371  28.877  27.846  1.00  0.00    -0.036 A 
ATOM    127  C   UNL A   1      39.841  27.198  29.497  1.00  0.00    -0.036 A 
ATOM    128  C   UNL A   1      38.896  29.733  28.847  1.00  0.00    -0.036 A 
ATOM    129  H   UNL A   1      39.372  29.194  26.864  1.00  0.00     0.065 H 
ATOM    130  C   UNL A   1      39.425  28.069  30.505  1.00  0.00    -0.036 A 
ATOM    131  H   UNL A   1      40.152  26.245  29.744  1.00  0.00     0.065 H 
ATOM    132  C   UNL A   1      38.935  29.340  30.188  1.00  0.00     0.044 A 
ATOM    133  H   UNL A   1      38.514  30.658  28.593  1.00  0.00     0.065 H 
ATOM    134  H   UNL A   1      39.478  27.773  31.492  1.00  0.00     0.065 H 
BRANCH 132 135
ATOM    135  N   UNL A   1      38.442  30.197  31.214  1.00  0.00    -0.308 N 
ATOM    136  C   UNL A   1      39.313  31.305  31.625  1.00  0.00     0.049 C 
ATOM    137  C   UNL A   1      37.086  30.186  31.559  1.00  0.00     0.253 C 
ATOM    138  C   UNL A   1      38.822  32.026  32.875  1.00  0.00     0.065 C 
ATOM    139  H   UNL A   1      39.364  32.012  30.824  1.00  0.00     0.052 H 
ATOM    140  H   UNL A   1      40.270  30.886  31.857  1.00  0.00     0.052 H 
ATOM    141  C   UNL A   1      36.647  31.264  32.562  1.00  0.00     0.126 C 
ATOM    142  O   UNL A   1      36.279  29.328  31.193  1.00  0.00    -0.272 OA
ATOM    143  O   UNL A   1      37.464  32.416  32.695  1.00  0.00    -0.370 OA
ATOM    144  H   UNL A   1      39.424  32.895  33.044  1.00  0.00     0.059 H 
ATOM    145  H   UNL A   1      38.896  31.371  33.717  1.00  0.00     0.059 H 
ATOM    146  H   UNL A   1      35.672  31.596  32.266  1.00  0.00     0.067 H 
ATOM    147  H   UNL A   1      36.702  30.784  33.516  1.00  0.00     0.067 H 
ENDBRANCH 132 135
ENDBRANCH 123 125
ENDBRANCH 120 123
ENDBRANCH 114 116
ENDBRANCH 106 114
ENDBRANCH 101 104
ENDBRANCH  97 100
ENDBRANCH   1  97
TORSDOF 18
ENDMDL
MODEL 10
REMARK VINA RESULT:     -11.4      7.487     11.967
REMARK SMILES O=C(NCCCCCCNC(=O)c1ccccc1Nc1nc(Cl)nc(Nc2ccc(N3CCOCC3=O)cc2)n1)c1ccc(-c2c3nc(c(-c4c(F)c(F)c(F)c(F)c4F)c4ccc([nH]4)c(-c4c(F)c(F)c(F)c(F)c4F)c4nc(c(-c5c(F)c(F)c(F)c(F)c5F)c5ccc2[nH]5)C=C4)C=C3)cc1
REMARK SMILES IDX 8 1 7 4 6 7 5 10 4 13 3 16 1 17 2 18 41 20 42 21 103 22
REMARK SMILES IDX 43 23 102 25 44 27 45 30 46 31 96 32 47 33 101 34 95 35
REMARK SMILES IDX 97 36 48 37 100 38 94 40 93 42 49 44 81 47 61 48 80 49 62 50
REMARK SMILES IDX 65 51 79 52 98 53 63 54 64 56 78 58 99 59 66 62 50 64 51 65
REMARK SMILES IDX 59 66 52 67 53 68 57 69 60 70 54 71 55 72 58 73 56 74 82 75
REMARK SMILES IDX 83 76 91 77 84 78 85 79 89 80 92 81 86 82 87 83 90 84 88 85
REMARK SMILES IDX 67 86 68 87 76 88 69 89 70 90 74 91 77 92 71 93 72 94 75 95
REMARK SMILES IDX 73 96 9 97 10 100 11 101 12 103 13 104 14 105 18 106 15 107
REMARK SMILES IDX 17 109 16 110 19 114 20 116 21 117 40 118 22 119 25 120
REMARK SMILES IDX 23 121 24 122 26 123 27 125 28 126 39 127 29 128 38 130
REMARK SMILES IDX 30 132 31 135 32 136 36 137 33 138 35 141 37 142 34 143
REMARK H PARENT 8 2 8 3 7 5 7 6 6 8 6 9 5 11 5 12 4 14 4 15 3 19 42 24 103 26
REMARK H PARENT 43 28 102 29 101 39 95 41 97 43 100 45 94 46 62 55 65 57 98 60
REMARK H PARENT 63 61 99 63 9 98 9 99 10 102 14 108 15 111 17 112 16 113
REMARK H PARENT 19 115 26 124 28 129 39 131 29 133 38 134 32 139 32 140 33 144
REMARK H PARENT 33 145 35 146 35 147
REMARK Flexibility Score: inf
ROOT
ATOM      1  C   UNL A   1      41.208  28.998  29.952  1.00  0.00    -0.036 C 
ATOM      2  H   UNL A   1      40.660  29.575  29.236  1.00  0.00     0.028 H 
ATOM      3  H   UNL A   1      42.251  29.231  29.982  1.00  0.00     0.028 H 
ENDROOT
BRANCH   1   4
ATOM      4  C   UNL A   1      41.113  27.523  29.543  1.00  0.00    -0.052 C 
ATOM      5  H   UNL A   1      42.103  27.116  29.551  1.00  0.00     0.027 H 
ATOM      6  H   UNL A   1      40.450  27.068  30.248  1.00  0.00     0.027 H 
BRANCH   4   7
ATOM      7  C   UNL A   1      40.505  27.253  28.163  1.00  0.00    -0.052 C 
ATOM      8  H   UNL A   1      39.752  27.992  27.984  1.00  0.00     0.027 H 
ATOM      9  H   UNL A   1      41.320  27.291  27.471  1.00  0.00     0.027 H 
BRANCH   7  10
ATOM     10  C   UNL A   1      39.866  25.875  27.984  1.00  0.00    -0.036 C 
ATOM     11  H   UNL A   1      40.413  25.175  28.580  1.00  0.00     0.028 H 
ATOM     12  H   UNL A   1      38.843  25.979  28.280  1.00  0.00     0.028 H 
BRANCH  10  13
ATOM     13  C   UNL A   1      39.842  25.357  26.550  1.00  0.00     0.018 C 
ATOM     14  H   UNL A   1      38.824  25.276  26.231  1.00  0.00     0.049 H 
ATOM     15  H   UNL A   1      40.390  26.049  25.945  1.00  0.00     0.049 H 
BRANCH  13  16
ATOM     16  N   UNL A   1      40.476  24.056  26.419  1.00  0.00    -0.352 N 
ATOM     17  O   UNL A   1      42.144  22.593  26.011  1.00  0.00    -0.269 OA
ATOM     18  C   UNL A   1      41.803  23.744  26.283  1.00  0.00     0.251 C 
ATOM     19  H   UNL A   1      39.862  23.286  26.431  1.00  0.00     0.163 HD
BRANCH  18  20
ATOM     20  C   UNL A   1      42.829  24.793  26.441  1.00  0.00     0.039 A 
ATOM     21  C   UNL A   1      43.443  25.020  27.678  1.00  0.00    -0.049 A 
ATOM     22  C   UNL A   1      43.202  25.543  25.323  1.00  0.00    -0.049 A 
ATOM     23  C   UNL A   1      44.344  26.070  27.823  1.00  0.00    -0.053 A 
ATOM     24  H   UNL A   1      43.226  24.410  28.482  1.00  0.00     0.063 H 
ATOM     25  C   UNL A   1      44.159  26.549  25.454  1.00  0.00    -0.053 A 
ATOM     26  H   UNL A   1      42.772  25.353  24.405  1.00  0.00     0.063 H 
ATOM     27  C   UNL A   1      44.721  26.835  26.710  1.00  0.00    -0.014 A 
ATOM     28  H   UNL A   1      44.737  26.286  28.752  1.00  0.00     0.063 H 
ATOM     29  H   UNL A   1      44.456  27.086  24.624  1.00  0.00     0.063 H 
BRANCH  27  30
ATOM     30  C   UNL A   1      45.742  27.901  26.839  1.00  0.00     0.031 A 
ATOM     31  C   UNL A   1      45.335  29.321  27.101  1.00  0.00     0.074 A 
ATOM     32  C   UNL A   1      47.041  27.590  26.667  1.00  0.00     0.049 A 
ATOM     33  N   UNL A   1      46.071  30.403  27.127  1.00  0.00    -0.248 NA
ATOM     34  C   UNL A   1      43.906  29.558  27.355  1.00  0.00    -0.034 C 
ATOM     35  C   UNL A   1      47.554  26.244  26.407  1.00  0.00    -0.036 A 
ATOM     36  N   UNL A   1      48.159  28.382  26.661  1.00  0.00    -0.354 N 
ATOM     37  C   UNL A   1      45.195  31.452  27.374  1.00  0.00     0.074 A 
ATOM     38  C   UNL A   1      43.868  30.878  27.465  1.00  0.00    -0.034 C 
ATOM     39  H   UNL A   1      43.136  28.875  27.428  1.00  0.00     0.065 H 
ATOM     40  C   UNL A   1      48.885  26.304  26.265  1.00  0.00    -0.036 A 
ATOM     41  H   UNL A   1      46.982  25.388  26.343  1.00  0.00     0.065 H 
ATOM     42  C   UNL A   1      49.310  27.696  26.360  1.00  0.00     0.049 A 
ATOM     43  H   UNL A   1      48.140  29.347  26.854  1.00  0.00     0.167 HD
ATOM     44  C   UNL A   1      45.476  32.770  27.513  1.00  0.00     0.037 A 
ATOM     45  H   UNL A   1      43.004  31.426  27.597  1.00  0.00     0.065 H 
ATOM     46  H   UNL A   1      49.509  25.495  26.115  1.00  0.00     0.065 H 
ATOM     47  C   UNL A   1      50.561  28.142  26.140  1.00  0.00     0.037 A 
ATOM     48  C   UNL A   1      46.803  33.326  27.420  1.00  0.00     0.049 A 
ATOM     49  C   UNL A   1      50.845  29.612  26.253  1.00  0.00     0.074 A 
ATOM     50  C   UNL A   1      47.203  34.639  27.586  1.00  0.00    -0.036 A 
ATOM     51  N   UNL A   1      47.946  32.596  27.117  1.00  0.00    -0.354 N 
ATOM     52  N   UNL A   1      50.019  30.592  26.524  1.00  0.00    -0.248 NA
ATOM     53  C   UNL A   1      52.233  30.039  26.030  1.00  0.00    -0.034 C 
ATOM     54  C   UNL A   1      48.574  34.716  27.321  1.00  0.00    -0.036 A 
ATOM     55  H   UNL A   1      46.595  35.427  27.860  1.00  0.00     0.065 H 
ATOM     56  C   UNL A   1      49.045  33.439  27.060  1.00  0.00     0.049 A 
ATOM     57  H   UNL A   1      47.972  31.624  26.965  1.00  0.00     0.167 HD
ATOM     58  C   UNL A   1      50.788  31.748  26.536  1.00  0.00     0.074 A 
ATOM     59  C   UNL A   1      52.148  31.346  26.243  1.00  0.00    -0.034 C 
ATOM     60  H   UNL A   1      53.056  29.472  25.775  1.00  0.00     0.065 H 
ATOM     61  H   UNL A   1      49.140  35.580  27.319  1.00  0.00     0.065 H 
ATOM     62  C   UNL A   1      50.397  33.024  26.778  1.00  0.00     0.037 A 
ATOM     63  H   UNL A   1      52.950  31.994  26.205  1.00  0.00     0.065 H 
BRANCH  44  64
ATOM     64  C   UNL A   1      44.321  33.706  27.738  1.00  0.00     0.064 A 
ATOM     65  C   UNL A   1      43.780  34.485  26.704  1.00  0.00     0.173 A 
ATOM     66  C   UNL A   1      43.740  33.818  29.011  1.00  0.00     0.173 A 
ATOM     67  F   UNL A   1      44.301  34.422  25.468  1.00  0.00    -0.203 F 
ATOM     68  C   UNL A   1      42.733  35.372  26.944  1.00  0.00     0.198 A 
ATOM     69  C   UNL A   1      42.669  34.679  29.240  1.00  0.00     0.198 A 
ATOM     70  F   UNL A   1      44.206  33.089  30.035  1.00  0.00    -0.203 F 
ATOM     71  F   UNL A   1      42.277  36.151  25.953  1.00  0.00    -0.200 F 
ATOM     72  C   UNL A   1      42.176  35.466  28.209  1.00  0.00     0.200 A 
ATOM     73  F   UNL A   1      42.120  34.754  30.461  1.00  0.00    -0.200 F 
ATOM     74  F   UNL A   1      41.168  36.319  28.440  1.00  0.00    -0.200 F 
ENDBRANCH  44  64
BRANCH  47  75
ATOM     75  C   UNL A   1      51.621  27.167  25.784  1.00  0.00     0.064 A 
ATOM     76  C   UNL A   1      51.923  26.884  24.446  1.00  0.00     0.173 A 
ATOM     77  C   UNL A   1      52.395  26.542  26.776  1.00  0.00     0.173 A 
ATOM     78  F   UNL A   1      51.202  27.446  23.465  1.00  0.00    -0.203 F 
ATOM     79  C   UNL A   1      52.958  26.013  24.113  1.00  0.00     0.198 A 
ATOM     80  C   UNL A   1      53.448  25.695  26.440  1.00  0.00     0.198 A 
ATOM     81  F   UNL A   1      52.151  26.788  28.071  1.00  0.00    -0.203 F 
ATOM     82  F   UNL A   1      53.212  25.741  22.825  1.00  0.00    -0.200 F 
ATOM     83  C   UNL A   1      53.726  25.428  25.109  1.00  0.00     0.200 A 
ATOM     84  F   UNL A   1      54.200  25.148  27.405  1.00  0.00    -0.200 F 
ATOM     85  F   UNL A   1      54.734  24.607  24.785  1.00  0.00    -0.200 F 
ENDBRANCH  47  75
BRANCH  62  86
ATOM     86  C   UNL A   1      51.461  34.084  26.794  1.00  0.00     0.064 A 
ATOM     87  C   UNL A   1      52.198  34.378  27.949  1.00  0.00     0.173 A 
ATOM     88  C   UNL A   1      51.797  34.759  25.610  1.00  0.00     0.173 A 
ATOM     89  F   UNL A   1      51.904  33.774  29.111  1.00  0.00    -0.203 F 
ATOM     90  C   UNL A   1      53.229  35.314  27.920  1.00  0.00     0.198 A 
ATOM     91  C   UNL A   1      52.848  35.671  25.577  1.00  0.00     0.198 A 
ATOM     92  F   UNL A   1      51.123  34.511  24.476  1.00  0.00    -0.203 F 
ATOM     93  F   UNL A   1      53.902  35.604  29.042  1.00  0.00    -0.200 F 
ATOM     94  C   UNL A   1      53.560  35.949  26.732  1.00  0.00     0.200 A 
ATOM     95  F   UNL A   1      53.175  36.272  24.425  1.00  0.00    -0.200 F 
ATOM     96  F   UNL A   1      54.568  36.834  26.701  1.00  0.00    -0.200 F 
ENDBRANCH  62  86
ENDBRANCH  27  30
ENDBRANCH  18  20
ENDBRANCH  13  16
ENDBRANCH  10  13
ENDBRANCH   7  10
ENDBRANCH   4   7
ENDBRANCH   1   4
BRANCH   1  97
ATOM     97  C   UNL A   1      40.660  29.325  31.340  1.00  0.00     0.018 C 
ATOM     98  H   UNL A   1      40.379  30.357  31.364  1.00  0.00     0.049 H 
ATOM     99  H   UNL A   1      41.429  29.112  32.053  1.00  0.00     0.049 H 
BRANCH  97 100
ATOM    100  N   UNL A   1      39.501  28.517  31.680  1.00  0.00    -0.352 N 
ATOM    101  C   UNL A   1      38.541  28.745  32.633  1.00  0.00     0.253 C 
ATOM    102  H   UNL A   1      39.390  27.692  31.155  1.00  0.00     0.163 HD
ATOM    103  O   UNL A   1      37.668  27.907  32.840  1.00  0.00    -0.269 OA
BRANCH 101 104
ATOM    104  C   UNL A   1      38.560  29.987  33.435  1.00  0.00     0.063 A 
ATOM    105  C   UNL A   1      39.654  30.163  34.295  1.00  0.00    -0.047 A 
ATOM    106  C   UNL A   1      37.526  30.941  33.375  1.00  0.00     0.054 A 
ATOM    107  C   UNL A   1      39.760  31.319  35.066  1.00  0.00    -0.061 A 
ATOM    108  H   UNL A   1      40.383  29.435  34.356  1.00  0.00     0.063 H 
ATOM    109  C   UNL A   1      37.683  32.118  34.126  1.00  0.00    -0.038 A 
ATOM    110  C   UNL A   1      38.781  32.301  34.970  1.00  0.00    -0.060 A 
ATOM    111  H   UNL A   1      40.560  31.444  35.706  1.00  0.00     0.062 H 
ATOM    112  H   UNL A   1      36.973  32.862  34.053  1.00  0.00     0.064 H 
ATOM    113  H   UNL A   1      38.867  33.169  35.523  1.00  0.00     0.062 H 
BRANCH 106 114
ATOM    114  N   UNL A   1      36.377  30.736  32.592  1.00  0.00    -0.323 N 
ATOM    115  H   UNL A   1      35.875  29.915  32.794  1.00  0.00     0.170 HD
BRANCH 114 116
ATOM    116  C   UNL A   1      35.845  31.521  31.578  1.00  0.00     0.233 A 
ATOM    117  N   UNL A   1      35.184  32.626  31.882  1.00  0.00    -0.182 NA
ATOM    118  N   UNL A   1      36.045  31.092  30.338  1.00  0.00    -0.176 NA
ATOM    119  C   UNL A   1      34.733  33.282  30.829  1.00  0.00     0.228 A 
ATOM    120  C   UNL A   1      35.475  31.796  29.365  1.00  0.00     0.233 A 
ATOM    121  Cl  UNL A   1      33.878  34.725  31.152  1.00  0.00    -0.041 Cl
ATOM    122  N   UNL A   1      34.834  32.936  29.560  1.00  0.00    -0.182 NA
BRANCH 120 123
ATOM    123  N   UNL A   1      35.474  31.194  28.110  1.00  0.00    -0.324 N 
ATOM    124  H   UNL A   1      36.273  31.354  27.558  1.00  0.00     0.170 HD
BRANCH 123 125
ATOM    125  C   UNL A   1      34.489  30.391  27.530  1.00  0.00     0.041 A 
ATOM    126  C   UNL A   1      33.185  30.880  27.398  1.00  0.00    -0.036 A 
ATOM    127  C   UNL A   1      34.795  29.147  26.976  1.00  0.00    -0.036 A 
ATOM    128  C   UNL A   1      32.208  30.142  26.718  1.00  0.00    -0.036 A 
ATOM    129  H   UNL A   1      32.939  31.794  27.807  1.00  0.00     0.065 H 
ATOM    130  C   UNL A   1      33.809  28.382  26.350  1.00  0.00    -0.036 A 
ATOM    131  H   UNL A   1      35.760  28.788  27.031  1.00  0.00     0.065 H 
ATOM    132  C   UNL A   1      32.510  28.878  26.203  1.00  0.00     0.044 A 
ATOM    133  H   UNL A   1      31.261  30.534  26.597  1.00  0.00     0.065 H 
ATOM    134  H   UNL A   1      34.041  27.443  25.992  1.00  0.00     0.065 H 
BRANCH 132 135
ATOM    135  N   UNL A   1      31.528  28.124  25.498  1.00  0.00    -0.308 N 
ATOM    136  C   UNL A   1      31.321  28.463  24.086  1.00  0.00     0.049 C 
ATOM    137  C   UNL A   1      31.043  26.921  26.025  1.00  0.00     0.253 C 
ATOM    138  C   UNL A   1      30.104  27.780  23.473  1.00  0.00     0.065 C 
ATOM    139  H   UNL A   1      32.189  28.167  23.535  1.00  0.00     0.052 H 
ATOM    140  H   UNL A   1      31.151  29.518  24.034  1.00  0.00     0.052 H 
ATOM    141  C   UNL A   1      30.111  26.121  25.103  1.00  0.00     0.126 C 
ATOM    142  O   UNL A   1      31.236  26.537  27.181  1.00  0.00    -0.272 OA
ATOM    143  O   UNL A   1      30.178  26.377  23.709  1.00  0.00    -0.370 OA
ATOM    144  H   UNL A   1      30.086  27.964  22.419  1.00  0.00     0.059 H 
ATOM    145  H   UNL A   1      29.214  28.170  23.920  1.00  0.00     0.059 H 
ATOM    146  H   UNL A   1      30.334  25.083  25.247  1.00  0.00     0.067 H 
ATOM    147  H   UNL A   1      29.126  26.425  25.385  1.00  0.00     0.067 H 
ENDBRANCH 132 135
ENDBRANCH 123 125
ENDBRANCH 120 123
ENDBRANCH 114 116
ENDBRANCH 106 114
ENDBRANCH 101 104
ENDBRANCH  97 100
ENDBRANCH   1  97
TORSDOF 18
ENDMDL
