MODEL 1
REMARK VINA RESULT:     -12.5      0.000      0.000
REMARK SMILES O=C(Cc1cccn1-c1ccc2c(c1)OCCO2)NCCCCCCNC(=O)c1ccc(-c2c3nc(c(-c4c(F)c(F)c(F)c(F)c4F)c4ccc([nH]4)c(-c4c(F)c(F)c(F)c(F)c4F)c4nc(c(-c5c(F)c(F)c(F)c(F)c5F)c5ccc2[nH]5)C=C4)C=C3)cc1
REMARK SMILES IDX 22 1 21 4 20 7 19 10 1 11 2 12 3 14 4 17 5 18 8 19 6 20 7 22
REMARK SMILES IDX 9 25 10 26 14 27 11 28 13 30 12 32 15 34 18 35 16 36 17 37
REMARK SMILES IDX 23 42 24 45 25 48 26 51 27 52 28 54 29 55 30 56 91 57 31 58
REMARK SMILES IDX 90 60 32 62 33 65 34 66 84 67 35 68 89 69 83 70 85 71 36 72
REMARK SMILES IDX 88 73 82 75 81 77 37 79 69 82 49 83 68 84 50 85 53 86 67 87
REMARK SMILES IDX 86 88 51 89 52 91 66 93 87 94 54 97 38 99 39 100 47 101
REMARK SMILES IDX 40 102 41 103 45 104 48 105 42 106 43 107 46 108 44 109
REMARK SMILES IDX 70 110 71 111 79 112 72 113 73 114 77 115 80 116 74 117
REMARK SMILES IDX 75 118 78 119 76 120 55 121 56 122 64 123 57 124 58 125
REMARK SMILES IDX 62 126 65 127 59 128 60 129 63 130 61 131
REMARK H PARENT 22 2 22 3 21 5 21 6 20 8 20 9 19 13 3 15 3 16 5 21 6 23 7 24
REMARK H PARENT 10 29 14 31 11 33 16 38 16 39 17 40 17 41 23 43 23 44 24 46
REMARK H PARENT 24 47 25 49 25 50 26 53 30 59 91 61 31 63 90 64 89 74 83 76
REMARK H PARENT 85 78 88 80 82 81 50 90 53 92 86 95 51 96 87 98
REMARK Flexibility Score: inf
ROOT
ATOM      1  C   UNL A   1      32.458  29.001  24.225  1.00  0.00    -0.052 C 
ATOM      2  H   UNL A   1      32.276  27.951  24.313  1.00  0.00     0.027 H 
ATOM      3  H   UNL A   1      31.621  29.552  23.850  1.00  0.00     0.027 H 
ENDROOT
BRANCH   1   4
ATOM      4  C   UNL A   1      33.589  29.203  23.208  1.00  0.00    -0.036 C 
ATOM      5  H   UNL A   1      33.286  29.964  22.520  1.00  0.00     0.028 H 
ATOM      6  H   UNL A   1      34.459  29.466  23.773  1.00  0.00     0.028 H 
BRANCH   4   7
ATOM      7  C   UNL A   1      33.958  27.957  22.407  1.00  0.00     0.017 C 
ATOM      8  H   UNL A   1      33.809  28.155  21.366  1.00  0.00     0.049 H 
ATOM      9  H   UNL A   1      34.982  27.720  22.605  1.00  0.00     0.049 H 
BRANCH   7  10
ATOM     10  N   UNL A   1      33.146  26.824  22.791  1.00  0.00    -0.356 N 
ATOM     11  O   UNL A   1      33.109  25.819  20.724  1.00  0.00    -0.275 OA
ATOM     12  C   UNL A   1      32.802  25.819  21.913  1.00  0.00     0.225 C 
ATOM     13  H   UNL A   1      32.826  26.768  23.720  1.00  0.00     0.163 HD
BRANCH  12  14
ATOM     14  C   UNL A   1      31.965  24.720  22.545  1.00  0.00     0.067 C 
ATOM     15  H   UNL A   1      32.552  23.826  22.590  1.00  0.00     0.043 H 
ATOM     16  H   UNL A   1      31.092  24.590  21.941  1.00  0.00     0.043 H 
BRANCH  14  17
ATOM     17  C   UNL A   1      31.506  25.066  23.940  1.00  0.00     0.032 A 
ATOM     18  C   UNL A   1      30.342  25.696  24.361  1.00  0.00    -0.040 A 
ATOM     19  N   UNL A   1      32.168  24.629  25.085  1.00  0.00    -0.320 N 
ATOM     20  C   UNL A   1      30.235  25.544  25.758  1.00  0.00    -0.044 A 
ATOM     21  H   UNL A   1      29.669  26.191  23.754  1.00  0.00     0.064 H 
ATOM     22  C   UNL A   1      31.339  24.839  26.169  1.00  0.00     0.009 A 
ATOM     23  H   UNL A   1      29.472  25.895  26.357  1.00  0.00     0.064 H 
ATOM     24  H   UNL A   1      31.521  24.518  27.133  1.00  0.00     0.082 H 
BRANCH  19  25
ATOM     25  C   UNL A   1      33.462  24.058  25.182  1.00  0.00     0.049 A 
ATOM     26  C   UNL A   1      34.560  24.878  25.473  1.00  0.00    -0.034 A 
ATOM     27  C   UNL A   1      33.644  22.695  24.922  1.00  0.00     0.008 A 
ATOM     28  C   UNL A   1      35.838  24.320  25.544  1.00  0.00    -0.014 A 
ATOM     29  H   UNL A   1      34.425  25.888  25.633  1.00  0.00     0.065 H 
ATOM     30  C   UNL A   1      34.926  22.151  24.979  1.00  0.00     0.163 A 
ATOM     31  H   UNL A   1      32.836  22.097  24.690  1.00  0.00     0.069 H 
ATOM     32  C   UNL A   1      36.022  22.964  25.280  1.00  0.00     0.161 A 
ATOM     33  H   UNL A   1      36.646  24.912  25.792  1.00  0.00     0.066 H 
ATOM     34  O   UNL A   1      35.034  20.812  24.700  1.00  0.00    -0.486 OA
ATOM     35  O   UNL A   1      37.311  22.497  25.328  1.00  0.00    -0.486 OA
ATOM     36  C   UNL A   1      36.314  20.296  25.077  1.00  0.00     0.122 C 
ATOM     37  C   UNL A   1      37.427  21.240  24.651  1.00  0.00     0.122 C 
ATOM     38  H   UNL A   1      36.462  19.347  24.605  1.00  0.00     0.074 H 
ATOM     39  H   UNL A   1      36.341  20.194  26.141  1.00  0.00     0.074 H 
ATOM     40  H   UNL A   1      37.366  21.402  23.595  1.00  0.00     0.074 H 
ATOM     41  H   UNL A   1      38.368  20.798  24.906  1.00  0.00     0.074 H 
ENDBRANCH  19  25
ENDBRANCH  14  17
ENDBRANCH  12  14
ENDBRANCH   7  10
ENDBRANCH   4   7
ENDBRANCH   1   4
BRANCH   1  42
ATOM     42  C   UNL A   1      32.730  29.553  25.629  1.00  0.00    -0.052 C 
ATOM     43  H   UNL A   1      31.805  29.915  26.027  1.00  0.00     0.027 H 
ATOM     44  H   UNL A   1      33.471  30.316  25.510  1.00  0.00     0.027 H 
BRANCH  42  45
ATOM     45  C   UNL A   1      33.315  28.545  26.626  1.00  0.00    -0.036 C 
ATOM     46  H   UNL A   1      33.098  27.557  26.273  1.00  0.00     0.028 H 
ATOM     47  H   UNL A   1      32.865  28.751  27.576  1.00  0.00     0.028 H 
BRANCH  45  48
ATOM     48  C   UNL A   1      34.827  28.664  26.819  1.00  0.00     0.018 C 
ATOM     49  H   UNL A   1      35.320  28.318  25.935  1.00  0.00     0.049 H 
ATOM     50  H   UNL A   1      35.111  28.072  27.663  1.00  0.00     0.049 H 
BRANCH  48  51
ATOM     51  N   UNL A   1      35.213  30.043  27.069  1.00  0.00    -0.352 N 
ATOM     52  C   UNL A   1      36.264  30.545  27.793  1.00  0.00     0.251 C 
ATOM     53  H   UNL A   1      34.631  30.720  26.655  1.00  0.00     0.163 HD
ATOM     54  O   UNL A   1      36.206  31.695  28.210  1.00  0.00    -0.269 OA
BRANCH  52  55
ATOM     55  C   UNL A   1      37.461  29.730  28.086  1.00  0.00     0.039 A 
ATOM     56  C   UNL A   1      38.484  29.708  27.128  1.00  0.00    -0.049 A 
ATOM     57  C   UNL A   1      37.540  28.914  29.219  1.00  0.00    -0.049 A 
ATOM     58  C   UNL A   1      39.607  28.913  27.332  1.00  0.00    -0.053 A 
ATOM     59  H   UNL A   1      38.405  30.280  26.273  1.00  0.00     0.063 H 
ATOM     60  C   UNL A   1      38.673  28.135  29.440  1.00  0.00    -0.053 A 
ATOM     61  H   UNL A   1      36.758  28.887  29.892  1.00  0.00     0.063 H 
ATOM     62  C   UNL A   1      39.711  28.150  28.501  1.00  0.00    -0.014 A 
ATOM     63  H   UNL A   1      40.359  28.887  26.625  1.00  0.00     0.063 H 
ATOM     64  H   UNL A   1      38.746  27.552  30.287  1.00  0.00     0.063 H 
BRANCH  62  65
ATOM     65  C   UNL A   1      41.015  27.525  28.818  1.00  0.00     0.031 A 
ATOM     66  C   UNL A   1      41.075  26.069  28.284  1.00  0.00     0.074 A 
ATOM     67  C   UNL A   1      41.906  28.296  29.518  1.00  0.00     0.049 A 
ATOM     68  N   UNL A   1      41.781  25.051  28.674  1.00  0.00    -0.248 NA
ATOM     69  C   UNL A   1      40.163  25.673  27.170  1.00  0.00    -0.034 C 
ATOM     70  C   UNL A   1      41.690  29.714  29.887  1.00  0.00    -0.036 A 
ATOM     71  N   UNL A   1      43.155  28.069  30.064  1.00  0.00    -0.354 N 
ATOM     72  C   UNL A   1      41.559  23.990  27.760  1.00  0.00     0.074 A 
ATOM     73  C   UNL A   1      40.472  24.397  26.928  1.00  0.00    -0.034 C 
ATOM     74  H   UNL A   1      39.455  26.255  26.695  1.00  0.00     0.065 H 
ATOM     75  C   UNL A   1      42.704  30.182  30.648  1.00  0.00    -0.036 A 
ATOM     76  H   UNL A   1      40.871  30.272  29.602  1.00  0.00     0.065 H 
ATOM     77  C   UNL A   1      43.685  29.135  30.851  1.00  0.00     0.049 A 
ATOM     78  H   UNL A   1      43.648  27.229  29.920  1.00  0.00     0.167 HD
ATOM     79  C   UNL A   1      42.382  22.901  27.662  1.00  0.00     0.037 A 
ATOM     80  H   UNL A   1      39.994  23.794  26.240  1.00  0.00     0.065 H 
ATOM     81  H   UNL A   1      42.771  31.141  31.026  1.00  0.00     0.065 H 
ATOM     82  C   UNL A   1      44.803  29.147  31.648  1.00  0.00     0.037 A 
ATOM     83  C   UNL A   1      43.392  22.979  28.658  1.00  0.00     0.049 A 
ATOM     84  C   UNL A   1      45.452  27.860  31.384  1.00  0.00     0.074 A 
ATOM     85  C   UNL A   1      43.362  22.790  30.013  1.00  0.00    -0.036 A 
ATOM     86  N   UNL A   1      44.545  23.638  28.316  1.00  0.00    -0.354 N 
ATOM     87  N   UNL A   1      46.107  27.579  30.298  1.00  0.00    -0.248 NA
ATOM     88  C   UNL A   1      45.279  26.772  32.353  1.00  0.00    -0.034 C 
ATOM     89  C   UNL A   1      44.247  23.777  30.490  1.00  0.00    -0.036 A 
ATOM     90  H   UNL A   1      42.822  22.095  30.553  1.00  0.00     0.065 H 
ATOM     91  C   UNL A   1      44.944  24.346  29.418  1.00  0.00     0.049 A 
ATOM     92  H   UNL A   1      44.999  23.608  27.442  1.00  0.00     0.167 HD
ATOM     93  C   UNL A   1      46.120  26.208  30.322  1.00  0.00     0.074 A 
ATOM     94  C   UNL A   1      45.918  25.809  31.697  1.00  0.00    -0.034 C 
ATOM     95  H   UNL A   1      44.804  26.759  33.270  1.00  0.00     0.065 H 
ATOM     96  H   UNL A   1      44.364  24.039  31.482  1.00  0.00     0.065 H 
ATOM     97  C   UNL A   1      45.751  25.521  29.211  1.00  0.00     0.037 A 
ATOM     98  H   UNL A   1      46.224  24.913  32.106  1.00  0.00     0.065 H 
BRANCH  79  99
ATOM     99  C   UNL A   1      42.571  21.836  26.610  1.00  0.00     0.064 A 
ATOM    100  C   UNL A   1      42.114  20.522  26.903  1.00  0.00     0.173 A 
ATOM    101  C   UNL A   1      43.490  21.943  25.560  1.00  0.00     0.173 A 
ATOM    102  F   UNL A   1      41.180  20.313  27.845  1.00  0.00    -0.203 F 
ATOM    103  C   UNL A   1      42.671  19.391  26.310  1.00  0.00     0.198 A 
ATOM    104  C   UNL A   1      44.008  20.806  24.928  1.00  0.00     0.198 A 
ATOM    105  F   UNL A   1      43.985  23.131  25.191  1.00  0.00    -0.203 F 
ATOM    106  F   UNL A   1      42.325  18.170  26.740  1.00  0.00    -0.200 F 
ATOM    107  C   UNL A   1      43.638  19.534  25.337  1.00  0.00     0.200 A 
ATOM    108  F   UNL A   1      44.936  20.945  23.970  1.00  0.00    -0.200 F 
ATOM    109  F   UNL A   1      44.238  18.453  24.820  1.00  0.00    -0.200 F 
ENDBRANCH  79  99
BRANCH  82 110
ATOM    110  C   UNL A   1      45.462  30.007  32.712  1.00  0.00     0.064 A 
ATOM    111  C   UNL A   1      46.552  30.865  32.531  1.00  0.00     0.173 A 
ATOM    112  C   UNL A   1      44.910  30.051  34.031  1.00  0.00     0.173 A 
ATOM    113  F   UNL A   1      47.264  30.844  31.400  1.00  0.00    -0.203 F 
ATOM    114  C   UNL A   1      46.961  31.775  33.530  1.00  0.00     0.198 A 
ATOM    115  C   UNL A   1      45.275  30.987  34.998  1.00  0.00     0.198 A 
ATOM    116  F   UNL A   1      43.980  29.178  34.438  1.00  0.00    -0.203 F 
ATOM    117  F   UNL A   1      48.007  32.583  33.305  1.00  0.00    -0.200 F 
ATOM    118  C   UNL A   1      46.294  31.869  34.740  1.00  0.00     0.200 A 
ATOM    119  F   UNL A   1      44.613  31.032  36.163  1.00  0.00    -0.200 F 
ATOM    120  F   UNL A   1      46.636  32.786  35.654  1.00  0.00    -0.200 F 
ENDBRANCH  82 110
BRANCH  97 121
ATOM    121  C   UNL A   1      45.899  26.310  27.921  1.00  0.00     0.064 A 
ATOM    122  C   UNL A   1      47.175  26.706  27.490  1.00  0.00     0.173 A 
ATOM    123  C   UNL A   1      44.820  26.802  27.166  1.00  0.00     0.173 A 
ATOM    124  F   UNL A   1      48.264  26.266  28.138  1.00  0.00    -0.203 F 
ATOM    125  C   UNL A   1      47.353  27.557  26.394  1.00  0.00     0.198 A 
ATOM    126  C   UNL A   1      44.992  27.648  26.067  1.00  0.00     0.198 A 
ATOM    127  F   UNL A   1      43.569  26.470  27.472  1.00  0.00    -0.203 F 
ATOM    128  F   UNL A   1      48.590  27.913  26.022  1.00  0.00    -0.200 F 
ATOM    129  C   UNL A   1      46.262  28.031  25.685  1.00  0.00     0.200 A 
ATOM    130  F   UNL A   1      43.925  28.083  25.380  1.00  0.00    -0.200 F 
ATOM    131  F   UNL A   1      46.434  28.839  24.628  1.00  0.00    -0.200 F 
ENDBRANCH  97 121
ENDBRANCH  62  65
ENDBRANCH  52  55
ENDBRANCH  48  51
ENDBRANCH  45  48
ENDBRANCH  42  45
ENDBRANCH   1  42
TORSDOF 15
ENDMDL
MODEL 2
REMARK VINA RESULT:     -12.2      1.181      3.025
REMARK SMILES O=C(Cc1cccn1-c1ccc2c(c1)OCCO2)NCCCCCCNC(=O)c1ccc(-c2c3nc(c(-c4c(F)c(F)c(F)c(F)c4F)c4ccc([nH]4)c(-c4c(F)c(F)c(F)c(F)c4F)c4nc(c(-c5c(F)c(F)c(F)c(F)c5F)c5ccc2[nH]5)C=C4)C=C3)cc1
REMARK SMILES IDX 22 1 21 4 20 7 19 10 1 11 2 12 3 14 4 17 5 18 8 19 6 20 7 22
REMARK SMILES IDX 9 25 10 26 14 27 11 28 13 30 12 32 15 34 18 35 16 36 17 37
REMARK SMILES IDX 23 42 24 45 25 48 26 51 27 52 28 54 29 55 30 56 91 57 31 58
REMARK SMILES IDX 90 60 32 62 33 65 34 66 84 67 35 68 89 69 83 70 85 71 36 72
REMARK SMILES IDX 88 73 82 75 81 77 37 79 69 82 49 83 68 84 50 85 53 86 67 87
REMARK SMILES IDX 86 88 51 89 52 91 66 93 87 94 54 97 38 99 39 100 47 101
REMARK SMILES IDX 40 102 41 103 45 104 48 105 42 106 43 107 46 108 44 109
REMARK SMILES IDX 70 110 71 111 79 112 72 113 73 114 77 115 80 116 74 117
REMARK SMILES IDX 75 118 78 119 76 120 55 121 56 122 64 123 57 124 58 125
REMARK SMILES IDX 62 126 65 127 59 128 60 129 63 130 61 131
REMARK H PARENT 22 2 22 3 21 5 21 6 20 8 20 9 19 13 3 15 3 16 5 21 6 23 7 24
REMARK H PARENT 10 29 14 31 11 33 16 38 16 39 17 40 17 41 23 43 23 44 24 46
REMARK H PARENT 24 47 25 49 25 50 26 53 30 59 91 61 31 63 90 64 89 74 83 76
REMARK H PARENT 85 78 88 80 82 81 50 90 53 92 86 95 51 96 87 98
REMARK Flexibility Score: inf
ROOT
ATOM      1  C   UNL A   1      33.382  26.017  26.123  1.00  0.00    -0.052 C 
ATOM      2  H   UNL A   1      33.818  25.932  27.096  1.00  0.00     0.027 H 
ATOM      3  H   UNL A   1      32.531  25.385  25.978  1.00  0.00     0.027 H 
ENDROOT
BRANCH   1   4
ATOM      4  C   UNL A   1      34.426  25.562  25.094  1.00  0.00    -0.036 C 
ATOM      5  H   UNL A   1      33.908  25.251  24.210  1.00  0.00     0.028 H 
ATOM      6  H   UNL A   1      35.073  26.399  24.932  1.00  0.00     0.028 H 
BRANCH   4   7
ATOM      7  C   UNL A   1      35.317  24.411  25.553  1.00  0.00     0.017 C 
ATOM      8  H   UNL A   1      36.022  24.186  24.780  1.00  0.00     0.049 H 
ATOM      9  H   UNL A   1      35.820  24.711  26.449  1.00  0.00     0.049 H 
BRANCH   7  10
ATOM     10  N   UNL A   1      34.542  23.226  25.842  1.00  0.00    -0.356 N 
ATOM     11  O   UNL A   1      36.141  21.706  25.199  1.00  0.00    -0.275 OA
ATOM     12  C   UNL A   1      35.030  21.950  25.662  1.00  0.00     0.225 C 
ATOM     13  H   UNL A   1      33.624  23.336  26.183  1.00  0.00     0.163 HD
BRANCH  12  14
ATOM     14  C   UNL A   1      34.047  20.861  26.055  1.00  0.00     0.067 C 
ATOM     15  H   UNL A   1      33.201  21.318  26.527  1.00  0.00     0.043 H 
ATOM     16  H   UNL A   1      34.554  20.190  26.716  1.00  0.00     0.043 H 
BRANCH  14  17
ATOM     17  C   UNL A   1      33.563  20.057  24.873  1.00  0.00     0.032 A 
ATOM     18  C   UNL A   1      33.723  18.706  24.594  1.00  0.00    -0.040 A 
ATOM     19  N   UNL A   1      32.697  20.571  23.911  1.00  0.00    -0.320 N 
ATOM     20  C   UNL A   1      32.865  18.369  23.529  1.00  0.00    -0.044 A 
ATOM     21  H   UNL A   1      34.362  18.059  25.084  1.00  0.00     0.064 H 
ATOM     22  C   UNL A   1      32.208  19.518  23.165  1.00  0.00     0.009 A 
ATOM     23  H   UNL A   1      32.752  17.435  23.104  1.00  0.00     0.064 H 
ATOM     24  H   UNL A   1      31.468  19.584  22.449  1.00  0.00     0.082 H 
BRANCH  19  25
ATOM     25  C   UNL A   1      32.341  21.925  23.691  1.00  0.00     0.049 A 
ATOM     26  C   UNL A   1      31.311  22.501  24.446  1.00  0.00    -0.034 A 
ATOM     27  C   UNL A   1      32.974  22.657  22.680  1.00  0.00     0.008 A 
ATOM     28  C   UNL A   1      30.944  23.828  24.213  1.00  0.00    -0.014 A 
ATOM     29  H   UNL A   1      30.826  21.948  25.170  1.00  0.00     0.065 H 
ATOM     30  C   UNL A   1      32.589  23.976  22.444  1.00  0.00     0.163 A 
ATOM     31  H   UNL A   1      33.719  22.224  22.113  1.00  0.00     0.069 H 
ATOM     32  C   UNL A   1      31.569  24.557  23.203  1.00  0.00     0.161 A 
ATOM     33  H   UNL A   1      30.209  24.268  24.789  1.00  0.00     0.066 H 
ATOM     34  O   UNL A   1      33.239  24.630  21.429  1.00  0.00    -0.486 OA
ATOM     35  O   UNL A   1      31.126  25.839  23.005  1.00  0.00    -0.486 OA
ATOM     36  C   UNL A   1      32.995  26.039  21.467  1.00  0.00     0.122 C 
ATOM     37  C   UNL A   1      31.524  26.328  21.719  1.00  0.00     0.122 C 
ATOM     38  H   UNL A   1      33.280  26.469  20.529  1.00  0.00     0.074 H 
ATOM     39  H   UNL A   1      33.568  26.464  22.264  1.00  0.00     0.074 H 
ATOM     40  H   UNL A   1      30.937  25.850  20.963  1.00  0.00     0.074 H 
ATOM     41  H   UNL A   1      31.373  27.388  21.692  1.00  0.00     0.074 H 
ENDBRANCH  19  25
ENDBRANCH  14  17
ENDBRANCH  12  14
ENDBRANCH   7  10
ENDBRANCH   4   7
ENDBRANCH   1   4
BRANCH   1  42
ATOM     42  C   UNL A   1      32.876  27.453  25.955  1.00  0.00    -0.052 C 
ATOM     43  H   UNL A   1      31.814  27.447  26.084  1.00  0.00     0.027 H 
ATOM     44  H   UNL A   1      33.185  27.765  24.979  1.00  0.00     0.027 H 
BRANCH  42  45
ATOM     45  C   UNL A   1      33.467  28.474  26.936  1.00  0.00    -0.036 C 
ATOM     46  H   UNL A   1      33.337  28.100  27.930  1.00  0.00     0.028 H 
ATOM     47  H   UNL A   1      32.951  29.397  26.772  1.00  0.00     0.028 H 
BRANCH  45  48
ATOM     48  C   UNL A   1      34.954  28.755  26.720  1.00  0.00     0.018 C 
ATOM     49  H   UNL A   1      35.186  28.634  25.682  1.00  0.00     0.049 H 
ATOM     50  H   UNL A   1      35.521  28.070  27.313  1.00  0.00     0.049 H 
BRANCH  48  51
ATOM     51  N   UNL A   1      35.293  30.109  27.126  1.00  0.00    -0.352 N 
ATOM     52  C   UNL A   1      36.291  30.557  27.952  1.00  0.00     0.251 C 
ATOM     53  H   UNL A   1      34.717  30.813  26.749  1.00  0.00     0.163 HD
ATOM     54  O   UNL A   1      36.183  31.658  28.477  1.00  0.00    -0.269 OA
BRANCH  52  55
ATOM     55  C   UNL A   1      37.491  29.740  28.230  1.00  0.00     0.039 A 
ATOM     56  C   UNL A   1      38.506  29.724  27.263  1.00  0.00    -0.049 A 
ATOM     57  C   UNL A   1      37.579  28.915  29.356  1.00  0.00    -0.049 A 
ATOM     58  C   UNL A   1      39.630  28.928  27.452  1.00  0.00    -0.053 A 
ATOM     59  H   UNL A   1      38.420  30.304  26.414  1.00  0.00     0.063 H 
ATOM     60  C   UNL A   1      38.713  28.134  29.562  1.00  0.00    -0.053 A 
ATOM     61  H   UNL A   1      36.802  28.883  30.034  1.00  0.00     0.063 H 
ATOM     62  C   UNL A   1      39.744  28.156  28.615  1.00  0.00    -0.014 A 
ATOM     63  H   UNL A   1      40.376  28.907  26.739  1.00  0.00     0.063 H 
ATOM     64  H   UNL A   1      38.793  27.546  30.404  1.00  0.00     0.063 H 
BRANCH  62  65
ATOM     65  C   UNL A   1      41.050  27.529  28.916  1.00  0.00     0.031 A 
ATOM     66  C   UNL A   1      41.109  26.080  28.364  1.00  0.00     0.074 A 
ATOM     67  C   UNL A   1      41.945  28.292  29.621  1.00  0.00     0.049 A 
ATOM     68  N   UNL A   1      41.818  25.058  28.737  1.00  0.00    -0.248 NA
ATOM     69  C   UNL A   1      40.191  25.697  27.250  1.00  0.00    -0.034 C 
ATOM     70  C   UNL A   1      41.729  29.705  30.009  1.00  0.00    -0.036 A 
ATOM     71  N   UNL A   1      43.197  28.060  30.157  1.00  0.00    -0.354 N 
ATOM     72  C   UNL A   1      41.592  24.009  27.810  1.00  0.00     0.074 A 
ATOM     73  C   UNL A   1      40.500  24.425  26.990  1.00  0.00    -0.034 C 
ATOM     74  H   UNL A   1      39.480  26.284  26.786  1.00  0.00     0.065 H 
ATOM     75  C   UNL A   1      42.747  30.165  30.769  1.00  0.00    -0.036 A 
ATOM     76  H   UNL A   1      40.907  30.266  29.736  1.00  0.00     0.065 H 
ATOM     77  C   UNL A   1      43.730  29.116  30.954  1.00  0.00     0.049 A 
ATOM     78  H   UNL A   1      43.690  27.223  29.999  1.00  0.00     0.167 HD
ATOM     79  C   UNL A   1      42.416  22.921  27.694  1.00  0.00     0.037 A 
ATOM     80  H   UNL A   1      40.019  23.830  26.297  1.00  0.00     0.065 H 
ATOM     81  H   UNL A   1      42.815  31.119  31.160  1.00  0.00     0.065 H 
ATOM     82  C   UNL A   1      44.852  29.120  31.745  1.00  0.00     0.037 A 
ATOM     83  C   UNL A   1      43.431  22.989  28.685  1.00  0.00     0.049 A 
ATOM     84  C   UNL A   1      45.501  27.837  31.461  1.00  0.00     0.074 A 
ATOM     85  C   UNL A   1      43.409  22.782  30.038  1.00  0.00    -0.036 A 
ATOM     86  N   UNL A   1      44.582  23.653  28.345  1.00  0.00    -0.354 N 
ATOM     87  N   UNL A   1      46.151  27.571  30.368  1.00  0.00    -0.248 NA
ATOM     88  C   UNL A   1      45.335  26.737  32.417  1.00  0.00    -0.034 C 
ATOM     89  C   UNL A   1      44.296  23.764  30.523  1.00  0.00    -0.036 A 
ATOM     90  H   UNL A   1      42.873  22.080  30.573  1.00  0.00     0.065 H 
ATOM     91  C   UNL A   1      44.986  24.348  29.454  1.00  0.00     0.049 A 
ATOM     92  H   UNL A   1      45.031  23.634  27.469  1.00  0.00     0.167 HD
ATOM     93  C   UNL A   1      46.165  26.199  30.375  1.00  0.00     0.074 A 
ATOM     94  C   UNL A   1      45.971  25.783  31.745  1.00  0.00    -0.034 C 
ATOM     95  H   UNL A   1      44.865  26.712  33.336  1.00  0.00     0.065 H 
ATOM     96  H   UNL A   1      44.418  24.014  31.517  1.00  0.00     0.065 H 
ATOM     97  C   UNL A   1      45.791  25.527  29.257  1.00  0.00     0.037 A 
ATOM     98  H   UNL A   1      46.281  24.882  32.142  1.00  0.00     0.065 H 
BRANCH  79  99
ATOM     99  C   UNL A   1      42.600  21.870  26.628  1.00  0.00     0.064 A 
ATOM    100  C   UNL A   1      42.118  20.560  26.895  1.00  0.00     0.173 A 
ATOM    101  C   UNL A   1      43.533  21.978  25.591  1.00  0.00     0.173 A 
ATOM    102  F   UNL A   1      41.170  20.351  27.822  1.00  0.00    -0.203 F 
ATOM    103  C   UNL A   1      42.664  19.429  26.291  1.00  0.00     0.198 A 
ATOM    104  C   UNL A   1      44.040  20.843  24.947  1.00  0.00     0.198 A 
ATOM    105  F   UNL A   1      44.052  23.164  25.246  1.00  0.00    -0.203 F 
ATOM    106  F   UNL A   1      42.292  18.207  26.698  1.00  0.00    -0.200 F 
ATOM    107  C   UNL A   1      43.644  19.571  25.331  1.00  0.00     0.200 A 
ATOM    108  F   UNL A   1      44.981  20.982  24.002  1.00  0.00    -0.200 F 
ATOM    109  F   UNL A   1      44.233  18.489  24.804  1.00  0.00    -0.200 F 
ENDBRANCH  79  99
BRANCH  82 110
ATOM    110  C   UNL A   1      45.516  29.968  32.816  1.00  0.00     0.064 A 
ATOM    111  C   UNL A   1      45.077  30.139  34.133  1.00  0.00     0.173 A 
ATOM    112  C   UNL A   1      46.761  30.615  32.538  1.00  0.00     0.173 A 
ATOM    113  F   UNL A   1      43.869  29.714  34.516  1.00  0.00    -0.203 F 
ATOM    114  C   UNL A   1      45.872  30.779  35.109  1.00  0.00     0.198 A 
ATOM    115  C   UNL A   1      47.572  31.197  33.511  1.00  0.00     0.198 A 
ATOM    116  F   UNL A   1      47.248  30.706  31.293  1.00  0.00    -0.203 F 
ATOM    117  F   UNL A   1      45.409  30.911  36.361  1.00  0.00    -0.200 F 
ATOM    118  C   UNL A   1      47.135  31.262  34.809  1.00  0.00     0.200 A 
ATOM    119  F   UNL A   1      48.782  31.667  33.174  1.00  0.00    -0.200 F 
ATOM    120  F   UNL A   1      47.916  31.799  35.756  1.00  0.00    -0.200 F 
ENDBRANCH  82 110
BRANCH  97 121
ATOM    121  C   UNL A   1      45.930  26.332  27.977  1.00  0.00     0.064 A 
ATOM    122  C   UNL A   1      47.204  26.728  27.539  1.00  0.00     0.173 A 
ATOM    123  C   UNL A   1      44.846  26.838  27.237  1.00  0.00     0.173 A 
ATOM    124  F   UNL A   1      48.297  26.274  28.171  1.00  0.00    -0.203 F 
ATOM    125  C   UNL A   1      47.376  27.592  26.453  1.00  0.00     0.198 A 
ATOM    126  C   UNL A   1      45.013  27.697  26.148  1.00  0.00     0.198 A 
ATOM    127  F   UNL A   1      43.597  26.507  27.551  1.00  0.00    -0.203 F 
ATOM    128  F   UNL A   1      48.611  27.948  26.074  1.00  0.00    -0.200 F 
ATOM    129  C   UNL A   1      46.280  28.080  25.760  1.00  0.00     0.200 A 
ATOM    130  F   UNL A   1      43.941  28.145  25.477  1.00  0.00    -0.200 F 
ATOM    131  F   UNL A   1      46.446  28.901  24.712  1.00  0.00    -0.200 F 
ENDBRANCH  97 121
ENDBRANCH  62  65
ENDBRANCH  52  55
ENDBRANCH  48  51
ENDBRANCH  45  48
ENDBRANCH  42  45
ENDBRANCH   1  42
TORSDOF 15
ENDMDL
MODEL 3
REMARK VINA RESULT:     -11.9      3.147      8.263
REMARK SMILES O=C(Cc1cccn1-c1ccc2c(c1)OCCO2)NCCCCCCNC(=O)c1ccc(-c2c3nc(c(-c4c(F)c(F)c(F)c(F)c4F)c4ccc([nH]4)c(-c4c(F)c(F)c(F)c(F)c4F)c4nc(c(-c5c(F)c(F)c(F)c(F)c5F)c5ccc2[nH]5)C=C4)C=C3)cc1
REMARK SMILES IDX 22 1 21 4 20 7 19 10 1 11 2 12 3 14 4 17 5 18 8 19 6 20 7 22
REMARK SMILES IDX 9 25 10 26 14 27 11 28 13 30 12 32 15 34 18 35 16 36 17 37
REMARK SMILES IDX 23 42 24 45 25 48 26 51 27 52 28 54 29 55 30 56 91 57 31 58
REMARK SMILES IDX 90 60 32 62 33 65 34 66 84 67 35 68 89 69 83 70 85 71 36 72
REMARK SMILES IDX 88 73 82 75 81 77 37 79 69 82 49 83 68 84 50 85 53 86 67 87
REMARK SMILES IDX 86 88 51 89 52 91 66 93 87 94 54 97 38 99 39 100 47 101
REMARK SMILES IDX 40 102 41 103 45 104 48 105 42 106 43 107 46 108 44 109
REMARK SMILES IDX 70 110 71 111 79 112 72 113 73 114 77 115 80 116 74 117
REMARK SMILES IDX 75 118 78 119 76 120 55 121 56 122 64 123 57 124 58 125
REMARK SMILES IDX 62 126 65 127 59 128 60 129 63 130 61 131
REMARK H PARENT 22 2 22 3 21 5 21 6 20 8 20 9 19 13 3 15 3 16 5 21 6 23 7 24
REMARK H PARENT 10 29 14 31 11 33 16 38 16 39 17 40 17 41 23 43 23 44 24 46
REMARK H PARENT 24 47 25 49 25 50 26 53 30 59 91 61 31 63 90 64 89 74 83 76
REMARK H PARENT 85 78 88 80 82 81 50 90 53 92 86 95 51 96 87 98
REMARK Flexibility Score: inf
ROOT
ATOM      1  C   UNL A   1      41.856  21.062  27.221  1.00  0.00    -0.052 C 
ATOM      2  H   UNL A   1      41.439  21.434  28.133  1.00  0.00     0.027 H 
ATOM      3  H   UNL A   1      42.825  21.458  26.999  1.00  0.00     0.027 H 
ENDROOT
BRANCH   1   4
ATOM      4  C   UNL A   1      40.944  21.501  26.069  1.00  0.00    -0.036 C 
ATOM      5  H   UNL A   1      41.474  22.221  25.480  1.00  0.00     0.028 H 
ATOM      6  H   UNL A   1      40.693  20.613  25.527  1.00  0.00     0.028 H 
BRANCH   4   7
ATOM      7  C   UNL A   1      39.620  22.126  26.504  1.00  0.00     0.017 C 
ATOM      8  H   UNL A   1      39.239  21.585  27.345  1.00  0.00     0.049 H 
ATOM      9  H   UNL A   1      39.799  23.149  26.761  1.00  0.00     0.049 H 
BRANCH   7  10
ATOM     10  N   UNL A   1      38.643  22.090  25.439  1.00  0.00    -0.356 N 
ATOM     11  O   UNL A   1      37.229  23.668  26.328  1.00  0.00    -0.275 OA
ATOM     12  C   UNL A   1      37.522  22.891  25.424  1.00  0.00     0.225 C 
ATOM     13  H   UNL A   1      38.786  21.464  24.692  1.00  0.00     0.163 HD
BRANCH  12  14
ATOM     14  C   UNL A   1      36.653  22.697  24.194  1.00  0.00     0.067 C 
ATOM     15  H   UNL A   1      37.150  22.025  23.525  1.00  0.00     0.043 H 
ATOM     16  H   UNL A   1      36.502  23.659  23.749  1.00  0.00     0.043 H 
BRANCH  14  17
ATOM     17  C   UNL A   1      35.294  22.130  24.524  1.00  0.00     0.032 A 
ATOM     18  C   UNL A   1      34.903  20.809  24.700  1.00  0.00    -0.040 A 
ATOM     19  N   UNL A   1      34.205  22.926  24.871  1.00  0.00    -0.320 N 
ATOM     20  C   UNL A   1      33.612  20.800  25.265  1.00  0.00    -0.044 A 
ATOM     21  H   UNL A   1      35.463  19.975  24.460  1.00  0.00     0.064 H 
ATOM     22  C   UNL A   1      33.230  22.111  25.410  1.00  0.00     0.009 A 
ATOM     23  H   UNL A   1      33.060  19.966  25.522  1.00  0.00     0.064 H 
ATOM     24  H   UNL A   1      32.355  22.435  25.850  1.00  0.00     0.082 H 
BRANCH  19  25
ATOM     25  C   UNL A   1      34.067  24.328  24.724  1.00  0.00     0.049 A 
ATOM     26  C   UNL A   1      33.946  25.135  25.863  1.00  0.00    -0.034 A 
ATOM     27  C   UNL A   1      33.986  24.891  23.445  1.00  0.00     0.008 A 
ATOM     28  C   UNL A   1      33.787  26.515  25.718  1.00  0.00    -0.014 A 
ATOM     29  H   UNL A   1      33.976  24.713  26.804  1.00  0.00     0.065 H 
ATOM     30  C   UNL A   1      33.809  26.267  23.310  1.00  0.00     0.163 A 
ATOM     31  H   UNL A   1      34.056  24.292  22.608  1.00  0.00     0.069 H 
ATOM     32  C   UNL A   1      33.700  27.076  24.445  1.00  0.00     0.161 A 
ATOM     33  H   UNL A   1      33.732  27.118  26.553  1.00  0.00     0.066 H 
ATOM     34  O   UNL A   1      33.724  26.749  22.029  1.00  0.00    -0.486 OA
ATOM     35  O   UNL A   1      33.500  28.431  24.381  1.00  0.00    -0.486 OA
ATOM     36  C   UNL A   1      33.849  28.174  21.992  1.00  0.00     0.122 C 
ATOM     37  C   UNL A   1      33.020  28.821  23.090  1.00  0.00     0.122 C 
ATOM     38  H   UNL A   1      33.510  28.531  21.042  1.00  0.00     0.074 H 
ATOM     39  H   UNL A   1      34.876  28.430  22.143  1.00  0.00     0.074 H 
ATOM     40  H   UNL A   1      32.000  28.515  22.986  1.00  0.00     0.074 H 
ATOM     41  H   UNL A   1      33.100  29.884  22.999  1.00  0.00     0.074 H 
ENDBRANCH  19  25
ENDBRANCH  14  17
ENDBRANCH  12  14
ENDBRANCH   7  10
ENDBRANCH   4   7
ENDBRANCH   1   4
BRANCH   1  42
ATOM     42  C   UNL A   1      42.043  19.548  27.370  1.00  0.00    -0.052 C 
ATOM     43  H   UNL A   1      41.121  19.133  27.718  1.00  0.00     0.027 H 
ATOM     44  H   UNL A   1      42.856  19.415  28.054  1.00  0.00     0.027 H 
BRANCH  42  45
ATOM     45  C   UNL A   1      42.443  18.809  26.086  1.00  0.00    -0.036 C 
ATOM     46  H   UNL A   1      42.142  19.403  25.248  1.00  0.00     0.028 H 
ATOM     47  H   UNL A   1      41.955  17.856  26.112  1.00  0.00     0.028 H 
BRANCH  45  48
ATOM     48  C   UNL A   1      43.942  18.534  25.967  1.00  0.00     0.018 C 
ATOM     49  H   UNL A   1      44.140  17.532  26.288  1.00  0.00     0.049 H 
ATOM     50  H   UNL A   1      44.467  19.235  26.580  1.00  0.00     0.049 H 
BRANCH  48  51
ATOM     51  N   UNL A   1      44.393  18.689  24.594  1.00  0.00    -0.352 N 
ATOM     52  C   UNL A   1      44.607  19.828  23.862  1.00  0.00     0.251 C 
ATOM     53  H   UNL A   1      44.573  17.847  24.118  1.00  0.00     0.163 HD
ATOM     54  O   UNL A   1      44.606  19.760  22.638  1.00  0.00    -0.269 OA
BRANCH  52  55
ATOM     55  C   UNL A   1      44.835  21.135  24.512  1.00  0.00     0.039 A 
ATOM     56  C   UNL A   1      44.578  22.290  23.761  1.00  0.00    -0.049 A 
ATOM     57  C   UNL A   1      45.394  21.237  25.790  1.00  0.00    -0.049 A 
ATOM     58  C   UNL A   1      44.828  23.543  24.308  1.00  0.00    -0.053 A 
ATOM     59  H   UNL A   1      44.203  22.211  22.803  1.00  0.00     0.063 H 
ATOM     60  C   UNL A   1      45.624  22.490  26.353  1.00  0.00    -0.053 A 
ATOM     61  H   UNL A   1      45.638  20.384  26.317  1.00  0.00     0.063 H 
ATOM     62  C   UNL A   1      45.325  23.641  25.614  1.00  0.00    -0.014 A 
ATOM     63  H   UNL A   1      44.649  24.396  23.755  1.00  0.00     0.063 H 
ATOM     64  H   UNL A   1      46.011  22.569  27.305  1.00  0.00     0.063 H 
BRANCH  62  65
ATOM     65  C   UNL A   1      45.334  24.970  26.264  1.00  0.00     0.031 A 
ATOM     66  C   UNL A   1      43.889  25.512  26.436  1.00  0.00     0.074 A 
ATOM     67  C   UNL A   1      46.564  25.489  26.574  1.00  0.00     0.049 A 
ATOM     68  N   UNL A   1      43.446  26.728  26.538  1.00  0.00    -0.248 NA
ATOM     69  C   UNL A   1      42.754  24.542  26.443  1.00  0.00    -0.034 C 
ATOM     70  C   UNL A   1      47.851  24.780  26.391  1.00  0.00    -0.036 A 
ATOM     71  N   UNL A   1      46.999  26.694  27.094  1.00  0.00    -0.354 N 
ATOM     72  C   UNL A   1      42.057  26.665  26.816  1.00  0.00     0.074 A 
ATOM     73  C   UNL A   1      41.672  25.302  26.632  1.00  0.00    -0.034 C 
ATOM     74  H   UNL A   1      42.796  23.518  26.328  1.00  0.00     0.065 H 
ATOM     75  C   UNL A   1      48.897  25.575  26.705  1.00  0.00    -0.036 A 
ATOM     76  H   UNL A   1      47.938  23.805  26.065  1.00  0.00     0.065 H 
ATOM     77  C   UNL A   1      48.413  26.874  27.127  1.00  0.00     0.049 A 
ATOM     78  H   UNL A   1      46.375  27.381  27.421  1.00  0.00     0.167 HD
ATOM     79  C   UNL A   1      41.343  27.721  27.315  1.00  0.00     0.037 A 
ATOM     80  H   UNL A   1      40.701  24.954  26.643  1.00  0.00     0.065 H 
ATOM     81  H   UNL A   1      49.892  25.300  26.652  1.00  0.00     0.065 H 
ATOM     82  C   UNL A   1      49.133  28.006  27.421  1.00  0.00     0.037 A 
ATOM     83  C   UNL A   1      42.187  28.860  27.409  1.00  0.00     0.049 A 
ATOM     84  C   UNL A   1      48.126  28.970  27.873  1.00  0.00     0.074 A 
ATOM     85  C   UNL A   1      42.702  29.702  26.461  1.00  0.00    -0.036 A 
ATOM     86  N   UNL A   1      42.877  29.021  28.583  1.00  0.00    -0.354 N 
ATOM     87  N   UNL A   1      47.535  28.925  29.028  1.00  0.00    -0.248 NA
ATOM     88  C   UNL A   1      47.671  30.003  26.936  1.00  0.00    -0.034 C 
ATOM     89  C   UNL A   1      43.996  29.974  26.947  1.00  0.00    -0.036 A 
ATOM     90  H   UNL A   1      42.252  30.052  25.600  1.00  0.00     0.065 H 
ATOM     91  C   UNL A   1      44.120  29.494  28.256  1.00  0.00     0.049 A 
ATOM     92  H   UNL A   1      42.541  28.832  29.490  1.00  0.00     0.167 HD
ATOM     93  C   UNL A   1      46.426  29.702  28.809  1.00  0.00     0.074 A 
ATOM     94  C   UNL A   1      46.731  30.564  27.690  1.00  0.00    -0.034 C 
ATOM     95  H   UNL A   1      47.987  30.227  25.979  1.00  0.00     0.065 H 
ATOM     96  H   UNL A   1      44.739  30.456  26.418  1.00  0.00     0.065 H 
ATOM     97  C   UNL A   1      45.205  29.231  29.168  1.00  0.00     0.037 A 
ATOM     98  H   UNL A   1      46.286  31.476  27.504  1.00  0.00     0.065 H 
BRANCH  79  99
ATOM     99  C   UNL A   1      39.996  27.838  27.985  1.00  0.00     0.064 A 
ATOM    100  C   UNL A   1      39.151  28.912  27.597  1.00  0.00     0.173 A 
ATOM    101  C   UNL A   1      39.685  27.225  29.204  1.00  0.00     0.173 A 
ATOM    102  F   UNL A   1      39.317  29.526  26.414  1.00  0.00    -0.203 F 
ATOM    103  C   UNL A   1      38.186  29.444  28.449  1.00  0.00     0.198 A 
ATOM    104  C   UNL A   1      38.677  27.728  30.034  1.00  0.00     0.198 A 
ATOM    105  F   UNL A   1      40.409  26.198  29.668  1.00  0.00    -0.203 F 
ATOM    106  F   UNL A   1      37.530  30.561  28.104  1.00  0.00    -0.200 F 
ATOM    107  C   UNL A   1      37.965  28.864  29.680  1.00  0.00     0.200 A 
ATOM    108  F   UNL A   1      38.451  27.154  31.224  1.00  0.00    -0.200 F 
ATOM    109  F   UNL A   1      37.097  29.416  30.540  1.00  0.00    -0.200 F 
ENDBRANCH  79  99
BRANCH  82 110
ATOM    110  C   UNL A   1      50.554  28.534  27.334  1.00  0.00     0.064 A 
ATOM    111  C   UNL A   1      51.357  28.942  28.404  1.00  0.00     0.173 A 
ATOM    112  C   UNL A   1      51.223  28.566  26.070  1.00  0.00     0.173 A 
ATOM    113  F   UNL A   1      50.845  29.099  29.628  1.00  0.00    -0.203 F 
ATOM    114  C   UNL A   1      52.732  29.223  28.243  1.00  0.00     0.198 A 
ATOM    115  C   UNL A   1      52.591  28.788  25.917  1.00  0.00     0.198 A 
ATOM    116  F   UNL A   1      50.567  28.378  24.918  1.00  0.00    -0.203 F 
ATOM    117  F   UNL A   1      53.461  29.602  29.302  1.00  0.00    -0.200 F 
ATOM    118  C   UNL A   1      53.355  29.099  27.012  1.00  0.00     0.200 A 
ATOM    119  F   UNL A   1      53.152  28.673  24.704  1.00  0.00    -0.200 F 
ATOM    120  F   UNL A   1      54.674  29.290  26.879  1.00  0.00    -0.200 F 
ENDBRANCH  82 110
BRANCH  97 121
ATOM    121  C   UNL A   1      45.247  28.168  30.252  1.00  0.00     0.064 A 
ATOM    122  C   UNL A   1      45.692  28.505  31.540  1.00  0.00     0.173 A 
ATOM    123  C   UNL A   1      44.991  26.803  30.032  1.00  0.00     0.173 A 
ATOM    124  F   UNL A   1      45.939  29.788  31.845  1.00  0.00    -0.203 F 
ATOM    125  C   UNL A   1      45.890  27.537  32.530  1.00  0.00     0.198 A 
ATOM    126  C   UNL A   1      45.182  25.832  31.019  1.00  0.00     0.198 A 
ATOM    127  F   UNL A   1      44.543  26.376  28.855  1.00  0.00    -0.203 F 
ATOM    128  F   UNL A   1      46.321  27.904  33.744  1.00  0.00    -0.200 F 
ATOM    129  C   UNL A   1      45.640  26.200  32.268  1.00  0.00     0.200 A 
ATOM    130  F   UNL A   1      44.917  24.544  30.754  1.00  0.00    -0.200 F 
ATOM    131  F   UNL A   1      45.821  25.273  33.220  1.00  0.00    -0.200 F 
ENDBRANCH  97 121
ENDBRANCH  62  65
ENDBRANCH  52  55
ENDBRANCH  48  51
ENDBRANCH  45  48
ENDBRANCH  42  45
ENDBRANCH   1  42
TORSDOF 15
ENDMDL
MODEL 4
REMARK VINA RESULT:     -11.7      4.227      8.776
REMARK SMILES O=C(Cc1cccn1-c1ccc2c(c1)OCCO2)NCCCCCCNC(=O)c1ccc(-c2c3nc(c(-c4c(F)c(F)c(F)c(F)c4F)c4ccc([nH]4)c(-c4c(F)c(F)c(F)c(F)c4F)c4nc(c(-c5c(F)c(F)c(F)c(F)c5F)c5ccc2[nH]5)C=C4)C=C3)cc1
REMARK SMILES IDX 22 1 21 4 20 7 19 10 1 11 2 12 3 14 4 17 5 18 8 19 6 20 7 22
REMARK SMILES IDX 9 25 10 26 14 27 11 28 13 30 12 32 15 34 18 35 16 36 17 37
REMARK SMILES IDX 23 42 24 45 25 48 26 51 27 52 28 54 29 55 30 56 91 57 31 58
REMARK SMILES IDX 90 60 32 62 33 65 34 66 84 67 35 68 89 69 83 70 85 71 36 72
REMARK SMILES IDX 88 73 82 75 81 77 37 79 69 82 49 83 68 84 50 85 53 86 67 87
REMARK SMILES IDX 86 88 51 89 52 91 66 93 87 94 54 97 38 99 39 100 47 101
REMARK SMILES IDX 40 102 41 103 45 104 48 105 42 106 43 107 46 108 44 109
REMARK SMILES IDX 70 110 71 111 79 112 72 113 73 114 77 115 80 116 74 117
REMARK SMILES IDX 75 118 78 119 76 120 55 121 56 122 64 123 57 124 58 125
REMARK SMILES IDX 62 126 65 127 59 128 60 129 63 130 61 131
REMARK H PARENT 22 2 22 3 21 5 21 6 20 8 20 9 19 13 3 15 3 16 5 21 6 23 7 24
REMARK H PARENT 10 29 14 31 11 33 16 38 16 39 17 40 17 41 23 43 23 44 24 46
REMARK H PARENT 24 47 25 49 25 50 26 53 30 59 91 61 31 63 90 64 89 74 83 76
REMARK H PARENT 85 78 88 80 82 81 50 90 53 92 86 95 51 96 87 98
REMARK Flexibility Score: inf
ROOT
ATOM      1  C   UNL A   1      35.752  23.415  23.169  1.00  0.00    -0.052 C 
ATOM      2  H   UNL A   1      35.783  24.450  23.437  1.00  0.00     0.027 H 
ATOM      3  H   UNL A   1      35.977  23.232  22.139  1.00  0.00     0.027 H 
ENDROOT
BRANCH   1   4
ATOM      4  C   UNL A   1      34.319  22.912  23.385  1.00  0.00    -0.036 C 
ATOM      5  H   UNL A   1      34.367  21.882  23.672  1.00  0.00     0.028 H 
ATOM      6  H   UNL A   1      33.889  23.540  24.136  1.00  0.00     0.028 H 
BRANCH   4   7
ATOM      7  C   UNL A   1      33.412  23.022  22.161  1.00  0.00     0.017 C 
ATOM      8  H   UNL A   1      34.010  23.250  21.303  1.00  0.00     0.049 H 
ATOM      9  H   UNL A   1      32.904  22.090  22.033  1.00  0.00     0.049 H 
BRANCH   7  10
ATOM     10  N   UNL A   1      32.420  24.060  22.332  1.00  0.00    -0.356 N 
ATOM     11  O   UNL A   1      33.635  25.745  21.350  1.00  0.00    -0.275 OA
ATOM     12  C   UNL A   1      32.604  25.351  21.886  1.00  0.00     0.225 C 
ATOM     13  H   UNL A   1      31.576  23.834  22.787  1.00  0.00     0.163 HD
BRANCH  12  14
ATOM     14  C   UNL A   1      31.417  26.261  22.153  1.00  0.00     0.067 C 
ATOM     15  H   UNL A   1      30.625  25.677  22.575  1.00  0.00     0.043 H 
ATOM     16  H   UNL A   1      31.132  26.703  21.222  1.00  0.00     0.043 H 
BRANCH  14  17
ATOM     17  C   UNL A   1      31.747  27.383  23.107  1.00  0.00     0.032 A 
ATOM     18  C   UNL A   1      31.957  28.733  22.851  1.00  0.00    -0.040 A 
ATOM     19  N   UNL A   1      31.733  27.230  24.491  1.00  0.00    -0.320 N 
ATOM     20  C   UNL A   1      31.956  29.422  24.080  1.00  0.00    -0.044 A 
ATOM     21  H   UNL A   1      32.089  29.158  21.919  1.00  0.00     0.064 H 
ATOM     22  C   UNL A   1      31.763  28.485  25.064  1.00  0.00     0.009 A 
ATOM     23  H   UNL A   1      32.077  30.439  24.213  1.00  0.00     0.064 H 
ATOM     24  H   UNL A   1      31.657  28.687  26.071  1.00  0.00     0.082 H 
BRANCH  19  25
ATOM     25  C   UNL A   1      31.692  26.025  25.235  1.00  0.00     0.049 A 
ATOM     26  C   UNL A   1      30.456  25.492  25.622  1.00  0.00    -0.034 A 
ATOM     27  C   UNL A   1      32.884  25.411  25.634  1.00  0.00     0.008 A 
ATOM     28  C   UNL A   1      30.416  24.317  26.376  1.00  0.00    -0.014 A 
ATOM     29  H   UNL A   1      29.579  25.964  25.352  1.00  0.00     0.065 H 
ATOM     30  C   UNL A   1      32.835  24.248  26.401  1.00  0.00     0.163 A 
ATOM     31  H   UNL A   1      33.794  25.816  25.363  1.00  0.00     0.069 H 
ATOM     32  C   UNL A   1      31.603  23.707  26.779  1.00  0.00     0.161 A 
ATOM     33  H   UNL A   1      29.508  23.901  26.635  1.00  0.00     0.066 H 
ATOM     34  O   UNL A   1      34.041  23.707  26.769  1.00  0.00    -0.486 OA
ATOM     35  O   UNL A   1      31.485  22.581  27.552  1.00  0.00    -0.486 OA
ATOM     36  C   UNL A   1      33.890  22.379  27.279  1.00  0.00     0.122 C 
ATOM     37  C   UNL A   1      32.710  22.295  28.235  1.00  0.00     0.122 C 
ATOM     38  H   UNL A   1      34.782  22.099  27.800  1.00  0.00     0.074 H 
ATOM     39  H   UNL A   1      33.712  21.716  26.459  1.00  0.00     0.074 H 
ATOM     40  H   UNL A   1      32.847  23.004  29.025  1.00  0.00     0.074 H 
ATOM     41  H   UNL A   1      32.660  21.302  28.632  1.00  0.00     0.074 H 
ENDBRANCH  19  25
ENDBRANCH  14  17
ENDBRANCH  12  14
ENDBRANCH   7  10
ENDBRANCH   4   7
ENDBRANCH   1   4
BRANCH   1  42
ATOM     42  C   UNL A   1      36.833  22.685  23.973  1.00  0.00    -0.052 C 
ATOM     43  H   UNL A   1      37.788  22.995  23.601  1.00  0.00     0.027 H 
ATOM     44  H   UNL A   1      36.644  21.640  23.845  1.00  0.00     0.027 H 
BRANCH  42  45
ATOM     45  C   UNL A   1      36.807  22.940  25.486  1.00  0.00    -0.036 C 
ATOM     46  H   UNL A   1      37.035  22.021  25.986  1.00  0.00     0.028 H 
ATOM     47  H   UNL A   1      35.829  23.306  25.722  1.00  0.00     0.028 H 
BRANCH  45  48
ATOM     48  C   UNL A   1      37.802  24.001  25.955  1.00  0.00     0.018 C 
ATOM     49  H   UNL A   1      37.429  24.460  26.847  1.00  0.00     0.049 H 
ATOM     50  H   UNL A   1      37.917  24.728  25.180  1.00  0.00     0.049 H 
BRANCH  48  51
ATOM     51  N   UNL A   1      39.101  23.412  26.234  1.00  0.00    -0.352 N 
ATOM     52  C   UNL A   1      40.286  24.013  26.572  1.00  0.00     0.251 C 
ATOM     53  H   UNL A   1      39.135  22.431  26.169  1.00  0.00     0.163 HD
ATOM     54  O   UNL A   1      41.336  23.409  26.387  1.00  0.00    -0.269 OA
BRANCH  52  55
ATOM     55  C   UNL A   1      40.327  25.372  27.151  1.00  0.00     0.039 A 
ATOM     56  C   UNL A   1      39.987  25.515  28.503  1.00  0.00    -0.049 A 
ATOM     57  C   UNL A   1      40.582  26.501  26.366  1.00  0.00    -0.049 A 
ATOM     58  C   UNL A   1      39.957  26.780  29.080  1.00  0.00    -0.053 A 
ATOM     59  H   UNL A   1      39.760  24.683  29.070  1.00  0.00     0.063 H 
ATOM     60  C   UNL A   1      40.577  27.768  26.944  1.00  0.00    -0.053 A 
ATOM     61  H   UNL A   1      40.772  26.396  25.357  1.00  0.00     0.063 H 
ATOM     62  C   UNL A   1      40.279  27.901  28.305  1.00  0.00    -0.014 A 
ATOM     63  H   UNL A   1      39.698  26.891  30.073  1.00  0.00     0.063 H 
ATOM     64  H   UNL A   1      40.791  28.600  26.374  1.00  0.00     0.063 H 
BRANCH  62  65
ATOM     65  C   UNL A   1      40.496  29.192  28.995  1.00  0.00     0.031 A 
ATOM     66  C   UNL A   1      39.165  29.980  29.126  1.00  0.00     0.074 A 
ATOM     67  C   UNL A   1      41.784  29.475  29.370  1.00  0.00     0.049 A 
ATOM     68  N   UNL A   1      38.942  31.254  29.247  1.00  0.00    -0.248 NA
ATOM     69  C   UNL A   1      37.876  29.230  29.057  1.00  0.00    -0.034 C 
ATOM     70  C   UNL A   1      42.931  28.550  29.217  1.00  0.00    -0.036 A 
ATOM     71  N   UNL A   1      42.403  30.569  29.944  1.00  0.00    -0.354 N 
ATOM     72  C   UNL A   1      37.553  31.434  29.467  1.00  0.00     0.074 A 
ATOM     73  C   UNL A   1      36.939  30.167  29.225  1.00  0.00    -0.034 C 
ATOM     74  H   UNL A   1      37.740  28.218  28.912  1.00  0.00     0.065 H 
ATOM     75  C   UNL A   1      44.087  29.138  29.597  1.00  0.00    -0.036 A 
ATOM     76  H   UNL A   1      42.857  27.583  28.866  1.00  0.00     0.065 H 
ATOM     77  C   UNL A   1      43.824  30.492  30.040  1.00  0.00     0.049 A 
ATOM     78  H   UNL A   1      41.897  31.350  30.266  1.00  0.00     0.167 HD
ATOM     79  C   UNL A   1      37.017  32.590  29.969  1.00  0.00     0.037 A 
ATOM     80  H   UNL A   1      35.922  29.999  29.187  1.00  0.00     0.065 H 
ATOM     81  H   UNL A   1      45.018  28.690  29.576  1.00  0.00     0.065 H 
ATOM     82  C   UNL A   1      44.720  31.469  30.396  1.00  0.00     0.037 A 
ATOM     83  C   UNL A   1      38.045  33.556  30.132  1.00  0.00     0.049 A 
ATOM     84  C   UNL A   1      43.881  32.588  30.837  1.00  0.00     0.074 A 
ATOM     85  C   UNL A   1      38.744  34.314  29.231  1.00  0.00    -0.036 A 
ATOM     86  N   UNL A   1      38.699  33.564  31.337  1.00  0.00    -0.354 N 
ATOM     87  N   UNL A   1      43.241  32.623  31.966  1.00  0.00    -0.248 NA
ATOM     88  C   UNL A   1      43.661  33.707  29.915  1.00  0.00    -0.034 C 
ATOM     89  C   UNL A   1      40.042  34.338  29.777  1.00  0.00    -0.036 A 
ATOM     90  H   UNL A   1      38.403  34.758  28.364  1.00  0.00     0.065 H 
ATOM     91  C   UNL A   1      40.020  33.813  31.075  1.00  0.00     0.049 A 
ATOM     92  H   UNL A   1      38.295  33.417  32.223  1.00  0.00     0.167 HD
ATOM     93  C   UNL A   1      42.299  33.591  31.726  1.00  0.00     0.074 A 
ATOM     94  C   UNL A   1      42.802  34.410  30.647  1.00  0.00    -0.034 C 
ATOM     95  H   UNL A   1      44.054  33.893  28.978  1.00  0.00     0.065 H 
ATOM     96  H   UNL A   1      40.883  34.690  29.293  1.00  0.00     0.065 H 
ATOM     97  C   UNL A   1      40.998  33.339  32.021  1.00  0.00     0.037 A 
ATOM     98  H   UNL A   1      42.536  35.392  30.471  1.00  0.00     0.065 H 
BRANCH  79  99
ATOM     99  C   UNL A   1      35.684  32.931  30.587  1.00  0.00     0.064 A 
ATOM    100  C   UNL A   1      34.909  33.954  29.976  1.00  0.00     0.173 A 
ATOM    101  C   UNL A   1      35.338  32.607  31.904  1.00  0.00     0.173 A 
ATOM    102  F   UNL A   1      35.110  34.297  28.694  1.00  0.00    -0.203 F 
ATOM    103  C   UNL A   1      33.985  34.714  30.691  1.00  0.00     0.198 A 
ATOM    104  C   UNL A   1      34.369  33.336  32.602  1.00  0.00     0.198 A 
ATOM    105  F   UNL A   1      35.994  31.653  32.578  1.00  0.00    -0.203 F 
ATOM    106  F   UNL A   1      33.402  35.775  30.115  1.00  0.00    -0.200 F 
ATOM    107  C   UNL A   1      33.732  34.418  32.014  1.00  0.00     0.200 A 
ATOM    108  F   UNL A   1      34.111  33.038  33.884  1.00  0.00    -0.200 F 
ATOM    109  F   UNL A   1      32.906  35.192  32.731  1.00  0.00    -0.200 F 
ENDBRANCH  79  99
BRANCH  82 110
ATOM    110  C   UNL A   1      46.215  31.736  30.383  1.00  0.00     0.064 A 
ATOM    111  C   UNL A   1      46.991  32.065  29.267  1.00  0.00     0.173 A 
ATOM    112  C   UNL A   1      46.945  31.748  31.613  1.00  0.00     0.173 A 
ATOM    113  F   UNL A   1      46.494  31.968  28.030  1.00  0.00    -0.203 F 
ATOM    114  C   UNL A   1      48.330  32.496  29.388  1.00  0.00     0.198 A 
ATOM    115  C   UNL A   1      48.248  32.226  31.741  1.00  0.00     0.198 A 
ATOM    116  F   UNL A   1      46.413  31.292  32.755  1.00  0.00    -0.203 F 
ATOM    117  F   UNL A   1      49.030  32.808  28.288  1.00  0.00    -0.200 F 
ATOM    118  C   UNL A   1      48.940  32.622  30.626  1.00  0.00     0.200 A 
ATOM    119  F   UNL A   1      48.806  32.316  32.958  1.00  0.00    -0.200 F 
ATOM    120  F   UNL A   1      50.184  33.104  30.742  1.00  0.00    -0.200 F 
ENDBRANCH  82 110
BRANCH  97 121
ATOM    121  C   UNL A   1      40.802  32.261  33.072  1.00  0.00     0.064 A 
ATOM    122  C   UNL A   1      41.232  32.487  34.390  1.00  0.00     0.173 A 
ATOM    123  C   UNL A   1      40.325  30.966  32.800  1.00  0.00     0.173 A 
ATOM    124  F   UNL A   1      41.680  33.701  34.745  1.00  0.00    -0.203 F 
ATOM    125  C   UNL A   1      41.210  31.478  35.358  1.00  0.00     0.198 A 
ATOM    126  C   UNL A   1      40.296  29.956  33.764  1.00  0.00     0.198 A 
ATOM    127  F   UNL A   1      39.871  30.651  31.591  1.00  0.00    -0.203 F 
ATOM    128  F   UNL A   1      41.635  31.737  36.601  1.00  0.00    -0.200 F 
ATOM    129  C   UNL A   1      40.746  30.211  35.044  1.00  0.00     0.200 A 
ATOM    130  F   UNL A   1      39.826  28.739  33.448  1.00  0.00    -0.200 F 
ATOM    131  F   UNL A   1      40.716  29.245  35.974  1.00  0.00    -0.200 F 
ENDBRANCH  97 121
ENDBRANCH  62  65
ENDBRANCH  52  55
ENDBRANCH  48  51
ENDBRANCH  45  48
ENDBRANCH  42  45
ENDBRANCH   1  42
TORSDOF 15
ENDMDL
MODEL 5
REMARK VINA RESULT:     -11.7      4.466      7.161
REMARK SMILES O=C(Cc1cccn1-c1ccc2c(c1)OCCO2)NCCCCCCNC(=O)c1ccc(-c2c3nc(c(-c4c(F)c(F)c(F)c(F)c4F)c4ccc([nH]4)c(-c4c(F)c(F)c(F)c(F)c4F)c4nc(c(-c5c(F)c(F)c(F)c(F)c5F)c5ccc2[nH]5)C=C4)C=C3)cc1
REMARK SMILES IDX 22 1 21 4 20 7 19 10 1 11 2 12 3 14 4 17 5 18 8 19 6 20 7 22
REMARK SMILES IDX 9 25 10 26 14 27 11 28 13 30 12 32 15 34 18 35 16 36 17 37
REMARK SMILES IDX 23 42 24 45 25 48 26 51 27 52 28 54 29 55 30 56 91 57 31 58
REMARK SMILES IDX 90 60 32 62 33 65 34 66 84 67 35 68 89 69 83 70 85 71 36 72
REMARK SMILES IDX 88 73 82 75 81 77 37 79 69 82 49 83 68 84 50 85 53 86 67 87
REMARK SMILES IDX 86 88 51 89 52 91 66 93 87 94 54 97 38 99 39 100 47 101
REMARK SMILES IDX 40 102 41 103 45 104 48 105 42 106 43 107 46 108 44 109
REMARK SMILES IDX 70 110 71 111 79 112 72 113 73 114 77 115 80 116 74 117
REMARK SMILES IDX 75 118 78 119 76 120 55 121 56 122 64 123 57 124 58 125
REMARK SMILES IDX 62 126 65 127 59 128 60 129 63 130 61 131
REMARK H PARENT 22 2 22 3 21 5 21 6 20 8 20 9 19 13 3 15 3 16 5 21 6 23 7 24
REMARK H PARENT 10 29 14 31 11 33 16 38 16 39 17 40 17 41 23 43 23 44 24 46
REMARK H PARENT 24 47 25 49 25 50 26 53 30 59 91 61 31 63 90 64 89 74 83 76
REMARK H PARENT 85 78 88 80 82 81 50 90 53 92 86 95 51 96 87 98
REMARK Flexibility Score: inf
ROOT
ATOM      1  C   UNL A   1      35.102  33.935  28.447  1.00  0.00    -0.052 C 
ATOM      2  H   UNL A   1      35.745  33.747  27.613  1.00  0.00     0.027 H 
ATOM      3  H   UNL A   1      35.610  33.935  29.389  1.00  0.00     0.027 H 
ENDROOT
BRANCH   1   4
ATOM      4  C   UNL A   1      34.074  32.798  28.520  1.00  0.00    -0.036 C 
ATOM      5  H   UNL A   1      33.879  32.591  29.552  1.00  0.00     0.028 H 
ATOM      6  H   UNL A   1      33.212  33.136  27.986  1.00  0.00     0.028 H 
BRANCH   4   7
ATOM      7  C   UNL A   1      34.512  31.497  27.850  1.00  0.00     0.017 C 
ATOM      8  H   UNL A   1      34.936  31.724  26.894  1.00  0.00     0.049 H 
ATOM      9  H   UNL A   1      35.231  31.018  28.480  1.00  0.00     0.049 H 
BRANCH   7  10
ATOM     10  N   UNL A   1      33.396  30.596  27.667  1.00  0.00    -0.356 N 
ATOM     11  O   UNL A   1      34.613  28.847  26.806  1.00  0.00    -0.275 OA
ATOM     12  C   UNL A   1      33.540  29.317  27.175  1.00  0.00     0.225 C 
ATOM     13  H   UNL A   1      32.494  30.911  27.905  1.00  0.00     0.163 HD
BRANCH  12  14
ATOM     14  C   UNL A   1      32.234  28.546  27.094  1.00  0.00     0.067 C 
ATOM     15  H   UNL A   1      31.474  29.106  27.599  1.00  0.00     0.043 H 
ATOM     16  H   UNL A   1      32.393  27.592  27.550  1.00  0.00     0.043 H 
BRANCH  14  17
ATOM     17  C   UNL A   1      31.788  28.303  25.673  1.00  0.00     0.032 A 
ATOM     18  C   UNL A   1      31.048  29.116  24.824  1.00  0.00    -0.040 A 
ATOM     19  N   UNL A   1      32.223  27.217  24.918  1.00  0.00    -0.320 N 
ATOM     20  C   UNL A   1      31.126  28.585  23.521  1.00  0.00    -0.044 A 
ATOM     21  H   UNL A   1      30.529  29.966  25.100  1.00  0.00     0.064 H 
ATOM     22  C   UNL A   1      31.897  27.451  23.597  1.00  0.00     0.009 A 
ATOM     23  H   UNL A   1      30.687  28.974  22.672  1.00  0.00     0.064 H 
ATOM     24  H   UNL A   1      32.186  26.868  22.796  1.00  0.00     0.082 H 
BRANCH  19  25
ATOM     25  C   UNL A   1      32.890  26.051  25.369  1.00  0.00     0.049 A 
ATOM     26  C   UNL A   1      34.184  25.772  24.910  1.00  0.00    -0.034 A 
ATOM     27  C   UNL A   1      32.231  25.155  26.218  1.00  0.00     0.008 A 
ATOM     28  C   UNL A   1      34.833  24.612  25.337  1.00  0.00    -0.014 A 
ATOM     29  H   UNL A   1      34.655  26.421  24.261  1.00  0.00     0.065 H 
ATOM     30  C   UNL A   1      32.880  23.990  26.625  1.00  0.00     0.163 A 
ATOM     31  H   UNL A   1      31.271  25.354  26.540  1.00  0.00     0.069 H 
ATOM     32  C   UNL A   1      34.175  23.715  26.177  1.00  0.00     0.161 A 
ATOM     33  H   UNL A   1      35.798  24.417  25.029  1.00  0.00     0.066 H 
ATOM     34  O   UNL A   1      32.170  23.150  27.444  1.00  0.00    -0.486 OA
ATOM     35  O   UNL A   1      34.859  22.577  26.520  1.00  0.00    -0.486 OA
ATOM     36  C   UNL A   1      33.012  22.159  28.041  1.00  0.00     0.122 C 
ATOM     37  C   UNL A   1      33.969  21.571  27.016  1.00  0.00     0.122 C 
ATOM     38  H   UNL A   1      32.403  21.375  28.440  1.00  0.00     0.074 H 
ATOM     39  H   UNL A   1      33.585  22.620  28.817  1.00  0.00     0.074 H 
ATOM     40  H   UNL A   1      33.405  21.166  26.201  1.00  0.00     0.074 H 
ATOM     41  H   UNL A   1      34.546  20.802  27.486  1.00  0.00     0.074 H 
ENDBRANCH  19  25
ENDBRANCH  14  17
ENDBRANCH  12  14
ENDBRANCH   7  10
ENDBRANCH   4   7
ENDBRANCH   1   4
BRANCH   1  42
ATOM     42  C   UNL A   1      34.515  35.341  28.284  1.00  0.00    -0.052 C 
ATOM     43  H   UNL A   1      34.380  35.524  27.239  1.00  0.00     0.027 H 
ATOM     44  H   UNL A   1      35.210  36.009  28.748  1.00  0.00     0.027 H 
BRANCH  42  45
ATOM     45  C   UNL A   1      33.170  35.574  28.985  1.00  0.00    -0.036 C 
ATOM     46  H   UNL A   1      32.886  34.667  29.478  1.00  0.00     0.028 H 
ATOM     47  H   UNL A   1      32.472  35.867  28.228  1.00  0.00     0.028 H 
BRANCH  45  48
ATOM     48  C   UNL A   1      33.195  36.697  30.022  1.00  0.00     0.018 C 
ATOM     49  H   UNL A   1      32.830  37.597  29.571  1.00  0.00     0.049 H 
ATOM     50  H   UNL A   1      34.201  36.828  30.359  1.00  0.00     0.049 H 
BRANCH  48  51
ATOM     51  N   UNL A   1      32.361  36.369  31.167  1.00  0.00    -0.352 N 
ATOM     52  C   UNL A   1      32.525  35.405  32.127  1.00  0.00     0.251 C 
ATOM     53  H   UNL A   1      31.556  36.925  31.268  1.00  0.00     0.163 HD
ATOM     54  O   UNL A   1      31.550  35.027  32.766  1.00  0.00    -0.269 OA
BRANCH  52  55
ATOM     55  C   UNL A   1      33.847  34.806  32.405  1.00  0.00     0.039 A 
ATOM     56  C   UNL A   1      33.875  33.530  32.985  1.00  0.00    -0.049 A 
ATOM     57  C   UNL A   1      35.036  35.517  32.210  1.00  0.00    -0.049 A 
ATOM     58  C   UNL A   1      35.093  32.946  33.317  1.00  0.00    -0.053 A 
ATOM     59  H   UNL A   1      32.994  33.024  33.165  1.00  0.00     0.063 H 
ATOM     60  C   UNL A   1      36.259  34.927  32.517  1.00  0.00    -0.053 A 
ATOM     61  H   UNL A   1      35.007  36.479  31.839  1.00  0.00     0.063 H 
ATOM     62  C   UNL A   1      36.284  33.635  33.056  1.00  0.00    -0.014 A 
ATOM     63  H   UNL A   1      35.118  32.011  33.752  1.00  0.00     0.063 H 
ATOM     64  H   UNL A   1      37.139  35.438  32.350  1.00  0.00     0.063 H 
BRANCH  62  65
ATOM     65  C   UNL A   1      37.561  32.897  33.171  1.00  0.00     0.031 A 
ATOM     66  C   UNL A   1      37.605  31.710  32.172  1.00  0.00     0.074 A 
ATOM     67  C   UNL A   1      38.446  33.352  34.113  1.00  0.00     0.049 A 
ATOM     68  N   UNL A   1      38.274  30.597  32.207  1.00  0.00    -0.248 NA
ATOM     69  C   UNL A   1      36.723  31.749  30.968  1.00  0.00    -0.034 C 
ATOM     70  C   UNL A   1      38.250  34.565  34.940  1.00  0.00    -0.036 A 
ATOM     71  N   UNL A   1      39.671  32.911  34.578  1.00  0.00    -0.354 N 
ATOM     72  C   UNL A   1      38.059  29.920  30.979  1.00  0.00     0.074 A 
ATOM     73  C   UNL A   1      37.010  30.622  30.311  1.00  0.00    -0.034 C 
ATOM     74  H   UNL A   1      36.045  32.481  30.704  1.00  0.00     0.065 H 
ATOM     75  C   UNL A   1      39.249  34.711  35.839  1.00  0.00    -0.036 A 
ATOM     76  H   UNL A   1      37.455  35.214  34.844  1.00  0.00     0.065 H 
ATOM     77  C   UNL A   1      40.198  33.625  35.694  1.00  0.00     0.049 A 
ATOM     78  H   UNL A   1      40.148  32.155  34.166  1.00  0.00     0.167 HD
ATOM     79  C   UNL A   1      38.859  28.902  30.534  1.00  0.00     0.037 A 
ATOM     80  H   UNL A   1      36.542  30.307  29.447  1.00  0.00     0.065 H 
ATOM     81  H   UNL A   1      39.326  35.480  36.524  1.00  0.00     0.065 H 
ATOM     82  C   UNL A   1      41.288  33.327  36.474  1.00  0.00     0.037 A 
ATOM     83  C   UNL A   1      39.836  28.602  31.520  1.00  0.00     0.049 A 
ATOM     84  C   UNL A   1      41.915  32.187  35.800  1.00  0.00     0.074 A 
ATOM     85  C   UNL A   1      39.755  27.962  32.728  1.00  0.00    -0.036 A 
ATOM     86  N   UNL A   1      41.015  29.299  31.452  1.00  0.00    -0.354 N 
ATOM     87  N   UNL A   1      42.601  32.272  34.700  1.00  0.00    -0.248 NA
ATOM     88  C   UNL A   1      41.685  30.840  36.334  1.00  0.00    -0.034 C 
ATOM     89  C   UNL A   1      40.647  28.697  33.535  1.00  0.00    -0.036 A 
ATOM     90  H   UNL A   1      39.182  27.144  32.984  1.00  0.00     0.065 H 
ATOM     91  C   UNL A   1      41.393  29.575  32.739  1.00  0.00     0.049 A 
ATOM     92  H   UNL A   1      41.497  29.554  30.632  1.00  0.00     0.167 HD
ATOM     93  C   UNL A   1      42.580  30.975  34.253  1.00  0.00     0.074 A 
ATOM     94  C   UNL A   1      42.323  30.138  35.403  1.00  0.00    -0.034 C 
ATOM     95  H   UNL A   1      41.179  30.530  37.180  1.00  0.00     0.065 H 
ATOM     96  H   UNL A   1      40.736  28.601  34.558  1.00  0.00     0.065 H 
ATOM     97  C   UNL A   1      42.234  30.722  32.966  1.00  0.00     0.037 A 
ATOM     98  H   UNL A   1      42.594  29.146  35.489  1.00  0.00     0.065 H 
BRANCH  79  99
ATOM     99  C   UNL A   1      39.058  28.255  29.185  1.00  0.00     0.064 A 
ATOM    100  C   UNL A   1      39.172  26.839  29.138  1.00  0.00     0.173 A 
ATOM    101  C   UNL A   1      39.524  28.944  28.060  1.00  0.00     0.173 A 
ATOM    102  F   UNL A   1      38.694  26.076  30.134  1.00  0.00    -0.203 F 
ATOM    103  C   UNL A   1      39.863  26.182  28.121  1.00  0.00     0.198 A 
ATOM    104  C   UNL A   1      40.169  28.275  27.014  1.00  0.00     0.198 A 
ATOM    105  F   UNL A   1      39.462  30.280  27.991  1.00  0.00    -0.203 F 
ATOM    106  F   UNL A   1      40.087  24.864  28.207  1.00  0.00    -0.200 F 
ATOM    107  C   UNL A   1      40.382  26.906  27.068  1.00  0.00     0.200 A 
ATOM    108  F   UNL A   1      40.660  28.976  25.982  1.00  0.00    -0.200 F 
ATOM    109  F   UNL A   1      41.118  26.295  26.129  1.00  0.00    -0.200 F 
ENDBRANCH  79  99
BRANCH  82 110
ATOM    110  C   UNL A   1      41.931  33.750  37.784  1.00  0.00     0.064 A 
ATOM    111  C   UNL A   1      41.451  33.484  39.070  1.00  0.00     0.173 A 
ATOM    112  C   UNL A   1      43.195  34.418  37.770  1.00  0.00     0.173 A 
ATOM    113  F   UNL A   1      40.223  32.989  39.258  1.00  0.00    -0.203 F 
ATOM    114  C   UNL A   1      42.223  33.739  40.224  1.00  0.00     0.198 A 
ATOM    115  C   UNL A   1      43.983  34.619  38.903  1.00  0.00     0.198 A 
ATOM    116  F   UNL A   1      43.725  34.906  36.641  1.00  0.00    -0.203 F 
ATOM    117  F   UNL A   1      41.721  33.458  41.435  1.00  0.00    -0.200 F 
ATOM    118  C   UNL A   1      43.504  34.259  40.136  1.00  0.00     0.200 A 
ATOM    119  F   UNL A   1      45.212  35.141  38.773  1.00  0.00    -0.200 F 
ATOM    120  F   UNL A   1      44.263  34.427  41.227  1.00  0.00    -0.200 F 
ENDBRANCH  82 110
BRANCH  97 121
ATOM    121  C   UNL A   1      42.443  31.899  32.028  1.00  0.00     0.064 A 
ATOM    122  C   UNL A   1      41.335  32.511  31.421  1.00  0.00     0.173 A 
ATOM    123  C   UNL A   1      43.703  32.360  31.606  1.00  0.00     0.173 A 
ATOM    124  F   UNL A   1      40.094  32.149  31.781  1.00  0.00    -0.203 F 
ATOM    125  C   UNL A   1      41.482  33.497  30.440  1.00  0.00     0.198 A 
ATOM    126  C   UNL A   1      43.855  33.349  30.630  1.00  0.00     0.198 A 
ATOM    127  F   UNL A   1      44.819  31.866  32.133  1.00  0.00    -0.203 F 
ATOM    128  F   UNL A   1      40.396  34.049  29.884  1.00  0.00    -0.200 F 
ATOM    129  C   UNL A   1      42.741  33.912  30.042  1.00  0.00     0.200 A 
ATOM    130  F   UNL A   1      45.083  33.753  30.269  1.00  0.00    -0.200 F 
ATOM    131  F   UNL A   1      42.881  34.865  29.107  1.00  0.00    -0.200 F 
ENDBRANCH  97 121
ENDBRANCH  62  65
ENDBRANCH  52  55
ENDBRANCH  48  51
ENDBRANCH  45  48
ENDBRANCH  42  45
ENDBRANCH   1  42
TORSDOF 15
ENDMDL
MODEL 6
REMARK VINA RESULT:     -11.6      2.946      8.698
REMARK SMILES O=C(Cc1cccn1-c1ccc2c(c1)OCCO2)NCCCCCCNC(=O)c1ccc(-c2c3nc(c(-c4c(F)c(F)c(F)c(F)c4F)c4ccc([nH]4)c(-c4c(F)c(F)c(F)c(F)c4F)c4nc(c(-c5c(F)c(F)c(F)c(F)c5F)c5ccc2[nH]5)C=C4)C=C3)cc1
REMARK SMILES IDX 22 1 21 4 20 7 19 10 1 11 2 12 3 14 4 17 5 18 8 19 6 20 7 22
REMARK SMILES IDX 9 25 10 26 14 27 11 28 13 30 12 32 15 34 18 35 16 36 17 37
REMARK SMILES IDX 23 42 24 45 25 48 26 51 27 52 28 54 29 55 30 56 91 57 31 58
REMARK SMILES IDX 90 60 32 62 33 65 34 66 84 67 35 68 89 69 83 70 85 71 36 72
REMARK SMILES IDX 88 73 82 75 81 77 37 79 69 82 49 83 68 84 50 85 53 86 67 87
REMARK SMILES IDX 86 88 51 89 52 91 66 93 87 94 54 97 38 99 39 100 47 101
REMARK SMILES IDX 40 102 41 103 45 104 48 105 42 106 43 107 46 108 44 109
REMARK SMILES IDX 70 110 71 111 79 112 72 113 73 114 77 115 80 116 74 117
REMARK SMILES IDX 75 118 78 119 76 120 55 121 56 122 64 123 57 124 58 125
REMARK SMILES IDX 62 126 65 127 59 128 60 129 63 130 61 131
REMARK H PARENT 22 2 22 3 21 5 21 6 20 8 20 9 19 13 3 15 3 16 5 21 6 23 7 24
REMARK H PARENT 10 29 14 31 11 33 16 38 16 39 17 40 17 41 23 43 23 44 24 46
REMARK H PARENT 24 47 25 49 25 50 26 53 30 59 91 61 31 63 90 64 89 74 83 76
REMARK H PARENT 85 78 88 80 82 81 50 90 53 92 86 95 51 96 87 98
REMARK Flexibility Score: inf
ROOT
ATOM      1  C   UNL A   1      35.768  30.929  28.995  1.00  0.00    -0.052 C 
ATOM      2  H   UNL A   1      36.821  31.101  29.063  1.00  0.00     0.027 H 
ATOM      3  H   UNL A   1      35.301  30.746  29.940  1.00  0.00     0.027 H 
ENDROOT
BRANCH   1   4
ATOM      4  C   UNL A   1      35.547  29.661  28.160  1.00  0.00    -0.036 C 
ATOM      5  H   UNL A   1      36.411  29.512  27.546  1.00  0.00     0.028 H 
ATOM      6  H   UNL A   1      35.382  28.867  28.857  1.00  0.00     0.028 H 
BRANCH   4   7
ATOM      7  C   UNL A   1      34.320  29.699  27.252  1.00  0.00     0.017 C 
ATOM      8  H   UNL A   1      33.572  30.317  27.703  1.00  0.00     0.049 H 
ATOM      9  H   UNL A   1      34.615  30.093  26.302  1.00  0.00     0.049 H 
BRANCH   7  10
ATOM     10  N   UNL A   1      33.776  28.376  27.046  1.00  0.00    -0.356 N 
ATOM     11  O   UNL A   1      34.057  28.330  24.765  1.00  0.00    -0.275 OA
ATOM     12  C   UNL A   1      33.708  27.779  25.805  1.00  0.00     0.225 C 
ATOM     13  H   UNL A   1      33.438  27.879  27.827  1.00  0.00     0.163 HD
BRANCH  12  14
ATOM     14  C   UNL A   1      33.121  26.378  25.835  1.00  0.00     0.067 C 
ATOM     15  H   UNL A   1      32.074  26.450  26.044  1.00  0.00     0.043 H 
ATOM     16  H   UNL A   1      33.640  25.827  26.591  1.00  0.00     0.043 H 
BRANCH  14  17
ATOM     17  C   UNL A   1      33.302  25.642  24.530  1.00  0.00     0.032 A 
ATOM     18  C   UNL A   1      34.296  24.752  24.144  1.00  0.00    -0.040 A 
ATOM     19  N   UNL A   1      32.342  25.641  23.522  1.00  0.00    -0.320 N 
ATOM     20  C   UNL A   1      33.887  24.120  22.953  1.00  0.00    -0.044 A 
ATOM     21  H   UNL A   1      35.183  24.581  24.645  1.00  0.00     0.064 H 
ATOM     22  C   UNL A   1      32.662  24.644  22.622  1.00  0.00     0.009 A 
ATOM     23  H   UNL A   1      34.409  23.400  22.429  1.00  0.00     0.064 H 
ATOM     24  H   UNL A   1      32.074  24.341  21.830  1.00  0.00     0.082 H 
BRANCH  19  25
ATOM     25  C   UNL A   1      31.213  26.488  23.390  1.00  0.00     0.049 A 
ATOM     26  C   UNL A   1      29.986  26.096  23.941  1.00  0.00    -0.034 A 
ATOM     27  C   UNL A   1      31.314  27.677  22.658  1.00  0.00     0.008 A 
ATOM     28  C   UNL A   1      28.868  26.919  23.792  1.00  0.00    -0.014 A 
ATOM     29  H   UNL A   1      29.909  25.204  24.454  1.00  0.00     0.065 H 
ATOM     30  C   UNL A   1      30.188  28.483  22.500  1.00  0.00     0.163 A 
ATOM     31  H   UNL A   1      32.215  27.954  22.239  1.00  0.00     0.069 H 
ATOM     32  C   UNL A   1      28.965  28.100  23.058  1.00  0.00     0.161 A 
ATOM     33  H   UNL A   1      27.970  26.652  24.224  1.00  0.00     0.066 H 
ATOM     34  O   UNL A   1      30.354  29.626  21.759  1.00  0.00    -0.486 OA
ATOM     35  O   UNL A   1      27.816  28.835  22.918  1.00  0.00    -0.486 OA
ATOM     36  C   UNL A   1      29.247  30.518  21.910  1.00  0.00     0.122 C 
ATOM     37  C   UNL A   1      27.928  29.765  21.836  1.00  0.00     0.122 C 
ATOM     38  H   UNL A   1      29.276  31.249  21.129  1.00  0.00     0.074 H 
ATOM     39  H   UNL A   1      29.317  30.991  22.867  1.00  0.00     0.074 H 
ATOM     40  H   UNL A   1      27.879  29.234  20.908  1.00  0.00     0.074 H 
ATOM     41  H   UNL A   1      27.126  30.470  21.903  1.00  0.00     0.074 H 
ENDBRANCH  19  25
ENDBRANCH  14  17
ENDBRANCH  12  14
ENDBRANCH   7  10
ENDBRANCH   4   7
ENDBRANCH   1   4
BRANCH   1  42
ATOM     42  C   UNL A   1      35.116  32.201  28.442  1.00  0.00    -0.052 C 
ATOM     43  H   UNL A   1      34.388  31.910  27.713  1.00  0.00     0.027 H 
ATOM     44  H   UNL A   1      35.912  32.792  28.037  1.00  0.00     0.027 H 
BRANCH  42  45
ATOM     45  C   UNL A   1      34.418  33.085  29.483  1.00  0.00    -0.036 C 
ATOM     46  H   UNL A   1      33.361  32.949  29.387  1.00  0.00     0.028 H 
ATOM     47  H   UNL A   1      34.723  34.093  29.290  1.00  0.00     0.028 H 
BRANCH  45  48
ATOM     48  C   UNL A   1      34.813  32.775  30.928  1.00  0.00     0.018 C 
ATOM     49  H   UNL A   1      35.354  31.852  30.951  1.00  0.00     0.049 H 
ATOM     50  H   UNL A   1      33.923  32.702  31.516  1.00  0.00     0.049 H 
BRANCH  48  51
ATOM     51  N   UNL A   1      35.647  33.829  31.479  1.00  0.00    -0.352 N 
ATOM     52  C   UNL A   1      36.961  33.799  31.869  1.00  0.00     0.251 C 
ATOM     53  H   UNL A   1      35.199  34.699  31.589  1.00  0.00     0.163 HD
ATOM     54  O   UNL A   1      37.370  34.647  32.654  1.00  0.00    -0.269 OA
BRANCH  52  55
ATOM     55  C   UNL A   1      37.892  32.766  31.371  1.00  0.00     0.039 A 
ATOM     56  C   UNL A   1      38.362  32.892  30.056  1.00  0.00    -0.049 A 
ATOM     57  C   UNL A   1      38.215  31.635  32.128  1.00  0.00    -0.049 A 
ATOM     58  C   UNL A   1      39.197  31.917  29.522  1.00  0.00    -0.053 A 
ATOM     59  H   UNL A   1      38.090  33.708  29.486  1.00  0.00     0.063 H 
ATOM     60  C   UNL A   1      39.071  30.668  31.607  1.00  0.00    -0.053 A 
ATOM     61  H   UNL A   1      37.819  31.517  33.074  1.00  0.00     0.063 H 
ATOM     62  C   UNL A   1      39.572  30.821  30.309  1.00  0.00    -0.014 A 
ATOM     63  H   UNL A   1      39.538  32.001  28.552  1.00  0.00     0.063 H 
ATOM     64  H   UNL A   1      39.332  29.847  32.173  1.00  0.00     0.063 H 
BRANCH  62  65
ATOM     65  C   UNL A   1      40.658  29.943  29.819  1.00  0.00     0.031 A 
ATOM     66  C   UNL A   1      41.997  30.723  29.721  1.00  0.00     0.074 A 
ATOM     67  C   UNL A   1      40.313  28.650  29.526  1.00  0.00     0.049 A 
ATOM     68  N   UNL A   1      43.045  30.519  28.980  1.00  0.00    -0.248 NA
ATOM     69  C   UNL A   1      42.173  31.957  30.542  1.00  0.00    -0.034 C 
ATOM     70  C   UNL A   1      38.972  28.062  29.754  1.00  0.00    -0.036 A 
ATOM     71  N   UNL A   1      40.985  27.571  28.985  1.00  0.00    -0.354 N 
ATOM     72  C   UNL A   1      44.046  31.441  29.378  1.00  0.00     0.074 A 
ATOM     73  C   UNL A   1      43.412  32.369  30.260  1.00  0.00    -0.034 C 
ATOM     74  H   UNL A   1      41.492  32.393  31.184  1.00  0.00     0.065 H 
ATOM     75  C   UNL A   1      38.909  26.794  29.288  1.00  0.00    -0.036 A 
ATOM     76  H   UNL A   1      38.188  28.555  30.208  1.00  0.00     0.065 H 
ATOM     77  C   UNL A   1      40.187  26.420  28.718  1.00  0.00     0.049 A 
ATOM     78  H   UNL A   1      41.951  27.595  28.797  1.00  0.00     0.167 HD
ATOM     79  C   UNL A   1      45.369  31.294  29.060  1.00  0.00     0.037 A 
ATOM     80  H   UNL A   1      43.846  33.230  30.626  1.00  0.00     0.065 H 
ATOM     81  H   UNL A   1      38.076  26.185  29.333  1.00  0.00     0.065 H 
ATOM     82  C   UNL A   1      40.522  25.275  28.038  1.00  0.00     0.037 A 
ATOM     83  C   UNL A   1      45.531  30.159  28.221  1.00  0.00     0.049 A 
ATOM     84  C   UNL A   1      41.960  25.411  27.785  1.00  0.00     0.074 A 
ATOM     85  C   UNL A   1      45.227  29.939  26.905  1.00  0.00    -0.036 A 
ATOM     86  N   UNL A   1      45.748  28.958  28.845  1.00  0.00    -0.354 N 
ATOM     87  N   UNL A   1      42.880  25.262  28.689  1.00  0.00    -0.248 NA
ATOM     88  C   UNL A   1      42.402  25.836  26.453  1.00  0.00    -0.034 C 
ATOM     89  C   UNL A   1      44.780  28.603  26.903  1.00  0.00    -0.036 A 
ATOM     90  H   UNL A   1      45.304  30.592  26.109  1.00  0.00     0.065 H 
ATOM     91  C   UNL A   1      45.057  28.009  28.140  1.00  0.00     0.049 A 
ATOM     92  H   UNL A   1      46.297  28.807  29.649  1.00  0.00     0.167 HD
ATOM     93  C   UNL A   1      43.948  25.903  28.113  1.00  0.00     0.074 A 
ATOM     94  C   UNL A   1      43.708  25.922  26.688  1.00  0.00    -0.034 C 
ATOM     95  H   UNL A   1      41.862  26.015  25.591  1.00  0.00     0.065 H 
ATOM     96  H   UNL A   1      44.320  28.132  26.108  1.00  0.00     0.065 H 
ATOM     97  C   UNL A   1      44.642  26.818  28.837  1.00  0.00     0.037 A 
ATOM     98  H   UNL A   1      44.439  25.993  25.963  1.00  0.00     0.065 H 
BRANCH  79  99
ATOM     99  C   UNL A   1      46.639  31.907  29.598  1.00  0.00     0.064 A 
ATOM    100  C   UNL A   1      46.961  31.680  30.963  1.00  0.00     0.173 A 
ATOM    101  C   UNL A   1      47.300  32.977  28.984  1.00  0.00     0.173 A 
ATOM    102  F   UNL A   1      46.437  30.639  31.630  1.00  0.00    -0.203 F 
ATOM    103  C   UNL A   1      47.744  32.566  31.700  1.00  0.00     0.198 A 
ATOM    104  C   UNL A   1      48.131  33.834  29.715  1.00  0.00     0.198 A 
ATOM    105  F   UNL A   1      47.081  33.281  27.698  1.00  0.00    -0.203 F 
ATOM    106  F   UNL A   1      47.881  32.399  33.023  1.00  0.00    -0.200 F 
ATOM    107  C   UNL A   1      48.311  33.659  31.078  1.00  0.00     0.200 A 
ATOM    108  F   UNL A   1      48.695  34.887  29.106  1.00  0.00    -0.200 F 
ATOM    109  F   UNL A   1      48.997  34.560  31.794  1.00  0.00    -0.200 F 
ENDBRANCH  79  99
BRANCH  82 110
ATOM    110  C   UNL A   1      39.865  24.044  27.440  1.00  0.00     0.064 A 
ATOM    111  C   UNL A   1      38.722  24.020  26.634  1.00  0.00     0.173 A 
ATOM    112  C   UNL A   1      40.471  22.760  27.613  1.00  0.00     0.173 A 
ATOM    113  F   UNL A   1      37.962  25.109  26.484  1.00  0.00    -0.203 F 
ATOM    114  C   UNL A   1      38.308  22.851  25.959  1.00  0.00     0.198 A 
ATOM    115  C   UNL A   1      40.098  21.619  26.904  1.00  0.00     0.198 A 
ATOM    116  F   UNL A   1      41.466  22.561  28.488  1.00  0.00    -0.203 F 
ATOM    117  F   UNL A   1      37.209  22.881  25.190  1.00  0.00    -0.200 F 
ATOM    118  C   UNL A   1      39.022  21.668  26.056  1.00  0.00     0.200 A 
ATOM    119  F   UNL A   1      40.809  20.490  27.040  1.00  0.00    -0.200 F 
ATOM    120  F   UNL A   1      38.671  20.584  25.353  1.00  0.00    -0.200 F 
ENDBRANCH  82 110
BRANCH  97 121
ATOM    121  C   UNL A   1      44.521  26.636  30.340  1.00  0.00     0.064 A 
ATOM    122  C   UNL A   1      45.044  25.482  30.946  1.00  0.00     0.173 A 
ATOM    123  C   UNL A   1      43.795  27.493  31.185  1.00  0.00     0.173 A 
ATOM    124  F   UNL A   1      45.770  24.619  30.219  1.00  0.00    -0.203 F 
ATOM    125  C   UNL A   1      44.830  25.196  32.298  1.00  0.00     0.198 A 
ATOM    126  C   UNL A   1      43.583  27.215  32.539  1.00  0.00     0.198 A 
ATOM    127  F   UNL A   1      43.276  28.626  30.721  1.00  0.00    -0.203 F 
ATOM    128  F   UNL A   1      45.344  24.080  32.832  1.00  0.00    -0.200 F 
ATOM    129  C   UNL A   1      44.097  26.060  33.093  1.00  0.00     0.200 A 
ATOM    130  F   UNL A   1      42.885  28.073  33.299  1.00  0.00    -0.200 F 
ATOM    131  F   UNL A   1      43.900  25.791  34.392  1.00  0.00    -0.200 F 
ENDBRANCH  97 121
ENDBRANCH  62  65
ENDBRANCH  52  55
ENDBRANCH  48  51
ENDBRANCH  45  48
ENDBRANCH  42  45
ENDBRANCH   1  42
TORSDOF 15
ENDMDL
MODEL 7
REMARK VINA RESULT:     -11.5      4.305      9.229
REMARK SMILES O=C(Cc1cccn1-c1ccc2c(c1)OCCO2)NCCCCCCNC(=O)c1ccc(-c2c3nc(c(-c4c(F)c(F)c(F)c(F)c4F)c4ccc([nH]4)c(-c4c(F)c(F)c(F)c(F)c4F)c4nc(c(-c5c(F)c(F)c(F)c(F)c5F)c5ccc2[nH]5)C=C4)C=C3)cc1
REMARK SMILES IDX 22 1 21 4 20 7 19 10 1 11 2 12 3 14 4 17 5 18 8 19 6 20 7 22
REMARK SMILES IDX 9 25 10 26 14 27 11 28 13 30 12 32 15 34 18 35 16 36 17 37
REMARK SMILES IDX 23 42 24 45 25 48 26 51 27 52 28 54 29 55 30 56 91 57 31 58
REMARK SMILES IDX 90 60 32 62 33 65 34 66 84 67 35 68 89 69 83 70 85 71 36 72
REMARK SMILES IDX 88 73 82 75 81 77 37 79 69 82 49 83 68 84 50 85 53 86 67 87
REMARK SMILES IDX 86 88 51 89 52 91 66 93 87 94 54 97 38 99 39 100 47 101
REMARK SMILES IDX 40 102 41 103 45 104 48 105 42 106 43 107 46 108 44 109
REMARK SMILES IDX 70 110 71 111 79 112 72 113 73 114 77 115 80 116 74 117
REMARK SMILES IDX 75 118 78 119 76 120 55 121 56 122 64 123 57 124 58 125
REMARK SMILES IDX 62 126 65 127 59 128 60 129 63 130 61 131
REMARK H PARENT 22 2 22 3 21 5 21 6 20 8 20 9 19 13 3 15 3 16 5 21 6 23 7 24
REMARK H PARENT 10 29 14 31 11 33 16 38 16 39 17 40 17 41 23 43 23 44 24 46
REMARK H PARENT 24 47 25 49 25 50 26 53 30 59 91 61 31 63 90 64 89 74 83 76
REMARK H PARENT 85 78 88 80 82 81 50 90 53 92 86 95 51 96 87 98
REMARK Flexibility Score: inf
ROOT
ATOM      1  C   UNL A   1      36.450  22.596  23.497  1.00  0.00    -0.052 C 
ATOM      2  H   UNL A   1      36.885  23.547  23.270  1.00  0.00     0.027 H 
ATOM      3  H   UNL A   1      36.679  21.837  22.779  1.00  0.00     0.027 H 
ENDROOT
BRANCH   1   4
ATOM      4  C   UNL A   1      34.924  22.754  23.472  1.00  0.00    -0.036 C 
ATOM      5  H   UNL A   1      34.491  21.787  23.321  1.00  0.00     0.028 H 
ATOM      6  H   UNL A   1      34.652  23.198  24.407  1.00  0.00     0.028 H 
BRANCH   4   7
ATOM      7  C   UNL A   1      34.396  23.687  22.384  1.00  0.00     0.017 C 
ATOM      8  H   UNL A   1      35.215  24.234  21.967  1.00  0.00     0.049 H 
ATOM      9  H   UNL A   1      33.915  23.093  21.636  1.00  0.00     0.049 H 
BRANCH   7  10
ATOM     10  N   UNL A   1      33.428  24.621  22.914  1.00  0.00    -0.356 N 
ATOM     11  O   UNL A   1      33.278  25.934  21.034  1.00  0.00    -0.275 OA
ATOM     12  C   UNL A   1      32.922  25.671  22.179  1.00  0.00     0.225 C 
ATOM     13  H   UNL A   1      33.117  24.502  23.841  1.00  0.00     0.163 HD
BRANCH  12  14
ATOM     14  C   UNL A   1      31.900  26.505  22.933  1.00  0.00     0.067 C 
ATOM     15  H   UNL A   1      31.071  26.700  22.286  1.00  0.00     0.043 H 
ATOM     16  H   UNL A   1      32.384  27.408  23.241  1.00  0.00     0.043 H 
BRANCH  14  17
ATOM     17  C   UNL A   1      31.389  25.817  24.175  1.00  0.00     0.032 A 
ATOM     18  C   UNL A   1      30.646  24.649  24.301  1.00  0.00    -0.040 A 
ATOM     19  N   UNL A   1      31.753  26.207  25.462  1.00  0.00    -0.320 N 
ATOM     20  C   UNL A   1      30.653  24.264  25.656  1.00  0.00    -0.044 A 
ATOM     21  H   UNL A   1      30.172  24.149  23.532  1.00  0.00     0.064 H 
ATOM     22  C   UNL A   1      31.383  25.206  26.337  1.00  0.00     0.009 A 
ATOM     23  H   UNL A   1      30.195  23.431  26.060  1.00  0.00     0.064 H 
ATOM     24  H   UNL A   1      31.617  25.172  27.342  1.00  0.00     0.082 H 
BRANCH  19  25
ATOM     25  C   UNL A   1      32.393  27.406  25.862  1.00  0.00     0.049 A 
ATOM     26  C   UNL A   1      33.775  27.410  26.091  1.00  0.00    -0.034 A 
ATOM     27  C   UNL A   1      31.634  28.561  26.087  1.00  0.00     0.008 A 
ATOM     28  C   UNL A   1      34.403  28.585  26.508  1.00  0.00    -0.014 A 
ATOM     29  H   UNL A   1      34.326  26.548  25.953  1.00  0.00     0.065 H 
ATOM     30  C   UNL A   1      32.267  29.725  26.519  1.00  0.00     0.163 A 
ATOM     31  H   UNL A   1      30.614  28.550  25.935  1.00  0.00     0.069 H 
ATOM     32  C   UNL A   1      33.648  29.734  26.739  1.00  0.00     0.161 A 
ATOM     33  H   UNL A   1      35.425  28.603  26.646  1.00  0.00     0.066 H 
ATOM     34  O   UNL A   1      31.462  30.814  26.735  1.00  0.00    -0.486 OA
ATOM     35  O   UNL A   1      34.327  30.838  27.187  1.00  0.00    -0.486 OA
ATOM     36  C   UNL A   1      32.226  32.016  26.876  1.00  0.00     0.122 C 
ATOM     37  C   UNL A   1      33.433  31.790  27.773  1.00  0.00     0.122 C 
ATOM     38  H   UNL A   1      31.608  32.776  27.307  1.00  0.00     0.074 H 
ATOM     39  H   UNL A   1      32.571  32.317  25.909  1.00  0.00     0.074 H 
ATOM     40  H   UNL A   1      33.100  31.423  28.723  1.00  0.00     0.074 H 
ATOM     41  H   UNL A   1      33.950  32.719  27.894  1.00  0.00     0.074 H 
ENDBRANCH  19  25
ENDBRANCH  14  17
ENDBRANCH  12  14
ENDBRANCH   7  10
ENDBRANCH   4   7
ENDBRANCH   1   4
BRANCH   1  42
ATOM     42  C   UNL A   1      37.038  22.111  24.826  1.00  0.00    -0.052 C 
ATOM     43  H   UNL A   1      38.104  22.099  24.731  1.00  0.00     0.027 H 
ATOM     44  H   UNL A   1      36.615  21.145  25.004  1.00  0.00     0.027 H 
BRANCH  42  45
ATOM     45  C   UNL A   1      36.680  22.964  26.050  1.00  0.00    -0.036 C 
ATOM     46  H   UNL A   1      36.628  22.321  26.905  1.00  0.00     0.028 H 
ATOM     47  H   UNL A   1      35.746  23.440  25.835  1.00  0.00     0.028 H 
BRANCH  45  48
ATOM     48  C   UNL A   1      37.684  24.078  26.348  1.00  0.00     0.018 C 
ATOM     49  H   UNL A   1      37.353  24.627  27.204  1.00  0.00     0.049 H 
ATOM     50  H   UNL A   1      37.748  24.718  25.494  1.00  0.00     0.049 H 
BRANCH  48  51
ATOM     51  N   UNL A   1      39.005  23.532  26.616  1.00  0.00    -0.352 N 
ATOM     52  C   UNL A   1      40.184  24.175  26.890  1.00  0.00     0.251 C 
ATOM     53  H   UNL A   1      39.060  22.550  26.599  1.00  0.00     0.163 HD
ATOM     54  O   UNL A   1      41.242  23.587  26.703  1.00  0.00    -0.269 OA
BRANCH  52  55
ATOM     55  C   UNL A   1      40.209  25.562  27.400  1.00  0.00     0.039 A 
ATOM     56  C   UNL A   1      39.897  25.765  28.751  1.00  0.00    -0.049 A 
ATOM     57  C   UNL A   1      40.422  26.656  26.554  1.00  0.00    -0.049 A 
ATOM     58  C   UNL A   1      39.853  27.056  29.266  1.00  0.00    -0.053 A 
ATOM     59  H   UNL A   1      39.701  24.958  29.364  1.00  0.00     0.063 H 
ATOM     60  C   UNL A   1      40.403  27.949  27.069  1.00  0.00    -0.053 A 
ATOM     61  H   UNL A   1      40.591  26.505  25.548  1.00  0.00     0.063 H 
ATOM     62  C   UNL A   1      40.134  28.144  28.429  1.00  0.00    -0.014 A 
ATOM     63  H   UNL A   1      39.615  27.211  30.258  1.00  0.00     0.063 H 
ATOM     64  H   UNL A   1      40.586  28.756  26.455  1.00  0.00     0.063 H 
BRANCH  62  65
ATOM     65  C   UNL A   1      40.339  29.472  29.050  1.00  0.00     0.031 A 
ATOM     66  C   UNL A   1      38.990  30.226  29.201  1.00  0.00     0.074 A 
ATOM     67  C   UNL A   1      41.631  29.809  29.355  1.00  0.00     0.049 A 
ATOM     68  N   UNL A   1      38.733  31.497  29.273  1.00  0.00    -0.248 NA
ATOM     69  C   UNL A   1      37.723  29.436  29.222  1.00  0.00    -0.034 C 
ATOM     70  C   UNL A   1      42.799  28.913  29.195  1.00  0.00    -0.036 A 
ATOM     71  N   UNL A   1      42.239  30.947  29.851  1.00  0.00    -0.354 N 
ATOM     72  C   UNL A   1      37.349  31.646  29.544  1.00  0.00     0.074 A 
ATOM     73  C   UNL A   1      36.766  30.352  29.388  1.00  0.00    -0.034 C 
ATOM     74  H   UNL A   1      37.613  28.414  29.130  1.00  0.00     0.065 H 
ATOM     75  C   UNL A   1      43.952  29.551  29.498  1.00  0.00    -0.036 A 
ATOM     76  H   UNL A   1      42.741  27.928  28.892  1.00  0.00     0.065 H 
ATOM     77  C   UNL A   1      43.665  30.917  29.889  1.00  0.00     0.049 A 
ATOM     78  H   UNL A   1      41.723  31.727  30.159  1.00  0.00     0.167 HD
ATOM     79  C   UNL A   1      36.799  32.808  30.016  1.00  0.00     0.037 A 
ATOM     80  H   UNL A   1      35.754  30.152  29.401  1.00  0.00     0.065 H 
ATOM     81  H   UNL A   1      44.894  29.130  29.457  1.00  0.00     0.065 H 
ATOM     82  C   UNL A   1      44.544  31.935  30.161  1.00  0.00     0.037 A 
ATOM     83  C   UNL A   1      37.802  33.811  30.090  1.00  0.00     0.049 A 
ATOM     84  C   UNL A   1      43.690  33.048  30.586  1.00  0.00     0.074 A 
ATOM     85  C   UNL A   1      38.438  34.546  29.126  1.00  0.00    -0.036 A 
ATOM     86  N   UNL A   1      38.505  33.894  31.264  1.00  0.00    -0.354 N 
ATOM     87  N   UNL A   1      43.096  33.117  31.739  1.00  0.00    -0.248 NA
ATOM     88  C   UNL A   1      43.396  34.116  29.624  1.00  0.00    -0.034 C 
ATOM     89  C   UNL A   1      39.757  34.633  29.614  1.00  0.00    -0.036 A 
ATOM     90  H   UNL A   1      38.048  34.938  28.255  1.00  0.00     0.065 H 
ATOM     91  C   UNL A   1      39.806  34.170  30.934  1.00  0.00     0.049 A 
ATOM     92  H   UNL A   1      38.143  33.778  32.172  1.00  0.00     0.167 HD
ATOM     93  C   UNL A   1      42.115  34.046  31.496  1.00  0.00     0.074 A 
ATOM     94  C   UNL A   1      42.547  34.827  30.359  1.00  0.00    -0.034 C 
ATOM     95  H   UNL A   1      43.744  34.269  28.664  1.00  0.00     0.065 H 
ATOM     96  H   UNL A   1      40.565  34.987  29.078  1.00  0.00     0.065 H 
ATOM     97  C   UNL A   1      40.836  33.769  31.858  1.00  0.00     0.037 A 
ATOM     98  H   UNL A   1      42.243  35.791  30.151  1.00  0.00     0.065 H 
BRANCH  79  99
ATOM     99  C   UNL A   1      35.482  33.138  30.675  1.00  0.00     0.064 A 
ATOM    100  C   UNL A   1      34.715  34.204  30.131  1.00  0.00     0.173 A 
ATOM    101  C   UNL A   1      35.154  32.753  31.980  1.00  0.00     0.173 A 
ATOM    102  F   UNL A   1      34.899  34.608  28.864  1.00  0.00    -0.203 F 
ATOM    103  C   UNL A   1      33.816  34.941  30.899  1.00  0.00     0.198 A 
ATOM    104  C   UNL A   1      34.210  33.462  32.731  1.00  0.00     0.198 A 
ATOM    105  F   UNL A   1      35.806  31.756  32.592  1.00  0.00    -0.203 F 
ATOM    106  F   UNL A   1      33.241  36.039  30.389  1.00  0.00    -0.200 F 
ATOM    107  C   UNL A   1      33.581  34.582  32.210  1.00  0.00     0.200 A 
ATOM    108  F   UNL A   1      33.969  33.103  34.001  1.00  0.00    -0.200 F 
ATOM    109  F   UNL A   1      32.781  35.332  32.981  1.00  0.00    -0.200 F 
ENDBRANCH  79  99
BRANCH  82 110
ATOM    110  C   UNL A   1      46.028  32.245  30.071  1.00  0.00     0.064 A 
ATOM    111  C   UNL A   1      46.765  32.452  28.900  1.00  0.00     0.173 A 
ATOM    112  C   UNL A   1      46.787  32.437  31.268  1.00  0.00     0.173 A 
ATOM    113  F   UNL A   1      46.242  32.180  27.701  1.00  0.00    -0.203 F 
ATOM    114  C   UNL A   1      48.091  32.936  28.928  1.00  0.00     0.198 A 
ATOM    115  C   UNL A   1      48.075  32.969  31.298  1.00  0.00     0.198 A 
ATOM    116  F   UNL A   1      46.299  32.116  32.474  1.00  0.00    -0.203 F 
ATOM    117  F   UNL A   1      48.753  33.126  27.777  1.00  0.00    -0.200 F 
ATOM    118  C   UNL A   1      48.725  33.239  30.121  1.00  0.00     0.200 A 
ATOM    119  F   UNL A   1      48.659  33.232  32.476  1.00  0.00    -0.200 F 
ATOM    120  F   UNL A   1      49.955  33.771  30.139  1.00  0.00    -0.200 F 
ENDBRANCH  82 110
BRANCH  97 121
ATOM    121  C   UNL A   1      40.718  32.737  32.965  1.00  0.00     0.064 A 
ATOM    122  C   UNL A   1      41.203  33.034  34.249  1.00  0.00     0.173 A 
ATOM    123  C   UNL A   1      40.264  31.420  32.774  1.00  0.00     0.173 A 
ATOM    124  F   UNL A   1      41.635  34.273  34.527  1.00  0.00    -0.203 F 
ATOM    125  C   UNL A   1      41.253  32.070  35.261  1.00  0.00     0.198 A 
ATOM    126  C   UNL A   1      40.306  30.454  33.783  1.00  0.00     0.198 A 
ATOM    127  F   UNL A   1      39.762  31.037  31.604  1.00  0.00    -0.203 F 
ATOM    128  F   UNL A   1      41.729  32.397  36.469  1.00  0.00    -0.200 F 
ATOM    129  C   UNL A   1      40.809  30.779  35.027  1.00  0.00     0.200 A 
ATOM    130  F   UNL A   1      39.855  29.213  33.545  1.00  0.00    -0.200 F 
ATOM    131  F   UNL A   1      40.848  29.857  36.001  1.00  0.00    -0.200 F 
ENDBRANCH  97 121
ENDBRANCH  62  65
ENDBRANCH  52  55
ENDBRANCH  48  51
ENDBRANCH  45  48
ENDBRANCH  42  45
ENDBRANCH   1  42
TORSDOF 15
ENDMDL
MODEL 8
REMARK VINA RESULT:     -11.5      2.849      8.160
REMARK SMILES O=C(Cc1cccn1-c1ccc2c(c1)OCCO2)NCCCCCCNC(=O)c1ccc(-c2c3nc(c(-c4c(F)c(F)c(F)c(F)c4F)c4ccc([nH]4)c(-c4c(F)c(F)c(F)c(F)c4F)c4nc(c(-c5c(F)c(F)c(F)c(F)c5F)c5ccc2[nH]5)C=C4)C=C3)cc1
REMARK SMILES IDX 22 1 21 4 20 7 19 10 1 11 2 12 3 14 4 17 5 18 8 19 6 20 7 22
REMARK SMILES IDX 9 25 10 26 14 27 11 28 13 30 12 32 15 34 18 35 16 36 17 37
REMARK SMILES IDX 23 42 24 45 25 48 26 51 27 52 28 54 29 55 30 56 91 57 31 58
REMARK SMILES IDX 90 60 32 62 33 65 34 66 84 67 35 68 89 69 83 70 85 71 36 72
REMARK SMILES IDX 88 73 82 75 81 77 37 79 69 82 49 83 68 84 50 85 53 86 67 87
REMARK SMILES IDX 86 88 51 89 52 91 66 93 87 94 54 97 38 99 39 100 47 101
REMARK SMILES IDX 40 102 41 103 45 104 48 105 42 106 43 107 46 108 44 109
REMARK SMILES IDX 70 110 71 111 79 112 72 113 73 114 77 115 80 116 74 117
REMARK SMILES IDX 75 118 78 119 76 120 55 121 56 122 64 123 57 124 58 125
REMARK SMILES IDX 62 126 65 127 59 128 60 129 63 130 61 131
REMARK H PARENT 22 2 22 3 21 5 21 6 20 8 20 9 19 13 3 15 3 16 5 21 6 23 7 24
REMARK H PARENT 10 29 14 31 11 33 16 38 16 39 17 40 17 41 23 43 23 44 24 46
REMARK H PARENT 24 47 25 49 25 50 26 53 30 59 91 61 31 63 90 64 89 74 83 76
REMARK H PARENT 85 78 88 80 82 81 50 90 53 92 86 95 51 96 87 98
REMARK Flexibility Score: inf
ROOT
ATOM      1  C   UNL A   1      36.670  21.976  24.138  1.00  0.00    -0.052 C 
ATOM      2  H   UNL A   1      37.512  21.891  23.484  1.00  0.00     0.027 H 
ATOM      3  H   UNL A   1      35.735  22.064  23.624  1.00  0.00     0.027 H 
ENDROOT
BRANCH   1   4
ATOM      4  C   UNL A   1      36.829  23.268  24.950  1.00  0.00    -0.036 C 
ATOM      5  H   UNL A   1      37.805  23.268  25.389  1.00  0.00     0.028 H 
ATOM      6  H   UNL A   1      36.673  24.076  24.266  1.00  0.00     0.028 H 
BRANCH   4   7
ATOM      7  C   UNL A   1      35.805  23.449  26.069  1.00  0.00     0.017 C 
ATOM      8  H   UNL A   1      35.532  22.487  26.451  1.00  0.00     0.049 H 
ATOM      9  H   UNL A   1      36.247  24.050  26.836  1.00  0.00     0.049 H 
BRANCH   7  10
ATOM     10  N   UNL A   1      34.617  24.121  25.593  1.00  0.00    -0.356 N 
ATOM     11  O   UNL A   1      33.201  22.322  25.801  1.00  0.00    -0.275 OA
ATOM     12  C   UNL A   1      33.388  23.502  25.518  1.00  0.00     0.225 C 
ATOM     13  H   UNL A   1      34.689  25.061  25.311  1.00  0.00     0.163 HD
BRANCH  12  14
ATOM     14  C   UNL A   1      32.280  24.410  25.012  1.00  0.00     0.067 C 
ATOM     15  H   UNL A   1      32.137  25.202  25.718  1.00  0.00     0.043 H 
ATOM     16  H   UNL A   1      31.398  23.815  24.901  1.00  0.00     0.043 H 
BRANCH  14  17
ATOM     17  C   UNL A   1      32.592  25.017  23.666  1.00  0.00     0.032 A 
ATOM     18  C   UNL A   1      32.746  24.402  22.430  1.00  0.00    -0.040 A 
ATOM     19  N   UNL A   1      32.618  26.392  23.442  1.00  0.00    -0.320 N 
ATOM     20  C   UNL A   1      32.751  25.401  21.436  1.00  0.00    -0.044 A 
ATOM     21  H   UNL A   1      32.840  23.387  22.267  1.00  0.00     0.064 H 
ATOM     22  C   UNL A   1      32.617  26.606  22.078  1.00  0.00     0.009 A 
ATOM     23  H   UNL A   1      32.839  25.253  20.418  1.00  0.00     0.064 H 
ATOM     24  H   UNL A   1      32.529  27.525  21.617  1.00  0.00     0.082 H 
BRANCH  19  25
ATOM     25  C   UNL A   1      32.640  27.432  24.404  1.00  0.00     0.049 A 
ATOM     26  C   UNL A   1      31.519  28.259  24.554  1.00  0.00    -0.034 A 
ATOM     27  C   UNL A   1      33.800  27.669  25.149  1.00  0.00     0.008 A 
ATOM     28  C   UNL A   1      31.549  29.299  25.485  1.00  0.00    -0.014 A 
ATOM     29  H   UNL A   1      30.676  28.100  23.981  1.00  0.00     0.065 H 
ATOM     30  C   UNL A   1      33.827  28.720  26.064  1.00  0.00     0.163 A 
ATOM     31  H   UNL A   1      34.631  27.070  25.023  1.00  0.00     0.069 H 
ATOM     32  C   UNL A   1      32.706  29.540  26.224  1.00  0.00     0.161 A 
ATOM     33  H   UNL A   1      30.715  29.890  25.625  1.00  0.00     0.066 H 
ATOM     34  O   UNL A   1      35.000  28.904  26.750  1.00  0.00    -0.486 OA
ATOM     35  O   UNL A   1      32.675  30.605  27.087  1.00  0.00    -0.486 OA
ATOM     36  C   UNL A   1      34.830  29.792  27.858  1.00  0.00     0.122 C 
ATOM     37  C   UNL A   1      33.998  31.002  27.463  1.00  0.00     0.122 C 
ATOM     38  H   UNL A   1      35.791  30.123  28.193  1.00  0.00     0.074 H 
ATOM     39  H   UNL A   1      34.321  29.269  28.640  1.00  0.00     0.074 H 
ATOM     40  H   UNL A   1      34.466  31.494  26.635  1.00  0.00     0.074 H 
ATOM     41  H   UNL A   1      33.934  31.664  28.301  1.00  0.00     0.074 H 
ENDBRANCH  19  25
ENDBRANCH  14  17
ENDBRANCH  12  14
ENDBRANCH   7  10
ENDBRANCH   4   7
ENDBRANCH   1   4
BRANCH   1  42
ATOM     42  C   UNL A   1      36.579  20.688  24.962  1.00  0.00    -0.052 C 
ATOM     43  H   UNL A   1      35.759  20.112  24.587  1.00  0.00     0.027 H 
ATOM     44  H   UNL A   1      36.455  20.995  25.980  1.00  0.00     0.027 H 
BRANCH  42  45
ATOM     45  C   UNL A   1      37.832  19.804  24.935  1.00  0.00    -0.036 C 
ATOM     46  H   UNL A   1      38.121  19.661  23.914  1.00  0.00     0.028 H 
ATOM     47  H   UNL A   1      37.576  18.886  25.423  1.00  0.00     0.028 H 
BRANCH  45  48
ATOM     48  C   UNL A   1      39.024  20.389  25.693  1.00  0.00     0.018 C 
ATOM     49  H   UNL A   1      38.686  20.773  26.633  1.00  0.00     0.049 H 
ATOM     50  H   UNL A   1      39.454  21.169  25.102  1.00  0.00     0.049 H 
BRANCH  48  51
ATOM     51  N   UNL A   1      40.039  19.376  25.932  1.00  0.00    -0.352 N 
ATOM     52  C   UNL A   1      41.393  19.509  26.099  1.00  0.00     0.251 C 
ATOM     53  H   UNL A   1      39.701  18.453  25.981  1.00  0.00     0.163 HD
ATOM     54  O   UNL A   1      42.117  18.540  25.901  1.00  0.00    -0.269 OA
BRANCH  52  55
ATOM     55  C   UNL A   1      42.000  20.792  26.507  1.00  0.00     0.039 A 
ATOM     56  C   UNL A   1      42.491  21.631  25.497  1.00  0.00    -0.049 A 
ATOM     57  C   UNL A   1      42.191  21.125  27.853  1.00  0.00    -0.049 A 
ATOM     58  C   UNL A   1      43.121  22.824  25.832  1.00  0.00    -0.053 A 
ATOM     59  H   UNL A   1      42.385  21.364  24.506  1.00  0.00     0.063 H 
ATOM     60  C   UNL A   1      42.799  22.330  28.194  1.00  0.00    -0.053 A 
ATOM     61  H   UNL A   1      41.882  20.476  28.593  1.00  0.00     0.063 H 
ATOM     62  C   UNL A   1      43.249  23.184  27.180  1.00  0.00    -0.014 A 
ATOM     63  H   UNL A   1      43.492  23.441  25.092  1.00  0.00     0.063 H 
ATOM     64  H   UNL A   1      42.918  22.591  29.184  1.00  0.00     0.063 H 
BRANCH  62  65
ATOM     65  C   UNL A   1      43.679  24.564  27.500  1.00  0.00     0.031 A 
ATOM     66  C   UNL A   1      42.453  25.482  27.748  1.00  0.00     0.074 A 
ATOM     67  C   UNL A   1      45.030  24.795  27.505  1.00  0.00     0.049 A 
ATOM     68  N   UNL A   1      42.320  26.769  27.631  1.00  0.00    -0.248 NA
ATOM     69  C   UNL A   1      41.154  24.858  28.139  1.00  0.00    -0.034 C 
ATOM     70  C   UNL A   1      46.066  23.756  27.307  1.00  0.00    -0.036 A 
ATOM     71  N   UNL A   1      45.814  25.921  27.667  1.00  0.00    -0.354 N 
ATOM     72  C   UNL A   1      41.033  27.120  28.112  1.00  0.00     0.074 A 
ATOM     73  C   UNL A   1      40.326  25.893  28.301  1.00  0.00    -0.034 C 
ATOM     74  H   UNL A   1      40.944  23.855  28.257  1.00  0.00     0.065 H 
ATOM     75  C   UNL A   1      47.304  24.298  27.277  1.00  0.00    -0.036 A 
ATOM     76  H   UNL A   1      45.870  22.748  27.204  1.00  0.00     0.065 H 
ATOM     77  C   UNL A   1      47.212  25.733  27.456  1.00  0.00     0.049 A 
ATOM     78  H   UNL A   1      45.435  26.795  27.914  1.00  0.00     0.167 HD
ATOM     79  C   UNL A   1      40.683  28.399  28.453  1.00  0.00     0.037 A 
ATOM     80  H   UNL A   1      39.323  25.817  28.531  1.00  0.00     0.065 H 
ATOM     81  H   UNL A   1      48.182  23.770  27.147  1.00  0.00     0.065 H 
ATOM     82  C   UNL A   1      48.209  26.674  27.377  1.00  0.00     0.037 A 
ATOM     83  C   UNL A   1      41.761  29.278  28.162  1.00  0.00     0.049 A 
ATOM     84  C   UNL A   1      47.548  27.933  27.735  1.00  0.00     0.074 A 
ATOM     85  C   UNL A   1      42.255  29.766  26.982  1.00  0.00    -0.036 A 
ATOM     86  N   UNL A   1      42.684  29.472  29.157  1.00  0.00    -0.354 N 
ATOM     87  N   UNL A   1      47.199  28.259  28.943  1.00  0.00    -0.248 NA
ATOM     88  C   UNL A   1      47.162  28.854  26.662  1.00  0.00    -0.034 C 
ATOM     89  C   UNL A   1      43.646  29.779  27.204  1.00  0.00    -0.036 A 
ATOM     90  H   UNL A   1      41.736  30.052  26.138  1.00  0.00     0.065 H 
ATOM     91  C   UNL A   1      43.913  29.537  28.557  1.00  0.00     0.049 A 
ATOM     92  H   UNL A   1      42.497  29.548  30.121  1.00  0.00     0.167 HD
ATOM     93  C   UNL A   1      46.269  29.241  28.712  1.00  0.00     0.074 A 
ATOM     94  C   UNL A   1      46.534  29.770  27.393  1.00  0.00    -0.034 C 
ATOM     95  H   UNL A   1      47.327  28.807  25.643  1.00  0.00     0.065 H 
ATOM     96  H   UNL A   1      44.360  29.945  26.478  1.00  0.00     0.065 H 
ATOM     97  C   UNL A   1      45.068  29.178  29.340  1.00  0.00     0.037 A 
ATOM     98  H   UNL A   1      46.276  30.715  27.069  1.00  0.00     0.065 H 
BRANCH  79  99
ATOM     99  C   UNL A   1      39.552  28.983  29.263  1.00  0.00     0.064 A 
ATOM    100  C   UNL A   1      38.685  29.909  28.624  1.00  0.00     0.173 A 
ATOM    101  C   UNL A   1      39.529  28.989  30.662  1.00  0.00     0.173 A 
ATOM    102  F   UNL A   1      38.577  29.941  27.286  1.00  0.00    -0.203 F 
ATOM    103  C   UNL A   1      37.987  30.885  29.332  1.00  0.00     0.198 A 
ATOM    104  C   UNL A   1      38.783  29.936  31.373  1.00  0.00     0.198 A 
ATOM    105  F   UNL A   1      40.300  28.155  31.372  1.00  0.00    -0.203 F 
ATOM    106  F   UNL A   1      37.315  31.839  28.673  1.00  0.00    -0.200 F 
ATOM    107  C   UNL A   1      38.055  30.912  30.709  1.00  0.00     0.200 A 
ATOM    108  F   UNL A   1      38.836  29.952  32.713  1.00  0.00    -0.200 F 
ATOM    109  F   UNL A   1      37.455  31.895  31.395  1.00  0.00    -0.200 F 
ENDBRANCH  79  99
BRANCH  82 110
ATOM    110  C   UNL A   1      49.667  26.791  26.969  1.00  0.00     0.064 A 
ATOM    111  C   UNL A   1      50.772  26.807  27.826  1.00  0.00     0.173 A 
ATOM    112  C   UNL A   1      50.017  26.809  25.582  1.00  0.00     0.173 A 
ATOM    113  F   UNL A   1      50.616  26.931  29.148  1.00  0.00    -0.203 F 
ATOM    114  C   UNL A   1      52.095  26.712  27.343  1.00  0.00     0.198 A 
ATOM    115  C   UNL A   1      51.318  26.659  25.104  1.00  0.00     0.198 A 
ATOM    116  F   UNL A   1      49.096  26.973  24.623  1.00  0.00    -0.203 F 
ATOM    117  F   UNL A   1      53.121  26.723  28.206  1.00  0.00    -0.200 F 
ATOM    118  C   UNL A   1      52.363  26.589  25.989  1.00  0.00     0.200 A 
ATOM    119  F   UNL A   1      51.533  26.560  23.784  1.00  0.00    -0.200 F 
ATOM    120  F   UNL A   1      53.614  26.421  25.540  1.00  0.00    -0.200 F 
ENDBRANCH  82 110
BRANCH  97 121
ATOM    121  C   UNL A   1      45.083  28.362  30.621  1.00  0.00     0.064 A 
ATOM    122  C   UNL A   1      45.808  28.823  31.731  1.00  0.00     0.173 A 
ATOM    123  C   UNL A   1      44.518  27.081  30.750  1.00  0.00     0.173 A 
ATOM    124  F   UNL A   1      46.363  30.044  31.704  1.00  0.00    -0.203 F 
ATOM    125  C   UNL A   1      45.977  28.042  32.879  1.00  0.00     0.198 A 
ATOM    126  C   UNL A   1      44.678  26.299  31.897  1.00  0.00     0.198 A 
ATOM    127  F   UNL A   1      43.791  26.557  29.768  1.00  0.00    -0.203 F 
ATOM    128  F   UNL A   1      46.682  28.521  33.912  1.00  0.00    -0.200 F 
ATOM    129  C   UNL A   1      45.415  26.779  32.961  1.00  0.00     0.200 A 
ATOM    130  F   UNL A   1      44.112  25.084  31.966  1.00  0.00    -0.200 F 
ATOM    131  F   UNL A   1      45.569  26.034  34.066  1.00  0.00    -0.200 F 
ENDBRANCH  97 121
ENDBRANCH  62  65
ENDBRANCH  52  55
ENDBRANCH  48  51
ENDBRANCH  45  48
ENDBRANCH  42  45
ENDBRANCH   1  42
TORSDOF 15
ENDMDL
MODEL 9
REMARK VINA RESULT:     -11.4      3.650      9.367
REMARK SMILES O=C(Cc1cccn1-c1ccc2c(c1)OCCO2)NCCCCCCNC(=O)c1ccc(-c2c3nc(c(-c4c(F)c(F)c(F)c(F)c4F)c4ccc([nH]4)c(-c4c(F)c(F)c(F)c(F)c4F)c4nc(c(-c5c(F)c(F)c(F)c(F)c5F)c5ccc2[nH]5)C=C4)C=C3)cc1
REMARK SMILES IDX 22 1 21 4 20 7 19 10 1 11 2 12 3 14 4 17 5 18 8 19 6 20 7 22
REMARK SMILES IDX 9 25 10 26 14 27 11 28 13 30 12 32 15 34 18 35 16 36 17 37
REMARK SMILES IDX 23 42 24 45 25 48 26 51 27 52 28 54 29 55 30 56 91 57 31 58
REMARK SMILES IDX 90 60 32 62 33 65 34 66 84 67 35 68 89 69 83 70 85 71 36 72
REMARK SMILES IDX 88 73 82 75 81 77 37 79 69 82 49 83 68 84 50 85 53 86 67 87
REMARK SMILES IDX 86 88 51 89 52 91 66 93 87 94 54 97 38 99 39 100 47 101
REMARK SMILES IDX 40 102 41 103 45 104 48 105 42 106 43 107 46 108 44 109
REMARK SMILES IDX 70 110 71 111 79 112 72 113 73 114 77 115 80 116 74 117
REMARK SMILES IDX 75 118 78 119 76 120 55 121 56 122 64 123 57 124 58 125
REMARK SMILES IDX 62 126 65 127 59 128 60 129 63 130 61 131
REMARK H PARENT 22 2 22 3 21 5 21 6 20 8 20 9 19 13 3 15 3 16 5 21 6 23 7 24
REMARK H PARENT 10 29 14 31 11 33 16 38 16 39 17 40 17 41 23 43 23 44 24 46
REMARK H PARENT 24 47 25 49 25 50 26 53 30 59 91 61 31 63 90 64 89 74 83 76
REMARK H PARENT 85 78 88 80 82 81 50 90 53 92 86 95 51 96 87 98
REMARK Flexibility Score: inf
ROOT
ATOM      1  C   UNL A   1      39.883  22.058  26.787  1.00  0.00    -0.052 C 
ATOM      2  H   UNL A   1      39.774  21.844  25.744  1.00  0.00     0.027 H 
ATOM      3  H   UNL A   1      39.100  21.651  27.392  1.00  0.00     0.027 H 
ENDROOT
BRANCH   1   4
ATOM      4  C   UNL A   1      39.811  23.579  26.970  1.00  0.00    -0.036 C 
ATOM      5  H   UNL A   1      39.931  23.796  28.011  1.00  0.00     0.028 H 
ATOM      6  H   UNL A   1      40.587  23.993  26.360  1.00  0.00     0.028 H 
BRANCH   4   7
ATOM      7  C   UNL A   1      38.507  24.219  26.499  1.00  0.00     0.017 C 
ATOM      8  H   UNL A   1      37.841  24.305  27.332  1.00  0.00     0.049 H 
ATOM      9  H   UNL A   1      38.732  25.183  26.092  1.00  0.00     0.049 H 
BRANCH   7  10
ATOM     10  N   UNL A   1      37.873  23.428  25.469  1.00  0.00    -0.356 N 
ATOM     11  O   UNL A   1      35.830  23.242  26.505  1.00  0.00    -0.275 OA
ATOM     12  C   UNL A   1      36.560  23.016  25.544  1.00  0.00     0.225 C 
ATOM     13  H   UNL A   1      38.403  23.171  24.679  1.00  0.00     0.163 HD
BRANCH  12  14
ATOM     14  C   UNL A   1      36.103  22.217  24.336  1.00  0.00     0.067 C 
ATOM     15  H   UNL A   1      36.768  21.389  24.201  1.00  0.00     0.043 H 
ATOM     16  H   UNL A   1      36.113  22.873  23.491  1.00  0.00     0.043 H 
BRANCH  14  17
ATOM     17  C   UNL A   1      34.698  21.687  24.485  1.00  0.00     0.032 A 
ATOM     18  C   UNL A   1      34.257  20.471  24.992  1.00  0.00    -0.040 A 
ATOM     19  N   UNL A   1      33.566  22.466  24.258  1.00  0.00    -0.320 N 
ATOM     20  C   UNL A   1      32.864  20.549  25.183  1.00  0.00    -0.044 A 
ATOM     21  H   UNL A   1      34.850  19.650  25.196  1.00  0.00     0.064 H 
ATOM     22  C   UNL A   1      32.474  21.801  24.776  1.00  0.00     0.009 A 
ATOM     23  H   UNL A   1      32.253  19.806  25.558  1.00  0.00     0.064 H 
ATOM     24  H   UNL A   1      31.518  22.183  24.846  1.00  0.00     0.082 H 
BRANCH  19  25
ATOM     25  C   UNL A   1      33.490  23.727  23.617  1.00  0.00     0.049 A 
ATOM     26  C   UNL A   1      33.278  23.789  22.233  1.00  0.00    -0.034 A 
ATOM     27  C   UNL A   1      33.690  24.899  24.355  1.00  0.00     0.008 A 
ATOM     28  C   UNL A   1      33.226  25.031  21.597  1.00  0.00    -0.014 A 
ATOM     29  H   UNL A   1      33.161  22.921  21.687  1.00  0.00     0.065 H 
ATOM     30  C   UNL A   1      33.653  26.133  23.709  1.00  0.00     0.163 A 
ATOM     31  H   UNL A   1      33.864  24.850  25.371  1.00  0.00     0.069 H 
ATOM     32  C   UNL A   1      33.431  26.198  22.330  1.00  0.00     0.161 A 
ATOM     33  H   UNL A   1      33.037  25.084  20.584  1.00  0.00     0.066 H 
ATOM     34  O   UNL A   1      33.872  27.239  24.490  1.00  0.00    -0.486 OA
ATOM     35  O   UNL A   1      33.408  27.377  21.630  1.00  0.00    -0.486 OA
ATOM     36  C   UNL A   1      33.518  28.446  23.809  1.00  0.00     0.122 C 
ATOM     37  C   UNL A   1      34.027  28.431  22.377  1.00  0.00     0.122 C 
ATOM     38  H   UNL A   1      33.948  29.279  24.324  1.00  0.00     0.074 H 
ATOM     39  H   UNL A   1      32.451  28.527  23.791  1.00  0.00     0.074 H 
ATOM     40  H   UNL A   1      35.088  28.282  22.383  1.00  0.00     0.074 H 
ATOM     41  H   UNL A   1      33.786  29.366  21.916  1.00  0.00     0.074 H 
ENDBRANCH  19  25
ENDBRANCH  14  17
ENDBRANCH  12  14
ENDBRANCH   7  10
ENDBRANCH   4   7
ENDBRANCH   1   4
BRANCH   1  42
ATOM     42  C   UNL A   1      41.178  21.398  27.272  1.00  0.00    -0.052 C 
ATOM     43  H   UNL A   1      40.920  20.479  27.757  1.00  0.00     0.027 H 
ATOM     44  H   UNL A   1      41.647  22.106  27.923  1.00  0.00     0.027 H 
BRANCH  42  45
ATOM     45  C   UNL A   1      42.203  21.084  26.175  1.00  0.00    -0.036 C 
ATOM     46  H   UNL A   1      41.714  20.519  25.408  1.00  0.00     0.028 H 
ATOM     47  H   UNL A   1      43.000  20.542  26.640  1.00  0.00     0.028 H 
BRANCH  45  48
ATOM     48  C   UNL A   1      42.827  22.324  25.533  1.00  0.00     0.018 C 
ATOM     49  H   UNL A   1      42.288  23.191  25.851  1.00  0.00     0.049 H 
ATOM     50  H   UNL A   1      42.776  22.219  24.470  1.00  0.00     0.049 H 
BRANCH  48  51
ATOM     51  N   UNL A   1      44.221  22.464  25.918  1.00  0.00    -0.352 N 
ATOM     52  C   UNL A   1      44.884  23.541  26.448  1.00  0.00     0.251 C 
ATOM     53  H   UNL A   1      44.775  21.663  25.776  1.00  0.00     0.163 HD
ATOM     54  O   UNL A   1      46.103  23.603  26.342  1.00  0.00    -0.269 OA
BRANCH  52  55
ATOM     55  C   UNL A   1      44.163  24.630  27.139  1.00  0.00     0.039 A 
ATOM     56  C   UNL A   1      43.283  24.276  28.171  1.00  0.00    -0.049 A 
ATOM     57  C   UNL A   1      44.253  25.960  26.716  1.00  0.00    -0.049 A 
ATOM     58  C   UNL A   1      42.539  25.259  28.815  1.00  0.00    -0.053 A 
ATOM     59  H   UNL A   1      43.188  23.289  28.454  1.00  0.00     0.063 H 
ATOM     60  C   UNL A   1      43.529  26.951  27.373  1.00  0.00    -0.053 A 
ATOM     61  H   UNL A   1      44.856  26.208  25.916  1.00  0.00     0.063 H 
ATOM     62  C   UNL A   1      42.686  26.599  28.433  1.00  0.00    -0.014 A 
ATOM     63  H   UNL A   1      41.884  25.002  29.570  1.00  0.00     0.063 H 
ATOM     64  H   UNL A   1      43.615  27.937  27.082  1.00  0.00     0.063 H 
BRANCH  62  65
ATOM     65  C   UNL A   1      42.092  27.644  29.297  1.00  0.00     0.031 A 
ATOM     66  C   UNL A   1      42.853  27.745  30.646  1.00  0.00     0.074 A 
ATOM     67  C   UNL A   1      41.003  28.306  28.792  1.00  0.00     0.049 A 
ATOM     68  N   UNL A   1      42.463  28.169  31.810  1.00  0.00    -0.248 NA
ATOM     69  C   UNL A   1      44.258  27.244  30.718  1.00  0.00    -0.034 C 
ATOM     70  C   UNL A   1      40.453  28.112  27.431  1.00  0.00    -0.036 A 
ATOM     71  N   UNL A   1      40.136  29.258  29.294  1.00  0.00    -0.354 N 
ATOM     72  C   UNL A   1      43.590  28.178  32.670  1.00  0.00     0.074 A 
ATOM     73  C   UNL A   1      44.633  27.493  31.975  1.00  0.00    -0.034 C 
ATOM     74  H   UNL A   1      44.813  26.806  29.967  1.00  0.00     0.065 H 
ATOM     75  C   UNL A   1      39.327  28.839  27.250  1.00  0.00    -0.036 A 
ATOM     76  H   UNL A   1      40.873  27.502  26.713  1.00  0.00     0.065 H 
ATOM     77  C   UNL A   1      39.027  29.581  28.458  1.00  0.00     0.049 A 
ATOM     78  H   UNL A   1      40.276  29.686  30.169  1.00  0.00     0.167 HD
ATOM     79  C   UNL A   1      43.628  28.874  33.849  1.00  0.00     0.037 A 
ATOM     80  H   UNL A   1      45.543  27.229  32.383  1.00  0.00     0.065 H 
ATOM     81  H   UNL A   1      38.767  28.862  26.383  1.00  0.00     0.065 H 
ATOM     82  C   UNL A   1      37.923  30.346  28.744  1.00  0.00     0.037 A 
ATOM     83  C   UNL A   1      42.363  29.476  34.083  1.00  0.00     0.049 A 
ATOM     84  C   UNL A   1      38.211  30.919  30.062  1.00  0.00     0.074 A 
ATOM     85  C   UNL A   1      41.156  28.958  34.470  1.00  0.00    -0.036 A 
ATOM     86  N   UNL A   1      42.175  30.734  33.571  1.00  0.00    -0.354 N 
ATOM     87  N   UNL A   1      39.057  31.881  30.274  1.00  0.00    -0.248 NA
ATOM     88  C   UNL A   1      37.585  30.316  31.243  1.00  0.00    -0.034 C 
ATOM     89  C   UNL A   1      40.233  29.712  33.719  1.00  0.00    -0.036 A 
ATOM     90  H   UNL A   1      40.969  28.199  35.144  1.00  0.00     0.065 H 
ATOM     91  C   UNL A   1      40.886  30.791  33.111  1.00  0.00     0.049 A 
ATOM     92  H   UNL A   1      42.841  31.458  33.539  1.00  0.00     0.167 HD
ATOM     93  C   UNL A   1      39.301  31.752  31.618  1.00  0.00     0.074 A 
ATOM     94  C   UNL A   1      38.174  31.047  32.184  1.00  0.00    -0.034 C 
ATOM     95  H   UNL A   1      36.894  29.552  31.320  1.00  0.00     0.065 H 
ATOM     96  H   UNL A   1      39.226  29.501  33.633  1.00  0.00     0.065 H 
ATOM     97  C   UNL A   1      40.584  31.729  32.060  1.00  0.00     0.037 A 
ATOM     98  H   UNL A   1      37.872  31.102  33.169  1.00  0.00     0.065 H 
BRANCH  79  99
ATOM     99  C   UNL A   1      44.749  29.313  34.758  1.00  0.00     0.064 A 
ATOM    100  C   UNL A   1      44.705  28.900  36.117  1.00  0.00     0.173 A 
ATOM    101  C   UNL A   1      45.595  30.392  34.474  1.00  0.00     0.173 A 
ATOM    102  F   UNL A   1      43.980  27.833  36.489  1.00  0.00    -0.203 F 
ATOM    103  C   UNL A   1      45.319  29.626  37.135  1.00  0.00     0.198 A 
ATOM    104  C   UNL A   1      46.255  31.086  35.494  1.00  0.00     0.198 A 
ATOM    105  F   UNL A   1      45.722  30.863  33.227  1.00  0.00    -0.203 F 
ATOM    106  F   UNL A   1      45.110  29.292  38.416  1.00  0.00    -0.200 F 
ATOM    107  C   UNL A   1      46.077  30.736  36.824  1.00  0.00     0.200 A 
ATOM    108  F   UNL A   1      47.005  32.155  35.190  1.00  0.00    -0.200 F 
ATOM    109  F   UNL A   1      46.604  31.488  37.800  1.00  0.00    -0.200 F 
ENDBRANCH  79  99
BRANCH  82 110
ATOM    110  C   UNL A   1      36.556  30.674  28.170  1.00  0.00     0.064 A 
ATOM    111  C   UNL A   1      35.592  29.755  27.740  1.00  0.00     0.173 A 
ATOM    112  C   UNL A   1      36.117  32.034  28.115  1.00  0.00     0.173 A 
ATOM    113  F   UNL A   1      35.890  28.460  27.601  1.00  0.00    -0.203 F 
ATOM    114  C   UNL A   1      34.276  30.149  27.416  1.00  0.00     0.198 A 
ATOM    115  C   UNL A   1      34.803  32.419  27.850  1.00  0.00     0.198 A 
ATOM    116  F   UNL A   1      36.956  33.057  28.321  1.00  0.00    -0.203 F 
ATOM    117  F   UNL A   1      33.386  29.229  27.016  1.00  0.00    -0.200 F 
ATOM    118  C   UNL A   1      33.871  31.470  27.518  1.00  0.00     0.200 A 
ATOM    119  F   UNL A   1      34.458  33.711  27.946  1.00  0.00    -0.200 F 
ATOM    120  F   UNL A   1      32.601  31.828  27.285  1.00  0.00    -0.200 F 
ENDBRANCH  82 110
BRANCH  97 121
ATOM    121  C   UNL A   1      41.573  32.392  31.117  1.00  0.00     0.064 A 
ATOM    122  C   UNL A   1      41.488  33.773  30.877  1.00  0.00     0.173 A 
ATOM    123  C   UNL A   1      42.518  31.695  30.343  1.00  0.00     0.173 A 
ATOM    124  F   UNL A   1      40.629  34.521  31.587  1.00  0.00    -0.203 F 
ATOM    125  C   UNL A   1      42.276  34.405  29.910  1.00  0.00     0.198 A 
ATOM    126  C   UNL A   1      43.312  32.323  29.379  1.00  0.00     0.198 A 
ATOM    127  F   UNL A   1      42.698  30.388  30.506  1.00  0.00    -0.203 F 
ATOM    128  F   UNL A   1      42.156  35.724  29.711  1.00  0.00    -0.200 F 
ATOM    129  C   UNL A   1      43.184  33.679  29.158  1.00  0.00     0.200 A 
ATOM    130  F   UNL A   1      44.200  31.607  28.671  1.00  0.00    -0.200 F 
ATOM    131  F   UNL A   1      43.946  34.286  28.236  1.00  0.00    -0.200 F 
ENDBRANCH  97 121
ENDBRANCH  62  65
ENDBRANCH  52  55
ENDBRANCH  48  51
ENDBRANCH  45  48
ENDBRANCH  42  45
ENDBRANCH   1  42
TORSDOF 15
ENDMDL
MODEL 10
REMARK VINA RESULT:     -11.4      4.249      6.575
REMARK SMILES O=C(Cc1cccn1-c1ccc2c(c1)OCCO2)NCCCCCCNC(=O)c1ccc(-c2c3nc(c(-c4c(F)c(F)c(F)c(F)c4F)c4ccc([nH]4)c(-c4c(F)c(F)c(F)c(F)c4F)c4nc(c(-c5c(F)c(F)c(F)c(F)c5F)c5ccc2[nH]5)C=C4)C=C3)cc1
REMARK SMILES IDX 22 1 21 4 20 7 19 10 1 11 2 12 3 14 4 17 5 18 8 19 6 20 7 22
REMARK SMILES IDX 9 25 10 26 14 27 11 28 13 30 12 32 15 34 18 35 16 36 17 37
REMARK SMILES IDX 23 42 24 45 25 48 26 51 27 52 28 54 29 55 30 56 91 57 31 58
REMARK SMILES IDX 90 60 32 62 33 65 34 66 84 67 35 68 89 69 83 70 85 71 36 72
REMARK SMILES IDX 88 73 82 75 81 77 37 79 69 82 49 83 68 84 50 85 53 86 67 87
REMARK SMILES IDX 86 88 51 89 52 91 66 93 87 94 54 97 38 99 39 100 47 101
REMARK SMILES IDX 40 102 41 103 45 104 48 105 42 106 43 107 46 108 44 109
REMARK SMILES IDX 70 110 71 111 79 112 72 113 73 114 77 115 80 116 74 117
REMARK SMILES IDX 75 118 78 119 76 120 55 121 56 122 64 123 57 124 58 125
REMARK SMILES IDX 62 126 65 127 59 128 60 129 63 130 61 131
REMARK H PARENT 22 2 22 3 21 5 21 6 20 8 20 9 19 13 3 15 3 16 5 21 6 23 7 24
REMARK H PARENT 10 29 14 31 11 33 16 38 16 39 17 40 17 41 23 43 23 44 24 46
REMARK H PARENT 24 47 25 49 25 50 26 53 30 59 91 61 31 63 90 64 89 74 83 76
REMARK H PARENT 85 78 88 80 82 81 50 90 53 92 86 95 51 96 87 98
REMARK Flexibility Score: inf
ROOT
ATOM      1  C   UNL A   1      32.097  29.434  26.638  1.00  0.00    -0.052 C 
ATOM      2  H   UNL A   1      32.104  29.774  27.652  1.00  0.00     0.027 H 
ATOM      3  H   UNL A   1      31.457  28.593  26.472  1.00  0.00     0.027 H 
ENDROOT
BRANCH   1   4
ATOM      4  C   UNL A   1      33.514  28.963  26.286  1.00  0.00    -0.036 C 
ATOM      5  H   UNL A   1      33.759  29.340  25.315  1.00  0.00     0.028 H 
ATOM      6  H   UNL A   1      34.155  29.335  27.058  1.00  0.00     0.028 H 
BRANCH   4   7
ATOM      7  C   UNL A   1      33.698  27.447  26.268  1.00  0.00     0.017 C 
ATOM      8  H   UNL A   1      34.672  27.219  25.888  1.00  0.00     0.049 H 
ATOM      9  H   UNL A   1      33.586  27.082  27.267  1.00  0.00     0.049 H 
BRANCH   7  10
ATOM     10  N   UNL A   1      32.706  26.805  25.436  1.00  0.00    -0.356 N 
ATOM     11  O   UNL A   1      32.739  24.774  26.510  1.00  0.00    -0.275 OA
ATOM     12  C   UNL A   1      32.283  25.510  25.640  1.00  0.00     0.225 C 
ATOM     13  H   UNL A   1      32.316  27.316  24.690  1.00  0.00     0.163 HD
BRANCH  12  14
ATOM     14  C   UNL A   1      31.216  25.056  24.658  1.00  0.00     0.067 C 
ATOM     15  H   UNL A   1      30.373  25.710  24.742  1.00  0.00     0.043 H 
ATOM     16  H   UNL A   1      30.960  24.047  24.902  1.00  0.00     0.043 H 
BRANCH  14  17
ATOM     17  C   UNL A   1      31.697  25.071  23.228  1.00  0.00     0.032 A 
ATOM     18  C   UNL A   1      31.453  25.995  22.219  1.00  0.00    -0.040 A 
ATOM     19  N   UNL A   1      32.644  24.176  22.737  1.00  0.00    -0.320 N 
ATOM     20  C   UNL A   1      32.335  25.731  21.153  1.00  0.00    -0.044 A 
ATOM     21  H   UNL A   1      30.746  26.747  22.246  1.00  0.00     0.064 H 
ATOM     22  C   UNL A   1      33.091  24.645  21.519  1.00  0.00     0.009 A 
ATOM     23  H   UNL A   1      32.401  26.255  20.266  1.00  0.00     0.064 H 
ATOM     24  H   UNL A   1      33.869  24.244  20.971  1.00  0.00     0.082 H 
BRANCH  19  25
ATOM     25  C   UNL A   1      33.108  22.980  23.339  1.00  0.00     0.049 A 
ATOM     26  C   UNL A   1      34.323  22.982  24.037  1.00  0.00    -0.034 A 
ATOM     27  C   UNL A   1      32.385  21.792  23.180  1.00  0.00     0.008 A 
ATOM     28  C   UNL A   1      34.793  21.799  24.610  1.00  0.00    -0.014 A 
ATOM     29  H   UNL A   1      34.869  23.854  24.126  1.00  0.00     0.065 H 
ATOM     30  C   UNL A   1      32.870  20.613  23.741  1.00  0.00     0.163 A 
ATOM     31  H   UNL A   1      31.500  21.790  22.650  1.00  0.00     0.069 H 
ATOM     32  C   UNL A   1      34.077  20.614  24.447  1.00  0.00     0.161 A 
ATOM     33  H   UNL A   1      35.670  21.801  25.154  1.00  0.00     0.066 H 
ATOM     34  O   UNL A   1      32.119  19.483  23.534  1.00  0.00    -0.486 OA
ATOM     35  O   UNL A   1      34.621  19.484  25.002  1.00  0.00    -0.486 OA
ATOM     36  C   UNL A   1      32.530  18.412  24.389  1.00  0.00     0.122 C 
ATOM     37  C   UNL A   1      34.046  18.303  24.433  1.00  0.00     0.122 C 
ATOM     38  H   UNL A   1      32.124  17.493  24.019  1.00  0.00     0.074 H 
ATOM     39  H   UNL A   1      32.172  18.608  25.378  1.00  0.00     0.074 H 
ATOM     40  H   UNL A   1      34.418  18.174  23.438  1.00  0.00     0.074 H 
ATOM     41  H   UNL A   1      34.312  17.463  25.041  1.00  0.00     0.074 H 
ENDBRANCH  19  25
ENDBRANCH  14  17
ENDBRANCH  12  14
ENDBRANCH   7  10
ENDBRANCH   4   7
ENDBRANCH   1   4
BRANCH   1  42
ATOM     42  C   UNL A   1      31.544  30.564  25.764  1.00  0.00    -0.052 C 
ATOM     43  H   UNL A   1      30.603  30.246  25.367  1.00  0.00     0.027 H 
ATOM     44  H   UNL A   1      32.284  30.748  25.012  1.00  0.00     0.027 H 
BRANCH  42  45
ATOM     45  C   UNL A   1      31.329  31.902  26.483  1.00  0.00    -0.036 C 
ATOM     46  H   UNL A   1      30.529  31.782  27.185  1.00  0.00     0.028 H 
ATOM     47  H   UNL A   1      31.109  32.629  25.728  1.00  0.00     0.028 H 
BRANCH  45  48
ATOM     48  C   UNL A   1      32.558  32.408  27.239  1.00  0.00     0.018 C 
ATOM     49  H   UNL A   1      33.430  32.233  26.644  1.00  0.00     0.049 H 
ATOM     50  H   UNL A   1      32.627  31.883  28.168  1.00  0.00     0.049 H 
BRANCH  48  51
ATOM     51  N   UNL A   1      32.451  33.830  27.517  1.00  0.00    -0.352 N 
ATOM     52  C   UNL A   1      33.031  34.580  28.507  1.00  0.00     0.251 C 
ATOM     53  H   UNL A   1      31.873  34.332  26.898  1.00  0.00     0.163 HD
ATOM     54  O   UNL A   1      32.529  35.654  28.814  1.00  0.00    -0.269 OA
BRANCH  52  55
ATOM     55  C   UNL A   1      34.244  34.120  29.216  1.00  0.00     0.039 A 
ATOM     56  C   UNL A   1      34.070  33.431  30.424  1.00  0.00    -0.049 A 
ATOM     57  C   UNL A   1      35.529  34.452  28.773  1.00  0.00    -0.049 A 
ATOM     58  C   UNL A   1      35.180  33.026  31.156  1.00  0.00    -0.053 A 
ATOM     59  H   UNL A   1      33.120  33.223  30.768  1.00  0.00     0.063 H 
ATOM     60  C   UNL A   1      36.644  34.028  29.490  1.00  0.00    -0.053 A 
ATOM     61  H   UNL A   1      35.650  35.011  27.915  1.00  0.00     0.063 H 
ATOM     62  C   UNL A   1      36.466  33.301  30.673  1.00  0.00    -0.014 A 
ATOM     63  H   UNL A   1      35.057  32.526  32.051  1.00  0.00     0.063 H 
ATOM     64  H   UNL A   1      37.593  34.247  29.152  1.00  0.00     0.063 H 
BRANCH  62  65
ATOM     65  C   UNL A   1      37.617  32.639  31.325  1.00  0.00     0.031 A 
ATOM     66  C   UNL A   1      37.976  31.313  30.600  1.00  0.00     0.074 A 
ATOM     67  C   UNL A   1      38.140  33.267  32.425  1.00  0.00     0.049 A 
ATOM     68  N   UNL A   1      38.576  30.246  31.033  1.00  0.00    -0.248 NA
ATOM     69  C   UNL A   1      37.552  31.132  29.181  1.00  0.00    -0.034 C 
ATOM     70  C   UNL A   1      37.697  34.585  32.935  1.00  0.00    -0.036 A 
ATOM     71  N   UNL A   1      39.129  32.951  33.337  1.00  0.00    -0.354 N 
ATOM     72  C   UNL A   1      38.775  29.379  29.929  1.00  0.00     0.074 A 
ATOM     73  C   UNL A   1      38.025  29.930  28.845  1.00  0.00    -0.034 C 
ATOM     74  H   UNL A   1      37.015  31.788  28.592  1.00  0.00     0.065 H 
ATOM     75  C   UNL A   1      38.337  34.907  34.081  1.00  0.00    -0.036 A 
ATOM     76  H   UNL A   1      36.991  35.181  32.475  1.00  0.00     0.065 H 
ATOM     77  C   UNL A   1      39.261  33.849  34.437  1.00  0.00     0.049 A 
ATOM     78  H   UNL A   1      39.704  32.159  33.235  1.00  0.00     0.167 HD
ATOM     79  C   UNL A   1      39.662  28.336  29.945  1.00  0.00     0.037 A 
ATOM     80  H   UNL A   1      37.870  29.466  27.936  1.00  0.00     0.065 H 
ATOM     81  H   UNL A   1      38.190  35.775  34.621  1.00  0.00     0.065 H 
ATOM     82  C   UNL A   1      40.019  33.717  35.574  1.00  0.00     0.037 A 
ATOM     83  C   UNL A   1      40.244  28.230  31.236  1.00  0.00     0.049 A 
ATOM     84  C   UNL A   1      40.818  32.511  35.340  1.00  0.00     0.074 A 
ATOM     85  C   UNL A   1      39.751  27.782  32.432  1.00  0.00    -0.036 A 
ATOM     86  N   UNL A   1      41.388  28.952  31.458  1.00  0.00    -0.354 N 
ATOM     87  N   UNL A   1      41.835  32.451  34.535  1.00  0.00    -0.248 NA
ATOM     88  C   UNL A   1      40.399  31.255  35.972  1.00  0.00    -0.034 C 
ATOM     89  C   UNL A   1      40.330  28.666  33.363  1.00  0.00    -0.036 A 
ATOM     90  H   UNL A   1      39.111  26.992  32.608  1.00  0.00     0.065 H 
ATOM     91  C   UNL A   1      41.315  29.438  32.736  1.00  0.00     0.049 A 
ATOM     92  H   UNL A   1      42.123  29.095  30.818  1.00  0.00     0.167 HD
ATOM     93  C   UNL A   1      41.945  31.100  34.318  1.00  0.00     0.074 A 
ATOM     94  C   UNL A   1      41.301  30.442  35.433  1.00  0.00    -0.034 C 
ATOM     95  H   UNL A   1      39.632  31.061  36.636  1.00  0.00     0.065 H 
ATOM     96  H   UNL A   1      40.068  28.733  34.360  1.00  0.00     0.065 H 
ATOM     97  C   UNL A   1      42.049  30.638  33.047  1.00  0.00     0.037 A 
ATOM     98  H   UNL A   1      41.511  29.486  35.760  1.00  0.00     0.065 H 
BRANCH  79  99
ATOM     99  C   UNL A   1      40.293  27.496  28.862  1.00  0.00     0.064 A 
ATOM    100  C   UNL A   1      41.144  28.146  27.927  1.00  0.00     0.173 A 
ATOM    101  C   UNL A   1      39.808  26.241  28.478  1.00  0.00     0.173 A 
ATOM    102  F   UNL A   1      41.720  29.322  28.221  1.00  0.00    -0.203 F 
ATOM    103  C   UNL A   1      41.344  27.655  26.638  1.00  0.00     0.198 A 
ATOM    104  C   UNL A   1      40.057  25.725  27.201  1.00  0.00     0.198 A 
ATOM    105  F   UNL A   1      39.003  25.534  29.282  1.00  0.00    -0.203 F 
ATOM    106  F   UNL A   1      42.018  28.387  25.740  1.00  0.00    -0.200 F 
ATOM    107  C   UNL A   1      40.779  26.453  26.268  1.00  0.00     0.200 A 
ATOM    108  F   UNL A   1      39.521  24.548  26.846  1.00  0.00    -0.200 F 
ATOM    109  F   UNL A   1      40.897  26.013  25.007  1.00  0.00    -0.200 F 
ENDBRANCH  79  99
BRANCH  82 110
ATOM    110  C   UNL A   1      40.189  34.361  36.939  1.00  0.00     0.064 A 
ATOM    111  C   UNL A   1      41.161  35.300  37.300  1.00  0.00     0.173 A 
ATOM    112  C   UNL A   1      39.245  34.085  37.977  1.00  0.00     0.173 A 
ATOM    113  F   UNL A   1      42.194  35.567  36.494  1.00  0.00    -0.203 F 
ATOM    114  C   UNL A   1      41.112  35.992  38.530  1.00  0.00     0.198 A 
ATOM    115  C   UNL A   1      39.161  34.807  39.167  1.00  0.00     0.198 A 
ATOM    116  F   UNL A   1      38.353  33.091  37.875  1.00  0.00    -0.203 F 
ATOM    117  F   UNL A   1      42.063  36.890  38.826  1.00  0.00    -0.200 F 
ATOM    118  C   UNL A   1      40.087  35.781  39.437  1.00  0.00     0.200 A 
ATOM    119  F   UNL A   1      38.161  34.558  40.026  1.00  0.00    -0.200 F 
ATOM    120  F   UNL A   1      40.001  36.495  40.567  1.00  0.00    -0.200 F 
ENDBRANCH  82 110
BRANCH  97 121
ATOM    121  C   UNL A   1      42.581  31.663  32.060  1.00  0.00     0.064 A 
ATOM    122  C   UNL A   1      43.915  32.092  32.154  1.00  0.00     0.173 A 
ATOM    123  C   UNL A   1      41.790  32.332  31.109  1.00  0.00     0.173 A 
ATOM    124  F   UNL A   1      44.748  31.494  33.019  1.00  0.00    -0.203 F 
ATOM    125  C   UNL A   1      44.412  33.137  31.368  1.00  0.00     0.198 A 
ATOM    126  C   UNL A   1      42.283  33.373  30.317  1.00  0.00     0.198 A 
ATOM    127  F   UNL A   1      40.520  31.989  30.920  1.00  0.00    -0.203 F 
ATOM    128  F   UNL A   1      45.689  33.517  31.496  1.00  0.00    -0.200 F 
ATOM    129  C   UNL A   1      43.595  33.780  30.453  1.00  0.00     0.200 A 
ATOM    130  F   UNL A   1      41.483  33.973  29.423  1.00  0.00    -0.200 F 
ATOM    131  F   UNL A   1      44.074  34.776  29.693  1.00  0.00    -0.200 F 
ENDBRANCH  97 121
ENDBRANCH  62  65
ENDBRANCH  52  55
ENDBRANCH  48  51
ENDBRANCH  45  48
ENDBRANCH  42  45
ENDBRANCH   1  42
TORSDOF 15
ENDMDL
