MODEL 1
REMARK VINA RESULT:     -12.3      0.000      0.000
REMARK SMILES COc1ccc2cc([C@H](C)C(=O)NCCCCCCNC(=O)c3ccc(-c4c5nc(c(-c6c(F)c(F)c(F)c(F)c6F)c6ccc([nH]6)c(-c6c(F)c(F)c(F)c(F)c6F)c6nc(c(-c7c(F)c(F)c(F)c(F)c7F)c7ccc4[nH]7)C=C6)C=C5)cc3)ccc2c1
REMARK SMILES IDX 16 1 15 4 14 7 13 10 11 11 12 12 9 14 8 16 3 17 4 18 89 19
REMARK SMILES IDX 5 20 88 22 6 24 87 26 7 27 86 28 2 32 1 33 10 37 17 41 18 44
REMARK SMILES IDX 19 47 20 50 21 51 22 53 23 54 24 55 85 56 25 57 84 59 26 61
REMARK SMILES IDX 27 64 28 65 78 66 29 67 83 68 77 69 79 70 30 71 82 72 76 74
REMARK SMILES IDX 75 76 31 78 63 81 43 82 62 83 44 84 47 85 61 86 80 87 45 88
REMARK SMILES IDX 46 90 60 92 81 93 48 96 32 98 33 99 41 100 34 101 35 102
REMARK SMILES IDX 39 103 42 104 36 105 37 106 40 107 38 108 64 109 65 110
REMARK SMILES IDX 73 111 66 112 67 113 71 114 74 115 68 116 69 117 72 118
REMARK SMILES IDX 70 119 49 120 50 121 58 122 51 123 52 124 56 125 59 126
REMARK SMILES IDX 53 127 54 128 57 129 55 130
REMARK H PARENT 16 2 16 3 15 5 15 6 14 8 14 9 13 13 9 15 4 21 89 23 5 25 87 29
REMARK H PARENT 7 30 86 31 1 34 1 35 1 36 10 38 10 39 10 40 17 42 17 43 18 45
REMARK H PARENT 18 46 19 48 19 49 20 52 24 58 85 60 25 62 84 63 83 73 77 75
REMARK H PARENT 79 77 82 79 76 80 44 89 47 91 80 94 45 95 81 97
REMARK Flexibility Score: inf
ROOT
ATOM      1  C   UNL A   1      32.378  29.625  26.863  1.00  0.00    -0.052 C 
ATOM      2  H   UNL A   1      33.256  29.293  26.350  1.00  0.00     0.027 H 
ATOM      3  H   UNL A   1      32.577  30.170  27.763  1.00  0.00     0.027 H 
ENDROOT
BRANCH   1   4
ATOM      4  C   UNL A   1      31.590  28.388  27.295  1.00  0.00    -0.036 C 
ATOM      5  H   UNL A   1      31.561  28.373  28.364  1.00  0.00     0.028 H 
ATOM      6  H   UNL A   1      30.627  28.479  26.837  1.00  0.00     0.028 H 
BRANCH   4   7
ATOM      7  C   UNL A   1      32.154  27.053  26.821  1.00  0.00     0.017 C 
ATOM      8  H   UNL A   1      32.431  27.148  25.792  1.00  0.00     0.049 H 
ATOM      9  H   UNL A   1      32.992  26.823  27.445  1.00  0.00     0.049 H 
BRANCH   7  10
ATOM     10  N   UNL A   1      31.214  25.959  26.944  1.00  0.00    -0.356 N 
ATOM     11  C   UNL A   1      30.831  25.038  26.010  1.00  0.00     0.227 C 
ATOM     12  O   UNL A   1      30.097  24.119  26.387  1.00  0.00    -0.274 OA
ATOM     13  H   UNL A   1      30.789  25.866  27.827  1.00  0.00     0.163 HD
BRANCH  11  14
ATOM     14  C   UNL A   1      31.275  25.130  24.539  1.00  0.00     0.060 C 
ATOM     15  H   UNL A   1      32.344  25.123  24.488  1.00  0.00     0.045 H 
BRANCH  14  16
ATOM     16  C   UNL A   1      30.927  26.483  23.924  1.00  0.00    -0.035 A 
ATOM     17  C   UNL A   1      28.384  30.339  21.806  1.00  0.00     0.119 A 
ATOM     18  C   UNL A   1      27.423  29.573  22.457  1.00  0.00    -0.019 A 
ATOM     19  C   UNL A   1      29.727  29.976  21.850  1.00  0.00    -0.012 A 
ATOM     20  C   UNL A   1      27.811  28.425  23.154  1.00  0.00    -0.051 A 
ATOM     21  H   UNL A   1      26.429  29.848  22.425  1.00  0.00     0.066 H 
ATOM     22  C   UNL A   1      30.131  28.845  22.573  1.00  0.00    -0.015 A 
ATOM     23  H   UNL A   1      30.429  30.541  21.347  1.00  0.00     0.067 H 
ATOM     24  C   UNL A   1      29.162  28.040  23.208  1.00  0.00    -0.018 A 
ATOM     25  H   UNL A   1      27.099  27.855  23.635  1.00  0.00     0.063 H 
ATOM     26  C   UNL A   1      31.483  28.497  22.677  1.00  0.00    -0.054 A 
ATOM     27  C   UNL A   1      29.571  26.861  23.856  1.00  0.00    -0.050 A 
ATOM     28  C   UNL A   1      31.876  27.351  23.371  1.00  0.00    -0.058 A 
ATOM     29  H   UNL A   1      32.199  29.096  22.236  1.00  0.00     0.063 H 
ATOM     30  H   UNL A   1      28.859  26.255  24.293  1.00  0.00     0.063 H 
ATOM     31  H   UNL A   1      32.880  27.140  23.477  1.00  0.00     0.063 H 
BRANCH  17  32
ATOM     32  O   UNL A   1      28.050  31.421  21.036  1.00  0.00    -0.497 OA
BRANCH  32  33
ATOM     33  C   UNL A   1      28.272  32.645  21.733  1.00  0.00     0.078 C 
ATOM     34  H   UNL A   1      28.160  33.466  21.056  1.00  0.00     0.067 H 
ATOM     35  H   UNL A   1      29.263  32.650  22.138  1.00  0.00     0.067 H 
ATOM     36  H   UNL A   1      27.561  32.737  22.527  1.00  0.00     0.067 H 
ENDBRANCH  32  33
ENDBRANCH  17  32
ENDBRANCH  14  16
BRANCH  14  37
ATOM     37  C   UNL A   1      30.904  23.870  23.746  1.00  0.00    -0.049 C 
ATOM     38  H   UNL A   1      31.212  23.986  22.727  1.00  0.00     0.024 H 
ATOM     39  H   UNL A   1      29.845  23.723  23.785  1.00  0.00     0.024 H 
ATOM     40  H   UNL A   1      31.397  23.022  24.173  1.00  0.00     0.024 H 
ENDBRANCH  14  37
ENDBRANCH  11  14
ENDBRANCH   7  10
ENDBRANCH   4   7
ENDBRANCH   1   4
BRANCH   1  41
ATOM     41  C   UNL A   1      31.640  30.602  25.943  1.00  0.00    -0.052 C 
ATOM     42  H   UNL A   1      30.691  30.169  25.701  1.00  0.00     0.027 H 
ATOM     43  H   UNL A   1      32.285  30.746  25.102  1.00  0.00     0.027 H 
BRANCH  41  44
ATOM     44  C   UNL A   1      31.383  32.001  26.507  1.00  0.00    -0.036 C 
ATOM     45  H   UNL A   1      30.563  31.934  27.192  1.00  0.00     0.028 H 
ATOM     46  H   UNL A   1      31.192  32.626  25.660  1.00  0.00     0.028 H 
BRANCH  44  47
ATOM     47  C   UNL A   1      32.555  32.647  27.242  1.00  0.00     0.018 C 
ATOM     48  H   UNL A   1      33.422  32.591  26.617  1.00  0.00     0.049 H 
ATOM     49  H   UNL A   1      32.692  32.115  28.160  1.00  0.00     0.049 H 
BRANCH  47  50
ATOM     50  N   UNL A   1      32.315  34.039  27.576  1.00  0.00    -0.352 N 
ATOM     51  C   UNL A   1      32.944  34.847  28.491  1.00  0.00     0.251 C 
ATOM     52  H   UNL A   1      31.590  34.471  27.070  1.00  0.00     0.163 HD
ATOM     53  O   UNL A   1      32.504  35.967  28.727  1.00  0.00    -0.269 OA
BRANCH  51  54
ATOM     54  C   UNL A   1      34.139  34.364  29.219  1.00  0.00     0.039 A 
ATOM     55  C   UNL A   1      33.959  33.741  30.458  1.00  0.00    -0.049 A 
ATOM     56  C   UNL A   1      35.426  34.539  28.705  1.00  0.00    -0.049 A 
ATOM     57  C   UNL A   1      35.062  33.229  31.145  1.00  0.00    -0.053 A 
ATOM     58  H   UNL A   1      33.014  33.658  30.863  1.00  0.00     0.063 H 
ATOM     59  C   UNL A   1      36.519  33.973  29.361  1.00  0.00    -0.053 A 
ATOM     60  H   UNL A   1      35.567  35.085  27.841  1.00  0.00     0.063 H 
ATOM     61  C   UNL A   1      36.347  33.308  30.584  1.00  0.00    -0.014 A 
ATOM     62  H   UNL A   1      34.932  32.790  32.071  1.00  0.00     0.063 H 
ATOM     63  H   UNL A   1      37.460  34.045  28.944  1.00  0.00     0.063 H 
BRANCH  61  64
ATOM     64  C   UNL A   1      37.517  32.679  31.251  1.00  0.00     0.031 A 
ATOM     65  C   UNL A   1      38.234  31.530  30.601  1.00  0.00     0.074 A 
ATOM     66  C   UNL A   1      37.889  33.101  32.474  1.00  0.00     0.049 A 
ATOM     67  N   UNL A   1      39.213  30.795  31.066  1.00  0.00    -0.248 NA
ATOM     68  C   UNL A   1      37.780  31.142  29.256  1.00  0.00    -0.034 C 
ATOM     69  C   UNL A   1      37.249  34.183  33.226  1.00  0.00    -0.036 A 
ATOM     70  N   UNL A   1      38.885  32.661  33.311  1.00  0.00    -0.354 N 
ATOM     71  C   UNL A   1      39.483  29.854  30.081  1.00  0.00     0.074 A 
ATOM     72  C   UNL A   1      38.535  30.081  29.011  1.00  0.00    -0.034 C 
ATOM     73  H   UNL A   1      37.060  31.581  28.662  1.00  0.00     0.065 H 
ATOM     74  C   UNL A   1      37.875  34.329  34.405  1.00  0.00    -0.036 A 
ATOM     75  H   UNL A   1      36.446  34.742  32.902  1.00  0.00     0.065 H 
ATOM     76  C   UNL A   1      38.931  33.327  34.511  1.00  0.00     0.049 A 
ATOM     77  H   UNL A   1      39.508  31.936  33.073  1.00  0.00     0.167 HD
ATOM     78  C   UNL A   1      40.446  28.902  30.063  1.00  0.00     0.037 A 
ATOM     79  H   UNL A   1      38.457  29.493  28.166  1.00  0.00     0.065 H 
ATOM     80  H   UNL A   1      37.646  35.036  35.122  1.00  0.00     0.065 H 
ATOM     81  C   UNL A   1      39.725  33.142  35.583  1.00  0.00     0.037 A 
ATOM     82  C   UNL A   1      41.400  28.691  31.121  1.00  0.00     0.049 A 
ATOM     83  C   UNL A   1      40.772  32.061  35.544  1.00  0.00     0.074 A 
ATOM     84  C   UNL A   1      42.444  27.784  31.173  1.00  0.00    -0.036 A 
ATOM     85  N   UNL A   1      41.424  29.395  32.315  1.00  0.00    -0.354 N 
ATOM     86  N   UNL A   1      41.054  31.216  34.582  1.00  0.00    -0.248 NA
ATOM     87  C   UNL A   1      41.615  31.913  36.739  1.00  0.00    -0.034 C 
ATOM     88  C   UNL A   1      43.073  27.909  32.417  1.00  0.00    -0.036 A 
ATOM     89  H   UNL A   1      42.714  27.129  30.423  1.00  0.00     0.065 H 
ATOM     90  C   UNL A   1      42.452  28.928  33.119  1.00  0.00     0.049 A 
ATOM     91  H   UNL A   1      40.803  30.121  32.556  1.00  0.00     0.167 HD
ATOM     92  C   UNL A   1      42.121  30.456  35.044  1.00  0.00     0.074 A 
ATOM     93  C   UNL A   1      42.448  30.952  36.364  1.00  0.00    -0.034 C 
ATOM     94  H   UNL A   1      41.570  32.423  37.635  1.00  0.00     0.065 H 
ATOM     95  H   UNL A   1      43.864  27.338  32.754  1.00  0.00     0.065 H 
ATOM     96  C   UNL A   1      42.769  29.438  34.429  1.00  0.00     0.037 A 
ATOM     97  H   UNL A   1      43.229  30.602  36.939  1.00  0.00     0.065 H 
BRANCH  78  98
ATOM     98  C   UNL A   1      40.525  28.013  28.856  1.00  0.00     0.064 A 
ATOM     99  C   UNL A   1      39.807  26.810  28.783  1.00  0.00     0.173 A 
ATOM    100  C   UNL A   1      41.283  28.392  27.737  1.00  0.00     0.173 A 
ATOM    101  F   UNL A   1      39.076  26.396  29.830  1.00  0.00    -0.203 F 
ATOM    102  C   UNL A   1      39.861  26.010  27.645  1.00  0.00     0.198 A 
ATOM    103  C   UNL A   1      41.311  27.605  26.589  1.00  0.00     0.198 A 
ATOM    104  F   UNL A   1      41.983  29.537  27.752  1.00  0.00    -0.203 F 
ATOM    105  F   UNL A   1      39.198  24.845  27.613  1.00  0.00    -0.200 F 
ATOM    106  C   UNL A   1      40.606  26.412  26.547  1.00  0.00     0.200 A 
ATOM    107  F   UNL A   1      42.020  28.002  25.524  1.00  0.00    -0.200 F 
ATOM    108  F   UNL A   1      40.646  25.647  25.447  1.00  0.00    -0.200 F 
ENDBRANCH  78  98
BRANCH  81 109
ATOM    109  C   UNL A   1      39.565  33.999  36.787  1.00  0.00     0.064 A 
ATOM    110  C   UNL A   1      40.205  35.244  36.876  1.00  0.00     0.173 A 
ATOM    111  C   UNL A   1      38.790  33.584  37.880  1.00  0.00     0.173 A 
ATOM    112  F   UNL A   1      40.976  35.672  35.866  1.00  0.00    -0.203 F 
ATOM    113  C   UNL A   1      40.097  36.029  38.022  1.00  0.00     0.198 A 
ATOM    114  C   UNL A   1      38.658  34.385  39.013  1.00  0.00     0.198 A 
ATOM    115  F   UNL A   1      38.155  32.404  37.845  1.00  0.00    -0.203 F 
ATOM    116  F   UNL A   1      40.763  37.189  38.101  1.00  0.00    -0.200 F 
ATOM    117  C   UNL A   1      39.319  35.601  39.087  1.00  0.00     0.200 A 
ATOM    118  F   UNL A   1      37.894  33.974  40.035  1.00  0.00    -0.200 F 
ATOM    119  F   UNL A   1      39.216  36.356  40.190  1.00  0.00    -0.200 F 
ENDBRANCH  81 109
BRANCH  96 120
ATOM    120  C   UNL A   1      43.919  28.812  35.165  1.00  0.00     0.064 A 
ATOM    121  C   UNL A   1      45.232  29.281  35.015  1.00  0.00     0.173 A 
ATOM    122  C   UNL A   1      43.698  27.751  36.057  1.00  0.00     0.173 A 
ATOM    123  F   UNL A   1      45.497  30.281  34.161  1.00  0.00    -0.203 F 
ATOM    124  C   UNL A   1      46.286  28.693  35.710  1.00  0.00     0.198 A 
ATOM    125  C   UNL A   1      44.749  27.187  36.774  1.00  0.00     0.198 A 
ATOM    126  F   UNL A   1      42.459  27.271  36.242  1.00  0.00    -0.203 F 
ATOM    127  F   UNL A   1      47.540  29.125  35.512  1.00  0.00    -0.200 F 
ATOM    128  C   UNL A   1      46.042  27.653  36.594  1.00  0.00     0.200 A 
ATOM    129  F   UNL A   1      44.510  26.191  37.638  1.00  0.00    -0.200 F 
ATOM    130  F   UNL A   1      47.057  27.093  37.267  1.00  0.00    -0.200 F 
ENDBRANCH  96 120
ENDBRANCH  61  64
ENDBRANCH  51  54
ENDBRANCH  47  50
ENDBRANCH  44  47
ENDBRANCH  41  44
ENDBRANCH   1  41
TORSDOF 17
ENDMDL
MODEL 2
REMARK VINA RESULT:     -12.2      6.060     11.627
REMARK SMILES COc1ccc2cc([C@H](C)C(=O)NCCCCCCNC(=O)c3ccc(-c4c5nc(c(-c6c(F)c(F)c(F)c(F)c6F)c6ccc([nH]6)c(-c6c(F)c(F)c(F)c(F)c6F)c6nc(c(-c7c(F)c(F)c(F)c(F)c7F)c7ccc4[nH]7)C=C6)C=C5)cc3)ccc2c1
REMARK SMILES IDX 16 1 15 4 14 7 13 10 11 11 12 12 9 14 8 16 3 17 4 18 89 19
REMARK SMILES IDX 5 20 88 22 6 24 87 26 7 27 86 28 2 32 1 33 10 37 17 41 18 44
REMARK SMILES IDX 19 47 20 50 21 51 22 53 23 54 24 55 85 56 25 57 84 59 26 61
REMARK SMILES IDX 27 64 28 65 78 66 29 67 83 68 77 69 79 70 30 71 82 72 76 74
REMARK SMILES IDX 75 76 31 78 63 81 43 82 62 83 44 84 47 85 61 86 80 87 45 88
REMARK SMILES IDX 46 90 60 92 81 93 48 96 32 98 33 99 41 100 34 101 35 102
REMARK SMILES IDX 39 103 42 104 36 105 37 106 40 107 38 108 64 109 65 110
REMARK SMILES IDX 73 111 66 112 67 113 71 114 74 115 68 116 69 117 72 118
REMARK SMILES IDX 70 119 49 120 50 121 58 122 51 123 52 124 56 125 59 126
REMARK SMILES IDX 53 127 54 128 57 129 55 130
REMARK H PARENT 16 2 16 3 15 5 15 6 14 8 14 9 13 13 9 15 4 21 89 23 5 25 87 29
REMARK H PARENT 7 30 86 31 1 34 1 35 1 36 10 38 10 39 10 40 17 42 17 43 18 45
REMARK H PARENT 18 46 19 48 19 49 20 52 24 58 85 60 25 62 84 63 83 73 77 75
REMARK H PARENT 79 77 82 79 76 80 44 89 47 91 80 94 45 95 81 97
REMARK Flexibility Score: inf
ROOT
ATOM      1  C   UNL A   1      36.378  21.883  25.659  1.00  0.00    -0.052 C 
ATOM      2  H   UNL A   1      35.496  21.941  26.261  1.00  0.00     0.027 H 
ATOM      3  H   UNL A   1      37.291  21.959  26.212  1.00  0.00     0.027 H 
ENDROOT
BRANCH   1   4
ATOM      4  C   UNL A   1      36.373  23.077  24.703  1.00  0.00    -0.036 C 
ATOM      5  H   UNL A   1      37.134  23.757  25.022  1.00  0.00     0.028 H 
ATOM      6  H   UNL A   1      36.536  22.672  23.727  1.00  0.00     0.028 H 
BRANCH   4   7
ATOM      7  C   UNL A   1      35.059  23.846  24.623  1.00  0.00     0.017 C 
ATOM      8  H   UNL A   1      34.297  23.266  25.099  1.00  0.00     0.049 H 
ATOM      9  H   UNL A   1      35.213  24.787  25.109  1.00  0.00     0.049 H 
BRANCH   7  10
ATOM     10  N   UNL A   1      34.643  24.128  23.266  1.00  0.00    -0.356 N 
ATOM     11  C   UNL A   1      33.402  24.028  22.702  1.00  0.00     0.227 C 
ATOM     12  O   UNL A   1      33.269  24.441  21.546  1.00  0.00    -0.274 OA
ATOM     13  H   UNL A   1      35.357  24.435  22.661  1.00  0.00     0.163 HD
BRANCH  11  14
ATOM     14  C   UNL A   1      32.207  23.418  23.458  1.00  0.00     0.060 C 
ATOM     15  H   UNL A   1      32.312  23.609  24.505  1.00  0.00     0.045 H 
BRANCH  14  16
ATOM     16  C   UNL A   1      32.217  21.893  23.399  1.00  0.00    -0.035 A 
ATOM     17  C   UNL A   1      33.011  17.000  24.518  1.00  0.00     0.119 A 
ATOM     18  C   UNL A   1      33.095  17.677  25.730  1.00  0.00    -0.019 A 
ATOM     19  C   UNL A   1      32.740  17.690  23.339  1.00  0.00    -0.012 A 
ATOM     20  C   UNL A   1      32.912  19.062  25.761  1.00  0.00    -0.051 A 
ATOM     21  H   UNL A   1      33.293  17.161  26.601  1.00  0.00     0.066 H 
ATOM     22  C   UNL A   1      32.523  19.075  23.364  1.00  0.00    -0.015 A 
ATOM     23  H   UNL A   1      32.699  17.180  22.443  1.00  0.00     0.067 H 
ATOM     24  C   UNL A   1      32.640  19.778  24.582  1.00  0.00    -0.018 A 
ATOM     25  H   UNL A   1      32.976  19.566  26.659  1.00  0.00     0.063 H 
ATOM     26  C   UNL A   1      32.191  19.776  22.199  1.00  0.00    -0.054 A 
ATOM     27  C   UNL A   1      32.506  21.177  24.578  1.00  0.00    -0.050 A 
ATOM     28  C   UNL A   1      32.009  21.161  22.225  1.00  0.00    -0.058 A 
ATOM     29  H   UNL A   1      32.079  19.264  21.310  1.00  0.00     0.063 H 
ATOM     30  H   UNL A   1      32.623  21.695  25.463  1.00  0.00     0.063 H 
ATOM     31  H   UNL A   1      31.717  21.651  21.365  1.00  0.00     0.063 H 
BRANCH  17  32
ATOM     32  O   UNL A   1      33.270  15.660  24.416  1.00  0.00    -0.497 OA
BRANCH  32  33
ATOM     33  C   UNL A   1      32.528  14.911  25.377  1.00  0.00     0.078 C 
ATOM     34  H   UNL A   1      32.941  15.072  26.351  1.00  0.00     0.067 H 
ATOM     35  H   UNL A   1      32.580  13.870  25.135  1.00  0.00     0.067 H 
ATOM     36  H   UNL A   1      31.507  15.229  25.365  1.00  0.00     0.067 H 
ENDBRANCH  32  33
ENDBRANCH  17  32
ENDBRANCH  14  16
BRANCH  14  37
ATOM     37  C   UNL A   1      30.891  24.136  23.127  1.00  0.00    -0.049 C 
ATOM     38  H   UNL A   1      30.675  24.854  23.891  1.00  0.00     0.024 H 
ATOM     39  H   UNL A   1      30.098  23.420  23.076  1.00  0.00     0.024 H 
ATOM     40  H   UNL A   1      30.984  24.634  22.185  1.00  0.00     0.024 H 
ENDBRANCH  14  37
ENDBRANCH  11  14
ENDBRANCH   7  10
ENDBRANCH   4   7
ENDBRANCH   1   4
BRANCH   1  41
ATOM     41  C   UNL A   1      36.407  20.500  25.002  1.00  0.00    -0.052 C 
ATOM     42  H   UNL A   1      35.890  20.571  24.067  1.00  0.00     0.027 H 
ATOM     43  H   UNL A   1      35.951  19.838  25.707  1.00  0.00     0.027 H 
BRANCH  41  44
ATOM     44  C   UNL A   1      37.793  19.911  24.724  1.00  0.00    -0.036 C 
ATOM     45  H   UNL A   1      38.118  20.272  23.771  1.00  0.00     0.028 H 
ATOM     46  H   UNL A   1      37.672  18.849  24.769  1.00  0.00     0.028 H 
BRANCH  44  47
ATOM     47  C   UNL A   1      38.875  20.248  25.747  1.00  0.00     0.018 C 
ATOM     48  H   UNL A   1      38.410  20.399  26.698  1.00  0.00     0.049 H 
ATOM     49  H   UNL A   1      39.377  21.129  25.405  1.00  0.00     0.049 H 
BRANCH  47  50
ATOM     50  N   UNL A   1      39.872  19.202  25.880  1.00  0.00    -0.352 N 
ATOM     51  C   UNL A   1      41.220  19.295  26.125  1.00  0.00     0.251 C 
ATOM     52  H   UNL A   1      39.530  18.284  25.780  1.00  0.00     0.163 HD
ATOM     53  O   UNL A   1      41.926  18.294  26.067  1.00  0.00    -0.269 OA
BRANCH  51  54
ATOM     54  C   UNL A   1      41.836  20.605  26.432  1.00  0.00     0.039 A 
ATOM     55  C   UNL A   1      42.122  21.473  25.375  1.00  0.00    -0.049 A 
ATOM     56  C   UNL A   1      42.152  20.972  27.743  1.00  0.00    -0.049 A 
ATOM     57  C   UNL A   1      42.656  22.737  25.637  1.00  0.00    -0.053 A 
ATOM     58  H   UNL A   1      41.938  21.182  24.402  1.00  0.00     0.063 H 
ATOM     59  C   UNL A   1      42.627  22.256  28.009  1.00  0.00    -0.053 A 
ATOM     60  H   UNL A   1      42.033  20.295  28.513  1.00  0.00     0.063 H 
ATOM     61  C   UNL A   1      42.878  23.153  26.959  1.00  0.00    -0.014 A 
ATOM     62  H   UNL A   1      42.890  23.369  24.854  1.00  0.00     0.063 H 
ATOM     63  H   UNL A   1      42.795  22.549  28.984  1.00  0.00     0.063 H 
BRANCH  61  64
ATOM     64  C   UNL A   1      43.348  24.530  27.264  1.00  0.00     0.031 A 
ATOM     65  C   UNL A   1      42.395  25.554  27.810  1.00  0.00     0.074 A 
ATOM     66  C   UNL A   1      44.620  24.873  26.983  1.00  0.00     0.049 A 
ATOM     67  N   UNL A   1      42.595  26.826  28.050  1.00  0.00    -0.248 NA
ATOM     68  C   UNL A   1      41.029  25.095  28.108  1.00  0.00    -0.034 C 
ATOM     69  C   UNL A   1      45.632  23.979  26.417  1.00  0.00    -0.036 A 
ATOM     70  N   UNL A   1      45.277  26.071  27.120  1.00  0.00    -0.354 N 
ATOM     71  C   UNL A   1      41.382  27.320  28.515  1.00  0.00     0.074 A 
ATOM     72  C   UNL A   1      40.440  26.222  28.480  1.00  0.00    -0.034 C 
ATOM     73  H   UNL A   1      40.635  24.144  28.042  1.00  0.00     0.065 H 
ATOM     74  C   UNL A   1      46.781  24.655  26.266  1.00  0.00    -0.036 A 
ATOM     75  H   UNL A   1      45.484  22.987  26.173  1.00  0.00     0.065 H 
ATOM     76  C   UNL A   1      46.579  26.039  26.684  1.00  0.00     0.049 A 
ATOM     77  H   UNL A   1      44.854  26.878  27.495  1.00  0.00     0.167 HD
ATOM     78  C   UNL A   1      41.090  28.568  28.950  1.00  0.00     0.037 A 
ATOM     79  H   UNL A   1      39.438  26.306  28.714  1.00  0.00     0.065 H 
ATOM     80  H   UNL A   1      47.667  24.260  25.910  1.00  0.00     0.065 H 
ATOM     81  C   UNL A   1      47.502  27.017  26.615  1.00  0.00     0.037 A 
ATOM     82  C   UNL A   1      42.035  29.653  29.001  1.00  0.00     0.049 A 
ATOM     83  C   UNL A   1      47.141  28.402  27.084  1.00  0.00     0.074 A 
ATOM     84  C   UNL A   1      41.845  30.941  29.472  1.00  0.00    -0.036 A 
ATOM     85  N   UNL A   1      43.349  29.579  28.564  1.00  0.00    -0.354 N 
ATOM     86  N   UNL A   1      46.008  28.840  27.575  1.00  0.00    -0.248 NA
ATOM     87  C   UNL A   1      48.192  29.425  26.994  1.00  0.00    -0.034 C 
ATOM     88  C   UNL A   1      43.031  31.659  29.279  1.00  0.00    -0.036 A 
ATOM     89  H   UNL A   1      40.979  31.310  29.893  1.00  0.00     0.065 H 
ATOM     90  C   UNL A   1      43.975  30.803  28.734  1.00  0.00     0.049 A 
ATOM     91  H   UNL A   1      43.775  28.774  28.189  1.00  0.00     0.167 HD
ATOM     92  C   UNL A   1      46.216  30.180  27.876  1.00  0.00     0.074 A 
ATOM     93  C   UNL A   1      47.590  30.478  27.530  1.00  0.00    -0.034 C 
ATOM     94  H   UNL A   1      49.147  29.346  26.613  1.00  0.00     0.065 H 
ATOM     95  H   UNL A   1      43.178  32.655  29.503  1.00  0.00     0.065 H 
ATOM     96  C   UNL A   1      45.346  31.082  28.391  1.00  0.00     0.037 A 
ATOM     97  H   UNL A   1      48.042  31.392  27.682  1.00  0.00     0.065 H 
BRANCH  78  98
ATOM     98  C   UNL A   1      39.687  28.835  29.413  1.00  0.00     0.064 A 
ATOM     99  C   UNL A   1      39.299  28.616  30.743  1.00  0.00     0.173 A 
ATOM    100  C   UNL A   1      38.733  29.368  28.532  1.00  0.00     0.173 A 
ATOM    101  F   UNL A   1      40.171  28.098  31.623  1.00  0.00    -0.203 F 
ATOM    102  C   UNL A   1      38.005  28.899  31.170  1.00  0.00     0.198 A 
ATOM    103  C   UNL A   1      37.448  29.678  28.968  1.00  0.00     0.198 A 
ATOM    104  F   UNL A   1      39.053  29.603  27.250  1.00  0.00    -0.203 F 
ATOM    105  F   UNL A   1      37.646  28.645  32.436  1.00  0.00    -0.200 F 
ATOM    106  C   UNL A   1      37.083  29.438  30.284  1.00  0.00     0.200 A 
ATOM    107  F   UNL A   1      36.562  30.211  28.115  1.00  0.00    -0.200 F 
ATOM    108  F   UNL A   1      35.841  29.723  30.700  1.00  0.00    -0.200 F 
ENDBRANCH  78  98
BRANCH  81 109
ATOM    109  C   UNL A   1      48.858  26.727  26.082  1.00  0.00     0.064 A 
ATOM    110  C   UNL A   1      49.869  26.228  26.916  1.00  0.00     0.173 A 
ATOM    111  C   UNL A   1      49.180  26.962  24.737  1.00  0.00     0.173 A 
ATOM    112  F   UNL A   1      49.615  26.010  28.215  1.00  0.00    -0.203 F 
ATOM    113  C   UNL A   1      51.155  26.000  26.433  1.00  0.00     0.198 A 
ATOM    114  C   UNL A   1      50.459  26.704  24.248  1.00  0.00     0.198 A 
ATOM    115  F   UNL A   1      48.250  27.436  23.896  1.00  0.00    -0.203 F 
ATOM    116  F   UNL A   1      52.115  25.574  27.265  1.00  0.00    -0.200 F 
ATOM    117  C   UNL A   1      51.448  26.233  25.098  1.00  0.00     0.200 A 
ATOM    118  F   UNL A   1      50.734  26.918  22.953  1.00  0.00    -0.200 F 
ATOM    119  F   UNL A   1      52.686  26.014  24.632  1.00  0.00    -0.200 F 
ENDBRANCH  81 109
BRANCH  96 120
ATOM    120  C   UNL A   1      45.863  32.469  28.642  1.00  0.00     0.064 A 
ATOM    121  C   UNL A   1      45.787  33.472  27.664  1.00  0.00     0.173 A 
ATOM    122  C   UNL A   1      46.411  32.808  29.889  1.00  0.00     0.173 A 
ATOM    123  F   UNL A   1      45.288  33.193  26.451  1.00  0.00    -0.203 F 
ATOM    124  C   UNL A   1      46.266  34.754  27.916  1.00  0.00     0.198 A 
ATOM    125  C   UNL A   1      46.860  34.099  30.148  1.00  0.00     0.198 A 
ATOM    126  F   UNL A   1      46.500  31.887  30.861  1.00  0.00    -0.203 F 
ATOM    127  F   UNL A   1      46.229  35.683  26.949  1.00  0.00    -0.200 F 
ATOM    128  C   UNL A   1      46.793  35.069  29.159  1.00  0.00     0.200 A 
ATOM    129  F   UNL A   1      47.357  34.406  31.354  1.00  0.00    -0.200 F 
ATOM    130  F   UNL A   1      47.247  36.307  29.401  1.00  0.00    -0.200 F 
ENDBRANCH  96 120
ENDBRANCH  61  64
ENDBRANCH  51  54
ENDBRANCH  47  50
ENDBRANCH  44  47
ENDBRANCH  41  44
ENDBRANCH   1  41
TORSDOF 17
ENDMDL
MODEL 3
REMARK VINA RESULT:     -12.1      0.681      2.188
REMARK SMILES COc1ccc2cc([C@H](C)C(=O)NCCCCCCNC(=O)c3ccc(-c4c5nc(c(-c6c(F)c(F)c(F)c(F)c6F)c6ccc([nH]6)c(-c6c(F)c(F)c(F)c(F)c6F)c6nc(c(-c7c(F)c(F)c(F)c(F)c7F)c7ccc4[nH]7)C=C6)C=C5)cc3)ccc2c1
REMARK SMILES IDX 16 1 15 4 14 7 13 10 11 11 12 12 9 14 8 16 3 17 4 18 89 19
REMARK SMILES IDX 5 20 88 22 6 24 87 26 7 27 86 28 2 32 1 33 10 37 17 41 18 44
REMARK SMILES IDX 19 47 20 50 21 51 22 53 23 54 24 55 85 56 25 57 84 59 26 61
REMARK SMILES IDX 27 64 28 65 78 66 29 67 83 68 77 69 79 70 30 71 82 72 76 74
REMARK SMILES IDX 75 76 31 78 63 81 43 82 62 83 44 84 47 85 61 86 80 87 45 88
REMARK SMILES IDX 46 90 60 92 81 93 48 96 32 98 33 99 41 100 34 101 35 102
REMARK SMILES IDX 39 103 42 104 36 105 37 106 40 107 38 108 64 109 65 110
REMARK SMILES IDX 73 111 66 112 67 113 71 114 74 115 68 116 69 117 72 118
REMARK SMILES IDX 70 119 49 120 50 121 58 122 51 123 52 124 56 125 59 126
REMARK SMILES IDX 53 127 54 128 57 129 55 130
REMARK H PARENT 16 2 16 3 15 5 15 6 14 8 14 9 13 13 9 15 4 21 89 23 5 25 87 29
REMARK H PARENT 7 30 86 31 1 34 1 35 1 36 10 38 10 39 10 40 17 42 17 43 18 45
REMARK H PARENT 18 46 19 48 19 49 20 52 24 58 85 60 25 62 84 63 83 73 77 75
REMARK H PARENT 79 77 82 79 76 80 44 89 47 91 80 94 45 95 81 97
REMARK Flexibility Score: inf
ROOT
ATOM      1  C   UNL A   1      31.807  28.962  26.908  1.00  0.00    -0.052 C 
ATOM      2  H   UNL A   1      31.699  29.443  27.857  1.00  0.00     0.027 H 
ATOM      3  H   UNL A   1      31.048  28.237  26.695  1.00  0.00     0.027 H 
ENDROOT
BRANCH   1   4
ATOM      4  C   UNL A   1      33.126  28.189  26.921  1.00  0.00    -0.036 C 
ATOM      5  H   UNL A   1      33.850  28.765  26.384  1.00  0.00     0.028 H 
ATOM      6  H   UNL A   1      33.369  28.041  27.952  1.00  0.00     0.028 H 
BRANCH   4   7
ATOM      7  C   UNL A   1      33.077  26.798  26.299  1.00  0.00     0.017 C 
ATOM      8  H   UNL A   1      32.920  26.902  25.246  1.00  0.00     0.049 H 
ATOM      9  H   UNL A   1      34.006  26.317  26.523  1.00  0.00     0.049 H 
BRANCH   7  10
ATOM     10  N   UNL A   1      32.022  25.966  26.840  1.00  0.00    -0.356 N 
ATOM     11  C   UNL A   1      31.176  25.110  26.192  1.00  0.00     0.227 C 
ATOM     12  O   UNL A   1      30.430  24.414  26.888  1.00  0.00    -0.274 OA
ATOM     13  H   UNL A   1      31.897  26.026  27.815  1.00  0.00     0.163 HD
BRANCH  11  14
ATOM     14  C   UNL A   1      31.130  25.012  24.656  1.00  0.00     0.060 C 
ATOM     15  H   UNL A   1      32.087  25.273  24.253  1.00  0.00     0.045 H 
BRANCH  14  16
ATOM     16  C   UNL A   1      30.216  26.070  24.046  1.00  0.00    -0.035 A 
ATOM     17  C   UNL A   1      28.478  30.385  21.999  1.00  0.00     0.119 A 
ATOM     18  C   UNL A   1      29.844  30.371  21.736  1.00  0.00    -0.019 A 
ATOM     19  C   UNL A   1      27.880  29.331  22.685  1.00  0.00    -0.012 A 
ATOM     20  C   UNL A   1      30.620  29.294  22.171  1.00  0.00    -0.051 A 
ATOM     21  H   UNL A   1      30.282  31.153  21.224  1.00  0.00     0.066 H 
ATOM     22  C   UNL A   1      28.644  28.230  23.097  1.00  0.00    -0.015 A 
ATOM     23  H   UNL A   1      26.870  29.360  22.891  1.00  0.00     0.067 H 
ATOM     24  C   UNL A   1      30.036  28.222  22.867  1.00  0.00    -0.018 A 
ATOM     25  H   UNL A   1      31.634  29.284  21.978  1.00  0.00     0.063 H 
ATOM     26  C   UNL A   1      28.050  27.135  23.735  1.00  0.00    -0.054 A 
ATOM     27  C   UNL A   1      30.804  27.153  23.362  1.00  0.00    -0.050 A 
ATOM     28  C   UNL A   1      28.822  26.057  24.173  1.00  0.00    -0.058 A 
ATOM     29  H   UNL A   1      27.028  27.124  23.884  1.00  0.00     0.063 H 
ATOM     30  H   UNL A   1      31.826  27.162  23.222  1.00  0.00     0.063 H 
ATOM     31  H   UNL A   1      28.358  25.238  24.597  1.00  0.00     0.063 H 
BRANCH  17  32
ATOM     32  O   UNL A   1      27.687  31.454  21.676  1.00  0.00    -0.497 OA
BRANCH  32  33
ATOM     33  C   UNL A   1      28.296  32.686  22.055  1.00  0.00     0.078 C 
ATOM     34  H   UNL A   1      27.547  33.354  22.429  1.00  0.00     0.067 H 
ATOM     35  H   UNL A   1      28.772  33.126  21.203  1.00  0.00     0.067 H 
ATOM     36  H   UNL A   1      29.024  32.505  22.817  1.00  0.00     0.067 H 
ENDBRANCH  32  33
ENDBRANCH  17  32
ENDBRANCH  14  16
BRANCH  14  37
ATOM     37  C   UNL A   1      30.962  23.563  24.178  1.00  0.00    -0.049 C 
ATOM     38  H   UNL A   1      29.949  23.403  23.873  1.00  0.00     0.024 H 
ATOM     39  H   UNL A   1      31.205  22.893  24.976  1.00  0.00     0.024 H 
ATOM     40  H   UNL A   1      31.616  23.383  23.351  1.00  0.00     0.024 H 
ENDBRANCH  14  37
ENDBRANCH  11  14
ENDBRANCH   7  10
ENDBRANCH   4   7
ENDBRANCH   1   4
BRANCH   1  41
ATOM     41  C   UNL A   1      31.670  30.034  25.821  1.00  0.00    -0.052 C 
ATOM     42  H   UNL A   1      30.847  29.760  25.194  1.00  0.00     0.027 H 
ATOM     43  H   UNL A   1      32.616  30.056  25.322  1.00  0.00     0.027 H 
BRANCH  41  44
ATOM     44  C   UNL A   1      31.429  31.464  26.309  1.00  0.00    -0.036 C 
ATOM     45  H   UNL A   1      30.586  31.450  26.967  1.00  0.00     0.028 H 
ATOM     46  H   UNL A   1      31.283  32.051  25.426  1.00  0.00     0.028 H 
BRANCH  44  47
ATOM     47  C   UNL A   1      32.592  32.118  27.052  1.00  0.00     0.018 C 
ATOM     48  H   UNL A   1      33.468  32.051  26.441  1.00  0.00     0.049 H 
ATOM     49  H   UNL A   1      32.713  31.598  27.979  1.00  0.00     0.049 H 
BRANCH  47  50
ATOM     50  N   UNL A   1      32.351  33.515  27.363  1.00  0.00    -0.352 N 
ATOM     51  C   UNL A   1      32.982  34.340  28.261  1.00  0.00     0.251 C 
ATOM     52  H   UNL A   1      31.622  33.936  26.852  1.00  0.00     0.163 HD
ATOM     53  O   UNL A   1      32.540  35.463  28.480  1.00  0.00    -0.269 OA
BRANCH  51  54
ATOM     54  C   UNL A   1      34.180  33.872  28.993  1.00  0.00     0.039 A 
ATOM     55  C   UNL A   1      34.015  32.933  30.015  1.00  0.00    -0.049 A 
ATOM     56  C   UNL A   1      35.454  34.364  28.695  1.00  0.00    -0.049 A 
ATOM     57  C   UNL A   1      35.132  32.434  30.689  1.00  0.00    -0.053 A 
ATOM     58  H   UNL A   1      33.069  32.609  30.271  1.00  0.00     0.063 H 
ATOM     59  C   UNL A   1      36.573  33.821  29.325  1.00  0.00    -0.053 A 
ATOM     60  H   UNL A   1      35.566  35.128  28.010  1.00  0.00     0.063 H 
ATOM     61  C   UNL A   1      36.423  32.846  30.324  1.00  0.00    -0.014 A 
ATOM     62  H   UNL A   1      35.008  31.759  31.461  1.00  0.00     0.063 H 
ATOM     63  H   UNL A   1      37.517  34.137  29.055  1.00  0.00     0.063 H 
BRANCH  61  64
ATOM     64  C   UNL A   1      37.629  32.252  30.958  1.00  0.00     0.031 A 
ATOM     65  C   UNL A   1      38.395  31.163  30.261  1.00  0.00     0.074 A 
ATOM     66  C   UNL A   1      37.991  32.647  32.193  1.00  0.00     0.049 A 
ATOM     67  N   UNL A   1      39.412  30.460  30.692  1.00  0.00    -0.248 NA
ATOM     68  C   UNL A   1      37.946  30.802  28.907  1.00  0.00    -0.034 C 
ATOM     69  C   UNL A   1      37.308  33.669  32.989  1.00  0.00    -0.036 A 
ATOM     70  N   UNL A   1      39.015  32.226  33.005  1.00  0.00    -0.354 N 
ATOM     71  C   UNL A   1      39.717  29.569  29.671  1.00  0.00     0.074 A 
ATOM     72  C   UNL A   1      38.750  29.788  28.618  1.00  0.00    -0.034 C 
ATOM     73  H   UNL A   1      37.201  31.226  28.334  1.00  0.00     0.065 H 
ATOM     74  C   UNL A   1      37.937  33.803  34.167  1.00  0.00    -0.036 A 
ATOM     75  H   UNL A   1      36.475  34.200  32.691  1.00  0.00     0.065 H 
ATOM     76  C   UNL A   1      39.041  32.851  34.229  1.00  0.00     0.049 A 
ATOM     77  H   UNL A   1      39.670  31.542  32.737  1.00  0.00     0.167 HD
ATOM     78  C   UNL A   1      40.725  28.667  29.611  1.00  0.00     0.037 A 
ATOM     79  H   UNL A   1      38.692  29.228  27.752  1.00  0.00     0.065 H 
ATOM     80  H   UNL A   1      37.681  34.472  34.910  1.00  0.00     0.065 H 
ATOM     81  C   UNL A   1      39.853  32.666  35.287  1.00  0.00     0.037 A 
ATOM     82  C   UNL A   1      41.698  28.464  30.654  1.00  0.00     0.049 A 
ATOM     83  C   UNL A   1      40.951  31.639  35.201  1.00  0.00     0.074 A 
ATOM     84  C   UNL A   1      42.785  27.607  30.664  1.00  0.00    -0.036 A 
ATOM     85  N   UNL A   1      41.700  29.125  31.873  1.00  0.00    -0.354 N 
ATOM     86  N   UNL A   1      41.264  30.844  34.207  1.00  0.00    -0.248 NA
ATOM     87  C   UNL A   1      41.811  31.489  36.383  1.00  0.00    -0.034 C 
ATOM     88  C   UNL A   1      43.419  27.718  31.907  1.00  0.00    -0.036 A 
ATOM     89  H   UNL A   1      43.079  26.993  29.890  1.00  0.00     0.065 H 
ATOM     90  C   UNL A   1      42.756  28.680  32.651  1.00  0.00     0.049 A 
ATOM     91  H   UNL A   1      41.047  29.811  32.145  1.00  0.00     0.167 HD
ATOM     92  C   UNL A   1      42.370  30.121  34.632  1.00  0.00     0.074 A 
ATOM     93  C   UNL A   1      42.685  30.583  35.967  1.00  0.00    -0.034 C 
ATOM     94  H   UNL A   1      41.750  31.964  37.297  1.00  0.00     0.065 H 
ATOM     95  H   UNL A   1      44.239  27.175  32.217  1.00  0.00     0.065 H 
ATOM     96  C   UNL A   1      43.061  29.157  33.976  1.00  0.00     0.037 A 
ATOM     97  H   UNL A   1      43.488  30.252  36.523  1.00  0.00     0.065 H 
BRANCH  78  98
ATOM     98  C   UNL A   1      40.836  27.826  28.373  1.00  0.00     0.064 A 
ATOM     99  C   UNL A   1      41.584  28.248  27.264  1.00  0.00     0.173 A 
ATOM    100  C   UNL A   1      40.235  26.559  28.313  1.00  0.00     0.173 A 
ATOM    101  F   UNL A   1      42.170  29.456  27.266  1.00  0.00    -0.203 F 
ATOM    102  C   UNL A   1      41.708  27.445  26.133  1.00  0.00     0.198 A 
ATOM    103  C   UNL A   1      40.385  25.745  27.193  1.00  0.00     0.198 A 
ATOM    104  F   UNL A   1      39.514  26.104  29.349  1.00  0.00    -0.203 F 
ATOM    105  F   UNL A   1      42.395  27.887  25.071  1.00  0.00    -0.200 F 
ATOM    106  C   UNL A   1      41.116  26.191  26.103  1.00  0.00     0.200 A 
ATOM    107  F   UNL A   1      39.824  24.529  27.170  1.00  0.00    -0.200 F 
ATOM    108  F   UNL A   1      41.248  25.414  25.019  1.00  0.00    -0.200 F 
ENDBRANCH  78  98
BRANCH  81 109
ATOM    109  C   UNL A   1      39.663  33.470  36.522  1.00  0.00     0.064 A 
ATOM    110  C   UNL A   1      38.798  33.040  37.538  1.00  0.00     0.173 A 
ATOM    111  C   UNL A   1      40.325  34.695  36.704  1.00  0.00     0.173 A 
ATOM    112  F   UNL A   1      38.125  31.888  37.398  1.00  0.00    -0.203 F 
ATOM    113  C   UNL A   1      38.580  33.814  38.676  1.00  0.00     0.198 A 
ATOM    114  C   UNL A   1      40.130  35.453  37.857  1.00  0.00     0.198 A 
ATOM    115  F   UNL A   1      41.166  35.150  35.765  1.00  0.00    -0.203 F 
ATOM    116  F   UNL A   1      37.706  33.404  39.605  1.00  0.00    -0.200 F 
ATOM    117  C   UNL A   1      39.250  35.018  38.836  1.00  0.00     0.200 A 
ATOM    118  F   UNL A   1      40.790  36.609  38.014  1.00  0.00    -0.200 F 
ATOM    119  F   UNL A   1      39.040  35.763  39.930  1.00  0.00    -0.200 F 
ENDBRANCH  81 109
BRANCH  96 120
ATOM    120  C   UNL A   1      44.246  28.562  34.680  1.00  0.00     0.064 A 
ATOM    121  C   UNL A   1      44.135  27.399  35.456  1.00  0.00     0.173 A 
ATOM    122  C   UNL A   1      45.517  29.144  34.547  1.00  0.00     0.173 A 
ATOM    123  F   UNL A   1      42.939  26.815  35.627  1.00  0.00    -0.203 F 
ATOM    124  C   UNL A   1      45.246  26.857  36.097  1.00  0.00     0.198 A 
ATOM    125  C   UNL A   1      46.631  28.581  35.163  1.00  0.00     0.198 A 
ATOM    126  F   UNL A   1      45.678  30.253  33.809  1.00  0.00    -0.203 F 
ATOM    127  F   UNL A   1      45.106  25.774  36.874  1.00  0.00    -0.200 F 
ATOM    128  C   UNL A   1      46.493  27.443  35.943  1.00  0.00     0.200 A 
ATOM    129  F   UNL A   1      47.837  29.141  35.002  1.00  0.00    -0.200 F 
ATOM    130  F   UNL A   1      47.562  26.915  36.554  1.00  0.00    -0.200 F 
ENDBRANCH  96 120
ENDBRANCH  61  64
ENDBRANCH  51  54
ENDBRANCH  47  50
ENDBRANCH  44  47
ENDBRANCH  41  44
ENDBRANCH   1  41
TORSDOF 17
ENDMDL
MODEL 4
REMARK VINA RESULT:     -12.0      1.917      3.868
REMARK SMILES COc1ccc2cc([C@H](C)C(=O)NCCCCCCNC(=O)c3ccc(-c4c5nc(c(-c6c(F)c(F)c(F)c(F)c6F)c6ccc([nH]6)c(-c6c(F)c(F)c(F)c(F)c6F)c6nc(c(-c7c(F)c(F)c(F)c(F)c7F)c7ccc4[nH]7)C=C6)C=C5)cc3)ccc2c1
REMARK SMILES IDX 16 1 15 4 14 7 13 10 11 11 12 12 9 14 8 16 3 17 4 18 89 19
REMARK SMILES IDX 5 20 88 22 6 24 87 26 7 27 86 28 2 32 1 33 10 37 17 41 18 44
REMARK SMILES IDX 19 47 20 50 21 51 22 53 23 54 24 55 85 56 25 57 84 59 26 61
REMARK SMILES IDX 27 64 28 65 78 66 29 67 83 68 77 69 79 70 30 71 82 72 76 74
REMARK SMILES IDX 75 76 31 78 63 81 43 82 62 83 44 84 47 85 61 86 80 87 45 88
REMARK SMILES IDX 46 90 60 92 81 93 48 96 32 98 33 99 41 100 34 101 35 102
REMARK SMILES IDX 39 103 42 104 36 105 37 106 40 107 38 108 64 109 65 110
REMARK SMILES IDX 73 111 66 112 67 113 71 114 74 115 68 116 69 117 72 118
REMARK SMILES IDX 70 119 49 120 50 121 58 122 51 123 52 124 56 125 59 126
REMARK SMILES IDX 53 127 54 128 57 129 55 130
REMARK H PARENT 16 2 16 3 15 5 15 6 14 8 14 9 13 13 9 15 4 21 89 23 5 25 87 29
REMARK H PARENT 7 30 86 31 1 34 1 35 1 36 10 38 10 39 10 40 17 42 17 43 18 45
REMARK H PARENT 18 46 19 48 19 49 20 52 24 58 85 60 25 62 84 63 83 73 77 75
REMARK H PARENT 79 77 82 79 76 80 44 89 47 91 80 94 45 95 81 97
REMARK Flexibility Score: inf
ROOT
ATOM      1  C   UNL A   1      32.418  29.841  27.010  1.00  0.00    -0.052 C 
ATOM      2  H   UNL A   1      33.324  29.581  26.506  1.00  0.00     0.027 H 
ATOM      3  H   UNL A   1      32.561  30.417  27.901  1.00  0.00     0.027 H 
ENDROOT
BRANCH   1   4
ATOM      4  C   UNL A   1      31.742  28.545  27.460  1.00  0.00    -0.036 C 
ATOM      5  H   UNL A   1      32.355  28.101  28.216  1.00  0.00     0.028 H 
ATOM      6  H   UNL A   1      30.768  28.825  27.801  1.00  0.00     0.028 H 
BRANCH   4   7
ATOM      7  C   UNL A   1      31.520  27.508  26.365  1.00  0.00     0.017 C 
ATOM      8  H   UNL A   1      30.755  27.865  25.709  1.00  0.00     0.049 H 
ATOM      9  H   UNL A   1      32.454  27.374  25.860  1.00  0.00     0.049 H 
BRANCH   7  10
ATOM     10  N   UNL A   1      31.120  26.214  26.876  1.00  0.00    -0.356 N 
ATOM     11  C   UNL A   1      31.596  24.973  26.557  1.00  0.00     0.227 C 
ATOM     12  O   UNL A   1      31.177  24.017  27.218  1.00  0.00    -0.274 OA
ATOM     13  H   UNL A   1      30.402  26.230  27.548  1.00  0.00     0.163 HD
BRANCH  11  14
ATOM     14  C   UNL A   1      32.607  24.752  25.417  1.00  0.00     0.060 C 
ATOM     15  H   UNL A   1      32.405  25.440  24.623  1.00  0.00     0.045 H 
BRANCH  14  16
ATOM     16  C   UNL A   1      32.409  23.399  24.737  1.00  0.00    -0.035 A 
ATOM     17  C   UNL A   1      32.770  18.476  23.532  1.00  0.00     0.119 A 
ATOM     18  C   UNL A   1      33.173  18.565  24.861  1.00  0.00    -0.019 A 
ATOM     19  C   UNL A   1      32.366  19.613  22.838  1.00  0.00    -0.012 A 
ATOM     20  C   UNL A   1      33.179  19.808  25.498  1.00  0.00    -0.051 A 
ATOM     21  H   UNL A   1      33.468  17.718  25.372  1.00  0.00     0.066 H 
ATOM     22  C   UNL A   1      32.337  20.860  23.479  1.00  0.00    -0.015 A 
ATOM     23  H   UNL A   1      32.087  19.539  21.848  1.00  0.00     0.067 H 
ATOM     24  C   UNL A   1      32.778  20.969  24.814  1.00  0.00    -0.018 A 
ATOM     25  H   UNL A   1      33.480  19.875  26.483  1.00  0.00     0.063 H 
ATOM     26  C   UNL A   1      31.879  22.004  22.815  1.00  0.00    -0.054 A 
ATOM     27  C   UNL A   1      32.827  22.238  25.417  1.00  0.00    -0.050 A 
ATOM     28  C   UNL A   1      31.884  23.249  23.448  1.00  0.00    -0.058 A 
ATOM     29  H   UNL A   1      31.531  21.927  21.846  1.00  0.00     0.063 H 
ATOM     30  H   UNL A   1      33.179  22.322  26.383  1.00  0.00     0.063 H 
ATOM     31  H   UNL A   1      31.496  24.070  22.958  1.00  0.00     0.063 H 
BRANCH  17  32
ATOM     32  O   UNL A   1      32.829  17.301  22.832  1.00  0.00    -0.497 OA
BRANCH  32  33
ATOM     33  C   UNL A   1      33.946  16.511  23.233  1.00  0.00     0.078 C 
ATOM     34  H   UNL A   1      34.099  16.617  24.287  1.00  0.00     0.067 H 
ATOM     35  H   UNL A   1      34.822  16.841  22.712  1.00  0.00     0.067 H 
ATOM     36  H   UNL A   1      33.759  15.484  23.001  1.00  0.00     0.067 H 
ENDBRANCH  32  33
ENDBRANCH  17  32
ENDBRANCH  14  16
BRANCH  14  37
ATOM     37  C   UNL A   1      34.033  25.141  25.829  1.00  0.00    -0.049 C 
ATOM     38  H   UNL A   1      34.486  24.328  26.358  1.00  0.00     0.024 H 
ATOM     39  H   UNL A   1      33.999  26.003  26.460  1.00  0.00     0.024 H 
ATOM     40  H   UNL A   1      34.608  25.361  24.954  1.00  0.00     0.024 H 
ENDBRANCH  14  37
ENDBRANCH  11  14
ENDBRANCH   7  10
ENDBRANCH   4   7
ENDBRANCH   1   4
BRANCH   1  41
ATOM     41  C   UNL A   1      31.598  30.731  26.070  1.00  0.00    -0.052 C 
ATOM     42  H   UNL A   1      30.629  30.289  25.964  1.00  0.00     0.027 H 
ATOM     43  H   UNL A   1      32.161  30.783  25.162  1.00  0.00     0.027 H 
BRANCH  41  44
ATOM     44  C   UNL A   1      31.402  32.183  26.513  1.00  0.00    -0.036 C 
ATOM     45  H   UNL A   1      30.540  32.220  27.146  1.00  0.00     0.028 H 
ATOM     46  H   UNL A   1      31.305  32.751  25.612  1.00  0.00     0.028 H 
BRANCH  44  47
ATOM     47  C   UNL A   1      32.568  32.810  27.274  1.00  0.00     0.018 C 
ATOM     48  H   UNL A   1      33.443  32.758  26.660  1.00  0.00     0.049 H 
ATOM     49  H   UNL A   1      32.689  32.261  28.184  1.00  0.00     0.049 H 
BRANCH  47  50
ATOM     50  N   UNL A   1      32.332  34.198  27.628  1.00  0.00    -0.352 N 
ATOM     51  C   UNL A   1      32.956  34.987  28.562  1.00  0.00     0.251 C 
ATOM     52  H   UNL A   1      31.615  34.641  27.121  1.00  0.00     0.163 HD
ATOM     53  O   UNL A   1      32.519  36.106  28.812  1.00  0.00    -0.269 OA
BRANCH  51  54
ATOM     54  C   UNL A   1      34.139  34.486  29.296  1.00  0.00     0.039 A 
ATOM     55  C   UNL A   1      33.943  33.832  30.515  1.00  0.00    -0.049 A 
ATOM     56  C   UNL A   1      35.434  34.673  28.804  1.00  0.00    -0.049 A 
ATOM     57  C   UNL A   1      35.035  33.303  31.206  1.00  0.00    -0.053 A 
ATOM     58  H   UNL A   1      32.991  33.740  30.905  1.00  0.00     0.063 H 
ATOM     59  C   UNL A   1      36.517  34.091  29.462  1.00  0.00    -0.053 A 
ATOM     60  H   UNL A   1      35.588  35.240  27.956  1.00  0.00     0.063 H 
ATOM     61  C   UNL A   1      36.328  33.395  30.665  1.00  0.00    -0.014 A 
ATOM     62  H   UNL A   1      34.892  32.842  32.118  1.00  0.00     0.063 H 
ATOM     63  H   UNL A   1      37.464  34.172  29.060  1.00  0.00     0.063 H 
BRANCH  61  64
ATOM     64  C   UNL A   1      37.488  32.749  31.333  1.00  0.00     0.031 A 
ATOM     65  C   UNL A   1      38.196  31.597  30.678  1.00  0.00     0.074 A 
ATOM     66  C   UNL A   1      37.859  33.160  32.561  1.00  0.00     0.049 A 
ATOM     67  N   UNL A   1      39.165  30.849  31.144  1.00  0.00    -0.248 NA
ATOM     68  C   UNL A   1      37.743  31.223  29.330  1.00  0.00    -0.034 C 
ATOM     69  C   UNL A   1      37.228  34.243  33.317  1.00  0.00    -0.036 A 
ATOM     70  N   UNL A   1      38.847  32.704  33.399  1.00  0.00    -0.354 N 
ATOM     71  C   UNL A   1      39.429  29.911  30.153  1.00  0.00     0.074 A 
ATOM     72  C   UNL A   1      38.489  30.156  29.081  1.00  0.00    -0.034 C 
ATOM     73  H   UNL A   1      37.031  31.673  28.735  1.00  0.00     0.065 H 
ATOM     74  C   UNL A   1      37.850  34.375  34.499  1.00  0.00    -0.036 A 
ATOM     75  H   UNL A   1      36.432  34.813  32.993  1.00  0.00     0.065 H 
ATOM     76  C   UNL A   1      38.895  33.362  34.604  1.00  0.00     0.049 A 
ATOM     77  H   UNL A   1      39.463  31.974  33.159  1.00  0.00     0.167 HD
ATOM     78  C   UNL A   1      40.382  28.950  30.133  1.00  0.00     0.037 A 
ATOM     79  H   UNL A   1      38.408  29.574  28.231  1.00  0.00     0.065 H 
ATOM     80  H   UNL A   1      37.625  35.080  35.219  1.00  0.00     0.065 H 
ATOM     81  C   UNL A   1      39.682  33.161  35.678  1.00  0.00     0.037 A 
ATOM     82  C   UNL A   1      41.329  28.722  31.194  1.00  0.00     0.049 A 
ATOM     83  C   UNL A   1      40.718  32.069  35.636  1.00  0.00     0.074 A 
ATOM     84  C   UNL A   1      42.364  27.803  31.244  1.00  0.00    -0.036 A 
ATOM     85  N   UNL A   1      41.356  29.417  32.393  1.00  0.00    -0.354 N 
ATOM     86  N   UNL A   1      40.995  31.228  34.670  1.00  0.00    -0.248 NA
ATOM     87  C   UNL A   1      41.554  31.905  36.834  1.00  0.00    -0.034 C 
ATOM     88  C   UNL A   1      42.988  27.913  32.492  1.00  0.00    -0.036 A 
ATOM     89  H   UNL A   1      42.629  27.149  30.492  1.00  0.00     0.065 H 
ATOM     90  C   UNL A   1      42.374  28.935  33.198  1.00  0.00     0.049 A 
ATOM     91  H   UNL A   1      40.741  30.148  32.636  1.00  0.00     0.167 HD
ATOM     92  C   UNL A   1      42.052  30.454  35.131  1.00  0.00     0.074 A 
ATOM     93  C   UNL A   1      42.378  30.937  36.456  1.00  0.00    -0.034 C 
ATOM     94  H   UNL A   1      41.511  32.409  37.733  1.00  0.00     0.065 H 
ATOM     95  H   UNL A   1      43.771  27.332  32.828  1.00  0.00     0.065 H 
ATOM     96  C   UNL A   1      42.692  29.432  34.513  1.00  0.00     0.037 A 
ATOM     97  H   UNL A   1      43.153  30.575  37.033  1.00  0.00     0.065 H 
BRANCH  78  98
ATOM     98  C   UNL A   1      40.458  28.067  28.921  1.00  0.00     0.064 A 
ATOM     99  C   UNL A   1      39.741  26.864  28.844  1.00  0.00     0.173 A 
ATOM    100  C   UNL A   1      41.209  28.454  27.801  1.00  0.00     0.173 A 
ATOM    101  F   UNL A   1      39.014  26.443  29.892  1.00  0.00    -0.203 F 
ATOM    102  C   UNL A   1      39.791  26.070  27.702  1.00  0.00     0.198 A 
ATOM    103  C   UNL A   1      41.234  27.674  26.649  1.00  0.00     0.198 A 
ATOM    104  F   UNL A   1      41.908  29.600  27.819  1.00  0.00    -0.203 F 
ATOM    105  F   UNL A   1      39.129  24.905  27.666  1.00  0.00    -0.200 F 
ATOM    106  C   UNL A   1      40.530  26.480  26.602  1.00  0.00     0.200 A 
ATOM    107  F   UNL A   1      41.938  28.077  25.582  1.00  0.00    -0.200 F 
ATOM    108  F   UNL A   1      40.567  25.722  25.498  1.00  0.00    -0.200 F 
ENDBRANCH  78  98
BRANCH  81 109
ATOM    109  C   UNL A   1      39.526  34.012  36.887  1.00  0.00     0.064 A 
ATOM    110  C   UNL A   1      40.163  35.257  36.979  1.00  0.00     0.173 A 
ATOM    111  C   UNL A   1      38.756  33.590  37.981  1.00  0.00     0.173 A 
ATOM    112  F   UNL A   1      40.929  35.692  35.967  1.00  0.00    -0.203 F 
ATOM    113  C   UNL A   1      40.059  36.037  38.129  1.00  0.00     0.198 A 
ATOM    114  C   UNL A   1      38.628  34.385  39.118  1.00  0.00     0.198 A 
ATOM    115  F   UNL A   1      38.124  32.409  37.943  1.00  0.00    -0.203 F 
ATOM    116  F   UNL A   1      40.723  37.198  38.210  1.00  0.00    -0.200 F 
ATOM    117  C   UNL A   1      39.287  35.603  39.195  1.00  0.00     0.200 A 
ATOM    118  F   UNL A   1      37.870  33.968  40.142  1.00  0.00    -0.200 F 
ATOM    119  F   UNL A   1      39.188  36.352  40.302  1.00  0.00    -0.200 F 
ENDBRANCH  81 109
BRANCH  96 120
ATOM    120  C   UNL A   1      43.831  28.789  35.249  1.00  0.00     0.064 A 
ATOM    121  C   UNL A   1      45.141  29.281  35.154  1.00  0.00     0.173 A 
ATOM    122  C   UNL A   1      43.603  27.687  36.088  1.00  0.00     0.173 A 
ATOM    123  F   UNL A   1      45.414  30.322  34.352  1.00  0.00    -0.203 F 
ATOM    124  C   UNL A   1      46.185  28.677  35.849  1.00  0.00     0.198 A 
ATOM    125  C   UNL A   1      44.644  27.105  36.806  1.00  0.00     0.198 A 
ATOM    126  F   UNL A   1      42.367  27.183  36.220  1.00  0.00    -0.203 F 
ATOM    127  F   UNL A   1      47.437  29.134  35.703  1.00  0.00    -0.200 F 
ATOM    128  C   UNL A   1      45.935  27.596  36.680  1.00  0.00     0.200 A 
ATOM    129  F   UNL A   1      44.398  26.069  37.619  1.00  0.00    -0.200 F 
ATOM    130  F   UNL A   1      46.940  27.020  37.354  1.00  0.00    -0.200 F 
ENDBRANCH  96 120
ENDBRANCH  61  64
ENDBRANCH  51  54
ENDBRANCH  47  50
ENDBRANCH  44  47
ENDBRANCH  41  44
ENDBRANCH   1  41
TORSDOF 17
ENDMDL
MODEL 5
REMARK VINA RESULT:     -12.0      5.984     11.535
REMARK SMILES COc1ccc2cc([C@H](C)C(=O)NCCCCCCNC(=O)c3ccc(-c4c5nc(c(-c6c(F)c(F)c(F)c(F)c6F)c6ccc([nH]6)c(-c6c(F)c(F)c(F)c(F)c6F)c6nc(c(-c7c(F)c(F)c(F)c(F)c7F)c7ccc4[nH]7)C=C6)C=C5)cc3)ccc2c1
REMARK SMILES IDX 16 1 15 4 14 7 13 10 11 11 12 12 9 14 8 16 3 17 4 18 89 19
REMARK SMILES IDX 5 20 88 22 6 24 87 26 7 27 86 28 2 32 1 33 10 37 17 41 18 44
REMARK SMILES IDX 19 47 20 50 21 51 22 53 23 54 24 55 85 56 25 57 84 59 26 61
REMARK SMILES IDX 27 64 28 65 78 66 29 67 83 68 77 69 79 70 30 71 82 72 76 74
REMARK SMILES IDX 75 76 31 78 63 81 43 82 62 83 44 84 47 85 61 86 80 87 45 88
REMARK SMILES IDX 46 90 60 92 81 93 48 96 32 98 33 99 41 100 34 101 35 102
REMARK SMILES IDX 39 103 42 104 36 105 37 106 40 107 38 108 64 109 65 110
REMARK SMILES IDX 73 111 66 112 67 113 71 114 74 115 68 116 69 117 72 118
REMARK SMILES IDX 70 119 49 120 50 121 58 122 51 123 52 124 56 125 59 126
REMARK SMILES IDX 53 127 54 128 57 129 55 130
REMARK H PARENT 16 2 16 3 15 5 15 6 14 8 14 9 13 13 9 15 4 21 89 23 5 25 87 29
REMARK H PARENT 7 30 86 31 1 34 1 35 1 36 10 38 10 39 10 40 17 42 17 43 18 45
REMARK H PARENT 18 46 19 48 19 49 20 52 24 58 85 60 25 62 84 63 83 73 77 75
REMARK H PARENT 79 77 82 79 76 80 44 89 47 91 80 94 45 95 81 97
REMARK Flexibility Score: inf
ROOT
ATOM      1  C   UNL A   1      36.439  22.180  24.309  1.00  0.00    -0.052 C 
ATOM      2  H   UNL A   1      37.429  22.421  23.982  1.00  0.00     0.027 H 
ATOM      3  H   UNL A   1      35.729  22.074  23.516  1.00  0.00     0.027 H 
ENDROOT
BRANCH   1   4
ATOM      4  C   UNL A   1      35.934  23.341  25.167  1.00  0.00    -0.036 C 
ATOM      5  H   UNL A   1      35.496  22.929  26.052  1.00  0.00     0.028 H 
ATOM      6  H   UNL A   1      36.785  23.961  25.353  1.00  0.00     0.028 H 
BRANCH   4   7
ATOM      7  C   UNL A   1      34.897  24.242  24.505  1.00  0.00     0.017 C 
ATOM      8  H   UNL A   1      35.404  25.071  24.058  1.00  0.00     0.049 H 
ATOM      9  H   UNL A   1      34.377  23.649  23.781  1.00  0.00     0.049 H 
BRANCH   7  10
ATOM     10  N   UNL A   1      33.908  24.752  25.431  1.00  0.00    -0.356 N 
ATOM     11  C   UNL A   1      32.596  24.400  25.576  1.00  0.00     0.227 C 
ATOM     12  O   UNL A   1      31.976  24.896  26.523  1.00  0.00    -0.274 OA
ATOM     13  H   UNL A   1      34.227  25.454  26.043  1.00  0.00     0.163 HD
BRANCH  11  14
ATOM     14  C   UNL A   1      31.894  23.436  24.602  1.00  0.00     0.060 C 
ATOM     15  H   UNL A   1      30.857  23.363  24.857  1.00  0.00     0.045 H 
BRANCH  14  16
ATOM     16  C   UNL A   1      32.378  21.999  24.777  1.00  0.00    -0.035 A 
ATOM     17  C   UNL A   1      33.157  17.024  24.094  1.00  0.00     0.119 A 
ATOM     18  C   UNL A   1      32.811  17.523  22.842  1.00  0.00    -0.019 A 
ATOM     19  C   UNL A   1      33.240  17.873  25.195  1.00  0.00    -0.012 A 
ATOM     20  C   UNL A   1      32.536  18.884  22.693  1.00  0.00    -0.051 A 
ATOM     21  H   UNL A   1      32.754  16.890  22.028  1.00  0.00     0.066 H 
ATOM     22  C   UNL A   1      32.998  19.247  25.049  1.00  0.00    -0.015 A 
ATOM     23  H   UNL A   1      33.479  17.490  26.122  1.00  0.00     0.067 H 
ATOM     24  C   UNL A   1      32.611  19.758  23.792  1.00  0.00    -0.018 A 
ATOM     25  H   UNL A   1      32.277  19.255  21.765  1.00  0.00     0.063 H 
ATOM     26  C   UNL A   1      33.134  20.124  26.131  1.00  0.00    -0.054 A 
ATOM     27  C   UNL A   1      32.287  21.121  23.679  1.00  0.00    -0.050 A 
ATOM     28  C   UNL A   1      32.859  21.486  25.987  1.00  0.00    -0.058 A 
ATOM     29  H   UNL A   1      33.441  19.760  27.047  1.00  0.00     0.063 H 
ATOM     30  H   UNL A   1      31.974  21.489  22.767  1.00  0.00     0.063 H 
ATOM     31  H   UNL A   1      33.012  22.123  26.784  1.00  0.00     0.063 H 
BRANCH  17  32
ATOM     32  O   UNL A   1      33.349  15.688  24.316  1.00  0.00    -0.497 OA
BRANCH  32  33
ATOM     33  C   UNL A   1      32.651  15.247  25.479  1.00  0.00     0.078 C 
ATOM     34  H   UNL A   1      31.684  14.884  25.199  1.00  0.00     0.067 H 
ATOM     35  H   UNL A   1      32.540  16.066  26.160  1.00  0.00     0.067 H 
ATOM     36  H   UNL A   1      33.204  14.463  25.951  1.00  0.00     0.067 H 
ENDBRANCH  32  33
ENDBRANCH  17  32
ENDBRANCH  14  16
BRANCH  14  37
ATOM     37  C   UNL A   1      31.837  24.000  23.175  1.00  0.00    -0.049 C 
ATOM     38  H   UNL A   1      30.937  23.673  22.698  1.00  0.00     0.024 H 
ATOM     39  H   UNL A   1      32.683  23.652  22.620  1.00  0.00     0.024 H 
ATOM     40  H   UNL A   1      31.851  25.069  23.214  1.00  0.00     0.024 H 
ENDBRANCH  14  37
ENDBRANCH  11  14
ENDBRANCH   7  10
ENDBRANCH   4   7
ENDBRANCH   1   4
BRANCH   1  41
ATOM     41  C   UNL A   1      36.494  20.813  24.999  1.00  0.00    -0.052 C 
ATOM     42  H   UNL A   1      35.682  20.225  24.625  1.00  0.00     0.027 H 
ATOM     43  H   UNL A   1      36.441  21.020  26.048  1.00  0.00     0.027 H 
BRANCH  41  44
ATOM     44  C   UNL A   1      37.781  20.008  24.805  1.00  0.00    -0.036 C 
ATOM     45  H   UNL A   1      38.108  20.149  23.796  1.00  0.00     0.028 H 
ATOM     46  H   UNL A   1      37.530  18.996  25.043  1.00  0.00     0.028 H 
BRANCH  44  47
ATOM     47  C   UNL A   1      38.941  20.375  25.728  1.00  0.00     0.018 C 
ATOM     48  H   UNL A   1      38.550  20.574  26.704  1.00  0.00     0.049 H 
ATOM     49  H   UNL A   1      39.425  21.233  25.310  1.00  0.00     0.049 H 
BRANCH  47  50
ATOM     50  N   UNL A   1      39.935  19.322  25.833  1.00  0.00    -0.352 N 
ATOM     51  C   UNL A   1      41.282  19.403  26.083  1.00  0.00     0.251 C 
ATOM     52  H   UNL A   1      39.590  18.409  25.706  1.00  0.00     0.163 HD
ATOM     53  O   UNL A   1      41.985  18.402  25.998  1.00  0.00    -0.269 OA
BRANCH  51  54
ATOM     54  C   UNL A   1      41.902  20.702  26.429  1.00  0.00     0.039 A 
ATOM     55  C   UNL A   1      42.209  21.592  25.396  1.00  0.00    -0.049 A 
ATOM     56  C   UNL A   1      42.200  21.038  27.752  1.00  0.00    -0.049 A 
ATOM     57  C   UNL A   1      42.747  22.846  25.694  1.00  0.00    -0.053 A 
ATOM     58  H   UNL A   1      42.038  21.323  24.414  1.00  0.00     0.063 H 
ATOM     59  C   UNL A   1      42.679  22.312  28.054  1.00  0.00    -0.053 A 
ATOM     60  H   UNL A   1      42.066  20.344  28.504  1.00  0.00     0.063 H 
ATOM     61  C   UNL A   1      42.951  23.231  27.029  1.00  0.00    -0.014 A 
ATOM     62  H   UNL A   1      42.996  23.493  24.930  1.00  0.00     0.063 H 
ATOM     63  H   UNL A   1      42.834  22.582  29.038  1.00  0.00     0.063 H 
BRANCH  61  64
ATOM     64  C   UNL A   1      43.426  24.597  27.372  1.00  0.00     0.031 A 
ATOM     65  C   UNL A   1      42.467  25.620  27.911  1.00  0.00     0.074 A 
ATOM     66  C   UNL A   1      44.707  24.933  27.131  1.00  0.00     0.049 A 
ATOM     67  N   UNL A   1      42.672  26.886  28.180  1.00  0.00    -0.248 NA
ATOM     68  C   UNL A   1      41.090  25.168  28.164  1.00  0.00    -0.034 C 
ATOM     69  C   UNL A   1      45.726  24.040  26.575  1.00  0.00    -0.036 A 
ATOM     70  N   UNL A   1      45.371  26.122  27.307  1.00  0.00    -0.354 N 
ATOM     71  C   UNL A   1      41.452  27.382  28.621  1.00  0.00     0.074 A 
ATOM     72  C   UNL A   1      40.501  26.294  28.541  1.00  0.00    -0.034 C 
ATOM     73  H   UNL A   1      40.689  24.223  28.070  1.00  0.00     0.065 H 
ATOM     74  C   UNL A   1      46.885  24.708  26.467  1.00  0.00    -0.036 A 
ATOM     75  H   UNL A   1      45.576  23.055  26.309  1.00  0.00     0.065 H 
ATOM     76  C   UNL A   1      46.684  26.086  26.905  1.00  0.00     0.049 A 
ATOM     77  H   UNL A   1      44.946  26.926  27.686  1.00  0.00     0.167 HD
ATOM     78  C   UNL A   1      41.159  28.625  29.071  1.00  0.00     0.037 A 
ATOM     79  H   UNL A   1      39.494  26.383  28.750  1.00  0.00     0.065 H 
ATOM     80  H   UNL A   1      47.776  24.312  26.128  1.00  0.00     0.065 H 
ATOM     81  C   UNL A   1      47.617  27.057  26.878  1.00  0.00     0.037 A 
ATOM     82  C   UNL A   1      42.113  29.700  29.168  1.00  0.00     0.049 A 
ATOM     83  C   UNL A   1      47.256  28.436  27.364  1.00  0.00     0.074 A 
ATOM     84  C   UNL A   1      41.922  30.981  29.657  1.00  0.00    -0.036 A 
ATOM     85  N   UNL A   1      43.437  29.621  28.765  1.00  0.00    -0.354 N 
ATOM     86  N   UNL A   1      46.114  28.876  27.833  1.00  0.00    -0.248 NA
ATOM     87  C   UNL A   1      48.318  29.450  27.320  1.00  0.00    -0.034 C 
ATOM     88  C   UNL A   1      43.119  31.690  29.509  1.00  0.00    -0.036 A 
ATOM     89  H   UNL A   1      41.048  31.350  30.062  1.00  0.00     0.065 H 
ATOM     90  C   UNL A   1      44.069  30.836  28.974  1.00  0.00     0.049 A 
ATOM     91  H   UNL A   1      43.865  28.819  28.386  1.00  0.00     0.167 HD
ATOM     92  C   UNL A   1      46.327  30.207  28.164  1.00  0.00     0.074 A 
ATOM     93  C   UNL A   1      47.712  30.499  27.860  1.00  0.00    -0.034 C 
ATOM     94  H   UNL A   1      49.283  29.369  26.963  1.00  0.00     0.065 H 
ATOM     95  H   UNL A   1      43.269  32.681  29.755  1.00  0.00     0.065 H 
ATOM     96  C   UNL A   1      45.452  31.108  28.673  1.00  0.00     0.037 A 
ATOM     97  H   UNL A   1      48.168  31.406  28.040  1.00  0.00     0.065 H 
BRANCH  78  98
ATOM     98  C   UNL A   1      39.747  28.896  29.502  1.00  0.00     0.064 A 
ATOM     99  C   UNL A   1      38.784  29.373  28.600  1.00  0.00     0.173 A 
ATOM    100  C   UNL A   1      39.336  28.624  30.816  1.00  0.00     0.173 A 
ATOM    101  F   UNL A   1      39.128  29.660  27.335  1.00  0.00    -0.203 F 
ATOM    102  C   UNL A   1      37.469  29.589  29.002  1.00  0.00     0.198 A 
ATOM    103  C   UNL A   1      38.013  28.812  31.208  1.00  0.00     0.198 A 
ATOM    104  F   UNL A   1      40.216  28.159  31.717  1.00  0.00    -0.203 F 
ATOM    105  F   UNL A   1      36.576  30.083  28.134  1.00  0.00    -0.200 F 
ATOM    106  C   UNL A   1      37.083  29.300  30.303  1.00  0.00     0.200 A 
ATOM    107  F   UNL A   1      37.639  28.519  32.460  1.00  0.00    -0.200 F 
ATOM    108  F   UNL A   1      35.813  29.495  30.685  1.00  0.00    -0.200 F 
ENDBRANCH  78  98
BRANCH  81 109
ATOM    109  C   UNL A   1      48.985  26.763  26.377  1.00  0.00     0.064 A 
ATOM    110  C   UNL A   1      49.333  27.013  25.042  1.00  0.00     0.173 A 
ATOM    111  C   UNL A   1      49.965  26.207  27.213  1.00  0.00     0.173 A 
ATOM    112  F   UNL A   1      48.422  27.522  24.199  1.00  0.00    -0.203 F 
ATOM    113  C   UNL A   1      50.599  26.695  24.555  1.00  0.00     0.198 A 
ATOM    114  C   UNL A   1      51.240  25.919  26.732  1.00  0.00     0.198 A 
ATOM    115  F   UNL A   1      49.685  25.952  28.499  1.00  0.00    -0.203 F 
ATOM    116  F   UNL A   1      50.886  26.895  23.262  1.00  0.00    -0.200 F 
ATOM    117  C   UNL A   1      51.553  26.153  25.402  1.00  0.00     0.200 A 
ATOM    118  F   UNL A   1      52.165  25.407  27.558  1.00  0.00    -0.200 F 
ATOM    119  F   UNL A   1      52.771  25.845  24.933  1.00  0.00    -0.200 F 
ENDBRANCH  81 109
BRANCH  96 120
ATOM    120  C   UNL A   1      45.974  32.485  28.963  1.00  0.00     0.064 A 
ATOM    121  C   UNL A   1      46.572  32.803  30.191  1.00  0.00     0.173 A 
ATOM    122  C   UNL A   1      45.906  33.491  27.986  1.00  0.00     0.173 A 
ATOM    123  F   UNL A   1      46.646  31.881  31.163  1.00  0.00    -0.203 F 
ATOM    124  C   UNL A   1      47.058  34.084  30.441  1.00  0.00     0.198 A 
ATOM    125  C   UNL A   1      46.421  34.761  28.227  1.00  0.00     0.198 A 
ATOM    126  F   UNL A   1      45.351  33.236  26.792  1.00  0.00    -0.203 F 
ATOM    127  F   UNL A   1      47.580  34.378  31.640  1.00  0.00    -0.200 F 
ATOM    128  C   UNL A   1      46.989  35.058  29.457  1.00  0.00     0.200 A 
ATOM    129  F   UNL A   1      46.366  35.698  27.271  1.00  0.00    -0.200 F 
ATOM    130  F   UNL A   1      47.463  36.289  29.697  1.00  0.00    -0.200 F 
ENDBRANCH  96 120
ENDBRANCH  61  64
ENDBRANCH  51  54
ENDBRANCH  47  50
ENDBRANCH  44  47
ENDBRANCH  41  44
ENDBRANCH   1  41
TORSDOF 17
ENDMDL
MODEL 6
REMARK VINA RESULT:     -12.0      0.822      7.443
REMARK SMILES COc1ccc2cc([C@H](C)C(=O)NCCCCCCNC(=O)c3ccc(-c4c5nc(c(-c6c(F)c(F)c(F)c(F)c6F)c6ccc([nH]6)c(-c6c(F)c(F)c(F)c(F)c6F)c6nc(c(-c7c(F)c(F)c(F)c(F)c7F)c7ccc4[nH]7)C=C6)C=C5)cc3)ccc2c1
REMARK SMILES IDX 16 1 15 4 14 7 13 10 11 11 12 12 9 14 8 16 3 17 4 18 89 19
REMARK SMILES IDX 5 20 88 22 6 24 87 26 7 27 86 28 2 32 1 33 10 37 17 41 18 44
REMARK SMILES IDX 19 47 20 50 21 51 22 53 23 54 24 55 85 56 25 57 84 59 26 61
REMARK SMILES IDX 27 64 28 65 78 66 29 67 83 68 77 69 79 70 30 71 82 72 76 74
REMARK SMILES IDX 75 76 31 78 63 81 43 82 62 83 44 84 47 85 61 86 80 87 45 88
REMARK SMILES IDX 46 90 60 92 81 93 48 96 32 98 33 99 41 100 34 101 35 102
REMARK SMILES IDX 39 103 42 104 36 105 37 106 40 107 38 108 64 109 65 110
REMARK SMILES IDX 73 111 66 112 67 113 71 114 74 115 68 116 69 117 72 118
REMARK SMILES IDX 70 119 49 120 50 121 58 122 51 123 52 124 56 125 59 126
REMARK SMILES IDX 53 127 54 128 57 129 55 130
REMARK H PARENT 16 2 16 3 15 5 15 6 14 8 14 9 13 13 9 15 4 21 89 23 5 25 87 29
REMARK H PARENT 7 30 86 31 1 34 1 35 1 36 10 38 10 39 10 40 17 42 17 43 18 45
REMARK H PARENT 18 46 19 48 19 49 20 52 24 58 85 60 25 62 84 63 83 73 77 75
REMARK H PARENT 79 77 82 79 76 80 44 89 47 91 80 94 45 95 81 97
REMARK Flexibility Score: inf
ROOT
ATOM      1  C   UNL A   1      32.717  30.119  26.153  1.00  0.00    -0.052 C 
ATOM      2  H   UNL A   1      32.952  29.591  25.254  1.00  0.00     0.027 H 
ATOM      3  H   UNL A   1      33.410  30.897  26.398  1.00  0.00     0.027 H 
ENDROOT
BRANCH   1   4
ATOM      4  C   UNL A   1      32.785  29.125  27.313  1.00  0.00    -0.036 C 
ATOM      5  H   UNL A   1      33.801  29.077  27.645  1.00  0.00     0.028 H 
ATOM      6  H   UNL A   1      32.105  29.490  28.053  1.00  0.00     0.028 H 
BRANCH   4   7
ATOM      7  C   UNL A   1      32.329  27.707  26.988  1.00  0.00     0.017 C 
ATOM      8  H   UNL A   1      32.015  27.235  27.895  1.00  0.00     0.049 H 
ATOM      9  H   UNL A   1      31.534  27.784  26.277  1.00  0.00     0.049 H 
BRANCH   7  10
ATOM     10  N   UNL A   1      33.366  26.897  26.385  1.00  0.00    -0.356 N 
ATOM     11  C   UNL A   1      33.298  26.075  25.294  1.00  0.00     0.227 C 
ATOM     12  O   UNL A   1      34.354  25.575  24.894  1.00  0.00    -0.274 OA
ATOM     13  H   UNL A   1      34.247  26.944  26.823  1.00  0.00     0.163 HD
BRANCH  11  14
ATOM     14  C   UNL A   1      31.967  25.764  24.586  1.00  0.00     0.060 C 
ATOM     15  H   UNL A   1      32.147  25.106  23.761  1.00  0.00     0.045 H 
BRANCH  14  16
ATOM     16  C   UNL A   1      31.385  26.997  23.902  1.00  0.00    -0.035 A 
ATOM     17  C   UNL A   1      28.173  30.264  21.702  1.00  0.00     0.119 A 
ATOM     18  C   UNL A   1      27.379  29.424  22.476  1.00  0.00    -0.019 A 
ATOM     19  C   UNL A   1      29.556  30.101  21.673  1.00  0.00    -0.012 A 
ATOM     20  C   UNL A   1      27.975  28.405  23.223  1.00  0.00    -0.051 A 
ATOM     21  H   UNL A   1      26.355  29.552  22.496  1.00  0.00     0.066 H 
ATOM     22  C   UNL A   1      30.167  29.102  22.445  1.00  0.00    -0.015 A 
ATOM     23  H   UNL A   1      30.134  30.717  21.081  1.00  0.00     0.067 H 
ATOM     24  C   UNL A   1      29.369  28.222  23.206  1.00  0.00    -0.018 A 
ATOM     25  H   UNL A   1      27.386  27.781  23.796  1.00  0.00     0.063 H 
ATOM     26  C   UNL A   1      31.559  28.961  22.475  1.00  0.00    -0.054 A 
ATOM     27  C   UNL A   1      29.987  27.171  23.906  1.00  0.00    -0.050 A 
ATOM     28  C   UNL A   1      32.159  27.943  23.219  1.00  0.00    -0.058 A 
ATOM     29  H   UNL A   1      32.150  29.617  21.940  1.00  0.00     0.063 H 
ATOM     30  H   UNL A   1      29.401  26.508  24.437  1.00  0.00     0.063 H 
ATOM     31  H   UNL A   1      33.188  27.887  23.267  1.00  0.00     0.063 H 
BRANCH  17  32
ATOM     32  O   UNL A   1      27.637  31.219  20.882  1.00  0.00    -0.497 OA
BRANCH  32  33
ATOM     33  C   UNL A   1      28.064  32.527  21.256  1.00  0.00     0.078 C 
ATOM     34  H   UNL A   1      29.080  32.489  21.591  1.00  0.00     0.067 H 
ATOM     35  H   UNL A   1      27.442  32.894  22.047  1.00  0.00     0.067 H 
ATOM     36  H   UNL A   1      27.992  33.181  20.413  1.00  0.00     0.067 H 
ENDBRANCH  32  33
ENDBRANCH  17  32
ENDBRANCH  14  16
BRANCH  14  37
ATOM     37  C   UNL A   1      31.029  24.928  25.468  1.00  0.00    -0.049 C 
ATOM     38  H   UNL A   1      30.633  24.114  24.896  1.00  0.00     0.024 H 
ATOM     39  H   UNL A   1      30.226  25.543  25.817  1.00  0.00     0.024 H 
ATOM     40  H   UNL A   1      31.574  24.545  26.304  1.00  0.00     0.024 H 
ENDBRANCH  14  37
ENDBRANCH  11  14
ENDBRANCH   7  10
ENDBRANCH   4   7
ENDBRANCH   1   4
BRANCH   1  41
ATOM     41  C   UNL A   1      31.368  30.816  25.948  1.00  0.00    -0.052 C 
ATOM     42  H   UNL A   1      30.630  30.267  26.495  1.00  0.00     0.027 H 
ATOM     43  H   UNL A   1      31.212  30.832  24.890  1.00  0.00     0.027 H 
BRANCH  41  44
ATOM     44  C   UNL A   1      31.287  32.278  26.396  1.00  0.00    -0.036 C 
ATOM     45  H   UNL A   1      30.416  32.387  27.007  1.00  0.00     0.028 H 
ATOM     46  H   UNL A   1      31.263  32.856  25.496  1.00  0.00     0.028 H 
BRANCH  44  47
ATOM     47  C   UNL A   1      32.484  32.797  27.189  1.00  0.00     0.018 C 
ATOM     48  H   UNL A   1      33.356  32.731  26.573  1.00  0.00     0.049 H 
ATOM     49  H   UNL A   1      32.572  32.196  28.069  1.00  0.00     0.049 H 
BRANCH  47  50
ATOM     50  N   UNL A   1      32.324  34.175  27.617  1.00  0.00    -0.352 N 
ATOM     51  C   UNL A   1      32.991  34.880  28.588  1.00  0.00     0.251 C 
ATOM     52  H   UNL A   1      31.629  34.683  27.138  1.00  0.00     0.163 HD
ATOM     53  O   UNL A   1      32.616  36.006  28.898  1.00  0.00    -0.269 OA
BRANCH  51  54
ATOM     54  C   UNL A   1      34.149  34.278  29.287  1.00  0.00     0.039 A 
ATOM     55  C   UNL A   1      33.913  33.502  30.425  1.00  0.00    -0.049 A 
ATOM     56  C   UNL A   1      35.458  34.490  28.844  1.00  0.00    -0.049 A 
ATOM     57  C   UNL A   1      34.979  32.879  31.076  1.00  0.00    -0.053 A 
ATOM     58  H   UNL A   1      32.951  33.389  30.783  1.00  0.00     0.063 H 
ATOM     59  C   UNL A   1      36.515  33.818  29.458  1.00  0.00    -0.053 A 
ATOM     60  H   UNL A   1      35.641  35.142  28.065  1.00  0.00     0.063 H 
ATOM     61  C   UNL A   1      36.285  33.002  30.575  1.00  0.00    -0.014 A 
ATOM     62  H   UNL A   1      34.808  32.326  31.931  1.00  0.00     0.063 H 
ATOM     63  H   UNL A   1      37.472  33.922  29.086  1.00  0.00     0.063 H 
BRANCH  61  64
ATOM     64  C   UNL A   1      37.419  32.264  31.193  1.00  0.00     0.031 A 
ATOM     65  C   UNL A   1      37.927  32.653  32.552  1.00  0.00     0.074 A 
ATOM     66  C   UNL A   1      38.033  31.289  30.496  1.00  0.00     0.049 A 
ATOM     67  N   UNL A   1      38.960  32.192  33.213  1.00  0.00    -0.248 NA
ATOM     68  C   UNL A   1      37.190  33.715  33.254  1.00  0.00    -0.034 C 
ATOM     69  C   UNL A   1      37.656  30.843  29.153  1.00  0.00    -0.036 A 
ATOM     70  N   UNL A   1      39.114  30.504  30.814  1.00  0.00    -0.354 N 
ATOM     71  C   UNL A   1      39.003  32.912  34.400  1.00  0.00     0.074 A 
ATOM     72  C   UNL A   1      37.921  33.872  34.349  1.00  0.00    -0.034 C 
ATOM     73  H   UNL A   1      36.331  34.208  32.969  1.00  0.00     0.065 H 
ATOM     74  C   UNL A   1      38.484  29.860  28.768  1.00  0.00    -0.036 A 
ATOM     75  H   UNL A   1      36.879  31.225  28.593  1.00  0.00     0.065 H 
ATOM     76  C   UNL A   1      39.474  29.632  29.816  1.00  0.00     0.049 A 
ATOM     77  H   UNL A   1      39.587  30.561  31.676  1.00  0.00     0.167 HD
ATOM     78  C   UNL A   1      39.854  32.770  35.443  1.00  0.00     0.037 A 
ATOM     79  H   UNL A   1      37.742  34.588  35.072  1.00  0.00     0.065 H 
ATOM     80  H   UNL A   1      38.430  29.347  27.873  1.00  0.00     0.065 H 
ATOM     81  C   UNL A   1      40.497  28.758  29.746  1.00  0.00     0.037 A 
ATOM     82  C   UNL A   1      40.917  31.800  35.498  1.00  0.00     0.049 A 
ATOM     83  C   UNL A   1      41.441  28.638  30.912  1.00  0.00     0.074 A 
ATOM     84  C   UNL A   1      41.801  31.548  36.533  1.00  0.00    -0.036 A 
ATOM     85  N   UNL A   1      41.243  30.925  34.474  1.00  0.00    -0.354 N 
ATOM     86  N   UNL A   1      41.435  29.285  32.052  1.00  0.00    -0.248 NA
ATOM     87  C   UNL A   1      42.531  27.660  30.782  1.00  0.00    -0.034 C 
ATOM     88  C   UNL A   1      42.689  30.550  36.118  1.00  0.00    -0.036 A 
ATOM     89  H   UNL A   1      41.805  32.015  37.453  1.00  0.00     0.065 H 
ATOM     90  C   UNL A   1      42.327  30.146  34.843  1.00  0.00     0.049 A 
ATOM     91  H   UNL A   1      40.772  30.865  33.611  1.00  0.00     0.167 HD
ATOM     92  C   UNL A   1      42.500  28.776  32.784  1.00  0.00     0.074 A 
ATOM     93  C   UNL A   1      43.119  27.754  31.967  1.00  0.00    -0.034 C 
ATOM     94  H   UNL A   1      42.775  27.060  29.980  1.00  0.00     0.065 H 
ATOM     95  H   UNL A   1      43.480  30.178  36.667  1.00  0.00     0.065 H 
ATOM     96  C   UNL A   1      42.927  29.126  34.021  1.00  0.00     0.037 A 
ATOM     97  H   UNL A   1      43.915  27.172  32.269  1.00  0.00     0.065 H 
BRANCH  78  98
ATOM     98  C   UNL A   1      39.671  33.682  36.621  1.00  0.00     0.064 A 
ATOM     99  C   UNL A   1      40.251  34.959  36.657  1.00  0.00     0.173 A 
ATOM    100  C   UNL A   1      38.862  33.300  37.702  1.00  0.00     0.173 A 
ATOM    101  F   UNL A   1      41.042  35.369  35.653  1.00  0.00    -0.203 F 
ATOM    102  C   UNL A   1      40.047  35.810  37.740  1.00  0.00     0.198 A 
ATOM    103  C   UNL A   1      38.635  34.164  38.770  1.00  0.00     0.198 A 
ATOM    104  F   UNL A   1      38.278  32.092  37.715  1.00  0.00    -0.203 F 
ATOM    105  F   UNL A   1      40.644  37.010  37.770  1.00  0.00    -0.200 F 
ATOM    106  C   UNL A   1      39.233  35.415  38.791  1.00  0.00     0.200 A 
ATOM    107  F   UNL A   1      37.837  33.787  39.778  1.00  0.00    -0.200 F 
ATOM    108  F   UNL A   1      39.026  36.241  39.826  1.00  0.00    -0.200 F 
ENDBRANCH  78  98
BRANCH  81 109
ATOM    109  C   UNL A   1      40.684  27.924  28.530  1.00  0.00     0.064 A 
ATOM    110  C   UNL A   1      41.452  28.384  27.451  1.00  0.00     0.173 A 
ATOM    111  C   UNL A   1      40.082  26.662  28.411  1.00  0.00     0.173 A 
ATOM    112  F   UNL A   1      42.027  29.594  27.509  1.00  0.00    -0.203 F 
ATOM    113  C   UNL A   1      41.590  27.626  26.290  1.00  0.00     0.198 A 
ATOM    114  C   UNL A   1      40.247  25.892  27.262  1.00  0.00     0.198 A 
ATOM    115  F   UNL A   1      39.339  26.174  29.415  1.00  0.00    -0.203 F 
ATOM    116  F   UNL A   1      42.285  28.113  25.254  1.00  0.00    -0.200 F 
ATOM    117  C   UNL A   1      40.992  26.379  26.198  1.00  0.00     0.200 A 
ATOM    118  F   UNL A   1      39.677  24.681  27.183  1.00  0.00    -0.200 F 
ATOM    119  F   UNL A   1      41.123  25.650  25.081  1.00  0.00    -0.200 F 
ENDBRANCH  81 109
BRANCH  96 120
ATOM    120  C   UNL A   1      44.102  28.376  34.580  1.00  0.00     0.064 A 
ATOM    121  C   UNL A   1      43.939  27.178  35.292  1.00  0.00     0.173 A 
ATOM    122  C   UNL A   1      45.408  28.845  34.371  1.00  0.00     0.173 A 
ATOM    123  F   UNL A   1      42.710  26.699  35.533  1.00  0.00    -0.203 F 
ATOM    124  C   UNL A   1      45.040  26.492  35.798  1.00  0.00     0.198 A 
ATOM    125  C   UNL A   1      46.508  28.139  34.852  1.00  0.00     0.198 A 
ATOM    126  F   UNL A   1      45.618  29.981  33.690  1.00  0.00    -0.203 F 
ATOM    127  F   UNL A   1      44.858  25.376  36.519  1.00  0.00    -0.200 F 
ATOM    128  C   UNL A   1      46.322  26.968  35.571  1.00  0.00     0.200 A 
ATOM    129  F   UNL A   1      47.747  28.593  34.619  1.00  0.00    -0.200 F 
ATOM    130  F   UNL A   1      47.380  26.302  36.053  1.00  0.00    -0.200 F 
ENDBRANCH  96 120
ENDBRANCH  61  64
ENDBRANCH  51  54
ENDBRANCH  47  50
ENDBRANCH  44  47
ENDBRANCH  41  44
ENDBRANCH   1  41
TORSDOF 17
ENDMDL
MODEL 7
REMARK VINA RESULT:     -11.9      1.504      7.675
REMARK SMILES COc1ccc2cc([C@H](C)C(=O)NCCCCCCNC(=O)c3ccc(-c4c5nc(c(-c6c(F)c(F)c(F)c(F)c6F)c6ccc([nH]6)c(-c6c(F)c(F)c(F)c(F)c6F)c6nc(c(-c7c(F)c(F)c(F)c(F)c7F)c7ccc4[nH]7)C=C6)C=C5)cc3)ccc2c1
REMARK SMILES IDX 16 1 15 4 14 7 13 10 11 11 12 12 9 14 8 16 3 17 4 18 89 19
REMARK SMILES IDX 5 20 88 22 6 24 87 26 7 27 86 28 2 32 1 33 10 37 17 41 18 44
REMARK SMILES IDX 19 47 20 50 21 51 22 53 23 54 24 55 85 56 25 57 84 59 26 61
REMARK SMILES IDX 27 64 28 65 78 66 29 67 83 68 77 69 79 70 30 71 82 72 76 74
REMARK SMILES IDX 75 76 31 78 63 81 43 82 62 83 44 84 47 85 61 86 80 87 45 88
REMARK SMILES IDX 46 90 60 92 81 93 48 96 32 98 33 99 41 100 34 101 35 102
REMARK SMILES IDX 39 103 42 104 36 105 37 106 40 107 38 108 64 109 65 110
REMARK SMILES IDX 73 111 66 112 67 113 71 114 74 115 68 116 69 117 72 118
REMARK SMILES IDX 70 119 49 120 50 121 58 122 51 123 52 124 56 125 59 126
REMARK SMILES IDX 53 127 54 128 57 129 55 130
REMARK H PARENT 16 2 16 3 15 5 15 6 14 8 14 9 13 13 9 15 4 21 89 23 5 25 87 29
REMARK H PARENT 7 30 86 31 1 34 1 35 1 36 10 38 10 39 10 40 17 42 17 43 18 45
REMARK H PARENT 18 46 19 48 19 49 20 52 24 58 85 60 25 62 84 63 83 73 77 75
REMARK H PARENT 79 77 82 79 76 80 44 89 47 91 80 94 45 95 81 97
REMARK Flexibility Score: inf
ROOT
ATOM      1  C   UNL A   1      31.550  28.941  26.639  1.00  0.00    -0.052 C 
ATOM      2  H   UNL A   1      31.369  29.379  27.598  1.00  0.00     0.027 H 
ATOM      3  H   UNL A   1      30.826  28.208  26.349  1.00  0.00     0.027 H 
ENDROOT
BRANCH   1   4
ATOM      4  C   UNL A   1      32.886  28.201  26.705  1.00  0.00    -0.036 C 
ATOM      5  H   UNL A   1      33.608  28.777  26.166  1.00  0.00     0.028 H 
ATOM      6  H   UNL A   1      33.109  28.091  27.746  1.00  0.00     0.028 H 
BRANCH   4   7
ATOM      7  C   UNL A   1      32.883  26.790  26.127  1.00  0.00     0.017 C 
ATOM      8  H   UNL A   1      32.784  26.860  25.064  1.00  0.00     0.049 H 
ATOM      9  H   UNL A   1      33.803  26.326  26.417  1.00  0.00     0.049 H 
BRANCH   7  10
ATOM     10  N   UNL A   1      31.808  25.965  26.635  1.00  0.00    -0.356 N 
ATOM     11  C   UNL A   1      30.920  25.183  25.952  1.00  0.00     0.227 C 
ATOM     12  O   UNL A   1      30.161  24.471  26.618  1.00  0.00    -0.274 OA
ATOM     13  H   UNL A   1      31.701  25.969  27.614  1.00  0.00     0.163 HD
BRANCH  11  14
ATOM     14  C   UNL A   1      30.845  25.181  24.414  1.00  0.00     0.060 C 
ATOM     15  H   UNL A   1      31.796  25.459  24.010  1.00  0.00     0.045 H 
BRANCH  14  16
ATOM     16  C   UNL A   1      29.930  26.285  23.890  1.00  0.00    -0.035 A 
ATOM     17  C   UNL A   1      28.220  30.694  22.030  1.00  0.00     0.119 A 
ATOM     18  C   UNL A   1      29.558  30.627  21.657  1.00  0.00    -0.019 A 
ATOM     19  C   UNL A   1      27.634  29.658  22.752  1.00  0.00    -0.012 A 
ATOM     20  C   UNL A   1      30.320  29.513  22.018  1.00  0.00    -0.051 A 
ATOM     21  H   UNL A   1      29.987  31.396  21.119  1.00  0.00     0.066 H 
ATOM     22  C   UNL A   1      28.381  28.521  23.091  1.00  0.00    -0.015 A 
ATOM     23  H   UNL A   1      26.646  29.727  23.039  1.00  0.00     0.067 H 
ATOM     24  C   UNL A   1      29.748  28.457  22.749  1.00  0.00    -0.018 A 
ATOM     25  H   UNL A   1      31.314  29.463  21.744  1.00  0.00     0.063 H 
ATOM     26  C   UNL A   1      27.794  27.443  23.765  1.00  0.00    -0.054 A 
ATOM     27  C   UNL A   1      30.507  27.351  23.171  1.00  0.00    -0.050 A 
ATOM     28  C   UNL A   1      28.552  26.328  24.129  1.00  0.00    -0.058 A 
ATOM     29  H   UNL A   1      26.788  27.473  23.996  1.00  0.00     0.063 H 
ATOM     30  H   UNL A   1      31.514  27.319  22.949  1.00  0.00     0.063 H 
ATOM     31  H   UNL A   1      28.089  25.524  24.581  1.00  0.00     0.063 H 
BRANCH  17  32
ATOM     32  O   UNL A   1      27.452  31.799  21.782  1.00  0.00    -0.497 OA
BRANCH  32  33
ATOM     33  C   UNL A   1      27.802  32.409  20.542  1.00  0.00     0.078 C 
ATOM     34  H   UNL A   1      28.626  33.076  20.691  1.00  0.00     0.067 H 
ATOM     35  H   UNL A   1      26.964  32.959  20.165  1.00  0.00     0.067 H 
ATOM     36  H   UNL A   1      28.078  31.653  19.837  1.00  0.00     0.067 H 
ENDBRANCH  32  33
ENDBRANCH  17  32
ENDBRANCH  14  16
BRANCH  14  37
ATOM     37  C   UNL A   1      30.652  23.767  23.849  1.00  0.00    -0.049 C 
ATOM     38  H   UNL A   1      29.789  23.319  24.295  1.00  0.00     0.024 H 
ATOM     39  H   UNL A   1      31.516  23.175  24.069  1.00  0.00     0.024 H 
ATOM     40  H   UNL A   1      30.518  23.823  22.790  1.00  0.00     0.024 H 
ENDBRANCH  14  37
ENDBRANCH  11  14
ENDBRANCH   7  10
ENDBRANCH   4   7
ENDBRANCH   1   4
BRANCH   1  41
ATOM     41  C   UNL A   1      31.453  30.053  25.590  1.00  0.00    -0.052 C 
ATOM     42  H   UNL A   1      30.564  29.886  25.017  1.00  0.00     0.027 H 
ATOM     43  H   UNL A   1      32.359  29.993  25.025  1.00  0.00     0.027 H 
BRANCH  41  44
ATOM     44  C   UNL A   1      31.398  31.486  26.126  1.00  0.00    -0.036 C 
ATOM     45  H   UNL A   1      30.407  31.664  26.489  1.00  0.00     0.028 H 
ATOM     46  H   UNL A   1      31.680  32.114  25.307  1.00  0.00     0.028 H 
BRANCH  44  47
ATOM     47  C   UNL A   1      32.375  31.812  27.253  1.00  0.00     0.018 C 
ATOM     48  H   UNL A   1      33.269  31.243  27.104  1.00  0.00     0.049 H 
ATOM     49  H   UNL A   1      31.894  31.564  28.176  1.00  0.00     0.049 H 
BRANCH  47  50
ATOM     50  N   UNL A   1      32.726  33.220  27.308  1.00  0.00    -0.352 N 
ATOM     51  C   UNL A   1      33.805  33.836  27.891  1.00  0.00     0.251 C 
ATOM     52  H   UNL A   1      32.093  33.825  26.859  1.00  0.00     0.163 HD
ATOM     53  O   UNL A   1      33.856  35.060  27.949  1.00  0.00    -0.269 OA
BRANCH  51  54
ATOM     54  C   UNL A   1      34.899  33.032  28.479  1.00  0.00     0.039 A 
ATOM     55  C   UNL A   1      36.209  33.508  28.373  1.00  0.00    -0.049 A 
ATOM     56  C   UNL A   1      34.648  31.811  29.111  1.00  0.00    -0.049 A 
ATOM     57  C   UNL A   1      37.258  32.798  28.962  1.00  0.00    -0.053 A 
ATOM     58  H   UNL A   1      36.402  34.383  27.861  1.00  0.00     0.063 H 
ATOM     59  C   UNL A   1      35.686  31.135  29.752  1.00  0.00    -0.053 A 
ATOM     60  H   UNL A   1      33.697  31.411  29.103  1.00  0.00     0.063 H 
ATOM     61  C   UNL A   1      36.999  31.625  29.689  1.00  0.00    -0.014 A 
ATOM     62  H   UNL A   1      38.228  33.137  28.863  1.00  0.00     0.063 H 
ATOM     63  H   UNL A   1      35.486  30.269  30.276  1.00  0.00     0.063 H 
BRANCH  61  64
ATOM     64  C   UNL A   1      38.086  30.911  30.410  1.00  0.00     0.031 A 
ATOM     65  C   UNL A   1      38.374  31.224  31.850  1.00  0.00     0.074 A 
ATOM     66  C   UNL A   1      38.856  30.030  29.743  1.00  0.00     0.049 A 
ATOM     67  N   UNL A   1      39.336  30.776  32.618  1.00  0.00    -0.248 NA
ATOM     68  C   UNL A   1      37.476  32.183  32.512  1.00  0.00    -0.034 C 
ATOM     69  C   UNL A   1      38.699  29.668  28.333  1.00  0.00    -0.036 A 
ATOM     70  N   UNL A   1      39.936  29.290  30.157  1.00  0.00    -0.354 N 
ATOM     71  C   UNL A   1      39.166  31.404  33.845  1.00  0.00     0.074 A 
ATOM     72  C   UNL A   1      38.037  32.299  33.707  1.00  0.00    -0.034 C 
ATOM     73  H   UNL A   1      36.631  32.645  32.141  1.00  0.00     0.065 H 
ATOM     74  C   UNL A   1      39.639  28.768  28.003  1.00  0.00    -0.036 A 
ATOM     75  H   UNL A   1      37.982  30.045  27.695  1.00  0.00     0.065 H 
ATOM     76  C   UNL A   1      40.490  28.520  29.163  1.00  0.00     0.049 A 
ATOM     77  H   UNL A   1      40.281  29.308  31.079  1.00  0.00     0.167 HD
ATOM     78  C   UNL A   1      39.873  31.233  34.987  1.00  0.00     0.037 A 
ATOM     79  H   UNL A   1      37.711  32.945  34.444  1.00  0.00     0.065 H 
ATOM     80  H   UNL A   1      39.744  28.323  27.077  1.00  0.00     0.065 H 
ATOM     81  C   UNL A   1      41.570  27.717  29.180  1.00  0.00     0.037 A 
ATOM     82  C   UNL A   1      40.984  30.327  35.127  1.00  0.00     0.049 A 
ATOM     83  C   UNL A   1      42.352  27.563  30.458  1.00  0.00     0.074 A 
ATOM     84  C   UNL A   1      41.733  30.048  36.257  1.00  0.00    -0.036 A 
ATOM     85  N   UNL A   1      41.507  29.554  34.102  1.00  0.00    -0.354 N 
ATOM     86  N   UNL A   1      42.144  28.119  31.626  1.00  0.00    -0.248 NA
ATOM     87  C   UNL A   1      43.514  26.666  30.418  1.00  0.00    -0.034 C 
ATOM     88  C   UNL A   1      42.738  29.140  35.905  1.00  0.00    -0.036 A 
ATOM     89  H   UNL A   1      41.578  30.442  37.198  1.00  0.00     0.065 H 
ATOM     90  C   UNL A   1      42.582  28.814  34.568  1.00  0.00     0.049 A 
ATOM     91  H   UNL A   1      41.165  29.532  33.179  1.00  0.00     0.167 HD
ATOM     92  C   UNL A   1      43.132  27.620  32.466  1.00  0.00     0.074 A 
ATOM     93  C   UNL A   1      43.927  26.702  31.677  1.00  0.00    -0.034 C 
ATOM     94  H   UNL A   1      43.908  26.144  29.619  1.00  0.00     0.065 H 
ATOM     95  H   UNL A   1      43.469  28.775  36.534  1.00  0.00     0.065 H 
ATOM     96  C   UNL A   1      43.360  27.899  33.772  1.00  0.00     0.037 A 
ATOM     97  H   UNL A   1      44.713  26.147  32.049  1.00  0.00     0.065 H 
BRANCH  78  98
ATOM     98  C   UNL A   1      39.468  32.039  36.187  1.00  0.00     0.064 A 
ATOM     99  C   UNL A   1      40.088  33.259  36.494  1.00  0.00     0.173 A 
ATOM    100  C   UNL A   1      38.410  31.617  37.007  1.00  0.00     0.173 A 
ATOM    101  F   UNL A   1      41.111  33.703  35.747  1.00  0.00    -0.203 F 
ATOM    102  C   UNL A   1      39.680  34.016  37.590  1.00  0.00     0.198 A 
ATOM    103  C   UNL A   1      37.985  32.389  38.084  1.00  0.00     0.198 A 
ATOM    104  F   UNL A   1      37.778  30.460  36.753  1.00  0.00    -0.203 F 
ATOM    105  F   UNL A   1      40.314  35.159  37.887  1.00  0.00    -0.200 F 
ATOM    106  C   UNL A   1      38.624  33.584  38.378  1.00  0.00     0.200 A 
ATOM    107  F   UNL A   1      36.956  31.978  38.837  1.00  0.00    -0.200 F 
ATOM    108  F   UNL A   1      38.224  34.320  39.424  1.00  0.00    -0.200 F 
ENDBRANCH  78  98
BRANCH  81 109
ATOM    109  C   UNL A   1      41.980  26.991  27.949  1.00  0.00     0.064 A 
ATOM    110  C   UNL A   1      41.510  25.697  27.684  1.00  0.00     0.173 A 
ATOM    111  C   UNL A   1      42.865  27.565  27.024  1.00  0.00     0.173 A 
ATOM    112  F   UNL A   1      40.680  25.098  28.551  1.00  0.00    -0.203 F 
ATOM    113  C   UNL A   1      41.929  24.994  26.557  1.00  0.00     0.198 A 
ATOM    114  C   UNL A   1      43.259  26.873  25.881  1.00  0.00     0.198 A 
ATOM    115  F   UNL A   1      43.342  28.801  27.228  1.00  0.00    -0.203 F 
ATOM    116  F   UNL A   1      41.505  23.739  26.357  1.00  0.00    -0.200 F 
ATOM    117  C   UNL A   1      42.799  25.585  25.653  1.00  0.00     0.200 A 
ATOM    118  F   UNL A   1      44.090  27.453  25.003  1.00  0.00    -0.200 F 
ATOM    119  F   UNL A   1      43.203  24.909  24.568  1.00  0.00    -0.200 F 
ENDBRANCH  81 109
BRANCH  96 120
ATOM    120  C   UNL A   1      44.496  27.179  34.440  1.00  0.00     0.064 A 
ATOM    121  C   UNL A   1      44.323  25.919  35.031  1.00  0.00     0.173 A 
ATOM    122  C   UNL A   1      45.781  27.744  34.459  1.00  0.00     0.173 A 
ATOM    123  F   UNL A   1      43.111  25.345  35.053  1.00  0.00    -0.203 F 
ATOM    124  C   UNL A   1      45.389  25.262  35.640  1.00  0.00     0.198 A 
ATOM    125  C   UNL A   1      46.850  27.071  35.041  1.00  0.00     0.198 A 
ATOM    126  F   UNL A   1      46.000  28.944  33.901  1.00  0.00    -0.203 F 
ATOM    127  F   UNL A   1      45.190  24.081  36.243  1.00  0.00    -0.200 F 
ATOM    128  C   UNL A   1      46.653  25.834  35.637  1.00  0.00     0.200 A 
ATOM    129  F   UNL A   1      48.073  27.619  35.026  1.00  0.00    -0.200 F 
ATOM    130  F   UNL A   1      47.678  25.198  36.219  1.00  0.00    -0.200 F 
ENDBRANCH  96 120
ENDBRANCH  61  64
ENDBRANCH  51  54
ENDBRANCH  47  50
ENDBRANCH  44  47
ENDBRANCH  41  44
ENDBRANCH   1  41
TORSDOF 17
ENDMDL
MODEL 8
REMARK VINA RESULT:     -11.9      2.207      3.445
REMARK SMILES COc1ccc2cc([C@H](C)C(=O)NCCCCCCNC(=O)c3ccc(-c4c5nc(c(-c6c(F)c(F)c(F)c(F)c6F)c6ccc([nH]6)c(-c6c(F)c(F)c(F)c(F)c6F)c6nc(c(-c7c(F)c(F)c(F)c(F)c7F)c7ccc4[nH]7)C=C6)C=C5)cc3)ccc2c1
REMARK SMILES IDX 16 1 15 4 14 7 13 10 11 11 12 12 9 14 8 16 3 17 4 18 89 19
REMARK SMILES IDX 5 20 88 22 6 24 87 26 7 27 86 28 2 32 1 33 10 37 17 41 18 44
REMARK SMILES IDX 19 47 20 50 21 51 22 53 23 54 24 55 85 56 25 57 84 59 26 61
REMARK SMILES IDX 27 64 28 65 78 66 29 67 83 68 77 69 79 70 30 71 82 72 76 74
REMARK SMILES IDX 75 76 31 78 63 81 43 82 62 83 44 84 47 85 61 86 80 87 45 88
REMARK SMILES IDX 46 90 60 92 81 93 48 96 32 98 33 99 41 100 34 101 35 102
REMARK SMILES IDX 39 103 42 104 36 105 37 106 40 107 38 108 64 109 65 110
REMARK SMILES IDX 73 111 66 112 67 113 71 114 74 115 68 116 69 117 72 118
REMARK SMILES IDX 70 119 49 120 50 121 58 122 51 123 52 124 56 125 59 126
REMARK SMILES IDX 53 127 54 128 57 129 55 130
REMARK H PARENT 16 2 16 3 15 5 15 6 14 8 14 9 13 13 9 15 4 21 89 23 5 25 87 29
REMARK H PARENT 7 30 86 31 1 34 1 35 1 36 10 38 10 39 10 40 17 42 17 43 18 45
REMARK H PARENT 18 46 19 48 19 49 20 52 24 58 85 60 25 62 84 63 83 73 77 75
REMARK H PARENT 79 77 82 79 76 80 44 89 47 91 80 94 45 95 81 97
REMARK Flexibility Score: inf
ROOT
ATOM      1  C   UNL A   1      33.926  26.378  25.548  1.00  0.00    -0.052 C 
ATOM      2  H   UNL A   1      33.760  26.184  24.510  1.00  0.00     0.027 H 
ATOM      3  H   UNL A   1      34.494  27.264  25.744  1.00  0.00     0.027 H 
ENDROOT
BRANCH   1   4
ATOM      4  C   UNL A   1      34.753  25.223  26.115  1.00  0.00    -0.036 C 
ATOM      5  H   UNL A   1      35.785  25.434  25.926  1.00  0.00     0.028 H 
ATOM      6  H   UNL A   1      34.507  25.168  27.154  1.00  0.00     0.028 H 
BRANCH   4   7
ATOM      7  C   UNL A   1      34.441  23.848  25.537  1.00  0.00     0.017 C 
ATOM      8  H   UNL A   1      34.516  23.125  26.322  1.00  0.00     0.049 H 
ATOM      9  H   UNL A   1      33.455  23.894  25.124  1.00  0.00     0.049 H 
BRANCH   7  10
ATOM     10  N   UNL A   1      35.336  23.460  24.468  1.00  0.00    -0.356 N 
ATOM     11  C   UNL A   1      35.051  23.167  23.164  1.00  0.00     0.227 C 
ATOM     12  O   UNL A   1      36.005  22.975  22.403  1.00  0.00    -0.274 OA
ATOM     13  H   UNL A   1      36.287  23.398  24.716  1.00  0.00     0.163 HD
BRANCH  11  14
ATOM     14  C   UNL A   1      33.605  23.063  22.645  1.00  0.00     0.060 C 
ATOM     15  H   UNL A   1      33.616  22.826  21.602  1.00  0.00     0.045 H 
BRANCH  14  16
ATOM     16  C   UNL A   1      32.895  24.413  22.669  1.00  0.00    -0.035 A 
ATOM     17  C   UNL A   1      29.327  28.013  23.040  1.00  0.00     0.119 A 
ATOM     18  C   UNL A   1      28.833  26.924  23.751  1.00  0.00    -0.019 A 
ATOM     19  C   UNL A   1      30.577  27.951  22.429  1.00  0.00    -0.012 A 
ATOM     20  C   UNL A   1      29.596  25.757  23.845  1.00  0.00    -0.051 A 
ATOM     21  H   UNL A   1      27.907  26.977  24.204  1.00  0.00     0.066 H 
ATOM     22  C   UNL A   1      31.364  26.796  22.545  1.00  0.00    -0.015 A 
ATOM     23  H   UNL A   1      30.925  28.757  21.889  1.00  0.00     0.067 H 
ATOM     24  C   UNL A   1      30.859  25.673  23.233  1.00  0.00    -0.018 A 
ATOM     25  H   UNL A   1      29.229  24.949  24.370  1.00  0.00     0.063 H 
ATOM     26  C   UNL A   1      32.647  26.736  21.988  1.00  0.00    -0.054 A 
ATOM     27  C   UNL A   1      31.622  24.493  23.267  1.00  0.00    -0.050 A 
ATOM     28  C   UNL A   1      33.413  25.572  22.078  1.00  0.00    -0.058 A 
ATOM     29  H   UNL A   1      33.033  27.564  21.505  1.00  0.00     0.063 H 
ATOM     30  H   UNL A   1      31.239  23.661  23.744  1.00  0.00     0.063 H 
ATOM     31  H   UNL A   1      34.374  25.565  21.704  1.00  0.00     0.063 H 
BRANCH  17  32
ATOM     32  O   UNL A   1      28.586  29.146  22.840  1.00  0.00    -0.497 OA
BRANCH  32  33
ATOM     33  C   UNL A   1      29.420  30.283  22.627  1.00  0.00     0.078 C 
ATOM     34  H   UNL A   1      30.334  29.974  22.162  1.00  0.00     0.067 H 
ATOM     35  H   UNL A   1      29.638  30.748  23.567  1.00  0.00     0.067 H 
ATOM     36  H   UNL A   1      28.916  30.981  21.992  1.00  0.00     0.067 H 
ENDBRANCH  32  33
ENDBRANCH  17  32
ENDBRANCH  14  16
BRANCH  14  37
ATOM     37  C   UNL A   1      32.865  21.858  23.242  1.00  0.00    -0.049 C 
ATOM     38  H   UNL A   1      31.814  22.056  23.257  1.00  0.00     0.024 H 
ATOM     39  H   UNL A   1      33.210  21.686  24.240  1.00  0.00     0.024 H 
ATOM     40  H   UNL A   1      33.057  20.991  22.645  1.00  0.00     0.024 H 
ENDBRANCH  14  37
ENDBRANCH  11  14
ENDBRANCH   7  10
ENDBRANCH   4   7
ENDBRANCH   1   4
BRANCH   1  41
ATOM     41  C   UNL A   1      32.561  26.608  26.205  1.00  0.00    -0.052 C 
ATOM     42  H   UNL A   1      32.668  26.426  27.254  1.00  0.00     0.027 H 
ATOM     43  H   UNL A   1      31.888  25.942  25.709  1.00  0.00     0.027 H 
BRANCH  41  44
ATOM     44  C   UNL A   1      31.955  28.004  26.035  1.00  0.00    -0.036 C 
ATOM     45  H   UNL A   1      31.531  28.295  26.973  1.00  0.00     0.028 H 
ATOM     46  H   UNL A   1      31.241  27.916  25.243  1.00  0.00     0.028 H 
BRANCH  44  47
ATOM     47  C   UNL A   1      32.924  29.100  25.599  1.00  0.00     0.018 C 
ATOM     48  H   UNL A   1      32.985  29.096  24.530  1.00  0.00     0.049 H 
ATOM     49  H   UNL A   1      33.870  28.892  26.052  1.00  0.00     0.049 H 
BRANCH  47  50
ATOM     50  N   UNL A   1      32.514  30.423  26.033  1.00  0.00    -0.352 N 
ATOM     51  C   UNL A   1      33.079  31.260  26.964  1.00  0.00     0.251 C 
ATOM     52  H   UNL A   1      31.706  30.775  25.594  1.00  0.00     0.163 HD
ATOM     53  O   UNL A   1      32.502  32.291  27.294  1.00  0.00    -0.269 OA
BRANCH  51  54
ATOM     54  C   UNL A   1      34.370  30.912  27.597  1.00  0.00     0.039 A 
ATOM     55  C   UNL A   1      35.339  31.910  27.732  1.00  0.00    -0.049 A 
ATOM     56  C   UNL A   1      34.640  29.613  28.037  1.00  0.00    -0.049 A 
ATOM     57  C   UNL A   1      36.548  31.626  28.371  1.00  0.00    -0.053 A 
ATOM     58  H   UNL A   1      35.161  32.857  27.360  1.00  0.00     0.063 H 
ATOM     59  C   UNL A   1      35.820  29.345  28.730  1.00  0.00    -0.053 A 
ATOM     60  H   UNL A   1      33.966  28.854  27.849  1.00  0.00     0.063 H 
ATOM     61  C   UNL A   1      36.782  30.351  28.909  1.00  0.00    -0.014 A 
ATOM     62  H   UNL A   1      37.273  32.357  28.449  1.00  0.00     0.063 H 
ATOM     63  H   UNL A   1      35.986  28.402  29.113  1.00  0.00     0.063 H 
BRANCH  61  64
ATOM     64  C   UNL A   1      38.017  30.057  29.682  1.00  0.00     0.031 A 
ATOM     65  C   UNL A   1      39.044  29.103  29.140  1.00  0.00     0.074 A 
ATOM     66  C   UNL A   1      38.178  30.599  30.905  1.00  0.00     0.049 A 
ATOM     67  N   UNL A   1      40.135  28.652  29.707  1.00  0.00    -0.248 NA
ATOM     68  C   UNL A   1      38.803  28.570  27.791  1.00  0.00    -0.034 C 
ATOM     69  C   UNL A   1      37.236  31.511  31.557  1.00  0.00    -0.036 A 
ATOM     70  N   UNL A   1      39.186  30.450  31.826  1.00  0.00    -0.354 N 
ATOM     71  C   UNL A   1      40.704  27.777  28.791  1.00  0.00     0.074 A 
ATOM     72  C   UNL A   1      39.814  27.724  27.650  1.00  0.00    -0.034 C 
ATOM     73  H   UNL A   1      38.045  28.795  27.128  1.00  0.00     0.065 H 
ATOM     74  C   UNL A   1      37.714  31.848  32.764  1.00  0.00    -0.036 A 
ATOM     75  H   UNL A   1      36.346  31.840  31.152  1.00  0.00     0.065 H 
ATOM     76  C   UNL A   1      38.974  31.146  32.991  1.00  0.00     0.049 A 
ATOM     77  H   UNL A   1      39.985  29.897  31.667  1.00  0.00     0.167 HD
ATOM     78  C   UNL A   1      41.871  27.096  28.884  1.00  0.00     0.037 A 
ATOM     79  H   UNL A   1      39.949  27.107  26.833  1.00  0.00     0.065 H 
ATOM     80  H   UNL A   1      37.263  32.499  33.428  1.00  0.00     0.065 H 
ATOM     81  C   UNL A   1      39.705  31.201  34.122  1.00  0.00     0.037 A 
ATOM     82  C   UNL A   1      42.763  27.166  30.013  1.00  0.00     0.049 A 
ATOM     83  C   UNL A   1      40.986  30.416  34.206  1.00  0.00     0.074 A 
ATOM     84  C   UNL A   1      43.992  26.551  30.179  1.00  0.00    -0.036 A 
ATOM     85  N   UNL A   1      42.522  27.892  31.168  1.00  0.00    -0.354 N 
ATOM     86  N   UNL A   1      41.541  29.637  33.310  1.00  0.00    -0.248 NA
ATOM     87  C   UNL A   1      41.745  30.523  35.460  1.00  0.00    -0.034 C 
ATOM     88  C   UNL A   1      44.474  26.870  31.454  1.00  0.00    -0.036 A 
ATOM     89  H   UNL A   1      44.472  25.959  29.483  1.00  0.00     0.065 H 
ATOM     90  C   UNL A   1      43.568  27.724  32.061  1.00  0.00     0.049 A 
ATOM     91  H   UNL A   1      41.724  28.447  31.331  1.00  0.00     0.167 HD
ATOM     92  C   UNL A   1      42.724  29.184  33.879  1.00  0.00     0.074 A 
ATOM     93  C   UNL A   1      42.816  29.789  35.191  1.00  0.00    -0.034 C 
ATOM     94  H   UNL A   1      41.508  31.035  36.324  1.00  0.00     0.065 H 
ATOM     95  H   UNL A   1      45.353  26.527  31.871  1.00  0.00     0.065 H 
ATOM     96  C   UNL A   1      43.649  28.340  33.361  1.00  0.00     0.037 A 
ATOM     97  H   UNL A   1      43.613  29.665  35.833  1.00  0.00     0.065 H 
BRANCH  78  98
ATOM     98  C   UNL A   1      42.259  26.215  27.733  1.00  0.00     0.064 A 
ATOM     99  C   UNL A   1      43.167  26.646  26.754  1.00  0.00     0.173 A 
ATOM    100  C   UNL A   1      41.764  24.906  27.635  1.00  0.00     0.173 A 
ATOM    101  F   UNL A   1      43.662  27.893  26.795  1.00  0.00    -0.203 F 
ATOM    102  C   UNL A   1      43.547  25.808  25.709  1.00  0.00     0.198 A 
ATOM    103  C   UNL A   1      42.168  24.060  26.607  1.00  0.00     0.198 A 
ATOM    104  F   UNL A   1      40.898  24.441  28.550  1.00  0.00    -0.203 F 
ATOM    105  F   UNL A   1      44.385  26.255  24.763  1.00  0.00    -0.200 F 
ATOM    106  C   UNL A   1      43.054  24.514  25.641  1.00  0.00     0.200 A 
ATOM    107  F   UNL A   1      41.702  22.805  26.550  1.00  0.00    -0.200 F 
ATOM    108  F   UNL A   1      43.431  23.703  24.642  1.00  0.00    -0.200 F 
ENDBRANCH  78  98
BRANCH  81 109
ATOM    109  C   UNL A   1      39.246  32.031  35.267  1.00  0.00     0.064 A 
ATOM    110  C   UNL A   1      38.484  31.472  36.302  1.00  0.00     0.173 A 
ATOM    111  C   UNL A   1      39.541  33.400  35.339  1.00  0.00     0.173 A 
ATOM    112  F   UNL A   1      38.157  30.172  36.264  1.00  0.00    -0.203 F 
ATOM    113  C   UNL A   1      38.011  32.256  37.353  1.00  0.00     0.198 A 
ATOM    114  C   UNL A   1      39.094  34.176  36.407  1.00  0.00     0.198 A 
ATOM    115  F   UNL A   1      40.270  33.983  34.377  1.00  0.00    -0.203 F 
ATOM    116  F   UNL A   1      37.239  31.707  38.300  1.00  0.00    -0.200 F 
ATOM    117  C   UNL A   1      38.321  33.606  37.407  1.00  0.00     0.200 A 
ATOM    118  F   UNL A   1      39.408  35.478  36.462  1.00  0.00    -0.200 F 
ATOM    119  F   UNL A   1      37.866  34.361  38.417  1.00  0.00    -0.200 F 
ENDBRANCH  81 109
BRANCH  96 120
ATOM    120  C   UNL A   1      44.858  28.047  34.202  1.00  0.00     0.064 A 
ATOM    121  C   UNL A   1      45.993  28.869  34.172  1.00  0.00     0.173 A 
ATOM    122  C   UNL A   1      44.866  26.946  35.074  1.00  0.00     0.173 A 
ATOM    123  F   UNL A   1      46.041  29.923  33.342  1.00  0.00    -0.203 F 
ATOM    124  C   UNL A   1      47.103  28.586  34.963  1.00  0.00     0.198 A 
ATOM    125  C   UNL A   1      45.965  26.685  35.886  1.00  0.00     0.198 A 
ATOM    126  F   UNL A   1      43.802  26.133  35.146  1.00  0.00    -0.203 F 
ATOM    127  F   UNL A   1      48.197  29.357  34.880  1.00  0.00    -0.200 F 
ATOM    128  C   UNL A   1      47.085  27.500  35.825  1.00  0.00     0.200 A 
ATOM    129  F   UNL A   1      45.941  25.642  36.728  1.00  0.00    -0.200 F 
ATOM    130  F   UNL A   1      48.152  27.233  36.591  1.00  0.00    -0.200 F 
ENDBRANCH  96 120
ENDBRANCH  61  64
ENDBRANCH  51  54
ENDBRANCH  47  50
ENDBRANCH  44  47
ENDBRANCH  41  44
ENDBRANCH   1  41
TORSDOF 17
ENDMDL
MODEL 9
REMARK VINA RESULT:     -11.8      4.076      8.196
REMARK SMILES COc1ccc2cc([C@H](C)C(=O)NCCCCCCNC(=O)c3ccc(-c4c5nc(c(-c6c(F)c(F)c(F)c(F)c6F)c6ccc([nH]6)c(-c6c(F)c(F)c(F)c(F)c6F)c6nc(c(-c7c(F)c(F)c(F)c(F)c7F)c7ccc4[nH]7)C=C6)C=C5)cc3)ccc2c1
REMARK SMILES IDX 16 1 15 4 14 7 13 10 11 11 12 12 9 14 8 16 3 17 4 18 89 19
REMARK SMILES IDX 5 20 88 22 6 24 87 26 7 27 86 28 2 32 1 33 10 37 17 41 18 44
REMARK SMILES IDX 19 47 20 50 21 51 22 53 23 54 24 55 85 56 25 57 84 59 26 61
REMARK SMILES IDX 27 64 28 65 78 66 29 67 83 68 77 69 79 70 30 71 82 72 76 74
REMARK SMILES IDX 75 76 31 78 63 81 43 82 62 83 44 84 47 85 61 86 80 87 45 88
REMARK SMILES IDX 46 90 60 92 81 93 48 96 32 98 33 99 41 100 34 101 35 102
REMARK SMILES IDX 39 103 42 104 36 105 37 106 40 107 38 108 64 109 65 110
REMARK SMILES IDX 73 111 66 112 67 113 71 114 74 115 68 116 69 117 72 118
REMARK SMILES IDX 70 119 49 120 50 121 58 122 51 123 52 124 56 125 59 126
REMARK SMILES IDX 53 127 54 128 57 129 55 130
REMARK H PARENT 16 2 16 3 15 5 15 6 14 8 14 9 13 13 9 15 4 21 89 23 5 25 87 29
REMARK H PARENT 7 30 86 31 1 34 1 35 1 36 10 38 10 39 10 40 17 42 17 43 18 45
REMARK H PARENT 18 46 19 48 19 49 20 52 24 58 85 60 25 62 84 63 83 73 77 75
REMARK H PARENT 79 77 82 79 76 80 44 89 47 91 80 94 45 95 81 97
REMARK Flexibility Score: inf
ROOT
ATOM      1  C   UNL A   1      33.934  26.127  25.227  1.00  0.00    -0.052 C 
ATOM      2  H   UNL A   1      34.846  26.247  24.682  1.00  0.00     0.027 H 
ATOM      3  H   UNL A   1      33.076  25.951  24.612  1.00  0.00     0.027 H 
ENDROOT
BRANCH   1   4
ATOM      4  C   UNL A   1      33.652  27.437  25.965  1.00  0.00    -0.036 C 
ATOM      5  H   UNL A   1      33.755  27.252  27.014  1.00  0.00     0.028 H 
ATOM      6  H   UNL A   1      34.354  28.147  25.581  1.00  0.00     0.028 H 
BRANCH   4   7
ATOM      7  C   UNL A   1      32.272  28.040  25.727  1.00  0.00     0.017 C 
ATOM      8  H   UNL A   1      31.554  27.469  26.276  1.00  0.00     0.049 H 
ATOM      9  H   UNL A   1      32.311  29.059  26.051  1.00  0.00     0.049 H 
BRANCH   7  10
ATOM     10  N   UNL A   1      31.885  28.048  24.333  1.00  0.00    -0.356 N 
ATOM     11  C   UNL A   1      30.787  27.495  23.736  1.00  0.00     0.227 C 
ATOM     12  O   UNL A   1      30.608  27.737  22.538  1.00  0.00    -0.274 OA
ATOM     13  H   UNL A   1      32.501  28.520  23.727  1.00  0.00     0.163 HD
BRANCH  11  14
ATOM     14  C   UNL A   1      29.805  26.592  24.506  1.00  0.00     0.060 C 
ATOM     15  H   UNL A   1      29.619  27.009  25.473  1.00  0.00     0.045 H 
BRANCH  14  16
ATOM     16  C   UNL A   1      30.425  25.239  24.846  1.00  0.00    -0.035 A 
ATOM     17  C   UNL A   1      32.365  20.558  24.465  1.00  0.00     0.119 A 
ATOM     18  C   UNL A   1      32.529  21.132  23.209  1.00  0.00    -0.019 A 
ATOM     19  C   UNL A   1      31.780  21.280  25.502  1.00  0.00    -0.012 A 
ATOM     20  C   UNL A   1      32.096  22.442  22.986  1.00  0.00    -0.051 A 
ATOM     21  H   UNL A   1      32.967  20.594  22.444  1.00  0.00     0.066 H 
ATOM     22  C   UNL A   1      31.372  22.606  25.299  1.00  0.00    -0.015 A 
ATOM     23  H   UNL A   1      31.647  20.838  26.424  1.00  0.00     0.067 H 
ATOM     24  C   UNL A   1      31.500  23.187  24.019  1.00  0.00    -0.018 A 
ATOM     25  H   UNL A   1      32.215  22.868  22.054  1.00  0.00     0.063 H 
ATOM     26  C   UNL A   1      30.836  23.366  26.344  1.00  0.00    -0.054 A 
ATOM     27  C   UNL A   1      31.007  24.486  23.807  1.00  0.00    -0.050 A 
ATOM     28  C   UNL A   1      30.400  24.675  26.127  1.00  0.00    -0.058 A 
ATOM     29  H   UNL A   1      30.763  22.955  27.289  1.00  0.00     0.063 H 
ATOM     30  H   UNL A   1      31.072  24.900  22.863  1.00  0.00     0.063 H 
ATOM     31  H   UNL A   1      30.054  25.235  26.922  1.00  0.00     0.063 H 
BRANCH  17  32
ATOM     32  O   UNL A   1      32.689  19.252  24.714  1.00  0.00    -0.497 OA
BRANCH  32  33
ATOM     33  C   UNL A   1      32.528  18.444  23.550  1.00  0.00     0.078 C 
ATOM     34  H   UNL A   1      31.487  18.256  23.387  1.00  0.00     0.067 H 
ATOM     35  H   UNL A   1      33.040  17.514  23.688  1.00  0.00     0.067 H 
ATOM     36  H   UNL A   1      32.935  18.953  22.703  1.00  0.00     0.067 H 
ENDBRANCH  32  33
ENDBRANCH  17  32
ENDBRANCH  14  16
BRANCH  14  37
ATOM     37  C   UNL A   1      28.405  26.597  23.876  1.00  0.00    -0.049 C 
ATOM     38  H   UNL A   1      28.291  25.734  23.253  1.00  0.00     0.024 H 
ATOM     39  H   UNL A   1      28.282  27.481  23.288  1.00  0.00     0.024 H 
ATOM     40  H   UNL A   1      27.667  26.577  24.650  1.00  0.00     0.024 H 
ENDBRANCH  14  37
ENDBRANCH  11  14
ENDBRANCH   7  10
ENDBRANCH   4   7
ENDBRANCH   1   4
BRANCH   1  41
ATOM     41  C   UNL A   1      34.074  24.881  26.107  1.00  0.00    -0.052 C 
ATOM     42  H   UNL A   1      33.094  24.480  26.265  1.00  0.00     0.027 H 
ATOM     43  H   UNL A   1      34.563  25.213  26.998  1.00  0.00     0.027 H 
BRANCH  41  44
ATOM     44  C   UNL A   1      34.952  23.757  25.552  1.00  0.00    -0.036 C 
ATOM     45  H   UNL A   1      34.559  23.472  24.598  1.00  0.00     0.028 H 
ATOM     46  H   UNL A   1      34.924  22.977  26.284  1.00  0.00     0.028 H 
BRANCH  44  47
ATOM     47  C   UNL A   1      36.429  24.097  25.367  1.00  0.00     0.018 C 
ATOM     48  H   UNL A   1      36.685  24.887  26.042  1.00  0.00     0.049 H 
ATOM     49  H   UNL A   1      36.567  24.386  24.346  1.00  0.00     0.049 H 
BRANCH  47  50
ATOM     50  N   UNL A   1      37.306  22.969  25.622  1.00  0.00    -0.352 N 
ATOM     51  C   UNL A   1      38.543  22.931  26.216  1.00  0.00     0.251 C 
ATOM     52  H   UNL A   1      36.961  22.097  25.323  1.00  0.00     0.163 HD
ATOM     53  O   UNL A   1      39.193  21.890  26.218  1.00  0.00    -0.269 OA
BRANCH  51  54
ATOM     54  C   UNL A   1      39.116  24.149  26.831  1.00  0.00     0.039 A 
ATOM     55  C   UNL A   1      39.898  24.994  26.039  1.00  0.00    -0.049 A 
ATOM     56  C   UNL A   1      38.907  24.451  28.180  1.00  0.00    -0.049 A 
ATOM     57  C   UNL A   1      40.409  26.177  26.577  1.00  0.00    -0.053 A 
ATOM     58  H   UNL A   1      40.097  24.745  25.057  1.00  0.00     0.063 H 
ATOM     59  C   UNL A   1      39.365  25.661  28.699  1.00  0.00    -0.053 A 
ATOM     60  H   UNL A   1      38.414  23.780  28.789  1.00  0.00     0.063 H 
ATOM     61  C   UNL A   1      40.115  26.539  27.902  1.00  0.00    -0.014 A 
ATOM     62  H   UNL A   1      41.007  26.789  25.999  1.00  0.00     0.063 H 
ATOM     63  H   UNL A   1      39.150  25.913  29.676  1.00  0.00     0.063 H 
BRANCH  61  64
ATOM     64  C   UNL A   1      40.563  27.841  28.461  1.00  0.00     0.031 A 
ATOM     65  C   UNL A   1      41.997  28.042  28.862  1.00  0.00     0.074 A 
ATOM     66  C   UNL A   1      39.660  28.818  28.671  1.00  0.00     0.049 A 
ATOM     67  N   UNL A   1      42.555  29.070  29.451  1.00  0.00    -0.248 NA
ATOM     68  C   UNL A   1      42.923  26.934  28.582  1.00  0.00    -0.034 C 
ATOM     69  C   UNL A   1      38.232  28.731  28.358  1.00  0.00    -0.036 A 
ATOM     70  N   UNL A   1      39.805  30.071  29.212  1.00  0.00    -0.354 N 
ATOM     71  C   UNL A   1      43.891  28.729  29.622  1.00  0.00     0.074 A 
ATOM     72  C   UNL A   1      44.050  27.383  29.116  1.00  0.00    -0.034 C 
ATOM     73  H   UNL A   1      42.742  26.041  28.098  1.00  0.00     0.065 H 
ATOM     74  C   UNL A   1      37.636  29.884  28.701  1.00  0.00    -0.036 A 
ATOM     75  H   UNL A   1      37.760  27.914  27.941  1.00  0.00     0.065 H 
ATOM     76  C   UNL A   1      38.628  30.775  29.296  1.00  0.00     0.049 A 
ATOM     77  H   UNL A   1      40.670  30.433  29.512  1.00  0.00     0.167 HD
ATOM     78  C   UNL A   1      44.895  29.479  30.134  1.00  0.00     0.037 A 
ATOM     79  H   UNL A   1      44.928  26.841  29.166  1.00  0.00     0.065 H 
ATOM     80  H   UNL A   1      36.636  30.105  28.567  1.00  0.00     0.065 H 
ATOM     81  C   UNL A   1      38.373  31.994  29.808  1.00  0.00     0.037 A 
ATOM     82  C   UNL A   1      44.737  30.827  30.618  1.00  0.00     0.049 A 
ATOM     83  C   UNL A   1      39.505  32.797  30.392  1.00  0.00     0.074 A 
ATOM     84  C   UNL A   1      45.705  31.685  31.111  1.00  0.00    -0.036 A 
ATOM     85  N   UNL A   1      43.532  31.511  30.674  1.00  0.00    -0.354 N 
ATOM     86  N   UNL A   1      40.774  32.485  30.494  1.00  0.00    -0.248 NA
ATOM     87  C   UNL A   1      39.168  34.124  30.926  1.00  0.00    -0.034 C 
ATOM     88  C   UNL A   1      45.079  32.873  31.506  1.00  0.00    -0.036 A 
ATOM     89  H   UNL A   1      46.715  31.485  31.176  1.00  0.00     0.065 H 
ATOM     90  C   UNL A   1      43.729  32.772  31.212  1.00  0.00     0.049 A 
ATOM     91  H   UNL A   1      42.665  31.153  30.375  1.00  0.00     0.167 HD
ATOM     92  C   UNL A   1      41.390  33.584  31.078  1.00  0.00     0.074 A 
ATOM     93  C   UNL A   1      40.359  34.578  31.292  1.00  0.00    -0.034 C 
ATOM     94  H   UNL A   1      38.246  34.582  30.999  1.00  0.00     0.065 H 
ATOM     95  H   UNL A   1      45.543  33.684  31.941  1.00  0.00     0.065 H 
ATOM     96  C   UNL A   1      42.692  33.753  31.411  1.00  0.00     0.037 A 
ATOM     97  H   UNL A   1      40.529  35.519  31.677  1.00  0.00     0.065 H 
BRANCH  78  98
ATOM     98  C   UNL A   1      46.264  28.866  30.195  1.00  0.00     0.064 A 
ATOM     99  C   UNL A   1      47.172  28.991  29.133  1.00  0.00     0.173 A 
ATOM    100  C   UNL A   1      46.694  28.193  31.349  1.00  0.00     0.173 A 
ATOM    101  F   UNL A   1      46.806  29.615  28.003  1.00  0.00    -0.203 F 
ATOM    102  C   UNL A   1      48.451  28.447  29.215  1.00  0.00     0.198 A 
ATOM    103  C   UNL A   1      47.983  27.676  31.440  1.00  0.00     0.198 A 
ATOM    104  F   UNL A   1      45.867  28.052  32.397  1.00  0.00    -0.203 F 
ATOM    105  F   UNL A   1      49.288  28.544  28.172  1.00  0.00    -0.200 F 
ATOM    106  C   UNL A   1      48.858  27.798  30.371  1.00  0.00     0.200 A 
ATOM    107  F   UNL A   1      48.380  27.061  32.562  1.00  0.00    -0.200 F 
ATOM    108  F   UNL A   1      50.094  27.286  30.453  1.00  0.00    -0.200 F 
ENDBRANCH  78  98
BRANCH  81 109
ATOM    109  C   UNL A   1      36.989  32.536  29.792  1.00  0.00     0.064 A 
ATOM    110  C   UNL A   1      36.506  33.250  28.686  1.00  0.00     0.173 A 
ATOM    111  C   UNL A   1      36.128  32.370  30.888  1.00  0.00     0.173 A 
ATOM    112  F   UNL A   1      37.301  33.454  27.625  1.00  0.00    -0.203 F 
ATOM    113  C   UNL A   1      35.227  33.801  28.686  1.00  0.00     0.198 A 
ATOM    114  C   UNL A   1      34.837  32.895  30.874  1.00  0.00     0.198 A 
ATOM    115  F   UNL A   1      36.538  31.693  31.969  1.00  0.00    -0.203 F 
ATOM    116  F   UNL A   1      34.812  34.524  27.638  1.00  0.00    -0.200 F 
ATOM    117  C   UNL A   1      34.392  33.618  29.778  1.00  0.00     0.200 A 
ATOM    118  F   UNL A   1      34.028  32.705  31.925  1.00  0.00    -0.200 F 
ATOM    119  F   UNL A   1      33.161  34.149  29.778  1.00  0.00    -0.200 F 
ENDBRANCH  81 109
BRANCH  96 120
ATOM    120  C   UNL A   1      43.083  35.074  32.010  1.00  0.00     0.064 A 
ATOM    121  C   UNL A   1      43.554  36.131  31.218  1.00  0.00     0.173 A 
ATOM    122  C   UNL A   1      42.951  35.294  33.390  1.00  0.00     0.173 A 
ATOM    123  F   UNL A   1      43.714  35.965  29.897  1.00  0.00    -0.203 F 
ATOM    124  C   UNL A   1      43.906  37.351  31.789  1.00  0.00     0.198 A 
ATOM    125  C   UNL A   1      43.273  36.525  33.953  1.00  0.00     0.198 A 
ATOM    126  F   UNL A   1      42.497  34.317  34.190  1.00  0.00    -0.203 F 
ATOM    127  F   UNL A   1      44.401  38.331  31.020  1.00  0.00    -0.200 F 
ATOM    128  C   UNL A   1      43.757  37.550  33.154  1.00  0.00     0.200 A 
ATOM    129  F   UNL A   1      43.116  36.720  35.270  1.00  0.00    -0.200 F 
ATOM    130  F   UNL A   1      44.089  38.727  33.700  1.00  0.00    -0.200 F 
ENDBRANCH  96 120
ENDBRANCH  61  64
ENDBRANCH  51  54
ENDBRANCH  47  50
ENDBRANCH  44  47
ENDBRANCH  41  44
ENDBRANCH   1  41
TORSDOF 17
ENDMDL
MODEL 10
REMARK VINA RESULT:     -11.8      3.722      8.769
REMARK SMILES COc1ccc2cc([C@H](C)C(=O)NCCCCCCNC(=O)c3ccc(-c4c5nc(c(-c6c(F)c(F)c(F)c(F)c6F)c6ccc([nH]6)c(-c6c(F)c(F)c(F)c(F)c6F)c6nc(c(-c7c(F)c(F)c(F)c(F)c7F)c7ccc4[nH]7)C=C6)C=C5)cc3)ccc2c1
REMARK SMILES IDX 16 1 15 4 14 7 13 10 11 11 12 12 9 14 8 16 3 17 4 18 89 19
REMARK SMILES IDX 5 20 88 22 6 24 87 26 7 27 86 28 2 32 1 33 10 37 17 41 18 44
REMARK SMILES IDX 19 47 20 50 21 51 22 53 23 54 24 55 85 56 25 57 84 59 26 61
REMARK SMILES IDX 27 64 28 65 78 66 29 67 83 68 77 69 79 70 30 71 82 72 76 74
REMARK SMILES IDX 75 76 31 78 63 81 43 82 62 83 44 84 47 85 61 86 80 87 45 88
REMARK SMILES IDX 46 90 60 92 81 93 48 96 32 98 33 99 41 100 34 101 35 102
REMARK SMILES IDX 39 103 42 104 36 105 37 106 40 107 38 108 64 109 65 110
REMARK SMILES IDX 73 111 66 112 67 113 71 114 74 115 68 116 69 117 72 118
REMARK SMILES IDX 70 119 49 120 50 121 58 122 51 123 52 124 56 125 59 126
REMARK SMILES IDX 53 127 54 128 57 129 55 130
REMARK H PARENT 16 2 16 3 15 5 15 6 14 8 14 9 13 13 9 15 4 21 89 23 5 25 87 29
REMARK H PARENT 7 30 86 31 1 34 1 35 1 36 10 38 10 39 10 40 17 42 17 43 18 45
REMARK H PARENT 18 46 19 48 19 49 20 52 24 58 85 60 25 62 84 63 83 73 77 75
REMARK H PARENT 79 77 82 79 76 80 44 89 47 91 80 94 45 95 81 97
REMARK Flexibility Score: inf
ROOT
ATOM      1  C   UNL A   1      33.756  25.225  25.838  1.00  0.00    -0.052 C 
ATOM      2  H   UNL A   1      33.437  25.424  26.839  1.00  0.00     0.027 H 
ATOM      3  H   UNL A   1      33.043  24.684  25.250  1.00  0.00     0.027 H 
ENDROOT
BRANCH   1   4
ATOM      4  C   UNL A   1      34.996  24.332  25.910  1.00  0.00    -0.036 C 
ATOM      5  H   UNL A   1      35.819  24.879  25.500  1.00  0.00     0.028 H 
ATOM      6  H   UNL A   1      35.116  24.079  26.942  1.00  0.00     0.028 H 
BRANCH   4   7
ATOM      7  C   UNL A   1      34.894  23.007  25.163  1.00  0.00     0.017 C 
ATOM      8  H   UNL A   1      34.862  23.211  24.113  1.00  0.00     0.049 H 
ATOM      9  H   UNL A   1      35.748  22.423  25.435  1.00  0.00     0.049 H 
BRANCH   7  10
ATOM     10  N   UNL A   1      33.719  22.240  25.517  1.00  0.00    -0.356 N 
ATOM     11  C   UNL A   1      32.748  21.720  24.708  1.00  0.00     0.227 C 
ATOM     12  O   UNL A   1      31.899  20.993  25.234  1.00  0.00    -0.274 OA
ATOM     13  H   UNL A   1      33.603  22.068  26.480  1.00  0.00     0.163 HD
BRANCH  11  14
ATOM     14  C   UNL A   1      32.689  22.025  23.200  1.00  0.00     0.060 C 
ATOM     15  H   UNL A   1      33.664  21.909  22.774  1.00  0.00     0.045 H 
BRANCH  14  16
ATOM     16  C   UNL A   1      32.385  23.496  22.929  1.00  0.00    -0.035 A 
ATOM     17  C   UNL A   1      30.007  27.972  22.565  1.00  0.00     0.119 A 
ATOM     18  C   UNL A   1      29.307  27.255  23.530  1.00  0.00    -0.019 A 
ATOM     19  C   UNL A   1      31.122  27.417  21.943  1.00  0.00    -0.012 A 
ATOM     20  C   UNL A   1      29.723  25.966  23.870  1.00  0.00    -0.051 A 
ATOM     21  H   UNL A   1      28.483  27.673  23.991  1.00  0.00     0.066 H 
ATOM     22  C   UNL A   1      31.568  26.136  22.300  1.00  0.00    -0.015 A 
ATOM     23  H   UNL A   1      31.623  27.950  21.215  1.00  0.00     0.067 H 
ATOM     24  C   UNL A   1      30.845  25.386  23.252  1.00  0.00    -0.018 A 
ATOM     25  H   UNL A   1      29.203  25.432  24.585  1.00  0.00     0.063 H 
ATOM     26  C   UNL A   1      32.721  25.585  21.728  1.00  0.00    -0.054 A 
ATOM     27  C   UNL A   1      31.252  24.071  23.537  1.00  0.00    -0.050 A 
ATOM     28  C   UNL A   1      33.140  24.296  22.064  1.00  0.00    -0.058 A 
ATOM     29  H   UNL A   1      33.268  26.139  21.050  1.00  0.00     0.063 H 
ATOM     30  H   UNL A   1      30.705  23.510  24.209  1.00  0.00     0.063 H 
ATOM     31  H   UNL A   1      34.019  23.928  21.668  1.00  0.00     0.063 H 
BRANCH  17  32
ATOM     32  O   UNL A   1      29.592  29.201  22.130  1.00  0.00    -0.497 OA
BRANCH  32  33
ATOM     33  C   UNL A   1      28.641  29.776  23.023  1.00  0.00     0.078 C 
ATOM     34  H   UNL A   1      28.990  29.675  24.030  1.00  0.00     0.067 H 
ATOM     35  H   UNL A   1      27.702  29.272  22.919  1.00  0.00     0.067 H 
ATOM     36  H   UNL A   1      28.516  30.813  22.792  1.00  0.00     0.067 H 
ENDBRANCH  32  33
ENDBRANCH  17  32
ENDBRANCH  14  16
BRANCH  14  37
ATOM     37  C   UNL A   1      31.874  20.975  22.432  1.00  0.00    -0.049 C 
ATOM     38  H   UNL A   1      31.620  21.358  21.466  1.00  0.00     0.024 H 
ATOM     39  H   UNL A   1      30.979  20.752  22.975  1.00  0.00     0.024 H 
ATOM     40  H   UNL A   1      32.455  20.084  22.321  1.00  0.00     0.024 H 
ENDBRANCH  14  37
ENDBRANCH  11  14
ENDBRANCH   7  10
ENDBRANCH   4   7
ENDBRANCH   1   4
BRANCH   1  41
ATOM     41  C   UNL A   1      33.940  26.570  25.129  1.00  0.00    -0.052 C 
ATOM     42  H   UNL A   1      33.678  26.435  24.100  1.00  0.00     0.027 H 
ATOM     43  H   UNL A   1      34.962  26.841  25.290  1.00  0.00     0.027 H 
BRANCH  41  44
ATOM     44  C   UNL A   1      33.116  27.740  25.671  1.00  0.00    -0.036 C 
ATOM     45  H   UNL A   1      32.082  27.472  25.604  1.00  0.00     0.028 H 
ATOM     46  H   UNL A   1      33.385  28.586  25.075  1.00  0.00     0.028 H 
BRANCH  44  47
ATOM     47  C   UNL A   1      33.403  28.142  27.115  1.00  0.00     0.018 C 
ATOM     48  H   UNL A   1      34.404  27.851  27.358  1.00  0.00     0.049 H 
ATOM     49  H   UNL A   1      32.684  27.649  27.735  1.00  0.00     0.049 H 
BRANCH  47  50
ATOM     50  N   UNL A   1      33.269  29.570  27.342  1.00  0.00    -0.352 N 
ATOM     51  C   UNL A   1      34.164  30.466  27.872  1.00  0.00     0.251 C 
ATOM     52  H   UNL A   1      32.404  29.955  27.075  1.00  0.00     0.163 HD
ATOM     53  O   UNL A   1      33.814  31.616  28.111  1.00  0.00    -0.269 OA
BRANCH  51  54
ATOM     54  C   UNL A   1      35.548  30.045  28.186  1.00  0.00     0.039 A 
ATOM     55  C   UNL A   1      36.520  30.145  27.187  1.00  0.00    -0.049 A 
ATOM     56  C   UNL A   1      35.887  29.536  29.443  1.00  0.00    -0.049 A 
ATOM     57  C   UNL A   1      37.845  29.804  27.468  1.00  0.00    -0.053 A 
ATOM     58  H   UNL A   1      36.259  30.471  26.243  1.00  0.00     0.063 H 
ATOM     59  C   UNL A   1      37.220  29.254  29.741  1.00  0.00    -0.053 A 
ATOM     60  H   UNL A   1      35.152  29.369  30.148  1.00  0.00     0.063 H 
ATOM     61  C   UNL A   1      38.212  29.392  28.759  1.00  0.00    -0.014 A 
ATOM     62  H   UNL A   1      38.558  29.854  26.723  1.00  0.00     0.063 H 
ATOM     63  H   UNL A   1      37.478  28.944  30.691  1.00  0.00     0.063 H 
BRANCH  61  64
ATOM     64  C   UNL A   1      39.633  29.123  29.106  1.00  0.00     0.031 A 
ATOM     65  C   UNL A   1      40.443  30.154  29.840  1.00  0.00     0.074 A 
ATOM     66  C   UNL A   1      40.210  27.977  28.697  1.00  0.00     0.049 A 
ATOM     67  N   UNL A   1      41.716  30.141  30.148  1.00  0.00    -0.248 NA
ATOM     68  C   UNL A   1      39.734  31.370  30.268  1.00  0.00    -0.034 C 
ATOM     69  C   UNL A   1      39.539  26.914  27.945  1.00  0.00    -0.036 A 
ATOM     70  N   UNL A   1      41.496  27.520  28.841  1.00  0.00    -0.354 N 
ATOM     71  C   UNL A   1      41.962  31.346  30.794  1.00  0.00     0.074 A 
ATOM     72  C   UNL A   1      40.718  32.086  30.793  1.00  0.00    -0.034 C 
ATOM     73  H   UNL A   1      38.733  31.604  30.181  1.00  0.00     0.065 H 
ATOM     74  C   UNL A   1      40.415  25.926  27.705  1.00  0.00    -0.036 A 
ATOM     75  H   UNL A   1      38.552  26.924  27.648  1.00  0.00     0.065 H 
ATOM     76  C   UNL A   1      41.718  26.301  28.247  1.00  0.00     0.049 A 
ATOM     77  H   UNL A   1      42.195  28.018  29.324  1.00  0.00     0.167 HD
ATOM     78  C   UNL A   1      43.114  31.784  31.354  1.00  0.00     0.037 A 
ATOM     79  H   UNL A   1      40.611  33.047  31.155  1.00  0.00     0.065 H 
ATOM     80  H   UNL A   1      40.203  25.043  27.214  1.00  0.00     0.065 H 
ATOM     81  C   UNL A   1      42.846  25.574  28.138  1.00  0.00     0.037 A 
ATOM     82  C   UNL A   1      44.346  31.036  31.369  1.00  0.00     0.049 A 
ATOM     83  C   UNL A   1      44.119  26.097  28.750  1.00  0.00     0.074 A 
ATOM     84  C   UNL A   1      45.553  31.376  31.955  1.00  0.00    -0.036 A 
ATOM     85  N   UNL A   1      44.527  29.799  30.769  1.00  0.00    -0.354 N 
ATOM     86  N   UNL A   1      44.323  27.211  29.409  1.00  0.00    -0.248 NA
ATOM     87  C   UNL A   1      45.315  25.255  28.608  1.00  0.00    -0.034 C 
ATOM     88  C   UNL A   1      46.478  30.364  31.671  1.00  0.00    -0.036 A 
ATOM     89  H   UNL A   1      45.740  32.228  32.506  1.00  0.00     0.065 H 
ATOM     90  C   UNL A   1      45.832  29.372  30.952  1.00  0.00     0.049 A 
ATOM     91  H   UNL A   1      43.831  29.298  30.286  1.00  0.00     0.167 HD
ATOM     92  C   UNL A   1      45.661  27.193  29.781  1.00  0.00     0.074 A 
ATOM     93  C   UNL A   1      46.215  25.949  29.291  1.00  0.00    -0.034 C 
ATOM     94  H   UNL A   1      45.426  24.360  28.107  1.00  0.00     0.065 H 
ATOM     95  H   UNL A   1      47.471  30.359  31.949  1.00  0.00     0.065 H 
ATOM     96  C   UNL A   1      46.367  28.126  30.465  1.00  0.00     0.037 A 
ATOM     97  H   UNL A   1      47.186  25.641  29.454  1.00  0.00     0.065 H 
BRANCH  78  98
ATOM     98  C   UNL A   1      43.104  33.136  32.004  1.00  0.00     0.064 A 
ATOM     99  C   UNL A   1      43.397  34.301  31.280  1.00  0.00     0.173 A 
ATOM    100  C   UNL A   1      42.743  33.278  33.353  1.00  0.00     0.173 A 
ATOM    101  F   UNL A   1      43.758  34.220  29.989  1.00  0.00    -0.203 F 
ATOM    102  C   UNL A   1      43.351  35.554  31.885  1.00  0.00     0.198 A 
ATOM    103  C   UNL A   1      42.669  34.534  33.948  1.00  0.00     0.198 A 
ATOM    104  F   UNL A   1      42.446  32.196  34.090  1.00  0.00    -0.203 F 
ATOM    105  F   UNL A   1      43.673  36.649  31.183  1.00  0.00    -0.200 F 
ATOM    106  C   UNL A   1      42.978  35.670  33.216  1.00  0.00     0.200 A 
ATOM    107  F   UNL A   1      42.295  34.645  35.230  1.00  0.00    -0.200 F 
ATOM    108  F   UNL A   1      42.921  36.878  33.794  1.00  0.00    -0.200 F 
ENDBRANCH  78  98
BRANCH  81 109
ATOM    109  C   UNL A   1      42.829  24.272  27.422  1.00  0.00     0.064 A 
ATOM    110  C   UNL A   1      42.534  23.080  28.100  1.00  0.00     0.173 A 
ATOM    111  C   UNL A   1      43.126  24.187  26.053  1.00  0.00     0.173 A 
ATOM    112  F   UNL A   1      42.267  23.108  29.414  1.00  0.00    -0.203 F 
ATOM    113  C   UNL A   1      42.564  21.852  27.444  1.00  0.00     0.198 A 
ATOM    114  C   UNL A   1      43.125  22.961  25.392  1.00  0.00     0.198 A 
ATOM    115  F   UNL A   1      43.411  25.297  25.358  1.00  0.00    -0.203 F 
ATOM    116  F   UNL A   1      42.332  20.724  28.129  1.00  0.00    -0.200 F 
ATOM    117  C   UNL A   1      42.854  21.793  26.089  1.00  0.00     0.200 A 
ATOM    118  F   UNL A   1      43.392  22.911  24.079  1.00  0.00    -0.200 F 
ATOM    119  F   UNL A   1      42.883  20.611  25.458  1.00  0.00    -0.200 F 
ENDBRANCH  81 109
BRANCH  96 120
ATOM    120  C   UNL A   1      47.809  27.821  30.753  1.00  0.00     0.064 A 
ATOM    121  C   UNL A   1      48.194  27.081  31.881  1.00  0.00     0.173 A 
ATOM    122  C   UNL A   1      48.814  28.246  29.871  1.00  0.00     0.173 A 
ATOM    123  F   UNL A   1      47.272  26.667  32.763  1.00  0.00    -0.203 F 
ATOM    124  C   UNL A   1      49.535  26.802  32.129  1.00  0.00     0.198 A 
ATOM    125  C   UNL A   1      50.151  27.938  30.106  1.00  0.00     0.198 A 
ATOM    126  F   UNL A   1      48.497  28.950  28.774  1.00  0.00    -0.203 F 
ATOM    127  F   UNL A   1      49.884  26.137  33.240  1.00  0.00    -0.200 F 
ATOM    128  C   UNL A   1      50.511  27.223  31.238  1.00  0.00     0.200 A 
ATOM    129  F   UNL A   1      51.091  28.334  29.237  1.00  0.00    -0.200 F 
ATOM    130  F   UNL A   1      51.800  26.947  31.476  1.00  0.00    -0.200 F 
ENDBRANCH  96 120
ENDBRANCH  61  64
ENDBRANCH  51  54
ENDBRANCH  47  50
ENDBRANCH  44  47
ENDBRANCH  41  44
ENDBRANCH   1  41
TORSDOF 17
ENDMDL
