MODEL 1
REMARK VINA RESULT:     -12.4      0.000      0.000
REMARK SMILES O=C(Cn1cnc(-c2ccccc2)c1-c1ccccc1)NCCCCCCNC(=O)c1ccc(-c2c3nc(c(-c4c(F)c(F)c(F)c(F)c4F)c4ccc([nH]4)c(-c4c(F)c(F)c(F)c(F)c4F)c4nc(c(-c5c(F)c(F)c(F)c(F)c5F)c5ccc2[nH]5)C=C4)C=C3)cc1
REMARK SMILES IDX 24 1 23 4 22 7 21 10 1 11 2 12 3 14 4 17 5 18 14 19 6 20
REMARK SMILES IDX 7 22 15 23 16 24 20 25 17 26 19 28 18 30 8 34 9 35 13 36
REMARK SMILES IDX 10 37 12 39 11 41 25 45 26 48 27 51 28 54 29 55 30 57 31 58
REMARK SMILES IDX 32 59 93 60 33 61 92 63 34 65 35 68 36 69 86 70 37 71 91 72
REMARK SMILES IDX 85 73 87 74 38 75 90 76 84 78 83 80 39 82 71 85 51 86 70 87
REMARK SMILES IDX 52 88 55 89 69 90 88 91 53 92 54 94 68 96 89 97 56 100
REMARK SMILES IDX 40 102 41 103 49 104 42 105 43 106 47 107 50 108 44 109
REMARK SMILES IDX 45 110 48 111 46 112 72 113 73 114 81 115 74 116 75 117
REMARK SMILES IDX 79 118 82 119 76 120 77 121 80 122 78 123 57 124 58 125
REMARK SMILES IDX 66 126 59 127 60 128 64 129 67 130 61 131 62 132 65 133
REMARK SMILES IDX 63 134
REMARK H PARENT 24 2 24 3 23 5 23 6 22 8 22 9 21 13 3 15 3 16 5 21 16 27 20 29
REMARK H PARENT 17 31 19 32 18 33 9 38 13 40 10 42 12 43 11 44 25 46 25 47
REMARK H PARENT 26 49 26 50 27 52 27 53 28 56 32 62 93 64 33 66 92 67 91 77
REMARK H PARENT 85 79 87 81 90 83 84 84 52 93 55 95 88 98 53 99 89 101
REMARK Flexibility Score: inf
ROOT
ATOM      1  C   UNL A   1      38.638  21.694  25.562  1.00  0.00    -0.052 C 
ATOM      2  H   UNL A   1      38.924  21.978  24.570  1.00  0.00     0.027 H 
ATOM      3  H   UNL A   1      38.073  20.786  25.621  1.00  0.00     0.027 H 
ENDROOT
BRANCH   1   4
ATOM      4  C   UNL A   1      37.709  22.783  26.109  1.00  0.00    -0.036 C 
ATOM      5  H   UNL A   1      36.966  22.312  26.719  1.00  0.00     0.028 H 
ATOM      6  H   UNL A   1      38.331  23.463  26.652  1.00  0.00     0.028 H 
BRANCH   4   7
ATOM      7  C   UNL A   1      36.995  23.609  25.046  1.00  0.00     0.017 C 
ATOM      8  H   UNL A   1      37.556  24.503  24.874  1.00  0.00     0.049 H 
ATOM      9  H   UNL A   1      36.926  23.006  24.165  1.00  0.00     0.049 H 
BRANCH   7  10
ATOM     10  N   UNL A   1      35.643  23.976  25.427  1.00  0.00    -0.355 N 
ATOM     11  O   UNL A   1      34.640  22.198  24.392  1.00  0.00    -0.273 OA
ATOM     12  C   UNL A   1      34.559  23.169  25.144  1.00  0.00     0.239 C 
ATOM     13  H   UNL A   1      35.494  24.827  25.900  1.00  0.00     0.163 HD
BRANCH  12  14
ATOM     14  C   UNL A   1      33.230  23.586  25.739  1.00  0.00     0.103 C 
ATOM     15  H   UNL A   1      33.426  24.268  26.540  1.00  0.00     0.060 H 
ATOM     16  H   UNL A   1      32.750  22.684  26.055  1.00  0.00     0.060 H 
BRANCH  14  17
ATOM     17  N   UNL A   1      32.313  24.231  24.812  1.00  0.00    -0.321 N 
ATOM     18  C   UNL A   1      31.589  23.549  23.867  1.00  0.00     0.096 A 
ATOM     19  C   UNL A   1      31.911  25.552  24.778  1.00  0.00     0.076 A 
ATOM     20  N   UNL A   1      30.762  24.335  23.224  1.00  0.00    -0.236 NA
ATOM     21  H   UNL A   1      31.685  22.537  23.686  1.00  0.00     0.104 H 
ATOM     22  C   UNL A   1      30.951  25.579  23.772  1.00  0.00     0.096 A 
BRANCH  19  23
ATOM     23  C   UNL A   1      32.368  26.624  25.659  1.00  0.00     0.000 A 
ATOM     24  C   UNL A   1      31.539  27.094  26.684  1.00  0.00    -0.053 A 
ATOM     25  C   UNL A   1      33.582  27.275  25.425  1.00  0.00    -0.053 A 
ATOM     26  C   UNL A   1      31.934  28.176  27.474  1.00  0.00    -0.062 A 
ATOM     27  H   UNL A   1      30.629  26.637  26.858  1.00  0.00     0.063 H 
ATOM     28  C   UNL A   1      33.992  28.339  26.230  1.00  0.00    -0.062 A 
ATOM     29  H   UNL A   1      34.184  26.965  24.646  1.00  0.00     0.063 H 
ATOM     30  C   UNL A   1      33.164  28.791  27.254  1.00  0.00    -0.062 A 
ATOM     31  H   UNL A   1      31.311  28.522  28.222  1.00  0.00     0.062 H 
ATOM     32  H   UNL A   1      34.905  28.790  26.067  1.00  0.00     0.062 H 
ATOM     33  H   UNL A   1      33.463  29.580  27.849  1.00  0.00     0.062 H 
ENDBRANCH  19  23
BRANCH  22  34
ATOM     34  C   UNL A   1      30.202  26.752  23.366  1.00  0.00     0.002 A 
ATOM     35  C   UNL A   1      28.847  26.863  23.696  1.00  0.00    -0.053 A 
ATOM     36  C   UNL A   1      30.834  27.800  22.686  1.00  0.00    -0.053 A 
ATOM     37  C   UNL A   1      28.143  28.027  23.380  1.00  0.00    -0.062 A 
ATOM     38  H   UNL A   1      28.367  26.085  24.175  1.00  0.00     0.063 H 
ATOM     39  C   UNL A   1      30.127  28.960  22.365  1.00  0.00    -0.062 A 
ATOM     40  H   UNL A   1      31.827  27.715  22.420  1.00  0.00     0.063 H 
ATOM     41  C   UNL A   1      28.784  29.075  22.719  1.00  0.00    -0.062 A 
ATOM     42  H   UNL A   1      27.146  28.112  23.635  1.00  0.00     0.062 H 
ATOM     43  H   UNL A   1      30.598  29.730  21.866  1.00  0.00     0.062 H 
ATOM     44  H   UNL A   1      28.264  29.937  22.492  1.00  0.00     0.062 H 
ENDBRANCH  22  34
ENDBRANCH  14  17
ENDBRANCH  12  14
ENDBRANCH   7  10
ENDBRANCH   4   7
ENDBRANCH   1   4
BRANCH   1  45
ATOM     45  C   UNL A   1      39.923  21.422  26.356  1.00  0.00    -0.052 C 
ATOM     46  H   UNL A   1      39.689  21.526  27.396  1.00  0.00     0.027 H 
ATOM     47  H   UNL A   1      40.635  22.127  25.981  1.00  0.00     0.027 H 
BRANCH  45  48
ATOM     48  C   UNL A   1      40.585  20.050  26.167  1.00  0.00    -0.036 C 
ATOM     49  H   UNL A   1      40.768  19.910  25.122  1.00  0.00     0.028 H 
ATOM     50  H   UNL A   1      39.909  19.330  26.578  1.00  0.00     0.028 H 
BRANCH  48  51
ATOM     51  C   UNL A   1      41.904  19.871  26.906  1.00  0.00     0.018 C 
ATOM     52  H   UNL A   1      41.808  19.047  27.582  1.00  0.00     0.049 H 
ATOM     53  H   UNL A   1      42.109  20.788  27.418  1.00  0.00     0.049 H 
BRANCH  51  54
ATOM     54  N   UNL A   1      43.034  19.611  26.014  1.00  0.00    -0.352 N 
ATOM     55  C   UNL A   1      43.780  20.525  25.289  1.00  0.00     0.251 C 
ATOM     56  H   UNL A   1      43.297  18.668  25.915  1.00  0.00     0.163 HD
ATOM     57  O   UNL A   1      44.433  20.184  24.318  1.00  0.00    -0.269 OA
BRANCH  55  58
ATOM     58  C   UNL A   1      43.770  21.935  25.720  1.00  0.00     0.039 A 
ATOM     59  C   UNL A   1      42.994  22.895  25.064  1.00  0.00    -0.049 A 
ATOM     60  C   UNL A   1      44.529  22.274  26.834  1.00  0.00    -0.049 A 
ATOM     61  C   UNL A   1      42.921  24.179  25.599  1.00  0.00    -0.053 A 
ATOM     62  H   UNL A   1      42.484  22.656  24.198  1.00  0.00     0.063 H 
ATOM     63  C   UNL A   1      44.325  23.480  27.450  1.00  0.00    -0.053 A 
ATOM     64  H   UNL A   1      45.243  21.621  27.194  1.00  0.00     0.063 H 
ATOM     65  C   UNL A   1      43.573  24.461  26.810  1.00  0.00    -0.014 A 
ATOM     66  H   UNL A   1      42.392  24.918  25.109  1.00  0.00     0.063 H 
ATOM     67  H   UNL A   1      44.727  23.662  28.383  1.00  0.00     0.063 H 
BRANCH  65  68
ATOM     68  C   UNL A   1      43.403  25.749  27.476  1.00  0.00     0.031 A 
ATOM     69  C   UNL A   1      44.376  26.805  27.076  1.00  0.00     0.074 A 
ATOM     70  C   UNL A   1      42.308  26.044  28.212  1.00  0.00     0.049 A 
ATOM     71  N   UNL A   1      45.234  27.419  27.821  1.00  0.00    -0.248 NA
ATOM     72  C   UNL A   1      44.474  27.152  25.649  1.00  0.00    -0.034 C 
ATOM     73  C   UNL A   1      41.107  25.223  28.422  1.00  0.00    -0.036 A 
ATOM     74  N   UNL A   1      41.982  27.208  28.838  1.00  0.00    -0.354 N 
ATOM     75  C   UNL A   1      45.858  28.360  27.002  1.00  0.00     0.074 A 
ATOM     76  C   UNL A   1      45.469  28.041  25.654  1.00  0.00    -0.034 C 
ATOM     77  H   UNL A   1      43.918  26.802  24.853  1.00  0.00     0.065 H 
ATOM     78  C   UNL A   1      40.108  25.993  28.904  1.00  0.00    -0.036 A 
ATOM     79  H   UNL A   1      41.039  24.212  28.230  1.00  0.00     0.065 H 
ATOM     80  C   UNL A   1      40.648  27.301  29.214  1.00  0.00     0.049 A 
ATOM     81  H   UNL A   1      42.636  27.924  29.010  1.00  0.00     0.167 HD
ATOM     82  C   UNL A   1      46.452  29.467  27.529  1.00  0.00     0.037 A 
ATOM     83  H   UNL A   1      45.901  28.445  24.807  1.00  0.00     0.065 H 
ATOM     84  H   UNL A   1      39.128  25.699  29.029  1.00  0.00     0.065 H 
ATOM     85  C   UNL A   1      40.020  28.386  29.726  1.00  0.00     0.037 A 
ATOM     86  C   UNL A   1      46.684  29.303  28.942  1.00  0.00     0.049 A 
ATOM     87  C   UNL A   1      41.067  29.286  30.257  1.00  0.00     0.074 A 
ATOM     88  C   UNL A   1      47.430  28.442  29.720  1.00  0.00    -0.036 A 
ATOM     89  N   UNL A   1      45.795  29.904  29.796  1.00  0.00    -0.354 N 
ATOM     90  N   UNL A   1      41.819  29.007  31.285  1.00  0.00    -0.248 NA
ATOM     91  C   UNL A   1      41.564  30.341  29.388  1.00  0.00    -0.034 C 
ATOM     92  C   UNL A   1      46.647  28.231  30.895  1.00  0.00    -0.036 A 
ATOM     93  H   UNL A   1      48.355  28.039  29.501  1.00  0.00     0.065 H 
ATOM     94  C   UNL A   1      45.498  29.016  30.794  1.00  0.00     0.049 A 
ATOM     95  H   UNL A   1      45.432  30.815  29.706  1.00  0.00     0.167 HD
ATOM     96  C   UNL A   1      43.064  29.520  30.957  1.00  0.00     0.074 A 
ATOM     97  C   UNL A   1      42.814  30.435  29.847  1.00  0.00    -0.034 C 
ATOM     98  H   UNL A   1      41.089  30.863  28.635  1.00  0.00     0.065 H 
ATOM     99  H   UNL A   1      46.888  27.606  31.680  1.00  0.00     0.065 H 
ATOM    100  C   UNL A   1      44.202  28.935  31.429  1.00  0.00     0.037 A 
ATOM    101  H   UNL A   1      43.522  31.079  29.462  1.00  0.00     0.065 H 
BRANCH  82 102
ATOM    102  C   UNL A   1      46.458  30.837  26.882  1.00  0.00     0.064 A 
ATOM    103  C   UNL A   1      47.664  31.572  26.850  1.00  0.00     0.173 A 
ATOM    104  C   UNL A   1      45.293  31.579  26.594  1.00  0.00     0.173 A 
ATOM    105  F   UNL A   1      48.835  30.977  27.117  1.00  0.00    -0.203 F 
ATOM    106  C   UNL A   1      47.684  32.955  26.648  1.00  0.00     0.198 A 
ATOM    107  C   UNL A   1      45.323  32.950  26.337  1.00  0.00     0.198 A 
ATOM    108  F   UNL A   1      44.069  31.044  26.660  1.00  0.00    -0.203 F 
ATOM    109  F   UNL A   1      48.836  33.629  26.768  1.00  0.00    -0.200 F 
ATOM    110  C   UNL A   1      46.512  33.644  26.401  1.00  0.00     0.200 A 
ATOM    111  F   UNL A   1      44.174  33.603  26.118  1.00  0.00    -0.200 F 
ATOM    112  F   UNL A   1      46.518  34.978  26.277  1.00  0.00    -0.200 F 
ENDBRANCH  82 102
BRANCH  85 113
ATOM    113  C   UNL A   1      38.617  28.819  29.540  1.00  0.00     0.064 A 
ATOM    114  C   UNL A   1      37.799  29.110  30.642  1.00  0.00     0.173 A 
ATOM    115  C   UNL A   1      38.145  29.233  28.279  1.00  0.00     0.173 A 
ATOM    116  F   UNL A   1      38.196  28.783  31.880  1.00  0.00    -0.203 F 
ATOM    117  C   UNL A   1      36.596  29.808  30.497  1.00  0.00     0.198 A 
ATOM    118  C   UNL A   1      36.941  29.924  28.135  1.00  0.00     0.198 A 
ATOM    119  F   UNL A   1      38.889  29.062  27.177  1.00  0.00    -0.203 F 
ATOM    120  F   UNL A   1      35.875  30.130  31.581  1.00  0.00    -0.200 F 
ATOM    121  C   UNL A   1      36.175  30.226  29.245  1.00  0.00     0.200 A 
ATOM    122  F   UNL A   1      36.564  30.354  26.922  1.00  0.00    -0.200 F 
ATOM    123  F   UNL A   1      35.058  30.955  29.114  1.00  0.00    -0.200 F 
ENDBRANCH  85 113
BRANCH 100 124
ATOM    124  C   UNL A   1      44.064  27.954  32.561  1.00  0.00     0.064 A 
ATOM    125  C   UNL A   1      43.977  26.560  32.400  1.00  0.00     0.173 A 
ATOM    126  C   UNL A   1      44.152  28.445  33.870  1.00  0.00     0.173 A 
ATOM    127  F   UNL A   1      43.984  26.002  31.184  1.00  0.00    -0.203 F 
ATOM    128  C   UNL A   1      43.935  25.706  33.501  1.00  0.00     0.198 A 
ATOM    129  C   UNL A   1      44.149  27.588  34.966  1.00  0.00     0.198 A 
ATOM    130  F   UNL A   1      44.289  29.763  34.084  1.00  0.00    -0.203 F 
ATOM    131  F   UNL A   1      43.836  24.381  33.320  1.00  0.00    -0.200 F 
ATOM    132  C   UNL A   1      44.030  26.220  34.783  1.00  0.00     0.200 A 
ATOM    133  F   UNL A   1      44.289  28.089  36.201  1.00  0.00    -0.200 F 
ATOM    134  F   UNL A   1      44.030  25.397  35.841  1.00  0.00    -0.200 F 
ENDBRANCH 100 124
ENDBRANCH  65  68
ENDBRANCH  55  58
ENDBRANCH  51  54
ENDBRANCH  48  51
ENDBRANCH  45  48
ENDBRANCH   1  45
TORSDOF 16
ENDMDL
MODEL 2
REMARK VINA RESULT:     -12.4      1.980      2.808
REMARK SMILES O=C(Cn1cnc(-c2ccccc2)c1-c1ccccc1)NCCCCCCNC(=O)c1ccc(-c2c3nc(c(-c4c(F)c(F)c(F)c(F)c4F)c4ccc([nH]4)c(-c4c(F)c(F)c(F)c(F)c4F)c4nc(c(-c5c(F)c(F)c(F)c(F)c5F)c5ccc2[nH]5)C=C4)C=C3)cc1
REMARK SMILES IDX 24 1 23 4 22 7 21 10 1 11 2 12 3 14 4 17 5 18 14 19 6 20
REMARK SMILES IDX 7 22 15 23 16 24 20 25 17 26 19 28 18 30 8 34 9 35 13 36
REMARK SMILES IDX 10 37 12 39 11 41 25 45 26 48 27 51 28 54 29 55 30 57 31 58
REMARK SMILES IDX 32 59 93 60 33 61 92 63 34 65 35 68 36 69 86 70 37 71 91 72
REMARK SMILES IDX 85 73 87 74 38 75 90 76 84 78 83 80 39 82 71 85 51 86 70 87
REMARK SMILES IDX 52 88 55 89 69 90 88 91 53 92 54 94 68 96 89 97 56 100
REMARK SMILES IDX 40 102 41 103 49 104 42 105 43 106 47 107 50 108 44 109
REMARK SMILES IDX 45 110 48 111 46 112 72 113 73 114 81 115 74 116 75 117
REMARK SMILES IDX 79 118 82 119 76 120 77 121 80 122 78 123 57 124 58 125
REMARK SMILES IDX 66 126 59 127 60 128 64 129 67 130 61 131 62 132 65 133
REMARK SMILES IDX 63 134
REMARK H PARENT 24 2 24 3 23 5 23 6 22 8 22 9 21 13 3 15 3 16 5 21 16 27 20 29
REMARK H PARENT 17 31 19 32 18 33 9 38 13 40 10 42 12 43 11 44 25 46 25 47
REMARK H PARENT 26 49 26 50 27 52 27 53 28 56 32 62 93 64 33 66 92 67 91 77
REMARK H PARENT 85 79 87 81 90 83 84 84 52 93 55 95 88 98 53 99 89 101
REMARK Flexibility Score: inf
ROOT
ATOM      1  C   UNL A   1      36.828  22.336  24.559  1.00  0.00    -0.052 C 
ATOM      2  H   UNL A   1      36.445  23.325  24.413  1.00  0.00     0.027 H 
ATOM      3  H   UNL A   1      37.301  21.909  23.698  1.00  0.00     0.027 H 
ENDROOT
BRANCH   1   4
ATOM      4  C   UNL A   1      35.641  21.417  24.864  1.00  0.00    -0.036 C 
ATOM      5  H   UNL A   1      35.734  20.540  24.257  1.00  0.00     0.028 H 
ATOM      6  H   UNL A   1      35.682  21.211  25.913  1.00  0.00     0.028 H 
BRANCH   4   7
ATOM      7  C   UNL A   1      34.271  22.031  24.602  1.00  0.00     0.017 C 
ATOM      8  H   UNL A   1      33.757  21.427  23.884  1.00  0.00     0.049 H 
ATOM      9  H   UNL A   1      33.752  22.067  25.537  1.00  0.00     0.049 H 
BRANCH   7  10
ATOM     10  N   UNL A   1      34.346  23.390  24.095  1.00  0.00    -0.355 N 
ATOM     11  O   UNL A   1      32.391  24.086  25.063  1.00  0.00    -0.273 OA
ATOM     12  C   UNL A   1      33.427  24.356  24.455  1.00  0.00     0.239 C 
ATOM     13  H   UNL A   1      35.072  23.629  23.475  1.00  0.00     0.163 HD
BRANCH  12  14
ATOM     14  C   UNL A   1      33.713  25.768  23.989  1.00  0.00     0.103 C 
ATOM     15  H   UNL A   1      34.581  25.742  23.365  1.00  0.00     0.060 H 
ATOM     16  H   UNL A   1      33.843  26.353  24.876  1.00  0.00     0.060 H 
BRANCH  14  17
ATOM     17  N   UNL A   1      32.638  26.402  23.242  1.00  0.00    -0.321 N 
ATOM     18  C   UNL A   1      32.214  25.967  22.012  1.00  0.00     0.096 A 
ATOM     19  C   UNL A   1      31.794  27.419  23.643  1.00  0.00     0.076 A 
ATOM     20  N   UNL A   1      31.169  26.637  21.590  1.00  0.00    -0.236 NA
ATOM     21  H   UNL A   1      32.663  25.204  21.482  1.00  0.00     0.104 H 
ATOM     22  C   UNL A   1      30.899  27.542  22.586  1.00  0.00     0.096 A 
BRANCH  19  23
ATOM     23  C   UNL A   1      31.831  28.129  24.920  1.00  0.00     0.000 A 
ATOM     24  C   UNL A   1      32.357  29.424  24.990  1.00  0.00    -0.053 A 
ATOM     25  C   UNL A   1      31.454  27.491  26.105  1.00  0.00    -0.053 A 
ATOM     26  C   UNL A   1      32.475  30.074  26.220  1.00  0.00    -0.062 A 
ATOM     27  H   UNL A   1      32.658  29.902  24.126  1.00  0.00     0.063 H 
ATOM     28  C   UNL A   1      31.545  28.148  27.333  1.00  0.00    -0.062 A 
ATOM     29  H   UNL A   1      31.104  26.521  26.073  1.00  0.00     0.063 H 
ATOM     30  C   UNL A   1      32.059  29.441  27.389  1.00  0.00    -0.062 A 
ATOM     31  H   UNL A   1      32.873  31.026  26.263  1.00  0.00     0.062 H 
ATOM     32  H   UNL A   1      31.234  27.678  28.197  1.00  0.00     0.062 H 
ATOM     33  H   UNL A   1      32.131  29.929  28.296  1.00  0.00     0.062 H 
ENDBRANCH  19  23
BRANCH  22  34
ATOM     34  C   UNL A   1      29.787  28.472  22.538  1.00  0.00     0.002 A 
ATOM     35  C   UNL A   1      28.541  28.096  23.049  1.00  0.00    -0.053 A 
ATOM     36  C   UNL A   1      29.962  29.764  22.028  1.00  0.00    -0.053 A 
ATOM     37  C   UNL A   1      27.491  29.016  23.081  1.00  0.00    -0.062 A 
ATOM     38  H   UNL A   1      28.397  27.138  23.404  1.00  0.00     0.063 H 
ATOM     39  C   UNL A   1      28.910  30.681  22.055  1.00  0.00    -0.062 A 
ATOM     40  H   UNL A   1      30.873  30.040  21.630  1.00  0.00     0.063 H 
ATOM     41  C   UNL A   1      27.677  30.308  22.588  1.00  0.00    -0.062 A 
ATOM     42  H   UNL A   1      26.575  28.740  23.470  1.00  0.00     0.062 H 
ATOM     43  H   UNL A   1      29.044  31.632  21.679  1.00  0.00     0.062 H 
ATOM     44  H   UNL A   1      26.903  30.989  22.618  1.00  0.00     0.062 H 
ENDBRANCH  22  34
ENDBRANCH  14  17
ENDBRANCH  12  14
ENDBRANCH   7  10
ENDBRANCH   4   7
ENDBRANCH   1   4
BRANCH   1  45
ATOM     45  C   UNL A   1      37.928  22.417  25.626  1.00  0.00    -0.052 C 
ATOM     46  H   UNL A   1      37.449  22.537  26.576  1.00  0.00     0.027 H 
ATOM     47  H   UNL A   1      38.547  23.236  25.325  1.00  0.00     0.027 H 
BRANCH  45  48
ATOM     48  C   UNL A   1      38.883  21.219  25.739  1.00  0.00    -0.036 C 
ATOM     49  H   UNL A   1      39.292  21.027  24.768  1.00  0.00     0.028 H 
ATOM     50  H   UNL A   1      38.302  20.406  26.121  1.00  0.00     0.028 H 
BRANCH  48  51
ATOM     51  C   UNL A   1      40.039  21.415  26.710  1.00  0.00     0.018 C 
ATOM     52  H   UNL A   1      40.049  20.595  27.398  1.00  0.00     0.049 H 
ATOM     53  H   UNL A   1      39.885  22.352  27.202  1.00  0.00     0.049 H 
BRANCH  51  54
ATOM     54  N   UNL A   1      41.342  21.481  26.048  1.00  0.00    -0.352 N 
ATOM     55  C   UNL A   1      42.139  22.594  25.837  1.00  0.00     0.251 C 
ATOM     56  H   UNL A   1      41.697  20.628  25.709  1.00  0.00     0.163 HD
ATOM     57  O   UNL A   1      42.998  22.605  24.973  1.00  0.00    -0.269 OA
BRANCH  55  58
ATOM     58  C   UNL A   1      41.924  23.779  26.687  1.00  0.00     0.039 A 
ATOM     59  C   UNL A   1      42.574  23.925  27.916  1.00  0.00    -0.049 A 
ATOM     60  C   UNL A   1      41.081  24.774  26.206  1.00  0.00    -0.049 A 
ATOM     61  C   UNL A   1      42.435  25.125  28.611  1.00  0.00    -0.053 A 
ATOM     62  H   UNL A   1      43.146  23.157  28.303  1.00  0.00     0.063 H 
ATOM     63  C   UNL A   1      41.081  26.008  26.802  1.00  0.00    -0.053 A 
ATOM     64  H   UNL A   1      40.459  24.584  25.405  1.00  0.00     0.063 H 
ATOM     65  C   UNL A   1      41.703  26.175  28.035  1.00  0.00    -0.014 A 
ATOM     66  H   UNL A   1      42.867  25.241  29.541  1.00  0.00     0.063 H 
ATOM     67  H   UNL A   1      40.621  26.807  26.339  1.00  0.00     0.063 H 
BRANCH  65  68
ATOM     68  C   UNL A   1      41.655  27.493  28.662  1.00  0.00     0.031 A 
ATOM     69  C   UNL A   1      42.757  28.421  28.279  1.00  0.00     0.074 A 
ATOM     70  C   UNL A   1      40.572  27.930  29.343  1.00  0.00     0.049 A 
ATOM     71  N   UNL A   1      43.649  28.955  29.046  1.00  0.00    -0.248 NA
ATOM     72  C   UNL A   1      42.950  28.715  26.850  1.00  0.00    -0.034 C 
ATOM     73  C   UNL A   1      39.278  27.256  29.521  1.00  0.00    -0.036 A 
ATOM     74  N   UNL A   1      40.356  29.141  29.928  1.00  0.00    -0.354 N 
ATOM     75  C   UNL A   1      44.407  29.796  28.232  1.00  0.00     0.074 A 
ATOM     76  C   UNL A   1      44.039  29.486  26.876  1.00  0.00    -0.034 C 
ATOM     77  H   UNL A   1      42.390  28.407  26.039  1.00  0.00     0.065 H 
ATOM     78  C   UNL A   1      38.355  28.147  29.942  1.00  0.00    -0.036 A 
ATOM     79  H   UNL A   1      39.103  26.254  29.351  1.00  0.00     0.065 H 
ATOM     80  C   UNL A   1      39.028  29.395  30.244  1.00  0.00     0.049 A 
ATOM     81  H   UNL A   1      41.080  29.783  30.111  1.00  0.00     0.167 HD
ATOM     82  C   UNL A   1      45.102  30.844  28.758  1.00  0.00     0.037 A 
ATOM     83  H   UNL A   1      44.547  29.814  26.040  1.00  0.00     0.065 H 
ATOM     84  H   UNL A   1      37.343  27.969  30.033  1.00  0.00     0.065 H 
ATOM     85  C   UNL A   1      38.507  30.557  30.703  1.00  0.00     0.037 A 
ATOM     86  C   UNL A   1      45.258  30.695  30.182  1.00  0.00     0.049 A 
ATOM     87  C   UNL A   1      39.628  31.348  31.257  1.00  0.00     0.074 A 
ATOM     88  C   UNL A   1      45.870  29.777  31.012  1.00  0.00    -0.036 A 
ATOM     89  N   UNL A   1      44.409  31.416  30.983  1.00  0.00    -0.354 N 
ATOM     90  N   UNL A   1      40.302  31.015  32.323  1.00  0.00    -0.248 NA
ATOM     91  C   UNL A   1      40.276  32.315  30.385  1.00  0.00    -0.034 C 
ATOM     92  C   UNL A   1      45.022  29.689  32.157  1.00  0.00    -0.036 A 
ATOM     93  H   UNL A   1      46.750  29.267  30.842  1.00  0.00     0.065 H 
ATOM     94  C   UNL A   1      43.975  30.596  31.989  1.00  0.00     0.049 A 
ATOM     95  H   UNL A   1      44.157  32.359  30.856  1.00  0.00     0.167 HD
ATOM     96  C   UNL A   1      41.609  31.375  32.036  1.00  0.00     0.074 A 
ATOM     97  C   UNL A   1      41.509  32.280  30.895  1.00  0.00    -0.034 C 
ATOM     98  H   UNL A   1      39.894  32.866  29.600  1.00  0.00     0.065 H 
ATOM     99  H   UNL A   1      45.159  29.063  32.966  1.00  0.00     0.065 H 
ATOM    100  C   UNL A   1      42.654  30.679  32.570  1.00  0.00     0.037 A 
ATOM    101  H   UNL A   1      42.301  32.830  30.525  1.00  0.00     0.065 H 
BRANCH  82 102
ATOM    102  C   UNL A   1      45.289  32.185  28.079  1.00  0.00     0.064 A 
ATOM    103  C   UNL A   1      44.153  32.983  27.818  1.00  0.00     0.173 A 
ATOM    104  C   UNL A   1      46.463  32.568  27.396  1.00  0.00     0.173 A 
ATOM    105  F   UNL A   1      42.977  32.710  28.402  1.00  0.00    -0.203 F 
ATOM    106  C   UNL A   1      44.171  34.012  26.872  1.00  0.00     0.198 A 
ATOM    107  C   UNL A   1      46.490  33.632  26.494  1.00  0.00     0.198 A 
ATOM    108  F   UNL A   1      47.599  31.869  27.478  1.00  0.00    -0.203 F 
ATOM    109  F   UNL A   1      43.033  34.645  26.556  1.00  0.00    -0.200 F 
ATOM    110  C   UNL A   1      45.338  34.329  26.204  1.00  0.00     0.200 A 
ATOM    111  F   UNL A   1      47.628  33.912  25.842  1.00  0.00    -0.200 F 
ATOM    112  F   UNL A   1      45.343  35.267  25.247  1.00  0.00    -0.200 F 
ENDBRANCH  82 102
BRANCH  85 113
ATOM    113  C   UNL A   1      37.171  31.140  30.447  1.00  0.00     0.064 A 
ATOM    114  C   UNL A   1      36.307  31.459  31.506  1.00  0.00     0.173 A 
ATOM    115  C   UNL A   1      36.835  31.662  29.183  1.00  0.00     0.173 A 
ATOM    116  F   UNL A   1      36.579  31.032  32.748  1.00  0.00    -0.203 F 
ATOM    117  C   UNL A   1      35.193  32.282  31.320  1.00  0.00     0.198 A 
ATOM    118  C   UNL A   1      35.719  32.479  28.996  1.00  0.00     0.198 A 
ATOM    119  F   UNL A   1      37.638  31.470  28.125  1.00  0.00    -0.203 F 
ATOM    120  F   UNL A   1      34.430  32.623  32.369  1.00  0.00    -0.200 F 
ATOM    121  C   UNL A   1      34.908  32.802  30.067  1.00  0.00     0.200 A 
ATOM    122  F   UNL A   1      35.475  33.004  27.788  1.00  0.00    -0.200 F 
ATOM    123  F   UNL A   1      33.880  33.648  29.903  1.00  0.00    -0.200 F 
ENDBRANCH  85 113
BRANCH 100 124
ATOM    124  C   UNL A   1      42.360  29.752  33.718  1.00  0.00     0.064 A 
ATOM    125  C   UNL A   1      41.980  28.406  33.576  1.00  0.00     0.173 A 
ATOM    126  C   UNL A   1      42.599  30.219  35.016  1.00  0.00     0.173 A 
ATOM    127  F   UNL A   1      41.825  27.854  32.367  1.00  0.00    -0.203 F 
ATOM    128  C   UNL A   1      41.806  27.583  34.688  1.00  0.00     0.198 A 
ATOM    129  C   UNL A   1      42.461  29.386  36.122  1.00  0.00     0.198 A 
ATOM    130  F   UNL A   1      43.014  31.481  35.209  1.00  0.00    -0.203 F 
ATOM    131  F   UNL A   1      41.428  26.306  34.526  1.00  0.00    -0.200 F 
ATOM    132  C   UNL A   1      42.055  28.071  35.959  1.00  0.00     0.200 A 
ATOM    133  F   UNL A   1      42.750  29.851  37.345  1.00  0.00    -0.200 F 
ATOM    134  F   UNL A   1      41.926  27.270  37.026  1.00  0.00    -0.200 F 
ENDBRANCH 100 124
ENDBRANCH  65  68
ENDBRANCH  55  58
ENDBRANCH  51  54
ENDBRANCH  48  51
ENDBRANCH  45  48
ENDBRANCH   1  45
TORSDOF 16
ENDMDL
MODEL 3
REMARK VINA RESULT:     -12.3      2.419      3.183
REMARK SMILES O=C(Cn1cnc(-c2ccccc2)c1-c1ccccc1)NCCCCCCNC(=O)c1ccc(-c2c3nc(c(-c4c(F)c(F)c(F)c(F)c4F)c4ccc([nH]4)c(-c4c(F)c(F)c(F)c(F)c4F)c4nc(c(-c5c(F)c(F)c(F)c(F)c5F)c5ccc2[nH]5)C=C4)C=C3)cc1
REMARK SMILES IDX 24 1 23 4 22 7 21 10 1 11 2 12 3 14 4 17 5 18 14 19 6 20
REMARK SMILES IDX 7 22 15 23 16 24 20 25 17 26 19 28 18 30 8 34 9 35 13 36
REMARK SMILES IDX 10 37 12 39 11 41 25 45 26 48 27 51 28 54 29 55 30 57 31 58
REMARK SMILES IDX 32 59 93 60 33 61 92 63 34 65 35 68 36 69 86 70 37 71 91 72
REMARK SMILES IDX 85 73 87 74 38 75 90 76 84 78 83 80 39 82 71 85 51 86 70 87
REMARK SMILES IDX 52 88 55 89 69 90 88 91 53 92 54 94 68 96 89 97 56 100
REMARK SMILES IDX 40 102 41 103 49 104 42 105 43 106 47 107 50 108 44 109
REMARK SMILES IDX 45 110 48 111 46 112 72 113 73 114 81 115 74 116 75 117
REMARK SMILES IDX 79 118 82 119 76 120 77 121 80 122 78 123 57 124 58 125
REMARK SMILES IDX 66 126 59 127 60 128 64 129 67 130 61 131 62 132 65 133
REMARK SMILES IDX 63 134
REMARK H PARENT 24 2 24 3 23 5 23 6 22 8 22 9 21 13 3 15 3 16 5 21 16 27 20 29
REMARK H PARENT 17 31 19 32 18 33 9 38 13 40 10 42 12 43 11 44 25 46 25 47
REMARK H PARENT 26 49 26 50 27 52 27 53 28 56 32 62 93 64 33 66 92 67 91 77
REMARK H PARENT 85 79 87 81 90 83 84 84 52 93 55 95 88 98 53 99 89 101
REMARK Flexibility Score: inf
ROOT
ATOM      1  C   UNL A   1      35.958  20.760  24.976  1.00  0.00    -0.052 C 
ATOM      2  H   UNL A   1      35.606  20.531  23.991  1.00  0.00     0.027 H 
ATOM      3  H   UNL A   1      36.144  19.905  25.593  1.00  0.00     0.027 H 
ENDROOT
BRANCH   1   4
ATOM      4  C   UNL A   1      34.854  21.543  25.694  1.00  0.00    -0.036 C 
ATOM      5  H   UNL A   1      34.341  20.870  26.350  1.00  0.00     0.028 H 
ATOM      6  H   UNL A   1      35.340  22.346  26.208  1.00  0.00     0.028 H 
BRANCH   4   7
ATOM      7  C   UNL A   1      33.822  22.185  24.775  1.00  0.00     0.017 C 
ATOM      8  H   UNL A   1      34.047  21.913  23.765  1.00  0.00     0.049 H 
ATOM      9  H   UNL A   1      32.859  21.830  25.079  1.00  0.00     0.049 H 
BRANCH   7  10
ATOM     10  N   UNL A   1      33.801  23.634  24.870  1.00  0.00    -0.355 N 
ATOM     11  O   UNL A   1      34.776  23.995  22.831  1.00  0.00    -0.273 OA
ATOM     12  C   UNL A   1      34.201  24.441  23.824  1.00  0.00     0.239 C 
ATOM     13  H   UNL A   1      33.493  24.053  25.706  1.00  0.00     0.163 HD
BRANCH  12  14
ATOM     14  C   UNL A   1      33.975  25.929  23.992  1.00  0.00     0.103 C 
ATOM     15  H   UNL A   1      34.853  26.437  23.654  1.00  0.00     0.060 H 
ATOM     16  H   UNL A   1      33.766  26.083  25.030  1.00  0.00     0.060 H 
BRANCH  14  17
ATOM     17  N   UNL A   1      32.835  26.467  23.266  1.00  0.00    -0.321 N 
ATOM     18  C   UNL A   1      32.389  25.958  22.072  1.00  0.00     0.096 A 
ATOM     19  C   UNL A   1      31.947  27.448  23.662  1.00  0.00     0.076 A 
ATOM     20  N   UNL A   1      31.290  26.547  21.670  1.00  0.00    -0.236 NA
ATOM     21  H   UNL A   1      32.863  25.201  21.555  1.00  0.00     0.104 H 
ATOM     22  C   UNL A   1      31.005  27.475  22.639  1.00  0.00     0.096 A 
BRANCH  19  23
ATOM     23  C   UNL A   1      31.992  28.211  24.908  1.00  0.00     0.000 A 
ATOM     24  C   UNL A   1      32.649  29.446  24.954  1.00  0.00    -0.053 A 
ATOM     25  C   UNL A   1      31.486  27.674  26.095  1.00  0.00    -0.053 A 
ATOM     26  C   UNL A   1      32.771  30.139  26.160  1.00  0.00    -0.062 A 
ATOM     27  H   UNL A   1      33.046  29.847  24.089  1.00  0.00     0.063 H 
ATOM     28  C   UNL A   1      31.581  28.377  27.297  1.00  0.00    -0.062 A 
ATOM     29  H   UNL A   1      31.035  26.746  26.083  1.00  0.00     0.063 H 
ATOM     30  C   UNL A   1      32.227  29.610  27.329  1.00  0.00    -0.062 A 
ATOM     31  H   UNL A   1      33.265  31.045  26.186  1.00  0.00     0.062 H 
ATOM     32  H   UNL A   1      31.175  27.985  28.160  1.00  0.00     0.062 H 
ATOM     33  H   UNL A   1      32.302  30.131  28.217  1.00  0.00     0.062 H 
ENDBRANCH  19  23
BRANCH  22  34
ATOM     34  C   UNL A   1      29.839  28.335  22.603  1.00  0.00     0.002 A 
ATOM     35  C   UNL A   1      28.627  27.891  23.143  1.00  0.00    -0.053 A 
ATOM     36  C   UNL A   1      29.925  29.628  22.072  1.00  0.00    -0.053 A 
ATOM     37  C   UNL A   1      27.524  28.747  23.185  1.00  0.00    -0.062 A 
ATOM     38  H   UNL A   1      28.548  26.931  23.513  1.00  0.00     0.063 H 
ATOM     39  C   UNL A   1      28.819  30.480  22.109  1.00  0.00    -0.062 A 
ATOM     40  H   UNL A   1      30.809  29.953  21.653  1.00  0.00     0.063 H 
ATOM     41  C   UNL A   1      27.622  30.040  22.672  1.00  0.00    -0.062 A 
ATOM     42  H   UNL A   1      26.634  28.421  23.595  1.00  0.00     0.062 H 
ATOM     43  H   UNL A   1      28.889  31.432  21.719  1.00  0.00     0.062 H 
ATOM     44  H   UNL A   1      26.808  30.674  22.709  1.00  0.00     0.062 H 
ENDBRANCH  22  34
ENDBRANCH  14  17
ENDBRANCH  12  14
ENDBRANCH   7  10
ENDBRANCH   4   7
ENDBRANCH   1   4
BRANCH   1  45
ATOM     45  C   UNL A   1      37.317  21.459  24.834  1.00  0.00    -0.052 C 
ATOM     46  H   UNL A   1      37.630  21.353  23.815  1.00  0.00     0.027 H 
ATOM     47  H   UNL A   1      37.951  20.984  25.553  1.00  0.00     0.027 H 
BRANCH  45  48
ATOM     48  C   UNL A   1      37.374  22.954  25.181  1.00  0.00    -0.036 C 
ATOM     49  H   UNL A   1      36.390  23.268  25.461  1.00  0.00     0.028 H 
ATOM     50  H   UNL A   1      37.744  23.451  24.310  1.00  0.00     0.028 H 
BRANCH  48  51
ATOM     51  C   UNL A   1      38.325  23.309  26.316  1.00  0.00     0.018 C 
ATOM     52  H   UNL A   1      37.843  23.089  27.246  1.00  0.00     0.049 H 
ATOM     53  H   UNL A   1      38.559  24.349  26.221  1.00  0.00     0.049 H 
BRANCH  51  54
ATOM     54  N   UNL A   1      39.588  22.573  26.261  1.00  0.00    -0.352 N 
ATOM     55  C   UNL A   1      40.875  23.083  26.239  1.00  0.00     0.251 C 
ATOM     56  H   UNL A   1      39.514  21.592  26.236  1.00  0.00     0.163 HD
ATOM     57  O   UNL A   1      41.813  22.423  25.826  1.00  0.00    -0.269 OA
BRANCH  55  58
ATOM     58  C   UNL A   1      41.092  24.456  26.732  1.00  0.00     0.039 A 
ATOM     59  C   UNL A   1      40.667  25.570  26.003  1.00  0.00    -0.049 A 
ATOM     60  C   UNL A   1      41.700  24.607  27.973  1.00  0.00    -0.049 A 
ATOM     61  C   UNL A   1      40.779  26.833  26.581  1.00  0.00    -0.053 A 
ATOM     62  H   UNL A   1      40.277  25.459  25.053  1.00  0.00     0.063 H 
ATOM     63  C   UNL A   1      41.654  25.822  28.605  1.00  0.00    -0.053 A 
ATOM     64  H   UNL A   1      42.182  23.809  28.415  1.00  0.00     0.063 H 
ATOM     65  C   UNL A   1      41.254  26.950  27.897  1.00  0.00    -0.014 A 
ATOM     66  H   UNL A   1      40.515  27.675  26.046  1.00  0.00     0.063 H 
ATOM     67  H   UNL A   1      41.916  25.899  29.600  1.00  0.00     0.063 H 
BRANCH  65  68
ATOM     68  C   UNL A   1      41.250  28.237  28.587  1.00  0.00     0.031 A 
ATOM     69  C   UNL A   1      42.363  29.158  28.221  1.00  0.00     0.074 A 
ATOM     70  C   UNL A   1      40.195  28.663  29.316  1.00  0.00     0.049 A 
ATOM     71  N   UNL A   1      43.285  29.636  28.989  1.00  0.00    -0.248 NA
ATOM     72  C   UNL A   1      42.527  29.517  26.803  1.00  0.00    -0.034 C 
ATOM     73  C   UNL A   1      38.891  28.009  29.495  1.00  0.00    -0.036 A 
ATOM     74  N   UNL A   1      40.020  29.849  29.963  1.00  0.00    -0.354 N 
ATOM     75  C   UNL A   1      44.042  30.499  28.197  1.00  0.00     0.074 A 
ATOM     76  C   UNL A   1      43.634  30.262  26.838  1.00  0.00    -0.034 C 
ATOM     77  H   UNL A   1      41.941  29.260  25.993  1.00  0.00     0.065 H 
ATOM     78  C   UNL A   1      37.998  28.898  29.981  1.00  0.00    -0.036 A 
ATOM     79  H   UNL A   1      38.689  27.020  29.282  1.00  0.00     0.065 H 
ATOM     80  C   UNL A   1      38.706  30.115  30.325  1.00  0.00     0.049 A 
ATOM     81  H   UNL A   1      40.763  30.466  30.158  1.00  0.00     0.167 HD
ATOM     82  C   UNL A   1      44.773  31.505  28.754  1.00  0.00     0.037 A 
ATOM     83  H   UNL A   1      44.128  30.620  26.005  1.00  0.00     0.065 H 
ATOM     84  H   UNL A   1      36.985  28.737  30.089  1.00  0.00     0.065 H 
ATOM     85  C   UNL A   1      38.223  31.264  30.852  1.00  0.00     0.037 A 
ATOM     86  C   UNL A   1      44.961  31.284  30.166  1.00  0.00     0.049 A 
ATOM     87  C   UNL A   1      39.375  32.004  31.415  1.00  0.00     0.074 A 
ATOM     88  C   UNL A   1      45.572  30.315  30.935  1.00  0.00    -0.036 A 
ATOM     89  N   UNL A   1      44.148  31.984  31.021  1.00  0.00    -0.354 N 
ATOM     90  N   UNL A   1      40.067  31.606  32.445  1.00  0.00    -0.248 NA
ATOM     91  C   UNL A   1      40.023  32.998  30.574  1.00  0.00    -0.034 C 
ATOM     92  C   UNL A   1      44.751  30.189  32.095  1.00  0.00    -0.036 A 
ATOM     93  H   UNL A   1      46.437  29.795  30.718  1.00  0.00     0.065 H 
ATOM     94  C   UNL A   1      43.720  31.125  31.997  1.00  0.00     0.049 A 
ATOM     95  H   UNL A   1      43.914  32.937  30.946  1.00  0.00     0.167 HD
ATOM     96  C   UNL A   1      41.374  31.951  32.143  1.00  0.00     0.074 A 
ATOM     97  C   UNL A   1      41.267  32.913  31.049  1.00  0.00    -0.034 C 
ATOM     98  H   UNL A   1      39.634  33.594  29.826  1.00  0.00     0.065 H 
ATOM     99  H   UNL A   1      44.893  29.523  32.870  1.00  0.00     0.065 H 
ATOM    100  C   UNL A   1      42.416  31.208  32.616  1.00  0.00     0.037 A 
ATOM    101  H   UNL A   1      42.061  33.463  30.686  1.00  0.00     0.065 H 
BRANCH  82 102
ATOM    102  C   UNL A   1      44.974  32.873  28.136  1.00  0.00     0.064 A 
ATOM    103  C   UNL A   1      46.287  33.306  27.846  1.00  0.00     0.173 A 
ATOM    104  C   UNL A   1      43.990  33.885  28.120  1.00  0.00     0.173 A 
ATOM    105  F   UNL A   1      47.308  32.438  27.842  1.00  0.00    -0.203 F 
ATOM    106  C   UNL A   1      46.598  34.656  27.658  1.00  0.00     0.198 A 
ATOM    107  C   UNL A   1      44.297  35.224  27.877  1.00  0.00     0.198 A 
ATOM    108  F   UNL A   1      42.715  33.648  28.449  1.00  0.00    -0.203 F 
ATOM    109  F   UNL A   1      47.877  35.033  27.528  1.00  0.00    -0.200 F 
ATOM    110  C   UNL A   1      45.603  35.615  27.684  1.00  0.00     0.200 A 
ATOM    111  F   UNL A   1      43.320  36.141  27.924  1.00  0.00    -0.200 F 
ATOM    112  F   UNL A   1      45.906  36.916  27.575  1.00  0.00    -0.200 F 
ENDBRANCH  82 102
BRANCH  85 113
ATOM    113  C   UNL A   1      36.895  31.887  30.659  1.00  0.00     0.064 A 
ATOM    114  C   UNL A   1      35.956  31.924  31.701  1.00  0.00     0.173 A 
ATOM    115  C   UNL A   1      36.632  32.710  29.547  1.00  0.00     0.173 A 
ATOM    116  F   UNL A   1      36.153  31.199  32.811  1.00  0.00    -0.203 F 
ATOM    117  C   UNL A   1      34.838  32.763  31.651  1.00  0.00     0.198 A 
ATOM    118  C   UNL A   1      35.513  33.543  29.495  1.00  0.00     0.198 A 
ATOM    119  F   UNL A   1      37.507  32.795  28.534  1.00  0.00    -0.203 F 
ATOM    120  F   UNL A   1      34.001  32.824  32.696  1.00  0.00    -0.200 F 
ATOM    121  C   UNL A   1      34.626  33.582  30.553  1.00  0.00     0.200 A 
ATOM    122  F   UNL A   1      35.339  34.356  28.443  1.00  0.00    -0.200 F 
ATOM    123  F   UNL A   1      33.593  34.436  30.536  1.00  0.00    -0.200 F 
ENDBRANCH  85 113
BRANCH 100 124
ATOM    124  C   UNL A   1      42.130  30.234  33.725  1.00  0.00     0.064 A 
ATOM    125  C   UNL A   1      41.729  28.901  33.530  1.00  0.00     0.173 A 
ATOM    126  C   UNL A   1      42.399  30.638  35.039  1.00  0.00     0.173 A 
ATOM    127  F   UNL A   1      41.544  28.407  32.299  1.00  0.00    -0.203 F 
ATOM    128  C   UNL A   1      41.563  28.030  34.605  1.00  0.00     0.198 A 
ATOM    129  C   UNL A   1      42.270  29.756  36.108  1.00  0.00     0.198 A 
ATOM    130  F   UNL A   1      42.835  31.884  35.282  1.00  0.00    -0.203 F 
ATOM    131  F   UNL A   1      41.165  26.767  34.393  1.00  0.00    -0.200 F 
ATOM    132  C   UNL A   1      41.842  28.456  35.892  1.00  0.00     0.200 A 
ATOM    133  F   UNL A   1      42.586  30.160  37.345  1.00  0.00    -0.200 F 
ATOM    134  F   UNL A   1      41.721  27.608  36.924  1.00  0.00    -0.200 F 
ENDBRANCH 100 124
ENDBRANCH  65  68
ENDBRANCH  55  58
ENDBRANCH  51  54
ENDBRANCH  48  51
ENDBRANCH  45  48
ENDBRANCH   1  45
TORSDOF 16
ENDMDL
MODEL 4
REMARK VINA RESULT:     -12.2      3.153      8.696
REMARK SMILES O=C(Cn1cnc(-c2ccccc2)c1-c1ccccc1)NCCCCCCNC(=O)c1ccc(-c2c3nc(c(-c4c(F)c(F)c(F)c(F)c4F)c4ccc([nH]4)c(-c4c(F)c(F)c(F)c(F)c4F)c4nc(c(-c5c(F)c(F)c(F)c(F)c5F)c5ccc2[nH]5)C=C4)C=C3)cc1
REMARK SMILES IDX 24 1 23 4 22 7 21 10 1 11 2 12 3 14 4 17 5 18 14 19 6 20
REMARK SMILES IDX 7 22 15 23 16 24 20 25 17 26 19 28 18 30 8 34 9 35 13 36
REMARK SMILES IDX 10 37 12 39 11 41 25 45 26 48 27 51 28 54 29 55 30 57 31 58
REMARK SMILES IDX 32 59 93 60 33 61 92 63 34 65 35 68 36 69 86 70 37 71 91 72
REMARK SMILES IDX 85 73 87 74 38 75 90 76 84 78 83 80 39 82 71 85 51 86 70 87
REMARK SMILES IDX 52 88 55 89 69 90 88 91 53 92 54 94 68 96 89 97 56 100
REMARK SMILES IDX 40 102 41 103 49 104 42 105 43 106 47 107 50 108 44 109
REMARK SMILES IDX 45 110 48 111 46 112 72 113 73 114 81 115 74 116 75 117
REMARK SMILES IDX 79 118 82 119 76 120 77 121 80 122 78 123 57 124 58 125
REMARK SMILES IDX 66 126 59 127 60 128 64 129 67 130 61 131 62 132 65 133
REMARK SMILES IDX 63 134
REMARK H PARENT 24 2 24 3 23 5 23 6 22 8 22 9 21 13 3 15 3 16 5 21 16 27 20 29
REMARK H PARENT 17 31 19 32 18 33 9 38 13 40 10 42 12 43 11 44 25 46 25 47
REMARK H PARENT 26 49 26 50 27 52 27 53 28 56 32 62 93 64 33 66 92 67 91 77
REMARK H PARENT 85 79 87 81 90 83 84 84 52 93 55 95 88 98 53 99 89 101
REMARK Flexibility Score: inf
ROOT
ATOM      1  C   UNL A   1      33.763  28.452  25.979  1.00  0.00    -0.052 C 
ATOM      2  H   UNL A   1      34.149  29.058  25.186  1.00  0.00     0.027 H 
ATOM      3  H   UNL A   1      34.256  27.510  26.102  1.00  0.00     0.027 H 
ENDROOT
BRANCH   1   4
ATOM      4  C   UNL A   1      32.311  28.105  25.635  1.00  0.00    -0.036 C 
ATOM      5  H   UNL A   1      31.842  28.984  25.245  1.00  0.00     0.028 H 
ATOM      6  H   UNL A   1      32.353  27.301  24.930  1.00  0.00     0.028 H 
BRANCH   4   7
ATOM      7  C   UNL A   1      31.476  27.604  26.807  1.00  0.00     0.017 C 
ATOM      8  H   UNL A   1      31.907  27.969  27.715  1.00  0.00     0.049 H 
ATOM      9  H   UNL A   1      30.478  27.964  26.665  1.00  0.00     0.049 H 
BRANCH   7  10
ATOM     10  N   UNL A   1      31.408  26.155  26.877  1.00  0.00    -0.355 N 
ATOM     11  O   UNL A   1      29.701  25.949  25.365  1.00  0.00    -0.273 OA
ATOM     12  C   UNL A   1      30.571  25.422  26.058  1.00  0.00     0.239 C 
ATOM     13  H   UNL A   1      31.974  25.681  27.528  1.00  0.00     0.163 HD
BRANCH  12  14
ATOM     14  C   UNL A   1      30.716  23.916  26.117  1.00  0.00     0.103 C 
ATOM     15  H   UNL A   1      30.428  23.519  25.166  1.00  0.00     0.060 H 
ATOM     16  H   UNL A   1      30.093  23.588  26.922  1.00  0.00     0.060 H 
BRANCH  14  17
ATOM     17  N   UNL A   1      32.055  23.435  26.419  1.00  0.00    -0.321 N 
ATOM     18  C   UNL A   1      32.383  22.796  27.588  1.00  0.00     0.096 A 
ATOM     19  C   UNL A   1      33.166  23.408  25.599  1.00  0.00     0.076 A 
ATOM     20  N   UNL A   1      33.623  22.371  27.582  1.00  0.00    -0.236 NA
ATOM     21  H   UNL A   1      31.731  22.665  28.377  1.00  0.00     0.104 H 
ATOM     22  C   UNL A   1      34.123  22.745  26.360  1.00  0.00     0.096 A 
BRANCH  19  23
ATOM     23  C   UNL A   1      33.250  23.912  24.230  1.00  0.00     0.000 A 
ATOM     24  C   UNL A   1      33.593  25.248  23.992  1.00  0.00    -0.053 A 
ATOM     25  C   UNL A   1      32.879  23.111  23.147  1.00  0.00    -0.053 A 
ATOM     26  C   UNL A   1      33.591  25.759  22.693  1.00  0.00    -0.062 A 
ATOM     27  H   UNL A   1      33.851  25.859  24.784  1.00  0.00     0.063 H 
ATOM     28  C   UNL A   1      32.902  23.611  21.845  1.00  0.00    -0.062 A 
ATOM     29  H   UNL A   1      32.583  22.136  23.312  1.00  0.00     0.063 H 
ATOM     30  C   UNL A   1      33.257  24.938  21.618  1.00  0.00    -0.062 A 
ATOM     31  H   UNL A   1      33.837  26.748  22.528  1.00  0.00     0.062 H 
ATOM     32  H   UNL A   1      32.657  22.999  21.050  1.00  0.00     0.062 H 
ATOM     33  H   UNL A   1      33.272  25.312  20.656  1.00  0.00     0.062 H 
ENDBRANCH  19  23
BRANCH  22  34
ATOM     34  C   UNL A   1      35.471  22.440  25.922  1.00  0.00     0.002 A 
ATOM     35  C   UNL A   1      36.492  23.378  26.102  1.00  0.00    -0.053 A 
ATOM     36  C   UNL A   1      35.772  21.192  25.362  1.00  0.00    -0.053 A 
ATOM     37  C   UNL A   1      37.807  23.056  25.758  1.00  0.00    -0.062 A 
ATOM     38  H   UNL A   1      36.275  24.309  26.491  1.00  0.00     0.063 H 
ATOM     39  C   UNL A   1      37.085  20.874  25.013  1.00  0.00    -0.062 A 
ATOM     40  H   UNL A   1      35.019  20.504  25.207  1.00  0.00     0.063 H 
ATOM     41  C   UNL A   1      38.103  21.804  25.218  1.00  0.00    -0.062 A 
ATOM     42  H   UNL A   1      38.561  23.746  25.903  1.00  0.00     0.062 H 
ATOM     43  H   UNL A   1      37.302  19.953  24.604  1.00  0.00     0.062 H 
ATOM     44  H   UNL A   1      39.076  21.566  24.971  1.00  0.00     0.062 H 
ENDBRANCH  22  34
ENDBRANCH  14  17
ENDBRANCH  12  14
ENDBRANCH   7  10
ENDBRANCH   4   7
ENDBRANCH   1   4
BRANCH   1  45
ATOM     45  C   UNL A   1      33.997  29.205  27.296  1.00  0.00    -0.052 C 
ATOM     46  H   UNL A   1      35.036  29.119  27.538  1.00  0.00     0.027 H 
ATOM     47  H   UNL A   1      33.330  28.749  27.999  1.00  0.00     0.027 H 
BRANCH  45  48
ATOM     48  C   UNL A   1      33.639  30.698  27.320  1.00  0.00    -0.036 C 
ATOM     49  H   UNL A   1      32.889  30.848  28.070  1.00  0.00     0.028 H 
ATOM     50  H   UNL A   1      33.306  30.944  26.335  1.00  0.00     0.028 H 
BRANCH  48  51
ATOM     51  C   UNL A   1      34.805  31.628  27.625  1.00  0.00     0.018 C 
ATOM     52  H   UNL A   1      34.803  32.424  26.909  1.00  0.00     0.049 H 
ATOM     53  H   UNL A   1      35.700  31.043  27.573  1.00  0.00     0.049 H 
BRANCH  51  54
ATOM     54  N   UNL A   1      34.744  32.209  28.966  1.00  0.00    -0.352 N 
ATOM     55  C   UNL A   1      35.437  31.818  30.100  1.00  0.00     0.251 C 
ATOM     56  H   UNL A   1      34.135  32.973  29.077  1.00  0.00     0.163 HD
ATOM     57  O   UNL A   1      35.046  32.114  31.216  1.00  0.00    -0.269 OA
BRANCH  55  58
ATOM     58  C   UNL A   1      36.669  31.027  29.929  1.00  0.00     0.039 A 
ATOM     59  C   UNL A   1      37.904  31.637  29.698  1.00  0.00    -0.049 A 
ATOM     60  C   UNL A   1      36.569  29.645  30.047  1.00  0.00    -0.049 A 
ATOM     61  C   UNL A   1      39.051  30.847  29.680  1.00  0.00    -0.053 A 
ATOM     62  H   UNL A   1      37.966  32.657  29.545  1.00  0.00     0.063 H 
ATOM     63  C   UNL A   1      37.706  28.895  30.196  1.00  0.00    -0.053 A 
ATOM     64  H   UNL A   1      35.645  29.188  30.022  1.00  0.00     0.063 H 
ATOM     65  C   UNL A   1      38.948  29.474  29.954  1.00  0.00    -0.014 A 
ATOM     66  H   UNL A   1      39.970  31.266  29.466  1.00  0.00     0.063 H 
ATOM     67  H   UNL A   1      37.642  27.907  30.486  1.00  0.00     0.063 H 
BRANCH  65  68
ATOM     68  C   UNL A   1      40.139  28.640  30.085  1.00  0.00     0.031 A 
ATOM     69  C   UNL A   1      40.603  28.410  31.483  1.00  0.00     0.074 A 
ATOM     70  C   UNL A   1      40.642  27.929  29.051  1.00  0.00     0.049 A 
ATOM     71  N   UNL A   1      41.736  28.741  32.009  1.00  0.00    -0.248 NA
ATOM     72  C   UNL A   1      39.652  27.825  32.442  1.00  0.00    -0.034 C 
ATOM     73  C   UNL A   1      40.097  27.791  27.693  1.00  0.00    -0.036 A 
ATOM     74  N   UNL A   1      41.699  27.070  29.032  1.00  0.00    -0.354 N 
ATOM     75  C   UNL A   1      41.718  28.248  33.314  1.00  0.00     0.074 A 
ATOM     76  C   UNL A   1      40.361  27.842  33.572  1.00  0.00    -0.034 C 
ATOM     77  H   UNL A   1      38.690  27.489  32.283  1.00  0.00     0.065 H 
ATOM     78  C   UNL A   1      40.669  26.735  27.077  1.00  0.00    -0.036 A 
ATOM     79  H   UNL A   1      39.384  28.409  27.275  1.00  0.00     0.065 H 
ATOM     80  C   UNL A   1      41.746  26.246  27.915  1.00  0.00     0.049 A 
ATOM     81  H   UNL A   1      42.373  27.036  29.750  1.00  0.00     0.167 HD
ATOM     82  C   UNL A   1      42.875  27.998  33.987  1.00  0.00     0.037 A 
ATOM     83  H   UNL A   1      39.989  27.597  34.503  1.00  0.00     0.065 H 
ATOM     84  H   UNL A   1      40.388  26.344  26.166  1.00  0.00     0.065 H 
ATOM     85  C   UNL A   1      42.597  25.216  27.698  1.00  0.00     0.037 A 
ATOM     86  C   UNL A   1      43.989  28.663  33.360  1.00  0.00     0.049 A 
ATOM     87  C   UNL A   1      43.753  25.407  28.603  1.00  0.00     0.074 A 
ATOM     88  C   UNL A   1      44.333  29.975  33.107  1.00  0.00    -0.036 A 
ATOM     89  N   UNL A   1      44.799  27.902  32.556  1.00  0.00    -0.354 N 
ATOM     90  N   UNL A   1      44.613  26.381  28.496  1.00  0.00    -0.248 NA
ATOM     91  C   UNL A   1      43.725  24.738  29.894  1.00  0.00    -0.034 C 
ATOM     92  C   UNL A   1      44.994  29.949  31.842  1.00  0.00    -0.036 A 
ATOM     93  H   UNL A   1      44.153  30.797  33.704  1.00  0.00     0.065 H 
ATOM     94  C   UNL A   1      45.067  28.620  31.422  1.00  0.00     0.049 A 
ATOM     95  H   UNL A   1      45.130  26.997  32.759  1.00  0.00     0.167 HD
ATOM     96  C   UNL A   1      44.908  26.733  29.803  1.00  0.00     0.074 A 
ATOM     97  C   UNL A   1      44.437  25.610  30.610  1.00  0.00    -0.034 C 
ATOM     98  H   UNL A   1      43.283  23.848  30.174  1.00  0.00     0.065 H 
ATOM     99  H   UNL A   1      45.354  30.768  31.328  1.00  0.00     0.065 H 
ATOM    100  C   UNL A   1      45.241  28.018  30.119  1.00  0.00     0.037 A 
ATOM    101  H   UNL A   1      44.632  25.504  31.618  1.00  0.00     0.065 H 
BRANCH  82 102
ATOM    102  C   UNL A   1      43.084  26.850  34.953  1.00  0.00     0.064 A 
ATOM    103  C   UNL A   1      43.265  27.136  36.324  1.00  0.00     0.173 A 
ATOM    104  C   UNL A   1      43.433  25.541  34.560  1.00  0.00     0.173 A 
ATOM    105  F   UNL A   1      42.977  28.350  36.814  1.00  0.00    -0.203 F 
ATOM    106  C   UNL A   1      43.845  26.216  37.203  1.00  0.00     0.198 A 
ATOM    107  C   UNL A   1      43.960  24.607  35.453  1.00  0.00     0.198 A 
ATOM    108  F   UNL A   1      43.391  25.141  33.285  1.00  0.00    -0.203 F 
ATOM    109  F   UNL A   1      44.127  26.583  38.460  1.00  0.00    -0.200 F 
ATOM    110  C   UNL A   1      44.201  24.955  36.764  1.00  0.00     0.200 A 
ATOM    111  F   UNL A   1      44.315  23.396  35.002  1.00  0.00    -0.200 F 
ATOM    112  F   UNL A   1      44.821  24.097  37.584  1.00  0.00    -0.200 F 
ENDBRANCH  82 102
BRANCH  85 113
ATOM    113  C   UNL A   1      42.354  23.949  26.975  1.00  0.00     0.064 A 
ATOM    114  C   UNL A   1      43.267  23.475  26.020  1.00  0.00     0.173 A 
ATOM    115  C   UNL A   1      41.374  23.037  27.413  1.00  0.00     0.173 A 
ATOM    116  F   UNL A   1      44.254  24.270  25.580  1.00  0.00    -0.203 F 
ATOM    117  C   UNL A   1      43.226  22.157  25.557  1.00  0.00     0.198 A 
ATOM    118  C   UNL A   1      41.329  21.723  26.946  1.00  0.00     0.198 A 
ATOM    119  F   UNL A   1      40.502  23.376  28.374  1.00  0.00    -0.203 F 
ATOM    120  F   UNL A   1      44.158  21.720  24.698  1.00  0.00    -0.200 F 
ATOM    121  C   UNL A   1      42.265  21.278  26.032  1.00  0.00     0.200 A 
ATOM    122  F   UNL A   1      40.418  20.873  27.440  1.00  0.00    -0.200 F 
ATOM    123  F   UNL A   1      42.268  19.995  25.641  1.00  0.00    -0.200 F 
ENDBRANCH  85 113
BRANCH 100 124
ATOM    124  C   UNL A   1      45.604  28.941  28.989  1.00  0.00     0.064 A 
ATOM    125  C   UNL A   1      44.684  29.736  28.284  1.00  0.00     0.173 A 
ATOM    126  C   UNL A   1      46.963  29.119  28.698  1.00  0.00     0.173 A 
ATOM    127  F   UNL A   1      43.376  29.697  28.567  1.00  0.00    -0.203 F 
ATOM    128  C   UNL A   1      45.105  30.632  27.303  1.00  0.00     0.198 A 
ATOM    129  C   UNL A   1      47.383  30.042  27.745  1.00  0.00     0.198 A 
ATOM    130  F   UNL A   1      47.891  28.426  29.375  1.00  0.00    -0.203 F 
ATOM    131  F   UNL A   1      44.204  31.368  26.634  1.00  0.00    -0.200 F 
ATOM    132  C   UNL A   1      46.454  30.791  27.041  1.00  0.00     0.200 A 
ATOM    133  F   UNL A   1      48.693  30.225  27.530  1.00  0.00    -0.200 F 
ATOM    134  F   UNL A   1      46.863  31.682  26.126  1.00  0.00    -0.200 F 
ENDBRANCH 100 124
ENDBRANCH  65  68
ENDBRANCH  55  58
ENDBRANCH  51  54
ENDBRANCH  48  51
ENDBRANCH  45  48
ENDBRANCH   1  45
TORSDOF 16
ENDMDL
MODEL 5
REMARK VINA RESULT:     -12.1      1.756      6.415
REMARK SMILES O=C(Cn1cnc(-c2ccccc2)c1-c1ccccc1)NCCCCCCNC(=O)c1ccc(-c2c3nc(c(-c4c(F)c(F)c(F)c(F)c4F)c4ccc([nH]4)c(-c4c(F)c(F)c(F)c(F)c4F)c4nc(c(-c5c(F)c(F)c(F)c(F)c5F)c5ccc2[nH]5)C=C4)C=C3)cc1
REMARK SMILES IDX 24 1 23 4 22 7 21 10 1 11 2 12 3 14 4 17 5 18 14 19 6 20
REMARK SMILES IDX 7 22 15 23 16 24 20 25 17 26 19 28 18 30 8 34 9 35 13 36
REMARK SMILES IDX 10 37 12 39 11 41 25 45 26 48 27 51 28 54 29 55 30 57 31 58
REMARK SMILES IDX 32 59 93 60 33 61 92 63 34 65 35 68 36 69 86 70 37 71 91 72
REMARK SMILES IDX 85 73 87 74 38 75 90 76 84 78 83 80 39 82 71 85 51 86 70 87
REMARK SMILES IDX 52 88 55 89 69 90 88 91 53 92 54 94 68 96 89 97 56 100
REMARK SMILES IDX 40 102 41 103 49 104 42 105 43 106 47 107 50 108 44 109
REMARK SMILES IDX 45 110 48 111 46 112 72 113 73 114 81 115 74 116 75 117
REMARK SMILES IDX 79 118 82 119 76 120 77 121 80 122 78 123 57 124 58 125
REMARK SMILES IDX 66 126 59 127 60 128 64 129 67 130 61 131 62 132 65 133
REMARK SMILES IDX 63 134
REMARK H PARENT 24 2 24 3 23 5 23 6 22 8 22 9 21 13 3 15 3 16 5 21 16 27 20 29
REMARK H PARENT 17 31 19 32 18 33 9 38 13 40 10 42 12 43 11 44 25 46 25 47
REMARK H PARENT 26 49 26 50 27 52 27 53 28 56 32 62 93 64 33 66 92 67 91 77
REMARK H PARENT 85 79 87 81 90 83 84 84 52 93 55 95 88 98 53 99 89 101
REMARK Flexibility Score: inf
ROOT
ATOM      1  C   UNL A   1      36.588  21.386  24.280  1.00  0.00    -0.052 C 
ATOM      2  H   UNL A   1      36.553  20.585  23.571  1.00  0.00     0.027 H 
ATOM      3  H   UNL A   1      35.833  21.343  25.038  1.00  0.00     0.027 H 
ENDROOT
BRANCH   1   4
ATOM      4  C   UNL A   1      36.323  22.690  23.521  1.00  0.00    -0.036 C 
ATOM      5  H   UNL A   1      37.238  22.997  23.058  1.00  0.00     0.028 H 
ATOM      6  H   UNL A   1      35.545  22.477  22.818  1.00  0.00     0.028 H 
BRANCH   4   7
ATOM      7  C   UNL A   1      35.819  23.842  24.382  1.00  0.00     0.017 C 
ATOM      8  H   UNL A   1      36.362  23.845  25.303  1.00  0.00     0.049 H 
ATOM      9  H   UNL A   1      35.970  24.745  23.827  1.00  0.00     0.049 H 
BRANCH   7  10
ATOM     10  N   UNL A   1      34.401  23.749  24.681  1.00  0.00    -0.355 N 
ATOM     11  O   UNL A   1      34.681  23.393  26.925  1.00  0.00    -0.273 OA
ATOM     12  C   UNL A   1      33.934  23.626  25.974  1.00  0.00     0.239 C 
ATOM     13  H   UNL A   1      33.754  23.773  23.940  1.00  0.00     0.163 HD
BRANCH  12  14
ATOM     14  C   UNL A   1      32.433  23.705  26.162  1.00  0.00     0.103 C 
ATOM     15  H   UNL A   1      32.242  24.205  27.088  1.00  0.00     0.060 H 
ATOM     16  H   UNL A   1      32.078  22.696  26.142  1.00  0.00     0.060 H 
BRANCH  14  17
ATOM     17  N   UNL A   1      31.715  24.408  25.112  1.00  0.00    -0.321 N 
ATOM     18  C   UNL A   1      30.950  23.776  24.164  1.00  0.00     0.096 A 
ATOM     19  C   UNL A   1      31.559  25.770  24.939  1.00  0.00     0.076 A 
ATOM     20  N   UNL A   1      30.325  24.630  23.391  1.00  0.00    -0.236 NA
ATOM     21  H   UNL A   1      30.875  22.751  24.072  1.00  0.00     0.104 H 
ATOM     22  C   UNL A   1      30.694  25.868  23.854  1.00  0.00     0.096 A 
BRANCH  19  23
ATOM     23  C   UNL A   1      32.136  26.825  25.769  1.00  0.00     0.000 A 
ATOM     24  C   UNL A   1      33.481  27.182  25.618  1.00  0.00    -0.053 A 
ATOM     25  C   UNL A   1      31.396  27.411  26.799  1.00  0.00    -0.053 A 
ATOM     26  C   UNL A   1      34.062  28.127  26.466  1.00  0.00    -0.062 A 
ATOM     27  H   UNL A   1      34.047  26.743  24.874  1.00  0.00     0.063 H 
ATOM     28  C   UNL A   1      31.966  28.377  27.630  1.00  0.00    -0.062 A 
ATOM     29  H   UNL A   1      30.416  27.127  26.948  1.00  0.00     0.063 H 
ATOM     30  C   UNL A   1      33.302  28.733  27.464  1.00  0.00    -0.062 A 
ATOM     31  H   UNL A   1      35.057  28.378  26.353  1.00  0.00     0.062 H 
ATOM     32  H   UNL A   1      31.400  28.826  28.367  1.00  0.00     0.062 H 
ATOM     33  H   UNL A   1      33.727  29.444  28.079  1.00  0.00     0.062 H 
ENDBRANCH  19  23
BRANCH  22  34
ATOM     34  C   UNL A   1      30.197  27.110  23.294  1.00  0.00     0.002 A 
ATOM     35  C   UNL A   1      28.848  27.449  23.436  1.00  0.00    -0.053 A 
ATOM     36  C   UNL A   1      31.068  27.998  22.650  1.00  0.00    -0.053 A 
ATOM     37  C   UNL A   1      28.384  28.682  22.971  1.00  0.00    -0.062 A 
ATOM     38  H   UNL A   1      28.195  26.790  23.886  1.00  0.00     0.063 H 
ATOM     39  C   UNL A   1      30.601  29.227  22.180  1.00  0.00    -0.062 A 
ATOM     40  H   UNL A   1      32.060  27.744  22.523  1.00  0.00     0.063 H 
ATOM     41  C   UNL A   1      29.260  29.570  22.347  1.00  0.00    -0.062 A 
ATOM     42  H   UNL A   1      27.390  28.935  23.087  1.00  0.00     0.062 H 
ATOM     43  H   UNL A   1      31.246  29.878  21.709  1.00  0.00     0.062 H 
ATOM     44  H   UNL A   1      28.917  30.483  22.010  1.00  0.00     0.062 H 
ENDBRANCH  22  34
ENDBRANCH  14  17
ENDBRANCH  12  14
ENDBRANCH   7  10
ENDBRANCH   4   7
ENDBRANCH   1   4
BRANCH   1  45
ATOM     45  C   UNL A   1      37.922  21.285  25.032  1.00  0.00    -0.052 C 
ATOM     46  H   UNL A   1      37.731  21.503  26.062  1.00  0.00     0.027 H 
ATOM     47  H   UNL A   1      38.572  21.977  24.537  1.00  0.00     0.027 H 
BRANCH  45  48
ATOM     48  C   UNL A   1      38.658  19.939  24.973  1.00  0.00    -0.036 C 
ATOM     49  H   UNL A   1      39.263  19.928  24.089  1.00  0.00     0.028 H 
ATOM     50  H   UNL A   1      37.902  19.183  24.976  1.00  0.00     0.028 H 
BRANCH  48  51
ATOM     51  C   UNL A   1      39.559  19.652  26.166  1.00  0.00     0.018 C 
ATOM     52  H   UNL A   1      39.030  19.020  26.849  1.00  0.00     0.049 H 
ATOM     53  H   UNL A   1      39.814  20.594  26.605  1.00  0.00     0.049 H 
BRANCH  51  54
ATOM     54  N   UNL A   1      40.811  18.992  25.797  1.00  0.00    -0.352 N 
ATOM     55  C   UNL A   1      42.073  19.552  25.685  1.00  0.00     0.251 C 
ATOM     56  H   UNL A   1      40.750  18.029  25.604  1.00  0.00     0.163 HD
ATOM     57  O   UNL A   1      42.948  19.017  25.028  1.00  0.00    -0.269 OA
BRANCH  55  58
ATOM     58  C   UNL A   1      42.338  20.823  26.384  1.00  0.00     0.039 A 
ATOM     59  C   UNL A   1      42.730  21.971  25.690  1.00  0.00    -0.049 A 
ATOM     60  C   UNL A   1      42.146  20.855  27.760  1.00  0.00    -0.049 A 
ATOM     61  C   UNL A   1      42.836  23.173  26.386  1.00  0.00    -0.053 A 
ATOM     62  H   UNL A   1      42.938  21.929  24.679  1.00  0.00     0.063 H 
ATOM     63  C   UNL A   1      42.085  22.061  28.407  1.00  0.00    -0.053 A 
ATOM     64  H   UNL A   1      42.049  19.975  28.290  1.00  0.00     0.063 H 
ATOM     65  C   UNL A   1      42.488  23.216  27.746  1.00  0.00    -0.014 A 
ATOM     66  H   UNL A   1      43.167  24.025  25.907  1.00  0.00     0.063 H 
ATOM     67  H   UNL A   1      41.744  22.112  29.379  1.00  0.00     0.063 H 
BRANCH  65  68
ATOM     68  C   UNL A   1      42.447  24.482  28.473  1.00  0.00     0.031 A 
ATOM     69  C   UNL A   1      41.218  25.298  28.260  1.00  0.00     0.074 A 
ATOM     70  C   UNL A   1      43.331  24.783  29.450  1.00  0.00     0.049 A 
ATOM     71  N   UNL A   1      41.129  26.486  27.759  1.00  0.00    -0.248 NA
ATOM     72  C   UNL A   1      39.915  24.679  28.551  1.00  0.00    -0.034 C 
ATOM     73  C   UNL A   1      44.397  23.936  30.003  1.00  0.00    -0.036 A 
ATOM     74  N   UNL A   1      43.386  25.884  30.250  1.00  0.00    -0.354 N 
ATOM     75  C   UNL A   1      39.783  26.841  27.837  1.00  0.00     0.074 A 
ATOM     76  C   UNL A   1      39.068  25.640  28.178  1.00  0.00    -0.034 C 
ATOM     77  H   UNL A   1      39.709  23.746  28.942  1.00  0.00     0.065 H 
ATOM     78  C   UNL A   1      44.816  24.443  31.182  1.00  0.00    -0.036 A 
ATOM     79  H   UNL A   1      44.768  23.083  29.557  1.00  0.00     0.065 H 
ATOM     80  C   UNL A   1      44.192  25.737  31.370  1.00  0.00     0.049 A 
ATOM     81  H   UNL A   1      42.895  26.714  30.050  1.00  0.00     0.167 HD
ATOM     82  C   UNL A   1      39.400  28.149  27.845  1.00  0.00     0.037 A 
ATOM     83  H   UNL A   1      38.042  25.536  28.140  1.00  0.00     0.065 H 
ATOM     84  H   UNL A   1      45.469  23.986  31.836  1.00  0.00     0.065 H 
ATOM     85  C   UNL A   1      44.326  26.609  32.398  1.00  0.00     0.037 A 
ATOM     86  C   UNL A   1      40.463  28.999  27.374  1.00  0.00     0.049 A 
ATOM     87  C   UNL A   1      43.855  27.927  31.916  1.00  0.00     0.074 A 
ATOM     88  C   UNL A   1      41.161  29.135  26.191  1.00  0.00    -0.036 A 
ATOM     89  N   UNL A   1      41.203  29.658  28.323  1.00  0.00    -0.354 N 
ATOM     90  N   UNL A   1      44.460  28.629  31.000  1.00  0.00    -0.248 NA
ATOM     91  C   UNL A   1      42.468  28.287  32.166  1.00  0.00    -0.034 C 
ATOM     92  C   UNL A   1      42.495  29.461  26.582  1.00  0.00    -0.036 A 
ATOM     93  H   UNL A   1      40.797  29.025  25.232  1.00  0.00     0.065 H 
ATOM     94  C   UNL A   1      42.523  29.563  27.974  1.00  0.00     0.049 A 
ATOM     95  H   UNL A   1      40.847  30.119  29.116  1.00  0.00     0.167 HD
ATOM     96  C   UNL A   1      43.434  29.201  30.264  1.00  0.00     0.074 A 
ATOM     97  C   UNL A   1      42.246  29.061  31.102  1.00  0.00    -0.034 C 
ATOM     98  H   UNL A   1      41.840  28.021  32.940  1.00  0.00     0.065 H 
ATOM     99  H   UNL A   1      43.297  29.597  25.947  1.00  0.00     0.065 H 
ATOM    100  C   UNL A   1      43.598  29.470  28.936  1.00  0.00     0.037 A 
ATOM    101  H   UNL A   1      41.340  29.510  30.895  1.00  0.00     0.065 H 
BRANCH  82 102
ATOM    102  C   UNL A   1      38.239  28.705  28.643  1.00  0.00     0.064 A 
ATOM    103  C   UNL A   1      37.395  29.665  28.042  1.00  0.00     0.173 A 
ATOM    104  C   UNL A   1      38.116  28.589  30.044  1.00  0.00     0.173 A 
ATOM    105  F   UNL A   1      37.429  29.873  26.718  1.00  0.00    -0.203 F 
ATOM    106  C   UNL A   1      36.573  30.506  28.798  1.00  0.00     0.198 A 
ATOM    107  C   UNL A   1      37.253  29.393  30.789  1.00  0.00     0.198 A 
ATOM    108  F   UNL A   1      38.900  27.781  30.767  1.00  0.00    -0.203 F 
ATOM    109  F   UNL A   1      35.899  31.495  28.195  1.00  0.00    -0.200 F 
ATOM    110  C   UNL A   1      36.511  30.376  30.172  1.00  0.00     0.200 A 
ATOM    111  F   UNL A   1      37.221  29.263  32.123  1.00  0.00    -0.200 F 
ATOM    112  F   UNL A   1      35.779  31.225  30.906  1.00  0.00    -0.200 F 
ENDBRANCH  82 102
BRANCH  85 113
ATOM    113  C   UNL A   1      44.567  26.324  33.830  1.00  0.00     0.064 A 
ATOM    114  C   UNL A   1      43.524  25.901  34.668  1.00  0.00     0.173 A 
ATOM    115  C   UNL A   1      45.874  26.183  34.334  1.00  0.00     0.173 A 
ATOM    116  F   UNL A   1      42.252  25.968  34.246  1.00  0.00    -0.203 F 
ATOM    117  C   UNL A   1      43.774  25.335  35.921  1.00  0.00     0.198 A 
ATOM    118  C   UNL A   1      46.123  25.623  35.588  1.00  0.00     0.198 A 
ATOM    119  F   UNL A   1      46.938  26.494  33.579  1.00  0.00    -0.203 F 
ATOM    120  F   UNL A   1      42.756  24.877  36.664  1.00  0.00    -0.200 F 
ATOM    121  C   UNL A   1      45.075  25.184  36.374  1.00  0.00     0.200 A 
ATOM    122  F   UNL A   1      47.388  25.449  35.998  1.00  0.00    -0.200 F 
ATOM    123  F   UNL A   1      45.319  24.577  37.544  1.00  0.00    -0.200 F 
ENDBRANCH  85 113
BRANCH 100 124
ATOM    124  C   UNL A   1      44.998  29.446  28.388  1.00  0.00     0.064 A 
ATOM    125  C   UNL A   1      45.620  28.309  27.844  1.00  0.00     0.173 A 
ATOM    126  C   UNL A   1      45.687  30.662  28.296  1.00  0.00     0.173 A 
ATOM    127  F   UNL A   1      44.992  27.128  27.805  1.00  0.00    -0.203 F 
ATOM    128  C   UNL A   1      46.891  28.382  27.277  1.00  0.00     0.198 A 
ATOM    129  C   UNL A   1      46.940  30.739  27.695  1.00  0.00     0.198 A 
ATOM    130  F   UNL A   1      45.121  31.790  28.751  1.00  0.00    -0.203 F 
ATOM    131  F   UNL A   1      47.470  27.279  26.779  1.00  0.00    -0.200 F 
ATOM    132  C   UNL A   1      47.546  29.599  27.195  1.00  0.00     0.200 A 
ATOM    133  F   UNL A   1      47.547  31.928  27.576  1.00  0.00    -0.200 F 
ATOM    134  F   UNL A   1      48.752  29.678  26.614  1.00  0.00    -0.200 F 
ENDBRANCH 100 124
ENDBRANCH  65  68
ENDBRANCH  55  58
ENDBRANCH  51  54
ENDBRANCH  48  51
ENDBRANCH  45  48
ENDBRANCH   1  45
TORSDOF 16
ENDMDL
MODEL 6
REMARK VINA RESULT:     -12.0      3.079      8.612
REMARK SMILES O=C(Cn1cnc(-c2ccccc2)c1-c1ccccc1)NCCCCCCNC(=O)c1ccc(-c2c3nc(c(-c4c(F)c(F)c(F)c(F)c4F)c4ccc([nH]4)c(-c4c(F)c(F)c(F)c(F)c4F)c4nc(c(-c5c(F)c(F)c(F)c(F)c5F)c5ccc2[nH]5)C=C4)C=C3)cc1
REMARK SMILES IDX 24 1 23 4 22 7 21 10 1 11 2 12 3 14 4 17 5 18 14 19 6 20
REMARK SMILES IDX 7 22 15 23 16 24 20 25 17 26 19 28 18 30 8 34 9 35 13 36
REMARK SMILES IDX 10 37 12 39 11 41 25 45 26 48 27 51 28 54 29 55 30 57 31 58
REMARK SMILES IDX 32 59 93 60 33 61 92 63 34 65 35 68 36 69 86 70 37 71 91 72
REMARK SMILES IDX 85 73 87 74 38 75 90 76 84 78 83 80 39 82 71 85 51 86 70 87
REMARK SMILES IDX 52 88 55 89 69 90 88 91 53 92 54 94 68 96 89 97 56 100
REMARK SMILES IDX 40 102 41 103 49 104 42 105 43 106 47 107 50 108 44 109
REMARK SMILES IDX 45 110 48 111 46 112 72 113 73 114 81 115 74 116 75 117
REMARK SMILES IDX 79 118 82 119 76 120 77 121 80 122 78 123 57 124 58 125
REMARK SMILES IDX 66 126 59 127 60 128 64 129 67 130 61 131 62 132 65 133
REMARK SMILES IDX 63 134
REMARK H PARENT 24 2 24 3 23 5 23 6 22 8 22 9 21 13 3 15 3 16 5 21 16 27 20 29
REMARK H PARENT 17 31 19 32 18 33 9 38 13 40 10 42 12 43 11 44 25 46 25 47
REMARK H PARENT 26 49 26 50 27 52 27 53 28 56 32 62 93 64 33 66 92 67 91 77
REMARK H PARENT 85 79 87 81 90 83 84 84 52 93 55 95 88 98 53 99 89 101
REMARK Flexibility Score: inf
ROOT
ATOM      1  C   UNL A   1      33.974  28.526  26.909  1.00  0.00    -0.052 C 
ATOM      2  H   UNL A   1      34.029  28.353  25.854  1.00  0.00     0.027 H 
ATOM      3  H   UNL A   1      34.376  27.738  27.512  1.00  0.00     0.027 H 
ENDROOT
BRANCH   1   4
ATOM      4  C   UNL A   1      32.492  28.609  27.290  1.00  0.00    -0.036 C 
ATOM      5  H   UNL A   1      32.341  28.018  28.169  1.00  0.00     0.028 H 
ATOM      6  H   UNL A   1      32.278  29.647  27.437  1.00  0.00     0.028 H 
BRANCH   4   7
ATOM      7  C   UNL A   1      31.526  28.120  26.218  1.00  0.00     0.017 C 
ATOM      8  H   UNL A   1      30.650  27.737  26.696  1.00  0.00     0.049 H 
ATOM      9  H   UNL A   1      31.303  28.953  25.584  1.00  0.00     0.049 H 
BRANCH   7  10
ATOM     10  N   UNL A   1      32.090  27.076  25.380  1.00  0.00    -0.355 N 
ATOM     11  O   UNL A   1      31.801  28.205  23.410  1.00  0.00    -0.273 OA
ATOM     12  C   UNL A   1      32.274  27.248  24.023  1.00  0.00     0.239 C 
ATOM     13  H   UNL A   1      32.347  26.220  25.792  1.00  0.00     0.163 HD
BRANCH  12  14
ATOM     14  C   UNL A   1      33.021  26.149  23.296  1.00  0.00     0.103 C 
ATOM     15  H   UNL A   1      34.021  26.124  23.672  1.00  0.00     0.060 H 
ATOM     16  H   UNL A   1      32.963  26.389  22.255  1.00  0.00     0.060 H 
BRANCH  14  17
ATOM     17  N   UNL A   1      32.452  24.818  23.437  1.00  0.00    -0.321 N 
ATOM     18  C   UNL A   1      31.163  24.505  23.088  1.00  0.00     0.096 A 
ATOM     19  C   UNL A   1      33.085  23.646  23.803  1.00  0.00     0.076 A 
ATOM     20  N   UNL A   1      30.920  23.224  23.214  1.00  0.00    -0.236 NA
ATOM     21  H   UNL A   1      30.468  25.196  22.764  1.00  0.00     0.104 H 
ATOM     22  C   UNL A   1      32.097  22.678  23.659  1.00  0.00     0.096 A 
BRANCH  19  23
ATOM     23  C   UNL A   1      34.488  23.497  24.184  1.00  0.00     0.000 A 
ATOM     24  C   UNL A   1      34.926  23.932  25.440  1.00  0.00    -0.053 A 
ATOM     25  C   UNL A   1      35.433  23.028  23.268  1.00  0.00    -0.053 A 
ATOM     26  C   UNL A   1      36.280  23.872  25.778  1.00  0.00    -0.062 A 
ATOM     27  H   UNL A   1      34.243  24.299  26.122  1.00  0.00     0.063 H 
ATOM     28  C   UNL A   1      36.783  22.941  23.611  1.00  0.00    -0.062 A 
ATOM     29  H   UNL A   1      35.129  22.743  22.324  1.00  0.00     0.063 H 
ATOM     30  C   UNL A   1      37.206  23.366  24.868  1.00  0.00    -0.062 A 
ATOM     31  H   UNL A   1      36.595  24.204  26.703  1.00  0.00     0.062 H 
ATOM     32  H   UNL A   1      37.466  22.563  22.937  1.00  0.00     0.062 H 
ATOM     33  H   UNL A   1      38.204  23.306  25.124  1.00  0.00     0.062 H 
ENDBRANCH  19  23
BRANCH  22  34
ATOM     34  C   UNL A   1      32.278  21.260  23.903  1.00  0.00     0.002 A 
ATOM     35  C   UNL A   1      32.189  20.354  22.842  1.00  0.00    -0.053 A 
ATOM     36  C   UNL A   1      32.587  20.792  25.186  1.00  0.00    -0.053 A 
ATOM     37  C   UNL A   1      32.445  18.997  23.056  1.00  0.00    -0.062 A 
ATOM     38  H   UNL A   1      31.937  20.687  21.898  1.00  0.00     0.063 H 
ATOM     39  C   UNL A   1      32.836  19.435  25.400  1.00  0.00    -0.062 A 
ATOM     40  H   UNL A   1      32.632  21.453  25.977  1.00  0.00     0.063 H 
ATOM     41  C   UNL A   1      32.771  18.541  24.334  1.00  0.00    -0.062 A 
ATOM     42  H   UNL A   1      32.391  18.331  22.269  1.00  0.00     0.062 H 
ATOM     43  H   UNL A   1      33.066  19.096  26.347  1.00  0.00     0.062 H 
ATOM     44  H   UNL A   1      32.966  17.539  24.490  1.00  0.00     0.062 H 
ENDBRANCH  22  34
ENDBRANCH  14  17
ENDBRANCH  12  14
ENDBRANCH   7  10
ENDBRANCH   4   7
ENDBRANCH   1   4
BRANCH   1  45
ATOM     45  C   UNL A   1      34.836  29.756  27.224  1.00  0.00    -0.052 C 
ATOM     46  H   UNL A   1      35.461  29.940  26.375  1.00  0.00     0.027 H 
ATOM     47  H   UNL A   1      35.359  29.506  28.124  1.00  0.00     0.027 H 
BRANCH  45  48
ATOM     48  C   UNL A   1      34.098  31.064  27.546  1.00  0.00    -0.036 C 
ATOM     49  H   UNL A   1      33.421  30.874  28.353  1.00  0.00     0.028 H 
ATOM     50  H   UNL A   1      33.607  31.362  26.644  1.00  0.00     0.028 H 
BRANCH  48  51
ATOM     51  C   UNL A   1      35.000  32.223  27.948  1.00  0.00     0.018 C 
ATOM     52  H   UNL A   1      34.748  33.074  27.350  1.00  0.00     0.049 H 
ATOM     53  H   UNL A   1      36.011  31.907  27.793  1.00  0.00     0.049 H 
BRANCH  51  54
ATOM     54  N   UNL A   1      34.871  32.591  29.358  1.00  0.00    -0.352 N 
ATOM     55  C   UNL A   1      35.488  32.010  30.454  1.00  0.00     0.251 C 
ATOM     56  H   UNL A   1      34.271  33.346  29.552  1.00  0.00     0.163 HD
ATOM     57  O   UNL A   1      35.038  32.142  31.578  1.00  0.00    -0.269 OA
BRANCH  55  58
ATOM     58  C   UNL A   1      36.713  31.221  30.230  1.00  0.00     0.039 A 
ATOM     59  C   UNL A   1      37.954  31.835  30.041  1.00  0.00    -0.049 A 
ATOM     60  C   UNL A   1      36.601  29.836  30.254  1.00  0.00    -0.049 A 
ATOM     61  C   UNL A   1      39.094  31.037  29.969  1.00  0.00    -0.053 A 
ATOM     62  H   UNL A   1      38.025  32.862  29.957  1.00  0.00     0.063 H 
ATOM     63  C   UNL A   1      37.730  29.067  30.352  1.00  0.00    -0.053 A 
ATOM     64  H   UNL A   1      35.672  29.390  30.198  1.00  0.00     0.063 H 
ATOM     65  C   UNL A   1      38.977  29.649  30.149  1.00  0.00    -0.014 A 
ATOM     66  H   UNL A   1      40.016  31.461  29.784  1.00  0.00     0.063 H 
ATOM     67  H   UNL A   1      37.657  28.062  30.574  1.00  0.00     0.063 H 
BRANCH  65  68
ATOM     68  C   UNL A   1      40.161  28.797  30.224  1.00  0.00     0.031 A 
ATOM     69  C   UNL A   1      40.666  28.531  31.601  1.00  0.00     0.074 A 
ATOM     70  C   UNL A   1      40.621  28.103  29.160  1.00  0.00     0.049 A 
ATOM     71  N   UNL A   1      41.820  28.836  32.097  1.00  0.00    -0.248 NA
ATOM     72  C   UNL A   1      39.739  27.938  32.578  1.00  0.00    -0.034 C 
ATOM     73  C   UNL A   1      40.030  28.002  27.818  1.00  0.00    -0.036 A 
ATOM     74  N   UNL A   1      41.664  27.231  29.088  1.00  0.00    -0.354 N 
ATOM     75  C   UNL A   1      41.837  28.316  33.391  1.00  0.00     0.074 A 
ATOM     76  C   UNL A   1      40.485  27.921  33.685  1.00  0.00    -0.034 C 
ATOM     77  H   UNL A   1      38.768  27.618  32.443  1.00  0.00     0.065 H 
ATOM     78  C   UNL A   1      40.568  26.952  27.161  1.00  0.00    -0.036 A 
ATOM     79  H   UNL A   1      39.312  28.637  27.436  1.00  0.00     0.065 H 
ATOM     80  C   UNL A   1      41.664  26.431  27.953  1.00  0.00     0.049 A 
ATOM     81  H   UNL A   1      42.360  27.173  29.782  1.00  0.00     0.167 HD
ATOM     82  C   UNL A   1      43.013  28.037  34.021  1.00  0.00     0.037 A 
ATOM     83  H   UNL A   1      40.139  27.662  34.622  1.00  0.00     0.065 H 
ATOM     84  H   UNL A   1      40.252  26.584  26.251  1.00  0.00     0.065 H 
ATOM     85  C   UNL A   1      42.494  25.395  27.687  1.00  0.00     0.037 A 
ATOM     86  C   UNL A   1      44.115  28.700  33.372  1.00  0.00     0.049 A 
ATOM     87  C   UNL A   1      43.681  25.551  28.557  1.00  0.00     0.074 A 
ATOM     88  C   UNL A   1      44.468  30.013  33.136  1.00  0.00    -0.036 A 
ATOM     89  N   UNL A   1      44.888  27.947  32.526  1.00  0.00    -0.354 N 
ATOM     90  N   UNL A   1      44.549  26.516  28.443  1.00  0.00    -0.248 NA
ATOM     91  C   UNL A   1      43.686  24.855  29.834  1.00  0.00    -0.034 C 
ATOM     92  C   UNL A   1      45.087  30.005  31.850  1.00  0.00    -0.036 A 
ATOM     93  H   UNL A   1      44.318  30.824  33.756  1.00  0.00     0.065 H 
ATOM     94  C   UNL A   1      45.129  28.685  31.399  1.00  0.00     0.049 A 
ATOM     95  H   UNL A   1      45.213  27.034  32.699  1.00  0.00     0.167 HD
ATOM     96  C   UNL A   1      44.891  26.835  29.747  1.00  0.00     0.074 A 
ATOM     97  C   UNL A   1      44.432  25.702  30.545  1.00  0.00    -0.034 C 
ATOM     98  H   UNL A   1      43.240  23.965  30.109  1.00  0.00     0.065 H 
ATOM     99  H   UNL A   1      45.441  30.831  31.342  1.00  0.00     0.065 H 
ATOM    100  C   UNL A   1      45.252  28.109  30.079  1.00  0.00     0.037 A 
ATOM    101  H   UNL A   1      44.658  25.572  31.544  1.00  0.00     0.065 H 
BRANCH  82 102
ATOM    102  C   UNL A   1      43.236  26.865  34.955  1.00  0.00     0.064 A 
ATOM    103  C   UNL A   1      43.532  27.121  36.312  1.00  0.00     0.173 A 
ATOM    104  C   UNL A   1      43.493  25.547  34.521  1.00  0.00     0.173 A 
ATOM    105  F   UNL A   1      43.339  28.340  36.836  1.00  0.00    -0.203 F 
ATOM    106  C   UNL A   1      44.130  26.162  37.134  1.00  0.00     0.198 A 
ATOM    107  C   UNL A   1      44.039  24.576  35.361  1.00  0.00     0.198 A 
ATOM    108  F   UNL A   1      43.338  25.170  33.248  1.00  0.00    -0.203 F 
ATOM    109  F   UNL A   1      44.522  26.496  38.371  1.00  0.00    -0.200 F 
ATOM    110  C   UNL A   1      44.392  24.893  36.655  1.00  0.00     0.200 A 
ATOM    111  F   UNL A   1      44.302  23.357  34.872  1.00  0.00    -0.200 F 
ATOM    112  F   UNL A   1      45.029  23.993  37.416  1.00  0.00    -0.200 F 
ENDBRANCH  82 102
BRANCH  85 113
ATOM    113  C   UNL A   1      42.210  24.146  26.945  1.00  0.00     0.064 A 
ATOM    114  C   UNL A   1      43.161  23.591  26.075  1.00  0.00     0.173 A 
ATOM    115  C   UNL A   1      41.122  23.324  27.294  1.00  0.00     0.173 A 
ATOM    116  F   UNL A   1      44.247  24.297  25.725  1.00  0.00    -0.203 F 
ATOM    117  C   UNL A   1      43.051  22.277  25.611  1.00  0.00     0.198 A 
ATOM    118  C   UNL A   1      41.009  22.014  26.826  1.00  0.00     0.198 A 
ATOM    119  F   UNL A   1      40.200  23.742  28.174  1.00  0.00    -0.203 F 
ATOM    120  F   UNL A   1      44.015  21.757  24.838  1.00  0.00    -0.200 F 
ATOM    121  C   UNL A   1      41.982  21.485  25.998  1.00  0.00     0.200 A 
ATOM    122  F   UNL A   1      39.989  21.247  27.237  1.00  0.00    -0.200 F 
ATOM    123  F   UNL A   1      41.912  20.204  25.610  1.00  0.00    -0.200 F 
ENDBRANCH  85 113
BRANCH 100 124
ATOM    124  C   UNL A   1      45.591  29.052  28.957  1.00  0.00     0.064 A 
ATOM    125  C   UNL A   1      46.845  29.118  28.326  1.00  0.00     0.173 A 
ATOM    126  C   UNL A   1      44.558  29.828  28.418  1.00  0.00     0.173 A 
ATOM    127  F   UNL A   1      47.860  28.338  28.718  1.00  0.00    -0.203 F 
ATOM    128  C   UNL A   1      47.063  29.959  27.236  1.00  0.00     0.198 A 
ATOM    129  C   UNL A   1      44.768  30.638  27.305  1.00  0.00     0.198 A 
ATOM    130  F   UNL A   1      43.326  29.767  28.946  1.00  0.00    -0.203 F 
ATOM    131  F   UNL A   1      48.274  30.016  26.661  1.00  0.00    -0.200 F 
ATOM    132  C   UNL A   1      46.021  30.711  26.721  1.00  0.00     0.200 A 
ATOM    133  F   UNL A   1      43.744  31.327  26.783  1.00  0.00    -0.200 F 
ATOM    134  F   UNL A   1      46.218  31.490  25.647  1.00  0.00    -0.200 F 
ENDBRANCH 100 124
ENDBRANCH  65  68
ENDBRANCH  55  58
ENDBRANCH  51  54
ENDBRANCH  48  51
ENDBRANCH  45  48
ENDBRANCH   1  45
TORSDOF 16
ENDMDL
MODEL 7
REMARK VINA RESULT:     -11.9      3.004      8.640
REMARK SMILES O=C(Cn1cnc(-c2ccccc2)c1-c1ccccc1)NCCCCCCNC(=O)c1ccc(-c2c3nc(c(-c4c(F)c(F)c(F)c(F)c4F)c4ccc([nH]4)c(-c4c(F)c(F)c(F)c(F)c4F)c4nc(c(-c5c(F)c(F)c(F)c(F)c5F)c5ccc2[nH]5)C=C4)C=C3)cc1
REMARK SMILES IDX 24 1 23 4 22 7 21 10 1 11 2 12 3 14 4 17 5 18 14 19 6 20
REMARK SMILES IDX 7 22 15 23 16 24 20 25 17 26 19 28 18 30 8 34 9 35 13 36
REMARK SMILES IDX 10 37 12 39 11 41 25 45 26 48 27 51 28 54 29 55 30 57 31 58
REMARK SMILES IDX 32 59 93 60 33 61 92 63 34 65 35 68 36 69 86 70 37 71 91 72
REMARK SMILES IDX 85 73 87 74 38 75 90 76 84 78 83 80 39 82 71 85 51 86 70 87
REMARK SMILES IDX 52 88 55 89 69 90 88 91 53 92 54 94 68 96 89 97 56 100
REMARK SMILES IDX 40 102 41 103 49 104 42 105 43 106 47 107 50 108 44 109
REMARK SMILES IDX 45 110 48 111 46 112 72 113 73 114 81 115 74 116 75 117
REMARK SMILES IDX 79 118 82 119 76 120 77 121 80 122 78 123 57 124 58 125
REMARK SMILES IDX 66 126 59 127 60 128 64 129 67 130 61 131 62 132 65 133
REMARK SMILES IDX 63 134
REMARK H PARENT 24 2 24 3 23 5 23 6 22 8 22 9 21 13 3 15 3 16 5 21 16 27 20 29
REMARK H PARENT 17 31 19 32 18 33 9 38 13 40 10 42 12 43 11 44 25 46 25 47
REMARK H PARENT 26 49 26 50 27 52 27 53 28 56 32 62 93 64 33 66 92 67 91 77
REMARK H PARENT 85 79 87 81 90 83 84 84 52 93 55 95 88 98 53 99 89 101
REMARK Flexibility Score: inf
ROOT
ATOM      1  C   UNL A   1      32.998  29.313  25.425  1.00  0.00    -0.052 C 
ATOM      2  H   UNL A   1      32.884  30.368  25.279  1.00  0.00     0.027 H 
ATOM      3  H   UNL A   1      33.156  28.754  24.526  1.00  0.00     0.027 H 
ENDROOT
BRANCH   1   4
ATOM      4  C   UNL A   1      31.686  28.780  26.007  1.00  0.00    -0.036 C 
ATOM      5  H   UNL A   1      31.844  28.567  27.045  1.00  0.00     0.028 H 
ATOM      6  H   UNL A   1      30.951  29.540  25.840  1.00  0.00     0.028 H 
BRANCH   4   7
ATOM      7  C   UNL A   1      31.155  27.517  25.341  1.00  0.00     0.017 C 
ATOM      8  H   UNL A   1      30.086  27.546  25.355  1.00  0.00     0.049 H 
ATOM      9  H   UNL A   1      31.540  27.496  24.342  1.00  0.00     0.049 H 
BRANCH   7  10
ATOM     10  N   UNL A   1      31.594  26.300  26.000  1.00  0.00    -0.355 N 
ATOM     11  O   UNL A   1      33.032  25.663  24.337  1.00  0.00    -0.273 OA
ATOM     12  C   UNL A   1      32.592  25.504  25.475  1.00  0.00     0.239 C 
ATOM     13  H   UNL A   1      31.166  26.034  26.846  1.00  0.00     0.163 HD
BRANCH  12  14
ATOM     14  C   UNL A   1      33.068  24.356  26.342  1.00  0.00     0.103 C 
ATOM     15  H   UNL A   1      32.750  24.545  27.345  1.00  0.00     0.060 H 
ATOM     16  H   UNL A   1      34.132  24.322  26.231  1.00  0.00     0.060 H 
BRANCH  14  17
ATOM     17  N   UNL A   1      32.579  23.043  25.952  1.00  0.00    -0.321 N 
ATOM     18  C   UNL A   1      31.262  22.670  26.042  1.00  0.00     0.096 A 
ATOM     19  C   UNL A   1      33.266  22.017  25.335  1.00  0.00     0.076 A 
ATOM     20  N   UNL A   1      31.056  21.478  25.537  1.00  0.00    -0.236 NA
ATOM     21  H   UNL A   1      30.521  23.258  26.455  1.00  0.00     0.104 H 
ATOM     22  C   UNL A   1      32.287  21.057  25.099  1.00  0.00     0.096 A 
BRANCH  19  23
ATOM     23  C   UNL A   1      34.682  22.011  24.973  1.00  0.00     0.000 A 
ATOM     24  C   UNL A   1      35.120  22.696  23.834  1.00  0.00    -0.053 A 
ATOM     25  C   UNL A   1      35.600  21.232  25.684  1.00  0.00    -0.053 A 
ATOM     26  C   UNL A   1      36.456  22.623  23.434  1.00  0.00    -0.062 A 
ATOM     27  H   UNL A   1      34.450  23.260  23.287  1.00  0.00     0.063 H 
ATOM     28  C   UNL A   1      36.941  21.179  25.303  1.00  0.00    -0.062 A 
ATOM     29  H   UNL A   1      35.281  20.688  26.501  1.00  0.00     0.063 H 
ATOM     30  C   UNL A   1      37.368  21.875  24.175  1.00  0.00    -0.062 A 
ATOM     31  H   UNL A   1      36.768  23.125  22.587  1.00  0.00     0.062 H 
ATOM     32  H   UNL A   1      37.615  20.626  25.854  1.00  0.00     0.062 H 
ATOM     33  H   UNL A   1      38.359  21.835  23.888  1.00  0.00     0.062 H 
ENDBRANCH  19  23
BRANCH  22  34
ATOM     34  C   UNL A   1      32.507  19.786  24.439  1.00  0.00     0.002 A 
ATOM     35  C   UNL A   1      32.198  19.642  23.082  1.00  0.00    -0.053 A 
ATOM     36  C   UNL A   1      33.071  18.710  25.135  1.00  0.00    -0.053 A 
ATOM     37  C   UNL A   1      32.487  18.445  22.421  1.00  0.00    -0.062 A 
ATOM     38  H   UNL A   1      31.760  20.421  22.567  1.00  0.00     0.063 H 
ATOM     39  C   UNL A   1      33.352  17.512  24.475  1.00  0.00    -0.062 A 
ATOM     40  H   UNL A   1      33.280  18.802  26.141  1.00  0.00     0.063 H 
ATOM     41  C   UNL A   1      33.066  17.384  23.117  1.00  0.00    -0.062 A 
ATOM     42  H   UNL A   1      32.269  18.346  21.417  1.00  0.00     0.062 H 
ATOM     43  H   UNL A   1      33.770  16.724  24.992  1.00  0.00     0.062 H 
ATOM     44  H   UNL A   1      33.284  16.503  22.627  1.00  0.00     0.062 H 
ENDBRANCH  22  34
ENDBRANCH  14  17
ENDBRANCH  12  14
ENDBRANCH   7  10
ENDBRANCH   4   7
ENDBRANCH   1   4
BRANCH   1  45
ATOM     45  C   UNL A   1      34.264  29.094  26.265  1.00  0.00    -0.052 C 
ATOM     46  H   UNL A   1      35.100  29.420  25.681  1.00  0.00     0.027 H 
ATOM     47  H   UNL A   1      34.260  28.052  26.507  1.00  0.00     0.027 H 
BRANCH  45  48
ATOM     48  C   UNL A   1      34.338  29.815  27.619  1.00  0.00    -0.036 C 
ATOM     49  H   UNL A   1      34.798  29.153  28.324  1.00  0.00     0.028 H 
ATOM     50  H   UNL A   1      33.333  30.074  27.877  1.00  0.00     0.028 H 
BRANCH  48  51
ATOM     51  C   UNL A   1      35.128  31.116  27.607  1.00  0.00     0.018 C 
ATOM     52  H   UNL A   1      34.904  31.643  26.703  1.00  0.00     0.049 H 
ATOM     53  H   UNL A   1      36.164  30.859  27.676  1.00  0.00     0.049 H 
BRANCH  51  54
ATOM     54  N   UNL A   1      34.820  31.988  28.740  1.00  0.00    -0.352 N 
ATOM     55  C   UNL A   1      35.288  31.898  30.041  1.00  0.00     0.251 C 
ATOM     56  H   UNL A   1      34.204  32.732  28.556  1.00  0.00     0.163 HD
ATOM     57  O   UNL A   1      34.698  32.427  30.966  1.00  0.00    -0.269 OA
BRANCH  55  58
ATOM     58  C   UNL A   1      36.528  31.139  30.287  1.00  0.00     0.039 A 
ATOM     59  C   UNL A   1      36.501  29.780  30.613  1.00  0.00    -0.049 A 
ATOM     60  C   UNL A   1      37.735  31.813  30.144  1.00  0.00    -0.049 A 
ATOM     61  C   UNL A   1      37.707  29.087  30.701  1.00  0.00    -0.053 A 
ATOM     62  H   UNL A   1      35.604  29.298  30.784  1.00  0.00     0.063 H 
ATOM     63  C   UNL A   1      38.903  31.100  30.065  1.00  0.00    -0.053 A 
ATOM     64  H   UNL A   1      37.752  32.843  30.098  1.00  0.00     0.063 H 
ATOM     65  C   UNL A   1      38.908  29.750  30.402  1.00  0.00    -0.014 A 
ATOM     66  H   UNL A   1      37.718  28.094  30.984  1.00  0.00     0.063 H 
ATOM     67  H   UNL A   1      39.773  31.561  29.758  1.00  0.00     0.063 H 
BRANCH  65  68
ATOM     68  C   UNL A   1      40.174  29.026  30.343  1.00  0.00     0.031 A 
ATOM     69  C   UNL A   1      40.847  28.813  31.656  1.00  0.00     0.074 A 
ATOM     70  C   UNL A   1      40.589  28.384  29.229  1.00  0.00     0.049 A 
ATOM     71  N   UNL A   1      42.009  29.236  32.033  1.00  0.00    -0.248 NA
ATOM     72  C   UNL A   1      40.094  28.126  32.718  1.00  0.00    -0.034 C 
ATOM     73  C   UNL A   1      39.874  28.223  27.955  1.00  0.00    -0.036 A 
ATOM     74  N   UNL A   1      41.704  27.626  29.038  1.00  0.00    -0.354 N 
ATOM     75  C   UNL A   1      42.215  28.719  33.311  1.00  0.00     0.074 A 
ATOM     76  C   UNL A   1      40.949  28.186  33.740  1.00  0.00    -0.034 C 
ATOM     77  H   UNL A   1      39.152  27.706  32.682  1.00  0.00     0.065 H 
ATOM     78  C   UNL A   1      40.446  27.235  27.233  1.00  0.00    -0.036 A 
ATOM     79  H   UNL A   1      39.058  28.781  27.657  1.00  0.00     0.065 H 
ATOM     80  C   UNL A   1      41.667  26.831  27.900  1.00  0.00     0.049 A 
ATOM     81  H   UNL A   1      42.471  27.640  29.655  1.00  0.00     0.167 HD
ATOM     82  C   UNL A   1      43.473  28.564  33.812  1.00  0.00     0.037 A 
ATOM     83  H   UNL A   1      40.733  27.891  34.705  1.00  0.00     0.065 H 
ATOM     84  H   UNL A   1      40.075  26.837  26.357  1.00  0.00     0.065 H 
ATOM     85  C   UNL A   1      42.567  25.887  27.536  1.00  0.00     0.037 A 
ATOM     86  C   UNL A   1      44.426  29.339  33.059  1.00  0.00     0.049 A 
ATOM     87  C   UNL A   1      43.816  26.165  28.280  1.00  0.00     0.074 A 
ATOM     88  C   UNL A   1      44.615  30.682  32.802  1.00  0.00    -0.036 A 
ATOM     89  N   UNL A   1      45.180  28.670  32.128  1.00  0.00    -0.354 N 
ATOM     90  N   UNL A   1      44.564  27.216  28.086  1.00  0.00    -0.248 NA
ATOM     91  C   UNL A   1      44.027  25.472  29.540  1.00  0.00    -0.034 C 
ATOM     92  C   UNL A   1      45.093  30.739  31.459  1.00  0.00    -0.036 A 
ATOM     93  H   UNL A   1      44.448  31.472  33.444  1.00  0.00     0.065 H 
ATOM     94  C   UNL A   1      45.223  29.431  30.991  1.00  0.00     0.049 A 
ATOM     95  H   UNL A   1      45.614  27.796  32.255  1.00  0.00     0.167 HD
ATOM     96  C   UNL A   1      45.006  27.568  29.351  1.00  0.00     0.074 A 
ATOM     97  C   UNL A   1      44.753  26.392  30.180  1.00  0.00    -0.034 C 
ATOM     98  H   UNL A   1      43.708  24.541  29.850  1.00  0.00     0.065 H 
ATOM     99  H   UNL A   1      45.304  31.598  30.926  1.00  0.00     0.065 H 
ATOM    100  C   UNL A   1      45.266  28.872  29.659  1.00  0.00     0.037 A 
ATOM    101  H   UNL A   1      45.095  26.285  31.147  1.00  0.00     0.065 H 
BRANCH  82 102
ATOM    102  C   UNL A   1      43.914  27.421  34.703  1.00  0.00     0.064 A 
ATOM    103  C   UNL A   1      44.545  27.718  35.932  1.00  0.00     0.173 A 
ATOM    104  C   UNL A   1      44.039  26.084  34.270  1.00  0.00     0.173 A 
ATOM    105  F   UNL A   1      44.503  28.958  36.440  1.00  0.00    -0.203 F 
ATOM    106  C   UNL A   1      45.322  26.777  36.613  1.00  0.00     0.198 A 
ATOM    107  C   UNL A   1      44.770  25.132  34.982  1.00  0.00     0.198 A 
ATOM    108  F   UNL A   1      43.564  25.666  33.093  1.00  0.00    -0.203 F 
ATOM    109  F   UNL A   1      46.017  27.146  37.697  1.00  0.00    -0.200 F 
ATOM    110  C   UNL A   1      45.442  25.487  36.132  1.00  0.00     0.200 A 
ATOM    111  F   UNL A   1      44.888  23.892  34.489  1.00  0.00    -0.200 F 
ATOM    112  F   UNL A   1      46.241  24.602  36.742  1.00  0.00    -0.200 F 
ENDBRANCH  82 102
BRANCH  85 113
ATOM    113  C   UNL A   1      42.338  24.616  26.813  1.00  0.00     0.064 A 
ATOM    114  C   UNL A   1      43.161  24.235  25.742  1.00  0.00     0.173 A 
ATOM    115  C   UNL A   1      41.494  23.620  27.342  1.00  0.00     0.173 A 
ATOM    116  F   UNL A   1      44.020  25.115  25.208  1.00  0.00    -0.203 F 
ATOM    117  C   UNL A   1      43.168  22.926  25.253  1.00  0.00     0.198 A 
ATOM    118  C   UNL A   1      41.496  22.315  26.849  1.00  0.00     0.198 A 
ATOM    119  F   UNL A   1      40.723  23.870  28.411  1.00  0.00    -0.203 F 
ATOM    120  F   UNL A   1      44.018  22.582  24.276  1.00  0.00    -0.200 F 
ATOM    121  C   UNL A   1      42.345  21.964  25.816  1.00  0.00     0.200 A 
ATOM    122  F   UNL A   1      40.722  21.385  27.427  1.00  0.00    -0.200 F 
ATOM    123  F   UNL A   1      42.401  20.692  25.394  1.00  0.00    -0.200 F 
ENDBRANCH  85 113
BRANCH 100 124
ATOM    124  C   UNL A   1      45.386  29.845  28.519  1.00  0.00     0.064 A 
ATOM    125  C   UNL A   1      44.306  30.544  27.952  1.00  0.00     0.173 A 
ATOM    126  C   UNL A   1      46.671  30.177  28.071  1.00  0.00     0.173 A 
ATOM    127  F   UNL A   1      43.054  30.357  28.390  1.00  0.00    -0.203 F 
ATOM    128  C   UNL A   1      44.503  31.495  26.953  1.00  0.00     0.198 A 
ATOM    129  C   UNL A   1      46.869  31.154  27.100  1.00  0.00     0.198 A 
ATOM    130  F   UNL A   1      47.744  29.580  28.612  1.00  0.00    -0.203 F 
ATOM    131  F   UNL A   1      43.454  32.137  26.418  1.00  0.00    -0.200 F 
ATOM    132  C   UNL A   1      45.785  31.806  26.534  1.00  0.00     0.200 A 
ATOM    133  F   UNL A   1      48.115  31.483  26.733  1.00  0.00    -0.200 F 
ATOM    134  F   UNL A   1      45.980  32.749  25.601  1.00  0.00    -0.200 F 
ENDBRANCH 100 124
ENDBRANCH  65  68
ENDBRANCH  55  58
ENDBRANCH  51  54
ENDBRANCH  48  51
ENDBRANCH  45  48
ENDBRANCH   1  45
TORSDOF 16
ENDMDL
MODEL 8
REMARK VINA RESULT:     -11.9      3.160      8.028
REMARK SMILES O=C(Cn1cnc(-c2ccccc2)c1-c1ccccc1)NCCCCCCNC(=O)c1ccc(-c2c3nc(c(-c4c(F)c(F)c(F)c(F)c4F)c4ccc([nH]4)c(-c4c(F)c(F)c(F)c(F)c4F)c4nc(c(-c5c(F)c(F)c(F)c(F)c5F)c5ccc2[nH]5)C=C4)C=C3)cc1
REMARK SMILES IDX 24 1 23 4 22 7 21 10 1 11 2 12 3 14 4 17 5 18 14 19 6 20
REMARK SMILES IDX 7 22 15 23 16 24 20 25 17 26 19 28 18 30 8 34 9 35 13 36
REMARK SMILES IDX 10 37 12 39 11 41 25 45 26 48 27 51 28 54 29 55 30 57 31 58
REMARK SMILES IDX 32 59 93 60 33 61 92 63 34 65 35 68 36 69 86 70 37 71 91 72
REMARK SMILES IDX 85 73 87 74 38 75 90 76 84 78 83 80 39 82 71 85 51 86 70 87
REMARK SMILES IDX 52 88 55 89 69 90 88 91 53 92 54 94 68 96 89 97 56 100
REMARK SMILES IDX 40 102 41 103 49 104 42 105 43 106 47 107 50 108 44 109
REMARK SMILES IDX 45 110 48 111 46 112 72 113 73 114 81 115 74 116 75 117
REMARK SMILES IDX 79 118 82 119 76 120 77 121 80 122 78 123 57 124 58 125
REMARK SMILES IDX 66 126 59 127 60 128 64 129 67 130 61 131 62 132 65 133
REMARK SMILES IDX 63 134
REMARK H PARENT 24 2 24 3 23 5 23 6 22 8 22 9 21 13 3 15 3 16 5 21 16 27 20 29
REMARK H PARENT 17 31 19 32 18 33 9 38 13 40 10 42 12 43 11 44 25 46 25 47
REMARK H PARENT 26 49 26 50 27 52 27 53 28 56 32 62 93 64 33 66 92 67 91 77
REMARK H PARENT 85 79 87 81 90 83 84 84 52 93 55 95 88 98 53 99 89 101
REMARK Flexibility Score: inf
ROOT
ATOM      1  C   UNL A   1      31.648  29.226  25.411  1.00  0.00    -0.052 C 
ATOM      2  H   UNL A   1      31.211  28.740  26.259  1.00  0.00     0.027 H 
ATOM      3  H   UNL A   1      31.378  30.256  25.299  1.00  0.00     0.027 H 
ENDROOT
BRANCH   1   4
ATOM      4  C   UNL A   1      31.120  28.531  24.153  1.00  0.00    -0.036 C 
ATOM      5  H   UNL A   1      30.301  29.106  23.773  1.00  0.00     0.028 H 
ATOM      6  H   UNL A   1      31.944  28.471  23.473  1.00  0.00     0.028 H 
BRANCH   4   7
ATOM      7  C   UNL A   1      30.636  27.101  24.365  1.00  0.00     0.017 C 
ATOM      8  H   UNL A   1      29.947  27.092  25.183  1.00  0.00     0.049 H 
ATOM      9  H   UNL A   1      30.177  26.780  23.453  1.00  0.00     0.049 H 
BRANCH   7  10
ATOM     10  N   UNL A   1      31.715  26.175  24.659  1.00  0.00    -0.355 N 
ATOM     11  O   UNL A   1      31.191  25.933  26.874  1.00  0.00    -0.273 OA
ATOM     12  C   UNL A   1      31.848  25.577  25.896  1.00  0.00     0.239 C 
ATOM     13  H   UNL A   1      32.370  25.967  23.955  1.00  0.00     0.163 HD
BRANCH  12  14
ATOM     14  C   UNL A   1      32.915  24.509  26.020  1.00  0.00     0.103 C 
ATOM     15  H   UNL A   1      33.288  24.528  27.022  1.00  0.00     0.060 H 
ATOM     16  H   UNL A   1      33.656  24.742  25.285  1.00  0.00     0.060 H 
BRANCH  14  17
ATOM     17  N   UNL A   1      32.469  23.155  25.730  1.00  0.00    -0.321 N 
ATOM     18  C   UNL A   1      31.158  22.758  25.802  1.00  0.00     0.096 A 
ATOM     19  C   UNL A   1      33.203  22.095  25.233  1.00  0.00     0.076 A 
ATOM     20  N   UNL A   1      30.999  21.521  25.398  1.00  0.00    -0.236 NA
ATOM     21  H   UNL A   1      30.389  23.362  26.133  1.00  0.00     0.104 H 
ATOM     22  C   UNL A   1      32.255  21.095  25.047  1.00  0.00     0.096 A 
BRANCH  19  23
ATOM     23  C   UNL A   1      34.633  22.093  24.928  1.00  0.00     0.000 A 
ATOM     24  C   UNL A   1      35.099  22.666  23.740  1.00  0.00    -0.053 A 
ATOM     25  C   UNL A   1      35.540  21.422  25.753  1.00  0.00    -0.053 A 
ATOM     26  C   UNL A   1      36.452  22.590  23.401  1.00  0.00    -0.062 A 
ATOM     27  H   UNL A   1      34.438  23.148  23.110  1.00  0.00     0.063 H 
ATOM     28  C   UNL A   1      36.896  21.369  25.431  1.00  0.00    -0.062 A 
ATOM     29  H   UNL A   1      35.202  20.960  26.612  1.00  0.00     0.063 H 
ATOM     30  C   UNL A   1      37.352  21.952  24.252  1.00  0.00    -0.062 A 
ATOM     31  H   UNL A   1      36.785  23.008  22.517  1.00  0.00     0.062 H 
ATOM     32  H   UNL A   1      37.561  20.898  26.064  1.00  0.00     0.062 H 
ATOM     33  H   UNL A   1      38.354  21.912  24.009  1.00  0.00     0.062 H 
ENDBRANCH  19  23
BRANCH  22  34
ATOM     34  C   UNL A   1      32.529  19.776  24.510  1.00  0.00     0.002 A 
ATOM     35  C   UNL A   1      32.938  18.747  25.365  1.00  0.00    -0.053 A 
ATOM     36  C   UNL A   1      32.343  19.509  23.148  1.00  0.00    -0.053 A 
ATOM     37  C   UNL A   1      33.122  17.455  24.866  1.00  0.00    -0.062 A 
ATOM     38  H   UNL A   1      33.101  18.941  26.365  1.00  0.00     0.063 H 
ATOM     39  C   UNL A   1      32.534  18.219  22.651  1.00  0.00    -0.062 A 
ATOM     40  H   UNL A   1      32.062  20.269  22.510  1.00  0.00     0.063 H 
ATOM     41  C   UNL A   1      32.916  17.192  23.512  1.00  0.00    -0.062 A 
ATOM     42  H   UNL A   1      33.412  16.694  25.501  1.00  0.00     0.062 H 
ATOM     43  H   UNL A   1      32.393  18.027  21.647  1.00  0.00     0.062 H 
ATOM     44  H   UNL A   1      33.047  16.236  23.146  1.00  0.00     0.062 H 
ENDBRANCH  22  34
ENDBRANCH  14  17
ENDBRANCH  12  14
ENDBRANCH   7  10
ENDBRANCH   4   7
ENDBRANCH   1   4
BRANCH   1  45
ATOM     45  C   UNL A   1      33.170  29.227  25.610  1.00  0.00    -0.052 C 
ATOM     46  H   UNL A   1      33.496  30.247  25.608  1.00  0.00     0.027 H 
ATOM     47  H   UNL A   1      33.555  28.628  24.811  1.00  0.00     0.027 H 
BRANCH  45  48
ATOM     48  C   UNL A   1      33.709  28.574  26.891  1.00  0.00    -0.036 C 
ATOM     49  H   UNL A   1      33.667  27.511  26.765  1.00  0.00     0.028 H 
ATOM     50  H   UNL A   1      33.095  28.928  27.691  1.00  0.00     0.028 H 
BRANCH  48  51
ATOM     51  C   UNL A   1      35.140  28.952  27.247  1.00  0.00     0.018 C 
ATOM     52  H   UNL A   1      35.594  29.410  26.393  1.00  0.00     0.049 H 
ATOM     53  H   UNL A   1      35.643  28.054  27.536  1.00  0.00     0.049 H 
BRANCH  51  54
ATOM     54  N   UNL A   1      35.227  29.881  28.374  1.00  0.00    -0.352 N 
ATOM     55  C   UNL A   1      36.204  29.949  29.353  1.00  0.00     0.251 C 
ATOM     56  H   UNL A   1      34.500  30.540  28.446  1.00  0.00     0.163 HD
ATOM     57  O   UNL A   1      35.993  30.492  30.423  1.00  0.00    -0.269 OA
BRANCH  55  58
ATOM     58  C   UNL A   1      37.519  29.344  29.072  1.00  0.00     0.039 A 
ATOM     59  C   UNL A   1      38.265  29.705  27.947  1.00  0.00    -0.049 A 
ATOM     60  C   UNL A   1      38.015  28.426  29.990  1.00  0.00    -0.049 A 
ATOM     61  C   UNL A   1      39.556  29.201  27.807  1.00  0.00    -0.053 A 
ATOM     62  H   UNL A   1      37.867  30.336  27.233  1.00  0.00     0.063 H 
ATOM     63  C   UNL A   1      39.336  28.066  29.941  1.00  0.00    -0.053 A 
ATOM     64  H   UNL A   1      37.392  28.019  30.705  1.00  0.00     0.063 H 
ATOM     65  C   UNL A   1      40.097  28.396  28.823  1.00  0.00    -0.014 A 
ATOM     66  H   UNL A   1      40.111  29.415  26.964  1.00  0.00     0.063 H 
ATOM     67  H   UNL A   1      39.764  27.552  30.726  1.00  0.00     0.063 H 
BRANCH  65  68
ATOM     68  C   UNL A   1      41.491  27.967  28.783  1.00  0.00     0.031 A 
ATOM     69  C   UNL A   1      41.743  26.690  28.057  1.00  0.00     0.074 A 
ATOM     70  C   UNL A   1      42.508  28.776  29.156  1.00  0.00     0.049 A 
ATOM     71  N   UNL A   1      42.238  25.592  28.527  1.00  0.00    -0.248 NA
ATOM     72  C   UNL A   1      41.300  26.589  26.658  1.00  0.00    -0.034 C 
ATOM     73  C   UNL A   1      42.441  30.182  29.578  1.00  0.00    -0.036 A 
ATOM     74  N   UNL A   1      43.849  28.543  29.121  1.00  0.00    -0.354 N 
ATOM     75  C   UNL A   1      42.340  24.717  27.446  1.00  0.00     0.074 A 
ATOM     76  C   UNL A   1      41.604  25.322  26.367  1.00  0.00    -0.034 C 
ATOM     77  H   UNL A   1      40.868  27.309  26.057  1.00  0.00     0.065 H 
ATOM     78  C   UNL A   1      43.672  30.735  29.518  1.00  0.00    -0.036 A 
ATOM     79  H   UNL A   1      41.583  30.672  29.875  1.00  0.00     0.065 H 
ATOM     80  C   UNL A   1      44.632  29.684  29.244  1.00  0.00     0.049 A 
ATOM     81  H   UNL A   1      44.232  27.642  29.016  1.00  0.00     0.167 HD
ATOM     82  C   UNL A   1      43.222  23.680  27.462  1.00  0.00     0.037 A 
ATOM     83  H   UNL A   1      41.347  24.843  25.490  1.00  0.00     0.065 H 
ATOM     84  H   UNL A   1      43.891  31.734  29.647  1.00  0.00     0.065 H 
ATOM     85  C   UNL A   1      45.976  29.769  29.108  1.00  0.00     0.037 A 
ATOM     86  C   UNL A   1      43.672  23.407  28.803  1.00  0.00     0.049 A 
ATOM     87  C   UNL A   1      46.519  28.402  29.280  1.00  0.00     0.074 A 
ATOM     88  C   UNL A   1      43.068  23.008  29.978  1.00  0.00    -0.036 A 
ATOM     89  N   UNL A   1      44.903  23.894  29.161  1.00  0.00    -0.354 N 
ATOM     90  N   UNL A   1      46.488  27.739  30.402  1.00  0.00    -0.248 NA
ATOM     91  C   UNL A   1      46.736  27.601  28.086  1.00  0.00    -0.034 C 
ATOM     92  C   UNL A   1      43.771  23.699  31.010  1.00  0.00    -0.036 A 
ATOM     93  H   UNL A   1      42.280  22.351  30.087  1.00  0.00     0.065 H 
ATOM     94  C   UNL A   1      44.798  24.434  30.415  1.00  0.00     0.049 A 
ATOM     95  H   UNL A   1      45.719  23.862  28.613  1.00  0.00     0.167 HD
ATOM     96  C   UNL A   1      46.239  26.428  30.026  1.00  0.00     0.074 A 
ATOM     97  C   UNL A   1      46.530  26.384  28.596  1.00  0.00    -0.034 C 
ATOM     98  H   UNL A   1      46.977  27.889  27.125  1.00  0.00     0.065 H 
ATOM     99  H   UNL A   1      43.558  23.663  32.019  1.00  0.00     0.065 H 
ATOM    100  C   UNL A   1      45.551  25.588  30.852  1.00  0.00     0.037 A 
ATOM    101  H   UNL A   1      46.571  25.514  28.043  1.00  0.00     0.065 H 
BRANCH  82 102
ATOM    102  C   UNL A   1      43.988  23.177  26.255  1.00  0.00     0.064 A 
ATOM    103  C   UNL A   1      43.930  21.803  25.934  1.00  0.00     0.173 A 
ATOM    104  C   UNL A   1      45.013  23.903  25.611  1.00  0.00     0.173 A 
ATOM    105  F   UNL A   1      43.006  21.008  26.491  1.00  0.00    -0.203 F 
ATOM    106  C   UNL A   1      44.885  21.192  25.116  1.00  0.00     0.198 A 
ATOM    107  C   UNL A   1      45.930  23.299  24.751  1.00  0.00     0.198 A 
ATOM    108  F   UNL A   1      45.245  25.194  25.869  1.00  0.00    -0.203 F 
ATOM    109  F   UNL A   1      44.872  19.861  24.955  1.00  0.00    -0.200 F 
ATOM    110  C   UNL A   1      45.890  21.939  24.532  1.00  0.00     0.200 A 
ATOM    111  F   UNL A   1      46.908  24.039  24.210  1.00  0.00    -0.200 F 
ATOM    112  F   UNL A   1      46.847  21.347  23.806  1.00  0.00    -0.200 F 
ENDBRANCH  82 102
BRANCH  85 113
ATOM    113  C   UNL A   1      46.786  30.885  28.572  1.00  0.00     0.064 A 
ATOM    114  C   UNL A   1      46.469  31.482  27.342  1.00  0.00     0.173 A 
ATOM    115  C   UNL A   1      47.704  31.575  29.387  1.00  0.00     0.173 A 
ATOM    116  F   UNL A   1      45.573  30.906  26.526  1.00  0.00    -0.203 F 
ATOM    117  C   UNL A   1      47.009  32.714  26.965  1.00  0.00     0.198 A 
ATOM    118  C   UNL A   1      48.248  32.803  29.007  1.00  0.00     0.198 A 
ATOM    119  F   UNL A   1      48.015  31.118  30.609  1.00  0.00    -0.203 F 
ATOM    120  F   UNL A   1      46.628  33.288  25.814  1.00  0.00    -0.200 F 
ATOM    121  C   UNL A   1      47.887  33.380  27.805  1.00  0.00     0.200 A 
ATOM    122  F   UNL A   1      49.068  33.453  29.845  1.00  0.00    -0.200 F 
ATOM    123  F   UNL A   1      48.351  34.594  27.475  1.00  0.00    -0.200 F 
ENDBRANCH  85 113
BRANCH 100 124
ATOM    124  C   UNL A   1      45.374  26.010  32.284  1.00  0.00     0.064 A 
ATOM    125  C   UNL A   1      44.265  26.723  32.772  1.00  0.00     0.173 A 
ATOM    126  C   UNL A   1      46.309  25.556  33.223  1.00  0.00     0.173 A 
ATOM    127  F   UNL A   1      43.277  27.110  31.956  1.00  0.00    -0.203 F 
ATOM    128  C   UNL A   1      44.128  27.007  34.130  1.00  0.00     0.198 A 
ATOM    129  C   UNL A   1      46.151  25.807  34.582  1.00  0.00     0.198 A 
ATOM    130  F   UNL A   1      47.361  24.825  32.822  1.00  0.00    -0.203 F 
ATOM    131  F   UNL A   1      43.068  27.703  34.568  1.00  0.00    -0.200 F 
ATOM    132  C   UNL A   1      45.066  26.541  35.035  1.00  0.00     0.200 A 
ATOM    133  F   UNL A   1      47.037  25.313  35.457  1.00  0.00    -0.200 F 
ATOM    134  F   UNL A   1      44.915  26.778  36.346  1.00  0.00    -0.200 F 
ENDBRANCH 100 124
ENDBRANCH  65  68
ENDBRANCH  55  58
ENDBRANCH  51  54
ENDBRANCH  48  51
ENDBRANCH  45  48
ENDBRANCH   1  45
TORSDOF 16
ENDMDL
MODEL 9
REMARK VINA RESULT:     -11.8      3.124      8.631
REMARK SMILES O=C(Cn1cnc(-c2ccccc2)c1-c1ccccc1)NCCCCCCNC(=O)c1ccc(-c2c3nc(c(-c4c(F)c(F)c(F)c(F)c4F)c4ccc([nH]4)c(-c4c(F)c(F)c(F)c(F)c4F)c4nc(c(-c5c(F)c(F)c(F)c(F)c5F)c5ccc2[nH]5)C=C4)C=C3)cc1
REMARK SMILES IDX 24 1 23 4 22 7 21 10 1 11 2 12 3 14 4 17 5 18 14 19 6 20
REMARK SMILES IDX 7 22 15 23 16 24 20 25 17 26 19 28 18 30 8 34 9 35 13 36
REMARK SMILES IDX 10 37 12 39 11 41 25 45 26 48 27 51 28 54 29 55 30 57 31 58
REMARK SMILES IDX 32 59 93 60 33 61 92 63 34 65 35 68 36 69 86 70 37 71 91 72
REMARK SMILES IDX 85 73 87 74 38 75 90 76 84 78 83 80 39 82 71 85 51 86 70 87
REMARK SMILES IDX 52 88 55 89 69 90 88 91 53 92 54 94 68 96 89 97 56 100
REMARK SMILES IDX 40 102 41 103 49 104 42 105 43 106 47 107 50 108 44 109
REMARK SMILES IDX 45 110 48 111 46 112 72 113 73 114 81 115 74 116 75 117
REMARK SMILES IDX 79 118 82 119 76 120 77 121 80 122 78 123 57 124 58 125
REMARK SMILES IDX 66 126 59 127 60 128 64 129 67 130 61 131 62 132 65 133
REMARK SMILES IDX 63 134
REMARK H PARENT 24 2 24 3 23 5 23 6 22 8 22 9 21 13 3 15 3 16 5 21 16 27 20 29
REMARK H PARENT 17 31 19 32 18 33 9 38 13 40 10 42 12 43 11 44 25 46 25 47
REMARK H PARENT 26 49 26 50 27 52 27 53 28 56 32 62 93 64 33 66 92 67 91 77
REMARK H PARENT 85 79 87 81 90 83 84 84 52 93 55 95 88 98 53 99 89 101
REMARK Flexibility Score: inf
ROOT
ATOM      1  C   UNL A   1      32.011  28.789  26.438  1.00  0.00    -0.052 C 
ATOM      2  H   UNL A   1      32.170  27.999  25.733  1.00  0.00     0.027 H 
ATOM      3  H   UNL A   1      31.301  28.565  27.207  1.00  0.00     0.027 H 
ENDROOT
BRANCH   1   4
ATOM      4  C   UNL A   1      31.418  29.979  25.676  1.00  0.00    -0.036 C 
ATOM      5  H   UNL A   1      30.567  30.333  26.221  1.00  0.00     0.028 H 
ATOM      6  H   UNL A   1      32.200  30.705  25.596  1.00  0.00     0.028 H 
BRANCH   4   7
ATOM      7  C   UNL A   1      30.972  29.670  24.252  1.00  0.00     0.017 C 
ATOM      8  H   UNL A   1      29.999  30.087  24.100  1.00  0.00     0.049 H 
ATOM      9  H   UNL A   1      31.697  30.098  23.590  1.00  0.00     0.049 H 
BRANCH   7  10
ATOM     10  N   UNL A   1      30.915  28.247  23.971  1.00  0.00    -0.355 N 
ATOM     11  O   UNL A   1      29.943  28.476  21.911  1.00  0.00    -0.273 OA
ATOM     12  C   UNL A   1      30.484  27.759  22.753  1.00  0.00     0.239 C 
ATOM     13  H   UNL A   1      31.191  27.611  24.669  1.00  0.00     0.163 HD
BRANCH  12  14
ATOM     14  C   UNL A   1      30.628  26.268  22.531  1.00  0.00     0.103 C 
ATOM     15  H   UNL A   1      30.221  26.036  21.570  1.00  0.00     0.060 H 
ATOM     16  H   UNL A   1      30.109  25.796  23.339  1.00  0.00     0.060 H 
BRANCH  14  17
ATOM     17  N   UNL A   1      31.992  25.766  22.578  1.00  0.00    -0.321 N 
ATOM     18  C   UNL A   1      32.985  26.193  21.733  1.00  0.00     0.096 A 
ATOM     19  C   UNL A   1      32.563  24.911  23.500  1.00  0.00     0.076 A 
ATOM     20  N   UNL A   1      34.146  25.667  22.038  1.00  0.00    -0.236 NA
ATOM     21  H   UNL A   1      32.835  26.850  20.951  1.00  0.00     0.104 H 
ATOM     22  C   UNL A   1      33.903  24.868  23.126  1.00  0.00     0.096 A 
BRANCH  19  23
ATOM     23  C   UNL A   1      31.890  24.273  24.630  1.00  0.00     0.000 A 
ATOM     24  C   UNL A   1      31.717  24.971  25.830  1.00  0.00    -0.053 A 
ATOM     25  C   UNL A   1      31.515  22.928  24.573  1.00  0.00    -0.053 A 
ATOM     26  C   UNL A   1      31.153  24.339  26.941  1.00  0.00    -0.062 A 
ATOM     27  H   UNL A   1      32.007  25.960  25.895  1.00  0.00     0.063 H 
ATOM     28  C   UNL A   1      30.927  22.301  25.672  1.00  0.00    -0.062 A 
ATOM     29  H   UNL A   1      31.676  22.390  23.707  1.00  0.00     0.063 H 
ATOM     30  C   UNL A   1      30.748  23.008  26.858  1.00  0.00    -0.062 A 
ATOM     31  H   UNL A   1      31.037  24.859  27.825  1.00  0.00     0.062 H 
ATOM     32  H   UNL A   1      30.625  21.317  25.608  1.00  0.00     0.062 H 
ATOM     33  H   UNL A   1      30.315  22.547  27.674  1.00  0.00     0.062 H 
ENDBRANCH  19  23
BRANCH  22  34
ATOM     34  C   UNL A   1      34.935  24.116  23.811  1.00  0.00     0.002 A 
ATOM     35  C   UNL A   1      35.599  23.079  23.148  1.00  0.00    -0.053 A 
ATOM     36  C   UNL A   1      35.310  24.449  25.119  1.00  0.00    -0.053 A 
ATOM     37  C   UNL A   1      36.651  22.407  23.775  1.00  0.00    -0.062 A 
ATOM     38  H   UNL A   1      35.312  22.810  22.194  1.00  0.00     0.063 H 
ATOM     39  C   UNL A   1      36.358  23.772  25.746  1.00  0.00    -0.062 A 
ATOM     40  H   UNL A   1      34.810  25.199  25.621  1.00  0.00     0.063 H 
ATOM     41  C   UNL A   1      37.031  22.756  25.070  1.00  0.00    -0.062 A 
ATOM     42  H   UNL A   1      37.147  21.649  23.279  1.00  0.00     0.062 H 
ATOM     43  H   UNL A   1      36.631  24.023  26.708  1.00  0.00     0.062 H 
ATOM     44  H   UNL A   1      37.813  22.263  25.530  1.00  0.00     0.062 H 
ENDBRANCH  22  34
ENDBRANCH  14  17
ENDBRANCH  12  14
ENDBRANCH   7  10
ENDBRANCH   4   7
ENDBRANCH   1   4
BRANCH   1  45
ATOM     45  C   UNL A   1      33.337  29.033  27.171  1.00  0.00    -0.052 C 
ATOM     46  H   UNL A   1      34.064  28.365  26.755  1.00  0.00     0.027 H 
ATOM     47  H   UNL A   1      33.116  28.873  28.206  1.00  0.00     0.027 H 
BRANCH  45  48
ATOM     48  C   UNL A   1      33.923  30.450  27.104  1.00  0.00    -0.036 C 
ATOM     49  H   UNL A   1      33.162  31.139  27.410  1.00  0.00     0.028 H 
ATOM     50  H   UNL A   1      34.244  30.597  26.095  1.00  0.00     0.028 H 
BRANCH  48  51
ATOM     51  C   UNL A   1      35.147  30.677  27.981  1.00  0.00     0.018 C 
ATOM     52  H   UNL A   1      35.939  31.056  27.370  1.00  0.00     0.049 H 
ATOM     53  H   UNL A   1      35.397  29.736  28.426  1.00  0.00     0.049 H 
BRANCH  51  54
ATOM     54  N   UNL A   1      34.907  31.621  29.072  1.00  0.00    -0.352 N 
ATOM     55  C   UNL A   1      35.450  31.614  30.346  1.00  0.00     0.251 C 
ATOM     56  H   UNL A   1      34.281  32.355  28.876  1.00  0.00     0.163 HD
ATOM     57  O   UNL A   1      34.916  32.205  31.267  1.00  0.00    -0.269 OA
BRANCH  55  58
ATOM     58  C   UNL A   1      36.702  30.866  30.568  1.00  0.00     0.039 A 
ATOM     59  C   UNL A   1      36.701  29.484  30.773  1.00  0.00    -0.049 A 
ATOM     60  C   UNL A   1      37.894  31.579  30.526  1.00  0.00    -0.049 A 
ATOM     61  C   UNL A   1      37.922  28.815  30.842  1.00  0.00    -0.053 A 
ATOM     62  H   UNL A   1      35.813  28.967  30.870  1.00  0.00     0.063 H 
ATOM     63  C   UNL A   1      39.082  30.905  30.426  1.00  0.00    -0.053 A 
ATOM     64  H   UNL A   1      37.884  32.610  30.570  1.00  0.00     0.063 H 
ATOM     65  C   UNL A   1      39.113  29.531  30.644  1.00  0.00    -0.014 A 
ATOM     66  H   UNL A   1      37.950  27.802  31.038  1.00  0.00     0.063 H 
ATOM     67  H   UNL A   1      39.949  31.412  30.191  1.00  0.00     0.063 H 
BRANCH  65  68
ATOM     68  C   UNL A   1      40.400  28.845  30.566  1.00  0.00     0.031 A 
ATOM     69  C   UNL A   1      41.104  28.664  31.868  1.00  0.00     0.074 A 
ATOM     70  C   UNL A   1      40.814  28.208  29.449  1.00  0.00     0.049 A 
ATOM     71  N   UNL A   1      42.259  29.125  32.219  1.00  0.00    -0.248 NA
ATOM     72  C   UNL A   1      40.393  27.962  32.948  1.00  0.00    -0.034 C 
ATOM     73  C   UNL A   1      40.080  28.015  28.189  1.00  0.00    -0.036 A 
ATOM     74  N   UNL A   1      41.948  27.483  29.242  1.00  0.00    -0.354 N 
ATOM     75  C   UNL A   1      42.505  28.625  33.497  1.00  0.00     0.074 A 
ATOM     76  C   UNL A   1      41.265  28.056  33.954  1.00  0.00    -0.034 C 
ATOM     77  H   UNL A   1      39.463  27.513  32.933  1.00  0.00     0.065 H 
ATOM     78  C   UNL A   1      40.668  27.040  27.464  1.00  0.00    -0.036 A 
ATOM     79  H   UNL A   1      39.242  28.545  27.904  1.00  0.00     0.065 H 
ATOM     80  C   UNL A   1      41.914  26.678  28.111  1.00  0.00     0.049 A 
ATOM     81  H   UNL A   1      42.726  27.525  29.844  1.00  0.00     0.167 HD
ATOM     82  C   UNL A   1      43.776  28.512  33.974  1.00  0.00     0.037 A 
ATOM     83  H   UNL A   1      41.076  27.762  34.925  1.00  0.00     0.065 H 
ATOM     84  H   UNL A   1      40.294  26.624  26.598  1.00  0.00     0.065 H 
ATOM     85  C   UNL A   1      42.836  25.760  27.736  1.00  0.00     0.037 A 
ATOM     86  C   UNL A   1      44.691  29.310  33.198  1.00  0.00     0.049 A 
ATOM     87  C   UNL A   1      44.089  26.082  28.454  1.00  0.00     0.074 A 
ATOM     88  C   UNL A   1      44.833  30.656  32.928  1.00  0.00    -0.036 A 
ATOM     89  N   UNL A   1      45.447  28.658  32.257  1.00  0.00    -0.354 N 
ATOM     90  N   UNL A   1      44.800  27.154  28.239  1.00  0.00    -0.248 NA
ATOM     91  C   UNL A   1      44.345  25.406  29.716  1.00  0.00    -0.034 C 
ATOM     92  C   UNL A   1      45.284  30.718  31.575  1.00  0.00    -0.036 A 
ATOM     93  H   UNL A   1      44.654  31.446  33.567  1.00  0.00     0.065 H 
ATOM     94  C   UNL A   1      45.446  29.411  31.115  1.00  0.00     0.049 A 
ATOM     95  H   UNL A   1      45.910  27.798  32.383  1.00  0.00     0.167 HD
ATOM     96  C   UNL A   1      45.255  27.529  29.493  1.00  0.00     0.074 A 
ATOM     97  C   UNL A   1      45.054  26.353  30.334  1.00  0.00    -0.034 C 
ATOM     98  H   UNL A   1      44.061  24.468  30.038  1.00  0.00     0.065 H 
ATOM     99  H   UNL A   1      45.458  31.578  31.033  1.00  0.00     0.065 H 
ATOM    100  C   UNL A   1      45.480  28.843  29.786  1.00  0.00     0.037 A 
ATOM    101  H   UNL A   1      45.418  26.264  31.296  1.00  0.00     0.065 H 
BRANCH  82 102
ATOM    102  C   UNL A   1      44.269  27.391  34.866  1.00  0.00     0.064 A 
ATOM    103  C   UNL A   1      44.066  26.054  34.456  1.00  0.00     0.173 A 
ATOM    104  C   UNL A   1      44.626  27.557  36.220  1.00  0.00     0.173 A 
ATOM    105  F   UNL A   1      43.713  25.771  33.194  1.00  0.00    -0.203 F 
ATOM    106  C   UNL A   1      44.118  24.986  35.358  1.00  0.00     0.198 A 
ATOM    107  C   UNL A   1      44.731  26.483  37.105  1.00  0.00     0.198 A 
ATOM    108  F   UNL A   1      44.777  28.763  36.777  1.00  0.00    -0.203 F 
ATOM    109  F   UNL A   1      43.778  23.755  34.952  1.00  0.00    -0.200 F 
ATOM    110  C   UNL A   1      44.440  25.203  36.684  1.00  0.00     0.200 A 
ATOM    111  F   UNL A   1      45.027  26.717  38.390  1.00  0.00    -0.200 F 
ATOM    112  F   UNL A   1      44.422  24.195  37.565  1.00  0.00    -0.200 F 
ENDBRANCH  82 102
BRANCH  85 113
ATOM    113  C   UNL A   1      42.632  24.477  27.027  1.00  0.00     0.064 A 
ATOM    114  C   UNL A   1      43.084  24.300  25.711  1.00  0.00     0.173 A 
ATOM    115  C   UNL A   1      42.252  23.313  27.723  1.00  0.00     0.173 A 
ATOM    116  F   UNL A   1      43.499  25.355  24.994  1.00  0.00    -0.203 F 
ATOM    117  C   UNL A   1      43.186  23.030  25.135  1.00  0.00     0.198 A 
ATOM    118  C   UNL A   1      42.349  22.046  27.147  1.00  0.00     0.198 A 
ATOM    119  F   UNL A   1      41.875  23.375  29.009  1.00  0.00    -0.203 F 
ATOM    120  F   UNL A   1      43.688  22.894  23.900  1.00  0.00    -0.200 F 
ATOM    121  C   UNL A   1      42.831  21.903  25.860  1.00  0.00     0.200 A 
ATOM    122  F   UNL A   1      42.036  20.962  27.871  1.00  0.00    -0.200 F 
ATOM    123  F   UNL A   1      42.994  20.681  25.334  1.00  0.00    -0.200 F 
ENDBRANCH  85 113
BRANCH 100 124
ATOM    124  C   UNL A   1      45.549  29.811  28.637  1.00  0.00     0.064 A 
ATOM    125  C   UNL A   1      44.438  30.475  28.090  1.00  0.00     0.173 A 
ATOM    126  C   UNL A   1      46.814  30.173  28.158  1.00  0.00     0.173 A 
ATOM    127  F   UNL A   1      43.202  30.258  28.557  1.00  0.00    -0.203 F 
ATOM    128  C   UNL A   1      44.587  31.424  27.080  1.00  0.00     0.198 A 
ATOM    129  C   UNL A   1      46.964  31.148  27.177  1.00  0.00     0.198 A 
ATOM    130  F   UNL A   1      47.915  29.610  28.679  1.00  0.00    -0.203 F 
ATOM    131  F   UNL A   1      43.509  32.033  26.563  1.00  0.00    -0.200 F 
ATOM    132  C   UNL A   1      45.851  31.766  26.631  1.00  0.00     0.200 A 
ATOM    133  F   UNL A   1      48.192  31.508  26.780  1.00  0.00    -0.200 F 
ATOM    134  F   UNL A   1      46.000  32.707  25.687  1.00  0.00    -0.200 F 
ENDBRANCH 100 124
ENDBRANCH  65  68
ENDBRANCH  55  58
ENDBRANCH  51  54
ENDBRANCH  48  51
ENDBRANCH  45  48
ENDBRANCH   1  45
TORSDOF 16
ENDMDL
MODEL 10
REMARK VINA RESULT:     -11.8      2.160      3.348
REMARK SMILES O=C(Cn1cnc(-c2ccccc2)c1-c1ccccc1)NCCCCCCNC(=O)c1ccc(-c2c3nc(c(-c4c(F)c(F)c(F)c(F)c4F)c4ccc([nH]4)c(-c4c(F)c(F)c(F)c(F)c4F)c4nc(c(-c5c(F)c(F)c(F)c(F)c5F)c5ccc2[nH]5)C=C4)C=C3)cc1
REMARK SMILES IDX 24 1 23 4 22 7 21 10 1 11 2 12 3 14 4 17 5 18 14 19 6 20
REMARK SMILES IDX 7 22 15 23 16 24 20 25 17 26 19 28 18 30 8 34 9 35 13 36
REMARK SMILES IDX 10 37 12 39 11 41 25 45 26 48 27 51 28 54 29 55 30 57 31 58
REMARK SMILES IDX 32 59 93 60 33 61 92 63 34 65 35 68 36 69 86 70 37 71 91 72
REMARK SMILES IDX 85 73 87 74 38 75 90 76 84 78 83 80 39 82 71 85 51 86 70 87
REMARK SMILES IDX 52 88 55 89 69 90 88 91 53 92 54 94 68 96 89 97 56 100
REMARK SMILES IDX 40 102 41 103 49 104 42 105 43 106 47 107 50 108 44 109
REMARK SMILES IDX 45 110 48 111 46 112 72 113 73 114 81 115 74 116 75 117
REMARK SMILES IDX 79 118 82 119 76 120 77 121 80 122 78 123 57 124 58 125
REMARK SMILES IDX 66 126 59 127 60 128 64 129 67 130 61 131 62 132 65 133
REMARK SMILES IDX 63 134
REMARK H PARENT 24 2 24 3 23 5 23 6 22 8 22 9 21 13 3 15 3 16 5 21 16 27 20 29
REMARK H PARENT 17 31 19 32 18 33 9 38 13 40 10 42 12 43 11 44 25 46 25 47
REMARK H PARENT 26 49 26 50 27 52 27 53 28 56 32 62 93 64 33 66 92 67 91 77
REMARK H PARENT 85 79 87 81 90 83 84 84 52 93 55 95 88 98 53 99 89 101
REMARK Flexibility Score: inf
ROOT
ATOM      1  C   UNL A   1      36.474  21.685  25.313  1.00  0.00    -0.052 C 
ATOM      2  H   UNL A   1      35.924  20.820  25.000  1.00  0.00     0.027 H 
ATOM      3  H   UNL A   1      36.289  21.990  26.322  1.00  0.00     0.027 H 
ENDROOT
BRANCH   1   4
ATOM      4  C   UNL A   1      36.019  22.863  24.445  1.00  0.00    -0.036 C 
ATOM      5  H   UNL A   1      35.811  23.691  25.091  1.00  0.00     0.028 H 
ATOM      6  H   UNL A   1      36.815  23.055  23.757  1.00  0.00     0.028 H 
BRANCH   4   7
ATOM      7  C   UNL A   1      34.778  22.597  23.602  1.00  0.00     0.017 C 
ATOM      8  H   UNL A   1      34.985  21.789  22.934  1.00  0.00     0.049 H 
ATOM      9  H   UNL A   1      33.979  22.364  24.275  1.00  0.00     0.049 H 
BRANCH   7  10
ATOM     10  N   UNL A   1      34.366  23.749  22.821  1.00  0.00    -0.355 N 
ATOM     11  O   UNL A   1      32.143  23.201  22.789  1.00  0.00    -0.273 OA
ATOM     12  C   UNL A   1      33.037  24.014  22.554  1.00  0.00     0.239 C 
ATOM     13  H   UNL A   1      35.054  24.359  22.469  1.00  0.00     0.163 HD
BRANCH  12  14
ATOM     14  C   UNL A   1      32.733  25.332  21.872  1.00  0.00     0.103 C 
ATOM     15  H   UNL A   1      31.678  25.383  21.706  1.00  0.00     0.060 H 
ATOM     16  H   UNL A   1      33.307  25.338  20.969  1.00  0.00     0.060 H 
BRANCH  14  17
ATOM     17  N   UNL A   1      33.131  26.518  22.613  1.00  0.00    -0.321 N 
ATOM     18  C   UNL A   1      33.773  27.587  22.042  1.00  0.00     0.096 A 
ATOM     19  C   UNL A   1      32.850  26.847  23.925  1.00  0.00     0.076 A 
ATOM     20  N   UNL A   1      33.934  28.572  22.892  1.00  0.00    -0.236 NA
ATOM     21  H   UNL A   1      34.090  27.613  21.060  1.00  0.00     0.104 H 
ATOM     22  C   UNL A   1      33.372  28.129  24.063  1.00  0.00     0.096 A 
BRANCH  19  23
ATOM     23  C   UNL A   1      32.114  26.032  24.889  1.00  0.00     0.000 A 
ATOM     24  C   UNL A   1      32.803  25.183  25.763  1.00  0.00    -0.053 A 
ATOM     25  C   UNL A   1      30.717  25.997  24.879  1.00  0.00    -0.053 A 
ATOM     26  C   UNL A   1      32.103  24.338  26.627  1.00  0.00    -0.062 A 
ATOM     27  H   UNL A   1      33.836  25.183  25.769  1.00  0.00     0.063 H 
ATOM     28  C   UNL A   1      30.015  25.174  25.760  1.00  0.00    -0.062 A 
ATOM     29  H   UNL A   1      30.198  26.587  24.211  1.00  0.00     0.063 H 
ATOM     30  C   UNL A   1      30.710  24.341  26.633  1.00  0.00    -0.062 A 
ATOM     31  H   UNL A   1      32.620  23.708  27.261  1.00  0.00     0.062 H 
ATOM     32  H   UNL A   1      28.983  25.180  25.765  1.00  0.00     0.062 H 
ATOM     33  H   UNL A   1      30.194  23.729  27.284  1.00  0.00     0.062 H 
ENDBRANCH  19  23
BRANCH  22  34
ATOM     34  C   UNL A   1      33.306  28.931  25.269  1.00  0.00     0.002 A 
ATOM     35  C   UNL A   1      34.320  28.836  26.227  1.00  0.00    -0.053 A 
ATOM     36  C   UNL A   1      32.256  29.838  25.464  1.00  0.00    -0.053 A 
ATOM     37  C   UNL A   1      34.303  29.667  27.350  1.00  0.00    -0.062 A 
ATOM     38  H   UNL A   1      35.084  28.153  26.104  1.00  0.00     0.063 H 
ATOM     39  C   UNL A   1      32.237  30.663  26.590  1.00  0.00    -0.062 A 
ATOM     40  H   UNL A   1      31.494  29.897  24.772  1.00  0.00     0.063 H 
ATOM     41  C   UNL A   1      33.265  30.581  27.528  1.00  0.00    -0.062 A 
ATOM     42  H   UNL A   1      35.059  29.603  28.050  1.00  0.00     0.062 H 
ATOM     43  H   UNL A   1      31.463  31.330  26.727  1.00  0.00     0.062 H 
ATOM     44  H   UNL A   1      33.257  31.198  28.355  1.00  0.00     0.062 H 
ENDBRANCH  22  34
ENDBRANCH  14  17
ENDBRANCH  12  14
ENDBRANCH   7  10
ENDBRANCH   4   7
ENDBRANCH   1   4
BRANCH   1  45
ATOM     45  C   UNL A   1      37.966  21.329  25.264  1.00  0.00    -0.052 C 
ATOM     46  H   UNL A   1      38.286  21.417  24.246  1.00  0.00     0.027 H 
ATOM     47  H   UNL A   1      38.030  20.342  25.674  1.00  0.00     0.027 H 
BRANCH  45  48
ATOM     48  C   UNL A   1      38.915  22.177  26.122  1.00  0.00    -0.036 C 
ATOM     49  H   UNL A   1      38.339  22.646  26.893  1.00  0.00     0.028 H 
ATOM     50  H   UNL A   1      39.378  22.876  25.458  1.00  0.00     0.028 H 
BRANCH  48  51
ATOM     51  C   UNL A   1      40.045  21.399  26.783  1.00  0.00     0.018 C 
ATOM     52  H   UNL A   1      39.765  20.368  26.831  1.00  0.00     0.049 H 
ATOM     53  H   UNL A   1      40.195  21.821  27.754  1.00  0.00     0.049 H 
BRANCH  51  54
ATOM     54  N   UNL A   1      41.314  21.504  26.063  1.00  0.00    -0.352 N 
ATOM     55  C   UNL A   1      42.065  22.640  25.813  1.00  0.00     0.251 C 
ATOM     56  H   UNL A   1      41.682  20.661  25.714  1.00  0.00     0.163 HD
ATOM     57  O   UNL A   1      42.885  22.674  24.912  1.00  0.00    -0.269 OA
BRANCH  55  58
ATOM     58  C   UNL A   1      41.850  23.823  26.666  1.00  0.00     0.039 A 
ATOM     59  C   UNL A   1      42.435  23.928  27.931  1.00  0.00    -0.049 A 
ATOM     60  C   UNL A   1      41.074  24.856  26.153  1.00  0.00    -0.049 A 
ATOM     61  C   UNL A   1      42.305  25.124  28.634  1.00  0.00    -0.053 A 
ATOM     62  H   UNL A   1      42.955  23.134  28.338  1.00  0.00     0.063 H 
ATOM     63  C   UNL A   1      41.089  26.082  26.765  1.00  0.00    -0.053 A 
ATOM     64  H   UNL A   1      40.491  24.700  25.316  1.00  0.00     0.063 H 
ATOM     65  C   UNL A   1      41.648  26.210  28.033  1.00  0.00    -0.014 A 
ATOM     66  H   UNL A   1      42.688  25.212  29.588  1.00  0.00     0.063 H 
ATOM     67  H   UNL A   1      40.687  26.904  26.290  1.00  0.00     0.063 H 
BRANCH  65  68
ATOM     68  C   UNL A   1      41.616  27.521  28.675  1.00  0.00     0.031 A 
ATOM     69  C   UNL A   1      42.728  28.440  28.300  1.00  0.00     0.074 A 
ATOM     70  C   UNL A   1      40.540  27.963  29.364  1.00  0.00     0.049 A 
ATOM     71  N   UNL A   1      43.628  28.956  29.070  1.00  0.00    -0.248 NA
ATOM     72  C   UNL A   1      42.921  28.748  26.874  1.00  0.00    -0.034 C 
ATOM     73  C   UNL A   1      39.239  27.302  29.538  1.00  0.00    -0.036 A 
ATOM     74  N   UNL A   1      40.339  29.170  29.963  1.00  0.00    -0.354 N 
ATOM     75  C   UNL A   1      44.394  29.797  28.264  1.00  0.00     0.074 A 
ATOM     76  C   UNL A   1      44.019  29.506  26.906  1.00  0.00    -0.034 C 
ATOM     77  H   UNL A   1      42.356  28.455  26.061  1.00  0.00     0.065 H 
ATOM     78  C   UNL A   1      38.327  28.198  29.970  1.00  0.00    -0.036 A 
ATOM     79  H   UNL A   1      39.052  26.303  29.356  1.00  0.00     0.065 H 
ATOM     80  C   UNL A   1      39.015  29.435  30.285  1.00  0.00     0.049 A 
ATOM     81  H   UNL A   1      41.071  29.801  30.151  1.00  0.00     0.167 HD
ATOM     82  C   UNL A   1      45.103  30.830  28.800  1.00  0.00     0.037 A 
ATOM     83  H   UNL A   1      44.529  29.837  26.072  1.00  0.00     0.065 H 
ATOM     84  H   UNL A   1      37.313  28.031  30.062  1.00  0.00     0.065 H 
ATOM     85  C   UNL A   1      38.508  30.598  30.758  1.00  0.00     0.037 A 
ATOM     86  C   UNL A   1      45.260  30.664  30.222  1.00  0.00     0.049 A 
ATOM     87  C   UNL A   1      39.640  31.370  31.318  1.00  0.00     0.074 A 
ATOM     88  C   UNL A   1      45.863  29.730  31.040  1.00  0.00    -0.036 A 
ATOM     89  N   UNL A   1      44.421  31.385  31.033  1.00  0.00    -0.354 N 
ATOM     90  N   UNL A   1      40.312  31.017  32.378  1.00  0.00    -0.248 NA
ATOM     91  C   UNL A   1      40.297  32.339  30.456  1.00  0.00    -0.034 C 
ATOM     92  C   UNL A   1      45.017  29.638  32.186  1.00  0.00    -0.036 A 
ATOM     93  H   UNL A   1      46.737  29.211  30.862  1.00  0.00     0.065 H 
ATOM     94  C   UNL A   1      43.979  30.559  32.031  1.00  0.00     0.049 A 
ATOM     95  H   UNL A   1      44.180  32.333  30.918  1.00  0.00     0.167 HD
ATOM     96  C   UNL A   1      41.623  31.365  32.093  1.00  0.00     0.074 A 
ATOM     97  C   UNL A   1      41.531  32.284  30.962  1.00  0.00    -0.034 C 
ATOM     98  H   UNL A   1      39.920  32.902  29.678  1.00  0.00     0.065 H 
ATOM     99  H   UNL A   1      45.148  29.002  32.988  1.00  0.00     0.065 H 
ATOM    100  C   UNL A   1      42.661  30.651  32.616  1.00  0.00     0.037 A 
ATOM    101  H   UNL A   1      42.328  32.829  30.596  1.00  0.00     0.065 H 
BRANCH  82 102
ATOM    102  C   UNL A   1      45.303  32.177  28.136  1.00  0.00     0.064 A 
ATOM    103  C   UNL A   1      44.174  32.983  27.872  1.00  0.00     0.173 A 
ATOM    104  C   UNL A   1      46.486  32.560  27.468  1.00  0.00     0.173 A 
ATOM    105  F   UNL A   1      42.991  32.712  28.442  1.00  0.00    -0.203 F 
ATOM    106  C   UNL A   1      44.207  34.021  26.936  1.00  0.00     0.198 A 
ATOM    107  C   UNL A   1      46.527  33.632  26.576  1.00  0.00     0.198 A 
ATOM    108  F   UNL A   1      47.617  31.853  27.554  1.00  0.00    -0.203 F 
ATOM    109  F   UNL A   1      43.076  34.664  26.615  1.00  0.00    -0.200 F 
ATOM    110  C   UNL A   1      45.382  34.338  26.282  1.00  0.00     0.200 A 
ATOM    111  F   UNL A   1      47.673  33.912  25.938  1.00  0.00    -0.200 F 
ATOM    112  F   UNL A   1      45.401  35.285  25.334  1.00  0.00    -0.200 F 
ENDBRANCH  82 102
BRANCH  85 113
ATOM    113  C   UNL A   1      37.179  31.199  30.512  1.00  0.00     0.064 A 
ATOM    114  C   UNL A   1      36.305  31.480  31.574  1.00  0.00     0.173 A 
ATOM    115  C   UNL A   1      36.860  31.774  29.267  1.00  0.00     0.173 A 
ATOM    116  F   UNL A   1      36.561  31.001  32.800  1.00  0.00    -0.203 F 
ATOM    117  C   UNL A   1      35.198  32.317  31.410  1.00  0.00     0.198 A 
ATOM    118  C   UNL A   1      35.751  32.605  29.102  1.00  0.00     0.198 A 
ATOM    119  F   UNL A   1      37.673  31.620  28.211  1.00  0.00    -0.203 F 
ATOM    120  F   UNL A   1      34.426  32.619  32.463  1.00  0.00    -0.200 F 
ATOM    121  C   UNL A   1      34.930  32.890  30.176  1.00  0.00     0.200 A 
ATOM    122  F   UNL A   1      35.523  33.181  27.913  1.00  0.00    -0.200 F 
ATOM    123  F   UNL A   1      33.909  33.747  30.035  1.00  0.00    -0.200 F 
ENDBRANCH  85 113
BRANCH 100 124
ATOM    124  C   UNL A   1      42.359  29.715  33.754  1.00  0.00     0.064 A 
ATOM    125  C   UNL A   1      41.951  28.379  33.599  1.00  0.00     0.173 A 
ATOM    126  C   UNL A   1      42.620  30.160  35.056  1.00  0.00     0.173 A 
ATOM    127  F   UNL A   1      41.773  27.846  32.383  1.00  0.00    -0.203 F 
ATOM    128  C   UNL A   1      41.770  27.544  34.701  1.00  0.00     0.198 A 
ATOM    129  C   UNL A   1      42.475  29.314  36.152  1.00  0.00     0.198 A 
ATOM    130  F   UNL A   1      43.061  31.410  35.262  1.00  0.00    -0.203 F 
ATOM    131  F   UNL A   1      41.365  26.278  34.526  1.00  0.00    -0.200 F 
ATOM    132  C   UNL A   1      42.041  28.010  35.975  1.00  0.00     0.200 A 
ATOM    133  F   UNL A   1      42.784  29.757  37.378  1.00  0.00    -0.200 F 
ATOM    134  F   UNL A   1      41.906  27.197  37.033  1.00  0.00    -0.200 F 
ENDBRANCH 100 124
ENDBRANCH  65  68
ENDBRANCH  55  58
ENDBRANCH  51  54
ENDBRANCH  48  51
ENDBRANCH  45  48
ENDBRANCH   1  45
TORSDOF 16
ENDMDL
