MODEL 1
REMARK VINA RESULT:     -12.1      0.000      0.000
REMARK SMILES O=C(Cc1ccn(-c2ccccc2F)c1)NCCCCCCNC(=O)c1ccc(-c2c3nc(c(-c4c(F)c(F)c(F)c(F)c4F)c4ccc([nH]4)c(-c4c(F)c(F)c(F)c(F)c4F)c4nc(c(-c5c(F)c(F)c(F)c(F)c5F)c5ccc2[nH]5)C=C4)C=C3)cc1
REMARK SMILES IDX 19 1 18 4 17 7 16 10 1 11 2 12 3 14 4 17 5 18 15 19 6 20
REMARK SMILES IDX 7 22 8 25 9 26 13 27 10 28 12 30 14 31 11 32 20 36 21 39
REMARK SMILES IDX 22 42 23 45 24 46 25 48 26 49 27 50 88 51 28 52 87 54 29 56
REMARK SMILES IDX 30 59 31 60 81 61 32 62 86 63 80 64 82 65 33 66 85 67 79 69
REMARK SMILES IDX 78 71 34 73 66 76 46 77 65 78 47 79 50 80 64 81 83 82 48 83
REMARK SMILES IDX 49 85 63 87 84 88 51 91 35 93 36 94 44 95 37 96 38 97 42 98
REMARK SMILES IDX 45 99 39 100 40 101 43 102 41 103 67 104 68 105 76 106
REMARK SMILES IDX 69 107 70 108 74 109 77 110 71 111 72 112 75 113 73 114
REMARK SMILES IDX 52 115 53 116 61 117 54 118 55 119 59 120 62 121 56 122
REMARK SMILES IDX 57 123 60 124 58 125
REMARK H PARENT 19 2 19 3 18 5 18 6 17 8 17 9 16 13 3 15 3 16 5 21 15 23 6 24
REMARK H PARENT 9 29 10 33 12 34 11 35 20 37 20 38 21 40 21 41 22 43 22 44
REMARK H PARENT 23 47 27 53 88 55 28 57 87 58 86 68 80 70 82 72 85 74 79 75
REMARK H PARENT 47 84 50 86 83 89 48 90 84 92
REMARK Flexibility Score: inf
ROOT
ATOM      1  C   UNL A   1      31.514  27.690  25.793  1.00  0.00    -0.052 C 
ATOM      2  H   UNL A   1      30.744  27.660  26.535  1.00  0.00     0.027 H 
ATOM      3  H   UNL A   1      31.630  28.650  25.333  1.00  0.00     0.027 H 
ENDROOT
BRANCH   1   4
ATOM      4  C   UNL A   1      31.124  26.725  24.664  1.00  0.00    -0.036 C 
ATOM      5  H   UNL A   1      31.052  27.286  23.756  1.00  0.00     0.028 H 
ATOM      6  H   UNL A   1      31.883  25.972  24.632  1.00  0.00     0.028 H 
BRANCH   4   7
ATOM      7  C   UNL A   1      29.797  25.997  24.883  1.00  0.00     0.017 C 
ATOM      8  H   UNL A   1      29.343  26.365  25.780  1.00  0.00     0.049 H 
ATOM      9  H   UNL A   1      29.169  26.180  24.036  1.00  0.00     0.049 H 
BRANCH   7  10
ATOM     10  N   UNL A   1      29.994  24.571  25.004  1.00  0.00    -0.356 N 
ATOM     11  O   UNL A   1      30.754  24.603  27.170  1.00  0.00    -0.275 OA
ATOM     12  C   UNL A   1      30.470  23.975  26.152  1.00  0.00     0.224 C 
ATOM     13  H   UNL A   1      29.777  23.999  24.233  1.00  0.00     0.163 HD
BRANCH  12  14
ATOM     14  C   UNL A   1      30.736  22.485  26.027  1.00  0.00     0.053 C 
ATOM     15  H   UNL A   1      29.934  22.046  25.471  1.00  0.00     0.042 H 
ATOM     16  H   UNL A   1      30.806  22.100  27.023  1.00  0.00     0.042 H 
BRANCH  14  17
ATOM     17  C   UNL A   1      32.022  22.151  25.341  1.00  0.00    -0.021 A 
ATOM     18  C   UNL A   1      32.208  21.899  23.956  1.00  0.00    -0.040 A 
ATOM     19  C   UNL A   1      33.275  22.069  25.921  1.00  0.00     0.013 A 
ATOM     20  C   UNL A   1      33.561  21.763  23.735  1.00  0.00     0.009 A 
ATOM     21  H   UNL A   1      31.464  21.830  23.244  1.00  0.00     0.064 H 
ATOM     22  N   UNL A   1      34.225  21.874  24.940  1.00  0.00    -0.321 N 
ATOM     23  H   UNL A   1      33.469  22.142  26.933  1.00  0.00     0.083 H 
ATOM     24  H   UNL A   1      34.007  21.604  22.818  1.00  0.00     0.082 H 
BRANCH  22  25
ATOM     25  C   UNL A   1      35.626  21.860  25.124  1.00  0.00     0.081 A 
ATOM     26  C   UNL A   1      36.296  23.044  25.461  1.00  0.00    -0.035 A 
ATOM     27  C   UNL A   1      36.346  20.670  25.006  1.00  0.00     0.147 A 
ATOM     28  C   UNL A   1      37.672  23.018  25.704  1.00  0.00    -0.060 A 
ATOM     29  H   UNL A   1      35.774  23.933  25.528  1.00  0.00     0.065 H 
ATOM     30  C   UNL A   1      37.724  20.654  25.210  1.00  0.00    -0.024 A 
ATOM     31  F   UNL A   1      35.752  19.530  24.626  1.00  0.00    -0.205 F 
ATOM     32  C   UNL A   1      38.386  21.826  25.571  1.00  0.00    -0.059 A 
ATOM     33  H   UNL A   1      38.161  23.883  25.982  1.00  0.00     0.062 H 
ATOM     34  H   UNL A   1      38.254  19.776  25.093  1.00  0.00     0.065 H 
ATOM     35  H   UNL A   1      39.404  21.814  25.740  1.00  0.00     0.062 H 
ENDBRANCH  22  25
ENDBRANCH  14  17
ENDBRANCH  12  14
ENDBRANCH   7  10
ENDBRANCH   4   7
ENDBRANCH   1   4
BRANCH   1  36
ATOM     36  C   UNL A   1      32.849  27.387  26.483  1.00  0.00    -0.052 C 
ATOM     37  H   UNL A   1      33.546  27.077  25.733  1.00  0.00     0.027 H 
ATOM     38  H   UNL A   1      32.641  26.632  27.213  1.00  0.00     0.027 H 
BRANCH  36  39
ATOM     39  C   UNL A   1      33.471  28.561  27.251  1.00  0.00    -0.036 C 
ATOM     40  H   UNL A   1      33.469  28.320  28.294  1.00  0.00     0.028 H 
ATOM     41  H   UNL A   1      32.882  29.426  27.029  1.00  0.00     0.028 H 
BRANCH  39  42
ATOM     42  C   UNL A   1      34.907  28.882  26.835  1.00  0.00     0.018 C 
ATOM     43  H   UNL A   1      34.990  28.804  25.772  1.00  0.00     0.049 H 
ATOM     44  H   UNL A   1      35.565  28.187  27.313  1.00  0.00     0.049 H 
BRANCH  42  45
ATOM     45  N   UNL A   1      35.276  30.227  27.244  1.00  0.00    -0.352 N 
ATOM     46  C   UNL A   1      36.286  30.656  28.066  1.00  0.00     0.251 C 
ATOM     47  H   UNL A   1      34.713  30.943  26.871  1.00  0.00     0.163 HD
ATOM     48  O   UNL A   1      36.209  31.768  28.576  1.00  0.00    -0.269 OA
BRANCH  46  49
ATOM     49  C   UNL A   1      37.460  29.808  28.361  1.00  0.00     0.039 A 
ATOM     50  C   UNL A   1      38.493  29.777  27.414  1.00  0.00    -0.049 A 
ATOM     51  C   UNL A   1      37.509  28.970  29.481  1.00  0.00    -0.049 A 
ATOM     52  C   UNL A   1      39.596  28.954  27.615  1.00  0.00    -0.053 A 
ATOM     53  H   UNL A   1      38.435  30.363  26.567  1.00  0.00     0.063 H 
ATOM     54  C   UNL A   1      38.621  28.161  29.698  1.00  0.00    -0.053 A 
ATOM     55  H   UNL A   1      36.719  28.951  30.146  1.00  0.00     0.063 H 
ATOM     56  C   UNL A   1      39.672  28.170  28.772  1.00  0.00    -0.014 A 
ATOM     57  H   UNL A   1      40.355  28.923  26.916  1.00  0.00     0.063 H 
ATOM     58  H   UNL A   1      38.671  27.561  30.535  1.00  0.00     0.063 H 
BRANCH  56  59
ATOM     59  C   UNL A   1      40.957  27.510  29.094  1.00  0.00     0.031 A 
ATOM     60  C   UNL A   1      41.034  26.095  28.473  1.00  0.00     0.074 A 
ATOM     61  C   UNL A   1      41.832  28.214  29.875  1.00  0.00     0.049 A 
ATOM     62  N   UNL A   1      41.767  25.073  28.797  1.00  0.00    -0.248 NA
ATOM     63  C   UNL A   1      40.125  25.750  27.341  1.00  0.00    -0.034 C 
ATOM     64  C   UNL A   1      41.610  29.600  30.340  1.00  0.00    -0.036 A 
ATOM     65  N   UNL A   1      43.063  27.936  30.441  1.00  0.00    -0.354 N 
ATOM     66  C   UNL A   1      41.554  24.061  27.831  1.00  0.00     0.074 A 
ATOM     67  C   UNL A   1      40.463  24.499  27.019  1.00  0.00    -0.034 C 
ATOM     68  H   UNL A   1      39.401  26.343  26.906  1.00  0.00     0.065 H 
ATOM     69  C   UNL A   1      42.599  30.000  31.167  1.00  0.00    -0.036 A 
ATOM     70  H   UNL A   1      40.804  30.186  30.068  1.00  0.00     0.065 H 
ATOM     71  C   UNL A   1      43.568  28.935  31.321  1.00  0.00     0.049 A 
ATOM     72  H   UNL A   1      43.555  27.105  30.249  1.00  0.00     0.167 HD
ATOM     73  C   UNL A   1      42.376  22.977  27.693  1.00  0.00     0.037 A 
ATOM     74  H   UNL A   1      40.003  23.931  26.291  1.00  0.00     0.065 H 
ATOM     75  H   UNL A   1      42.656  30.925  31.622  1.00  0.00     0.065 H 
ATOM     76  C   UNL A   1      44.660  28.884  32.150  1.00  0.00     0.037 A 
ATOM     77  C   UNL A   1      43.369  22.997  28.709  1.00  0.00     0.049 A 
ATOM     78  C   UNL A   1      45.355  27.642  31.787  1.00  0.00     0.074 A 
ATOM     79  C   UNL A   1      43.304  22.745  30.053  1.00  0.00    -0.036 A 
ATOM     80  N   UNL A   1      44.533  23.666  28.426  1.00  0.00    -0.354 N 
ATOM     81  N   UNL A   1      46.029  27.467  30.690  1.00  0.00    -0.248 NA
ATOM     82  C   UNL A   1      45.224  26.479  32.674  1.00  0.00    -0.034 C 
ATOM     83  C   UNL A   1      44.188  23.694  30.600  1.00  0.00    -0.036 A 
ATOM     84  H   UNL A   1      42.742  22.033  30.545  1.00  0.00     0.065 H 
ATOM     85  C   UNL A   1      44.917  24.309  29.575  1.00  0.00     0.049 A 
ATOM     86  H   UNL A   1      45.004  23.682  27.563  1.00  0.00     0.167 HD
ATOM     87  C   UNL A   1      46.094  26.099  30.612  1.00  0.00     0.074 A 
ATOM     88  C   UNL A   1      45.899  25.589  31.951  1.00  0.00    -0.034 C 
ATOM     89  H   UNL A   1      44.751  26.381  33.585  1.00  0.00     0.065 H 
ATOM     90  H   UNL A   1      44.285  23.905  31.605  1.00  0.00     0.065 H 
ATOM     91  C   UNL A   1      45.738  25.487  29.455  1.00  0.00     0.037 A 
ATOM     92  H   UNL A   1      46.232  24.675  32.294  1.00  0.00     0.065 H 
BRANCH  73  93
ATOM     93  C   UNL A   1      42.547  21.948  26.607  1.00  0.00     0.064 A 
ATOM     94  C   UNL A   1      43.543  22.020  25.627  1.00  0.00     0.173 A 
ATOM     95  C   UNL A   1      41.934  20.679  26.781  1.00  0.00     0.173 A 
ATOM     96  F   UNL A   1      44.196  23.165  25.388  1.00  0.00    -0.203 F 
ATOM     97  C   UNL A   1      43.964  20.879  24.934  1.00  0.00     0.198 A 
ATOM     98  C   UNL A   1      42.390  19.537  26.126  1.00  0.00     0.198 A 
ATOM     99  F   UNL A   1      40.931  20.512  27.659  1.00  0.00    -0.203 F 
ATOM    100  F   UNL A   1      44.960  20.977  24.042  1.00  0.00    -0.200 F 
ATOM    101  C   UNL A   1      43.421  19.635  25.214  1.00  0.00     0.200 A 
ATOM    102  F   UNL A   1      41.876  18.338  26.434  1.00  0.00    -0.200 F 
ATOM    103  F   UNL A   1      43.913  18.533  24.633  1.00  0.00    -0.200 F 
ENDBRANCH  73  93
BRANCH  76 104
ATOM    104  C   UNL A   1      45.242  29.652  33.324  1.00  0.00     0.064 A 
ATOM    105  C   UNL A   1      44.420  29.944  34.455  1.00  0.00     0.173 A 
ATOM    106  C   UNL A   1      46.509  30.243  33.382  1.00  0.00     0.173 A 
ATOM    107  F   UNL A   1      43.252  29.321  34.658  1.00  0.00    -0.203 F 
ATOM    108  C   UNL A   1      44.742  30.898  35.421  1.00  0.00     0.198 A 
ATOM    109  C   UNL A   1      46.862  31.158  34.394  1.00  0.00     0.198 A 
ATOM    110  F   UNL A   1      47.450  29.955  32.478  1.00  0.00    -0.203 F 
ATOM    111  F   UNL A   1      43.846  31.215  36.367  1.00  0.00    -0.200 F 
ATOM    112  C   UNL A   1      45.960  31.525  35.378  1.00  0.00     0.200 A 
ATOM    113  F   UNL A   1      48.085  31.709  34.395  1.00  0.00    -0.200 F 
ATOM    114  F   UNL A   1      46.268  32.465  36.284  1.00  0.00    -0.200 F 
ENDBRANCH  76 104
BRANCH  91 115
ATOM    115  C   UNL A   1      45.915  26.342  28.218  1.00  0.00     0.064 A 
ATOM    116  C   UNL A   1      44.857  26.897  27.480  1.00  0.00     0.173 A 
ATOM    117  C   UNL A   1      47.207  26.711  27.812  1.00  0.00     0.173 A 
ATOM    118  F   UNL A   1      43.593  26.610  27.782  1.00  0.00    -0.203 F 
ATOM    119  C   UNL A   1      45.066  27.765  26.404  1.00  0.00     0.198 A 
ATOM    120  C   UNL A   1      47.422  27.583  26.741  1.00  0.00     0.198 A 
ATOM    121  F   UNL A   1      48.274  26.216  28.456  1.00  0.00    -0.203 F 
ATOM    122  F   UNL A   1      44.019  28.256  25.723  1.00  0.00    -0.200 F 
ATOM    123  C   UNL A   1      46.352  28.109  26.037  1.00  0.00     0.200 A 
ATOM    124  F   UNL A   1      48.673  27.904  26.385  1.00  0.00    -0.200 F 
ATOM    125  F   UNL A   1      46.559  28.931  24.999  1.00  0.00    -0.200 F 
ENDBRANCH  91 115
ENDBRANCH  56  59
ENDBRANCH  46  49
ENDBRANCH  42  45
ENDBRANCH  39  42
ENDBRANCH  36  39
ENDBRANCH   1  36
TORSDOF 15
ENDMDL
MODEL 2
REMARK VINA RESULT:     -11.8      1.243      1.885
REMARK SMILES O=C(Cc1ccn(-c2ccccc2F)c1)NCCCCCCNC(=O)c1ccc(-c2c3nc(c(-c4c(F)c(F)c(F)c(F)c4F)c4ccc([nH]4)c(-c4c(F)c(F)c(F)c(F)c4F)c4nc(c(-c5c(F)c(F)c(F)c(F)c5F)c5ccc2[nH]5)C=C4)C=C3)cc1
REMARK SMILES IDX 19 1 18 4 17 7 16 10 1 11 2 12 3 14 4 17 5 18 15 19 6 20
REMARK SMILES IDX 7 22 8 25 9 26 13 27 10 28 12 30 14 31 11 32 20 36 21 39
REMARK SMILES IDX 22 42 23 45 24 46 25 48 26 49 27 50 88 51 28 52 87 54 29 56
REMARK SMILES IDX 30 59 31 60 81 61 32 62 86 63 80 64 82 65 33 66 85 67 79 69
REMARK SMILES IDX 78 71 34 73 66 76 46 77 65 78 47 79 50 80 64 81 83 82 48 83
REMARK SMILES IDX 49 85 63 87 84 88 51 91 35 93 36 94 44 95 37 96 38 97 42 98
REMARK SMILES IDX 45 99 39 100 40 101 43 102 41 103 67 104 68 105 76 106
REMARK SMILES IDX 69 107 70 108 74 109 77 110 71 111 72 112 75 113 73 114
REMARK SMILES IDX 52 115 53 116 61 117 54 118 55 119 59 120 62 121 56 122
REMARK SMILES IDX 57 123 60 124 58 125
REMARK H PARENT 19 2 19 3 18 5 18 6 17 8 17 9 16 13 3 15 3 16 5 21 15 23 6 24
REMARK H PARENT 9 29 10 33 12 34 11 35 20 37 20 38 21 40 21 41 22 43 22 44
REMARK H PARENT 23 47 27 53 88 55 28 57 87 58 86 68 80 70 82 72 85 74 79 75
REMARK H PARENT 47 84 50 86 83 89 48 90 84 92
REMARK Flexibility Score: inf
ROOT
ATOM      1  C   UNL A   1      31.488  26.948  25.781  1.00  0.00    -0.052 C 
ATOM      2  H   UNL A   1      31.449  25.997  25.293  1.00  0.00     0.027 H 
ATOM      3  H   UNL A   1      30.800  27.040  26.597  1.00  0.00     0.027 H 
ENDROOT
BRANCH   1   4
ATOM      4  C   UNL A   1      31.081  28.022  24.762  1.00  0.00    -0.036 C 
ATOM      5  H   UNL A   1      30.085  28.339  24.991  1.00  0.00     0.028 H 
ATOM      6  H   UNL A   1      31.801  28.809  24.846  1.00  0.00     0.028 H 
BRANCH   4   7
ATOM      7  C   UNL A   1      31.112  27.558  23.306  1.00  0.00     0.017 C 
ATOM      8  H   UNL A   1      30.129  27.650  22.891  1.00  0.00     0.049 H 
ATOM      9  H   UNL A   1      31.808  28.170  22.771  1.00  0.00     0.049 H 
BRANCH   7  10
ATOM     10  N   UNL A   1      31.541  26.182  23.201  1.00  0.00    -0.356 N 
ATOM     11  O   UNL A   1      33.476  26.608  22.041  1.00  0.00    -0.275 OA
ATOM     12  C   UNL A   1      32.703  25.806  22.561  1.00  0.00     0.224 C 
ATOM     13  H   UNL A   1      30.979  25.482  23.604  1.00  0.00     0.163 HD
BRANCH  12  14
ATOM     14  C   UNL A   1      32.900  24.306  22.441  1.00  0.00     0.053 C 
ATOM     15  H   UNL A   1      33.420  24.107  21.527  1.00  0.00     0.042 H 
ATOM     16  H   UNL A   1      31.926  23.864  22.466  1.00  0.00     0.042 H 
BRANCH  14  17
ATOM     17  C   UNL A   1      33.680  23.702  23.566  1.00  0.00    -0.021 A 
ATOM     18  C   UNL A   1      33.250  23.541  24.909  1.00  0.00    -0.040 A 
ATOM     19  C   UNL A   1      34.946  23.150  23.495  1.00  0.00     0.013 A 
ATOM     20  C   UNL A   1      34.222  22.826  25.575  1.00  0.00     0.009 A 
ATOM     21  H   UNL A   1      32.369  23.894  25.314  1.00  0.00     0.064 H 
ATOM     22  N   UNL A   1      35.266  22.576  24.707  1.00  0.00    -0.321 N 
ATOM     23  H   UNL A   1      35.558  23.166  22.663  1.00  0.00     0.083 H 
ATOM     24  H   UNL A   1      34.177  22.527  26.561  1.00  0.00     0.082 H 
BRANCH  22  25
ATOM     25  C   UNL A   1      36.421  21.811  24.992  1.00  0.00     0.081 A 
ATOM     26  C   UNL A   1      36.426  20.434  24.729  1.00  0.00    -0.035 A 
ATOM     27  C   UNL A   1      37.568  22.421  25.502  1.00  0.00     0.147 A 
ATOM     28  C   UNL A   1      37.587  19.690  24.952  1.00  0.00    -0.060 A 
ATOM     29  H   UNL A   1      35.574  19.973  24.373  1.00  0.00     0.065 H 
ATOM     30  C   UNL A   1      38.712  21.669  25.761  1.00  0.00    -0.024 A 
ATOM     31  F   UNL A   1      37.583  23.722  25.824  1.00  0.00    -0.205 F 
ATOM     32  C   UNL A   1      38.726  20.305  25.474  1.00  0.00    -0.059 A 
ATOM     33  H   UNL A   1      37.602  18.682  24.730  1.00  0.00     0.062 H 
ATOM     34  H   UNL A   1      39.548  22.121  26.164  1.00  0.00     0.065 H 
ATOM     35  H   UNL A   1      39.578  19.749  25.648  1.00  0.00     0.062 H 
ENDBRANCH  22  25
ENDBRANCH  14  17
ENDBRANCH  12  14
ENDBRANCH   7  10
ENDBRANCH   4   7
ENDBRANCH   1   4
BRANCH   1  36
ATOM     36  C   UNL A   1      32.886  27.113  26.386  1.00  0.00    -0.052 C 
ATOM     37  H   UNL A   1      33.575  26.560  25.782  1.00  0.00     0.027 H 
ATOM     38  H   UNL A   1      32.818  26.757  27.393  1.00  0.00     0.027 H 
BRANCH  36  39
ATOM     39  C   UNL A   1      33.394  28.559  26.480  1.00  0.00    -0.036 C 
ATOM     40  H   UNL A   1      32.860  29.053  27.265  1.00  0.00     0.028 H 
ATOM     41  H   UNL A   1      33.230  29.010  25.525  1.00  0.00     0.028 H 
BRANCH  39  42
ATOM     42  C   UNL A   1      34.891  28.671  26.773  1.00  0.00     0.018 C 
ATOM     43  H   UNL A   1      35.441  28.316  25.927  1.00  0.00     0.049 H 
ATOM     44  H   UNL A   1      35.116  28.083  27.638  1.00  0.00     0.049 H 
BRANCH  42  45
ATOM     45  N   UNL A   1      35.264  30.050  27.039  1.00  0.00    -0.352 N 
ATOM     46  C   UNL A   1      36.315  30.559  27.758  1.00  0.00     0.251 C 
ATOM     47  H   UNL A   1      34.669  30.725  26.641  1.00  0.00     0.163 HD
ATOM     48  O   UNL A   1      36.253  31.710  28.173  1.00  0.00    -0.269 OA
BRANCH  46  49
ATOM     49  C   UNL A   1      37.518  29.750  28.053  1.00  0.00     0.039 A 
ATOM     50  C   UNL A   1      38.538  29.729  27.092  1.00  0.00    -0.049 A 
ATOM     51  C   UNL A   1      37.606  28.937  29.188  1.00  0.00    -0.049 A 
ATOM     52  C   UNL A   1      39.667  28.943  27.293  1.00  0.00    -0.053 A 
ATOM     53  H   UNL A   1      38.451  30.297  26.235  1.00  0.00     0.063 H 
ATOM     54  C   UNL A   1      38.744  28.165  29.405  1.00  0.00    -0.053 A 
ATOM     55  H   UNL A   1      36.827  28.910  29.865  1.00  0.00     0.063 H 
ATOM     56  C   UNL A   1      39.782  28.185  28.465  1.00  0.00    -0.014 A 
ATOM     57  H   UNL A   1      40.417  28.920  26.584  1.00  0.00     0.063 H 
ATOM     58  H   UNL A   1      38.823  27.584  30.254  1.00  0.00     0.063 H 
BRANCH  56  59
ATOM     59  C   UNL A   1      41.089  27.569  28.781  1.00  0.00     0.031 A 
ATOM     60  C   UNL A   1      41.170  26.117  28.253  1.00  0.00     0.074 A 
ATOM     61  C   UNL A   1      41.979  28.338  29.481  1.00  0.00     0.049 A 
ATOM     62  N   UNL A   1      41.932  25.131  28.617  1.00  0.00    -0.248 NA
ATOM     63  C   UNL A   1      40.226  25.682  27.182  1.00  0.00    -0.034 C 
ATOM     64  C   UNL A   1      41.749  29.749  29.860  1.00  0.00    -0.036 A 
ATOM     65  N   UNL A   1      43.235  28.118  30.017  1.00  0.00    -0.354 N 
ATOM     66  C   UNL A   1      41.704  24.053  27.729  1.00  0.00     0.074 A 
ATOM     67  C   UNL A   1      40.575  24.418  26.932  1.00  0.00    -0.034 C 
ATOM     68  H   UNL A   1      39.476  26.233  26.737  1.00  0.00     0.065 H 
ATOM     69  C   UNL A   1      42.760  30.219  30.621  1.00  0.00    -0.036 A 
ATOM     70  H   UNL A   1      40.923  30.302  29.580  1.00  0.00     0.065 H 
ATOM     71  C   UNL A   1      43.753  29.182  30.809  1.00  0.00     0.049 A 
ATOM     72  H   UNL A   1      43.735  27.284  29.863  1.00  0.00     0.167 HD
ATOM     73  C   UNL A   1      42.539  22.975  27.633  1.00  0.00     0.037 A 
ATOM     74  H   UNL A   1      40.099  23.794  26.261  1.00  0.00     0.065 H 
ATOM     75  H   UNL A   1      42.816  31.173  31.011  1.00  0.00     0.065 H 
ATOM     76  C   UNL A   1      44.876  29.205  31.598  1.00  0.00     0.037 A 
ATOM     77  C   UNL A   1      43.569  23.080  28.607  1.00  0.00     0.049 A 
ATOM     78  C   UNL A   1      45.580  27.951  31.293  1.00  0.00     0.074 A 
ATOM     79  C   UNL A   1      43.557  22.917  29.967  1.00  0.00    -0.036 A 
ATOM     80  N   UNL A   1      44.709  23.746  28.237  1.00  0.00    -0.354 N 
ATOM     81  N   UNL A   1      46.216  27.714  30.185  1.00  0.00    -0.248 NA
ATOM     82  C   UNL A   1      45.503  26.849  32.259  1.00  0.00    -0.034 C 
ATOM     83  C   UNL A   1      44.443  23.914  30.416  1.00  0.00    -0.036 A 
ATOM     84  H   UNL A   1      43.027  22.231  30.526  1.00  0.00     0.065 H 
ATOM     85  C   UNL A   1      45.122  24.471  29.326  1.00  0.00     0.049 A 
ATOM     86  H   UNL A   1      45.148  23.711  27.357  1.00  0.00     0.167 HD
ATOM     87  C   UNL A   1      46.304  26.345  30.196  1.00  0.00     0.074 A 
ATOM     88  C   UNL A   1      46.167  25.924  31.572  1.00  0.00    -0.034 C 
ATOM     89  H   UNL A   1      45.065  26.805  33.192  1.00  0.00     0.065 H 
ATOM     90  H   UNL A   1      44.572  24.194  31.400  1.00  0.00     0.065 H 
ATOM     91  C   UNL A   1      45.917  25.651  29.096  1.00  0.00     0.037 A 
ATOM     92  H   UNL A   1      46.529  25.040  31.962  1.00  0.00     0.065 H 
BRANCH  73  93
ATOM     93  C   UNL A   1      42.689  21.878  26.613  1.00  0.00     0.064 A 
ATOM     94  C   UNL A   1      43.619  21.920  25.567  1.00  0.00     0.173 A 
ATOM     95  C   UNL A   1      42.147  20.601  26.913  1.00  0.00     0.173 A 
ATOM     96  F   UNL A   1      44.203  23.070  25.208  1.00  0.00    -0.203 F 
ATOM     97  C   UNL A   1      44.048  20.750  24.930  1.00  0.00     0.198 A 
ATOM     98  C   UNL A   1      42.613  19.434  26.311  1.00  0.00     0.198 A 
ATOM     99  F   UNL A   1      41.209  20.457  27.864  1.00  0.00    -0.203 F 
ATOM    100  F   UNL A   1      44.982  20.824  23.971  1.00  0.00    -0.200 F 
ATOM    101  C   UNL A   1      43.580  19.508  25.330  1.00  0.00     0.200 A 
ATOM    102  F   UNL A   1      42.174  18.241  26.734  1.00  0.00    -0.200 F 
ATOM    103  F   UNL A   1      44.085  18.388  24.796  1.00  0.00    -0.200 F 
ENDBRANCH  73  93
BRANCH  76 104
ATOM    104  C   UNL A   1      45.486  30.059  32.695  1.00  0.00     0.064 A 
ATOM    105  C   UNL A   1      44.829  30.160  33.960  1.00  0.00     0.173 A 
ATOM    106  C   UNL A   1      46.600  30.896  32.572  1.00  0.00     0.173 A 
ATOM    107  F   UNL A   1      43.862  29.308  34.322  1.00  0.00    -0.203 F 
ATOM    108  C   UNL A   1      45.116  31.146  34.905  1.00  0.00     0.198 A 
ATOM    109  C   UNL A   1      46.932  31.849  33.555  1.00  0.00     0.198 A 
ATOM    110  F   UNL A   1      47.409  30.820  31.511  1.00  0.00    -0.203 F 
ATOM    111  F   UNL A   1      44.350  31.260  36.000  1.00  0.00    -0.200 F 
ATOM    112  C   UNL A   1      46.158  32.010  34.691  1.00  0.00     0.200 A 
ATOM    113  F   UNL A   1      48.002  32.639  33.380  1.00  0.00    -0.200 F 
ATOM    114  F   UNL A   1      46.423  32.980  35.578  1.00  0.00    -0.200 F 
ENDBRANCH  76 104
BRANCH  91 115
ATOM    115  C   UNL A   1      46.033  26.424  27.799  1.00  0.00     0.064 A 
ATOM    116  C   UNL A   1      47.249  26.740  27.172  1.00  0.00     0.173 A 
ATOM    117  C   UNL A   1      44.870  26.775  27.097  1.00  0.00     0.173 A 
ATOM    118  F   UNL A   1      48.410  26.452  27.754  1.00  0.00    -0.203 F 
ATOM    119  C   UNL A   1      47.308  27.367  25.923  1.00  0.00     0.198 A 
ATOM    120  C   UNL A   1      44.924  27.397  25.846  1.00  0.00     0.198 A 
ATOM    121  F   UNL A   1      43.666  26.519  27.632  1.00  0.00    -0.203 F 
ATOM    122  F   UNL A   1      48.498  27.660  25.374  1.00  0.00    -0.200 F 
ATOM    123  C   UNL A   1      46.143  27.693  25.260  1.00  0.00     0.200 A 
ATOM    124  F   UNL A   1      43.788  27.718  25.213  1.00  0.00    -0.200 F 
ATOM    125  F   UNL A   1      46.194  28.304  24.068  1.00  0.00    -0.200 F 
ENDBRANCH  91 115
ENDBRANCH  56  59
ENDBRANCH  46  49
ENDBRANCH  42  45
ENDBRANCH  39  42
ENDBRANCH  36  39
ENDBRANCH   1  36
TORSDOF 15
ENDMDL
MODEL 3
REMARK VINA RESULT:     -11.6      3.577      7.242
REMARK SMILES O=C(Cc1ccn(-c2ccccc2F)c1)NCCCCCCNC(=O)c1ccc(-c2c3nc(c(-c4c(F)c(F)c(F)c(F)c4F)c4ccc([nH]4)c(-c4c(F)c(F)c(F)c(F)c4F)c4nc(c(-c5c(F)c(F)c(F)c(F)c5F)c5ccc2[nH]5)C=C4)C=C3)cc1
REMARK SMILES IDX 19 1 18 4 17 7 16 10 1 11 2 12 3 14 4 17 5 18 15 19 6 20
REMARK SMILES IDX 7 22 8 25 9 26 13 27 10 28 12 30 14 31 11 32 20 36 21 39
REMARK SMILES IDX 22 42 23 45 24 46 25 48 26 49 27 50 88 51 28 52 87 54 29 56
REMARK SMILES IDX 30 59 31 60 81 61 32 62 86 63 80 64 82 65 33 66 85 67 79 69
REMARK SMILES IDX 78 71 34 73 66 76 46 77 65 78 47 79 50 80 64 81 83 82 48 83
REMARK SMILES IDX 49 85 63 87 84 88 51 91 35 93 36 94 44 95 37 96 38 97 42 98
REMARK SMILES IDX 45 99 39 100 40 101 43 102 41 103 67 104 68 105 76 106
REMARK SMILES IDX 69 107 70 108 74 109 77 110 71 111 72 112 75 113 73 114
REMARK SMILES IDX 52 115 53 116 61 117 54 118 55 119 59 120 62 121 56 122
REMARK SMILES IDX 57 123 60 124 58 125
REMARK H PARENT 19 2 19 3 18 5 18 6 17 8 17 9 16 13 3 15 3 16 5 21 15 23 6 24
REMARK H PARENT 9 29 10 33 12 34 11 35 20 37 20 38 21 40 21 41 22 43 22 44
REMARK H PARENT 23 47 27 53 88 55 28 57 87 58 86 68 80 70 82 72 85 74 79 75
REMARK H PARENT 47 84 50 86 83 89 48 90 84 92
REMARK Flexibility Score: inf
ROOT
ATOM      1  C   UNL A   1      38.326  30.814  31.845  1.00  0.00    -0.052 C 
ATOM      2  H   UNL A   1      37.829  31.326  32.642  1.00  0.00     0.027 H 
ATOM      3  H   UNL A   1      37.722  30.065  31.374  1.00  0.00     0.027 H 
ENDROOT
BRANCH   1   4
ATOM      4  C   UNL A   1      39.533  30.072  32.436  1.00  0.00    -0.036 C 
ATOM      5  H   UNL A   1      39.171  29.224  32.978  1.00  0.00     0.028 H 
ATOM      6  H   UNL A   1      40.160  29.806  31.611  1.00  0.00     0.028 H 
BRANCH   4   7
ATOM      7  C   UNL A   1      40.391  30.913  33.382  1.00  0.00     0.017 C 
ATOM      8  H   UNL A   1      40.798  30.276  34.140  1.00  0.00     0.049 H 
ATOM      9  H   UNL A   1      41.172  31.370  32.811  1.00  0.00     0.049 H 
BRANCH   7  10
ATOM     10  N   UNL A   1      39.614  31.957  34.010  1.00  0.00    -0.356 N 
ATOM     11  O   UNL A   1      40.890  33.710  33.255  1.00  0.00    -0.275 OA
ATOM     12  C   UNL A   1      39.932  33.294  33.903  1.00  0.00     0.224 C 
ATOM     13  H   UNL A   1      38.823  31.703  34.537  1.00  0.00     0.163 HD
BRANCH  12  14
ATOM     14  C   UNL A   1      39.073  34.217  34.750  1.00  0.00     0.053 C 
ATOM     15  H   UNL A   1      39.440  35.215  34.636  1.00  0.00     0.042 H 
ATOM     16  H   UNL A   1      39.143  33.864  35.757  1.00  0.00     0.042 H 
BRANCH  14  17
ATOM     17  C   UNL A   1      37.622  34.204  34.385  1.00  0.00    -0.021 A 
ATOM     18  C   UNL A   1      36.571  33.570  35.098  1.00  0.00    -0.040 A 
ATOM     19  C   UNL A   1      37.031  34.842  33.309  1.00  0.00     0.013 A 
ATOM     20  C   UNL A   1      35.386  33.918  34.487  1.00  0.00     0.009 A 
ATOM     21  H   UNL A   1      36.675  32.961  35.924  1.00  0.00     0.064 H 
ATOM     22  N   UNL A   1      35.662  34.707  33.390  1.00  0.00    -0.321 N 
ATOM     23  H   UNL A   1      37.538  35.343  32.561  1.00  0.00     0.083 H 
ATOM     24  H   UNL A   1      34.444  33.634  34.800  1.00  0.00     0.082 H 
BRANCH  22  25
ATOM     25  C   UNL A   1      34.710  35.321  32.544  1.00  0.00     0.081 A 
ATOM     26  C   UNL A   1      34.315  36.644  32.785  1.00  0.00    -0.035 A 
ATOM     27  C   UNL A   1      34.182  34.631  31.451  1.00  0.00     0.147 A 
ATOM     28  C   UNL A   1      33.422  37.272  31.912  1.00  0.00    -0.060 A 
ATOM     29  H   UNL A   1      34.684  37.153  33.604  1.00  0.00     0.065 H 
ATOM     30  C   UNL A   1      33.261  35.246  30.605  1.00  0.00    -0.024 A 
ATOM     31  F   UNL A   1      34.487  33.346  31.223  1.00  0.00    -0.205 F 
ATOM     32  C   UNL A   1      32.890  36.571  30.829  1.00  0.00    -0.059 A 
ATOM     33  H   UNL A   1      33.155  38.256  32.070  1.00  0.00     0.062 H 
ATOM     34  H   UNL A   1      32.853  34.721  29.816  1.00  0.00     0.065 H 
ATOM     35  H   UNL A   1      32.220  37.034  30.194  1.00  0.00     0.062 H 
ENDBRANCH  22  25
ENDBRANCH  14  17
ENDBRANCH  12  14
ENDBRANCH   7  10
ENDBRANCH   4   7
ENDBRANCH   1   4
BRANCH   1  36
ATOM     36  C   UNL A   1      38.655  31.839  30.754  1.00  0.00    -0.052 C 
ATOM     37  H   UNL A   1      39.066  31.313  29.919  1.00  0.00     0.027 H 
ATOM     38  H   UNL A   1      39.335  32.537  31.198  1.00  0.00     0.027 H 
BRANCH  36  39
ATOM     39  C   UNL A   1      37.465  32.668  30.253  1.00  0.00    -0.036 C 
ATOM     40  H   UNL A   1      37.602  33.681  30.570  1.00  0.00     0.028 H 
ATOM     41  H   UNL A   1      36.582  32.226  30.663  1.00  0.00     0.028 H 
BRANCH  39  42
ATOM     42  C   UNL A   1      37.300  32.659  28.733  1.00  0.00     0.018 C 
ATOM     43  H   UNL A   1      38.229  32.381  28.281  1.00  0.00     0.049 H 
ATOM     44  H   UNL A   1      37.009  33.638  28.414  1.00  0.00     0.049 H 
BRANCH  42  45
ATOM     45  N   UNL A   1      36.272  31.715  28.328  1.00  0.00    -0.352 N 
ATOM     46  C   UNL A   1      36.384  30.424  27.882  1.00  0.00     0.251 C 
ATOM     47  H   UNL A   1      35.351  32.056  28.384  1.00  0.00     0.163 HD
ATOM     48  O   UNL A   1      35.458  29.928  27.250  1.00  0.00    -0.269 OA
BRANCH  46  49
ATOM     49  C   UNL A   1      37.597  29.616  28.134  1.00  0.00     0.039 A 
ATOM     50  C   UNL A   1      38.640  29.704  27.203  1.00  0.00    -0.049 A 
ATOM     51  C   UNL A   1      37.675  28.705  29.193  1.00  0.00    -0.049 A 
ATOM     52  C   UNL A   1      39.782  28.926  27.363  1.00  0.00    -0.053 A 
ATOM     53  H   UNL A   1      38.562  30.345  26.399  1.00  0.00     0.063 H 
ATOM     54  C   UNL A   1      38.825  27.940  29.370  1.00  0.00    -0.053 A 
ATOM     55  H   UNL A   1      36.880  28.601  29.844  1.00  0.00     0.063 H 
ATOM     56  C   UNL A   1      39.884  28.067  28.464  1.00  0.00    -0.014 A 
ATOM     57  H   UNL A   1      40.549  28.982  26.675  1.00  0.00     0.063 H 
ATOM     58  H   UNL A   1      38.896  27.286  30.165  1.00  0.00     0.063 H 
BRANCH  56  59
ATOM     59  C   UNL A   1      41.197  27.450  28.758  1.00  0.00     0.031 A 
ATOM     60  C   UNL A   1      41.268  25.998  28.231  1.00  0.00     0.074 A 
ATOM     61  C   UNL A   1      42.099  28.221  29.440  1.00  0.00     0.049 A 
ATOM     62  N   UNL A   1      42.037  25.012  28.583  1.00  0.00    -0.248 NA
ATOM     63  C   UNL A   1      40.306  25.561  27.177  1.00  0.00    -0.034 C 
ATOM     64  C   UNL A   1      41.876  29.632  29.821  1.00  0.00    -0.036 A 
ATOM     65  N   UNL A   1      43.365  28.001  29.954  1.00  0.00    -0.354 N 
ATOM     66  C   UNL A   1      41.793  23.932  27.701  1.00  0.00     0.074 A 
ATOM     67  C   UNL A   1      40.650  24.296  26.923  1.00  0.00    -0.034 C 
ATOM     68  H   UNL A   1      39.548  26.111  26.744  1.00  0.00     0.065 H 
ATOM     69  C   UNL A   1      42.900  30.103  30.563  1.00  0.00    -0.036 A 
ATOM     70  H   UNL A   1      41.046  30.185  29.555  1.00  0.00     0.065 H 
ATOM     71  C   UNL A   1      43.897  29.066  30.735  1.00  0.00     0.049 A 
ATOM     72  H   UNL A   1      43.861  27.168  29.793  1.00  0.00     0.167 HD
ATOM     73  C   UNL A   1      42.626  22.854  27.592  1.00  0.00     0.037 A 
ATOM     74  H   UNL A   1      40.163  23.672  26.262  1.00  0.00     0.065 H 
ATOM     75  H   UNL A   1      42.963  31.058  30.951  1.00  0.00     0.065 H 
ATOM     76  C   UNL A   1      45.033  29.090  31.504  1.00  0.00     0.037 A 
ATOM     77  C   UNL A   1      43.673  22.961  28.547  1.00  0.00     0.049 A 
ATOM     78  C   UNL A   1      45.732  27.837  31.189  1.00  0.00     0.074 A 
ATOM     79  C   UNL A   1      43.685  22.801  29.907  1.00  0.00    -0.036 A 
ATOM     80  N   UNL A   1      44.807  23.627  28.156  1.00  0.00    -0.354 N 
ATOM     81  N   UNL A   1      46.348  27.598  30.070  1.00  0.00    -0.248 NA
ATOM     82  C   UNL A   1      45.672  26.736  32.158  1.00  0.00    -0.034 C 
ATOM     83  C   UNL A   1      44.579  23.798  30.339  1.00  0.00    -0.036 A 
ATOM     84  H   UNL A   1      43.165  22.116  30.477  1.00  0.00     0.065 H 
ATOM     85  C   UNL A   1      45.239  24.353  29.236  1.00  0.00     0.049 A 
ATOM     86  H   UNL A   1      45.230  23.590  27.269  1.00  0.00     0.167 HD
ATOM     87  C   UNL A   1      46.436  26.228  30.082  1.00  0.00     0.074 A 
ATOM     88  C   UNL A   1      46.323  25.809  31.461  1.00  0.00    -0.034 C 
ATOM     89  H   UNL A   1      45.250  26.694  33.099  1.00  0.00     0.065 H 
ATOM     90  H   UNL A   1      44.726  24.080  31.320  1.00  0.00     0.065 H 
ATOM     91  C   UNL A   1      46.029  25.533  28.990  1.00  0.00     0.037 A 
ATOM     92  H   UNL A   1      46.692  24.926  31.846  1.00  0.00     0.065 H 
BRANCH  73  93
ATOM     93  C   UNL A   1      42.758  21.756  26.570  1.00  0.00     0.064 A 
ATOM     94  C   UNL A   1      43.655  21.805  25.498  1.00  0.00     0.173 A 
ATOM     95  C   UNL A   1      42.240  20.474  26.891  1.00  0.00     0.173 A 
ATOM     96  F   UNL A   1      44.216  22.960  25.118  1.00  0.00    -0.203 F 
ATOM     97  C   UNL A   1      44.079  20.637  24.851  1.00  0.00     0.198 A 
ATOM     98  C   UNL A   1      42.701  19.311  26.279  1.00  0.00     0.198 A 
ATOM     99  F   UNL A   1      41.332  20.323  27.870  1.00  0.00    -0.203 F 
ATOM    100  F   UNL A   1      44.983  20.719  23.864  1.00  0.00    -0.200 F 
ATOM    101  C   UNL A   1      43.638  19.392  25.269  1.00  0.00     0.200 A 
ATOM    102  F   UNL A   1      42.288  18.113  26.719  1.00  0.00    -0.200 F 
ATOM    103  F   UNL A   1      44.139  18.276  24.724  1.00  0.00    -0.200 F 
ENDBRANCH  73  93
BRANCH  76 104
ATOM    104  C   UNL A   1      45.663  29.946  32.589  1.00  0.00     0.064 A 
ATOM    105  C   UNL A   1      44.984  30.123  33.834  1.00  0.00     0.173 A 
ATOM    106  C   UNL A   1      46.822  30.720  32.467  1.00  0.00     0.173 A 
ATOM    107  F   UNL A   1      43.964  29.334  34.198  1.00  0.00    -0.203 F 
ATOM    108  C   UNL A   1      45.301  31.122  34.754  1.00  0.00     0.198 A 
ATOM    109  C   UNL A   1      47.182  31.686  33.428  1.00  0.00     0.198 A 
ATOM    110  F   UNL A   1      47.650  30.567  31.429  1.00  0.00    -0.203 F 
ATOM    111  F   UNL A   1      44.518  31.310  35.827  1.00  0.00    -0.200 F 
ATOM    112  C   UNL A   1      46.392  31.923  34.540  1.00  0.00     0.200 A 
ATOM    113  F   UNL A   1      48.296  32.412  33.255  1.00  0.00    -0.200 F 
ATOM    114  F   UNL A   1      46.688  32.906  35.402  1.00  0.00    -0.200 F 
ENDBRANCH  76 104
BRANCH  91 115
ATOM    115  C   UNL A   1      46.123  26.304  27.690  1.00  0.00     0.064 A 
ATOM    116  C   UNL A   1      45.014  26.763  26.960  1.00  0.00     0.173 A 
ATOM    117  C   UNL A   1      47.381  26.692  27.206  1.00  0.00     0.173 A 
ATOM    118  F   UNL A   1      43.776  26.449  27.334  1.00  0.00    -0.203 F 
ATOM    119  C   UNL A   1      45.146  27.559  25.818  1.00  0.00     0.198 A 
ATOM    120  C   UNL A   1      47.518  27.493  26.068  1.00  0.00     0.198 A 
ATOM    121  F   UNL A   1      48.493  26.286  27.838  1.00  0.00    -0.203 F 
ATOM    122  F   UNL A   1      44.053  27.959  25.148  1.00  0.00    -0.200 F 
ATOM    123  C   UNL A   1      46.400  27.925  25.375  1.00  0.00     0.200 A 
ATOM    124  F   UNL A   1      48.740  27.836  25.639  1.00  0.00    -0.200 F 
ATOM    125  F   UNL A   1      46.533  28.678  24.274  1.00  0.00    -0.200 F 
ENDBRANCH  91 115
ENDBRANCH  56  59
ENDBRANCH  46  49
ENDBRANCH  42  45
ENDBRANCH  39  42
ENDBRANCH  36  39
ENDBRANCH   1  36
TORSDOF 15
ENDMDL
MODEL 4
REMARK VINA RESULT:     -11.5      3.278      7.885
REMARK SMILES O=C(Cc1ccn(-c2ccccc2F)c1)NCCCCCCNC(=O)c1ccc(-c2c3nc(c(-c4c(F)c(F)c(F)c(F)c4F)c4ccc([nH]4)c(-c4c(F)c(F)c(F)c(F)c4F)c4nc(c(-c5c(F)c(F)c(F)c(F)c5F)c5ccc2[nH]5)C=C4)C=C3)cc1
REMARK SMILES IDX 19 1 18 4 17 7 16 10 1 11 2 12 3 14 4 17 5 18 15 19 6 20
REMARK SMILES IDX 7 22 8 25 9 26 13 27 10 28 12 30 14 31 11 32 20 36 21 39
REMARK SMILES IDX 22 42 23 45 24 46 25 48 26 49 27 50 88 51 28 52 87 54 29 56
REMARK SMILES IDX 30 59 31 60 81 61 32 62 86 63 80 64 82 65 33 66 85 67 79 69
REMARK SMILES IDX 78 71 34 73 66 76 46 77 65 78 47 79 50 80 64 81 83 82 48 83
REMARK SMILES IDX 49 85 63 87 84 88 51 91 35 93 36 94 44 95 37 96 38 97 42 98
REMARK SMILES IDX 45 99 39 100 40 101 43 102 41 103 67 104 68 105 76 106
REMARK SMILES IDX 69 107 70 108 74 109 77 110 71 111 72 112 75 113 73 114
REMARK SMILES IDX 52 115 53 116 61 117 54 118 55 119 59 120 62 121 56 122
REMARK SMILES IDX 57 123 60 124 58 125
REMARK H PARENT 19 2 19 3 18 5 18 6 17 8 17 9 16 13 3 15 3 16 5 21 15 23 6 24
REMARK H PARENT 9 29 10 33 12 34 11 35 20 37 20 38 21 40 21 41 22 43 22 44
REMARK H PARENT 23 47 27 53 88 55 28 57 87 58 86 68 80 70 82 72 85 74 79 75
REMARK H PARENT 47 84 50 86 83 89 48 90 84 92
REMARK Flexibility Score: inf
ROOT
ATOM      1  C   UNL A   1      36.140  21.783  24.513  1.00  0.00    -0.052 C 
ATOM      2  H   UNL A   1      36.677  21.901  23.595  1.00  0.00     0.027 H 
ATOM      3  H   UNL A   1      35.081  21.900  24.409  1.00  0.00     0.027 H 
ENDROOT
BRANCH   1   4
ATOM      4  C   UNL A   1      36.595  22.890  25.474  1.00  0.00    -0.036 C 
ATOM      5  H   UNL A   1      36.567  22.500  26.470  1.00  0.00     0.028 H 
ATOM      6  H   UNL A   1      37.578  23.177  25.164  1.00  0.00     0.028 H 
BRANCH   4   7
ATOM      7  C   UNL A   1      35.739  24.156  25.433  1.00  0.00     0.017 C 
ATOM      8  H   UNL A   1      35.561  24.489  26.435  1.00  0.00     0.049 H 
ATOM      9  H   UNL A   1      36.265  24.901  24.873  1.00  0.00     0.049 H 
BRANCH   7  10
ATOM     10  N   UNL A   1      34.470  23.912  24.786  1.00  0.00    -0.356 N 
ATOM     11  O   UNL A   1      33.226  23.776  26.710  1.00  0.00    -0.275 OA
ATOM     12  C   UNL A   1      33.295  23.731  25.484  1.00  0.00     0.224 C 
ATOM     13  H   UNL A   1      34.443  23.875  23.803  1.00  0.00     0.163 HD
BRANCH  12  14
ATOM     14  C   UNL A   1      32.103  23.350  24.625  1.00  0.00     0.053 C 
ATOM     15  H   UNL A   1      32.034  24.046  23.816  1.00  0.00     0.042 H 
ATOM     16  H   UNL A   1      31.244  23.372  25.263  1.00  0.00     0.042 H 
BRANCH  14  17
ATOM     17  C   UNL A   1      32.181  21.970  24.052  1.00  0.00    -0.021 A 
ATOM     18  C   UNL A   1      31.986  21.599  22.695  1.00  0.00    -0.040 A 
ATOM     19  C   UNL A   1      32.500  20.807  24.729  1.00  0.00     0.013 A 
ATOM     20  C   UNL A   1      32.279  20.258  22.584  1.00  0.00     0.009 A 
ATOM     21  H   UNL A   1      31.682  22.222  21.931  1.00  0.00     0.064 H 
ATOM     22  N   UNL A   1      32.603  19.765  23.832  1.00  0.00    -0.321 N 
ATOM     23  H   UNL A   1      32.640  20.731  25.750  1.00  0.00     0.083 H 
ATOM     24  H   UNL A   1      32.258  19.709  21.710  1.00  0.00     0.082 H 
BRANCH  22  25
ATOM     25  C   UNL A   1      33.029  18.449  24.123  1.00  0.00     0.081 A 
ATOM     26  C   UNL A   1      33.556  17.646  23.102  1.00  0.00    -0.035 A 
ATOM     27  C   UNL A   1      32.961  17.952  25.426  1.00  0.00     0.147 A 
ATOM     28  C   UNL A   1      34.036  16.368  23.402  1.00  0.00    -0.060 A 
ATOM     29  H   UNL A   1      33.590  17.998  22.132  1.00  0.00     0.065 H 
ATOM     30  C   UNL A   1      33.403  16.663  25.715  1.00  0.00    -0.024 A 
ATOM     31  F   UNL A   1      32.408  18.666  26.417  1.00  0.00    -0.205 F 
ATOM     32  C   UNL A   1      33.952  15.875  24.705  1.00  0.00    -0.059 A 
ATOM     33  H   UNL A   1      34.453  15.788  22.658  1.00  0.00     0.062 H 
ATOM     34  H   UNL A   1      33.324  16.292  26.675  1.00  0.00     0.065 H 
ATOM     35  H   UNL A   1      34.297  14.926  24.920  1.00  0.00     0.062 H 
ENDBRANCH  22  25
ENDBRANCH  14  17
ENDBRANCH  12  14
ENDBRANCH   7  10
ENDBRANCH   4   7
ENDBRANCH   1   4
BRANCH   1  36
ATOM     36  C   UNL A   1      36.361  20.351  25.011  1.00  0.00    -0.052 C 
ATOM     37  H   UNL A   1      35.646  19.718  24.528  1.00  0.00     0.027 H 
ATOM     38  H   UNL A   1      36.251  20.386  26.075  1.00  0.00     0.027 H 
BRANCH  36  39
ATOM     39  C   UNL A   1      37.758  19.772  24.748  1.00  0.00    -0.036 C 
ATOM     40  H   UNL A   1      38.057  20.049  23.758  1.00  0.00     0.028 H 
ATOM     41  H   UNL A   1      37.685  18.712  24.873  1.00  0.00     0.028 H 
BRANCH  39  42
ATOM     42  C   UNL A   1      38.826  20.262  25.726  1.00  0.00     0.018 C 
ATOM     43  H   UNL A   1      38.365  20.487  26.665  1.00  0.00     0.049 H 
ATOM     44  H   UNL A   1      39.289  21.136  25.318  1.00  0.00     0.049 H 
BRANCH  42  45
ATOM     45  N   UNL A   1      39.847  19.248  25.929  1.00  0.00    -0.352 N 
ATOM     46  C   UNL A   1      41.206  19.375  26.054  1.00  0.00     0.251 C 
ATOM     47  H   UNL A   1      39.510  18.325  25.986  1.00  0.00     0.163 HD
ATOM     48  O   UNL A   1      41.918  18.398  25.849  1.00  0.00    -0.269 OA
BRANCH  46  49
ATOM     49  C   UNL A   1      41.836  20.661  26.420  1.00  0.00     0.039 A 
ATOM     50  C   UNL A   1      42.344  21.455  25.383  1.00  0.00    -0.049 A 
ATOM     51  C   UNL A   1      42.033  21.039  27.753  1.00  0.00    -0.049 A 
ATOM     52  C   UNL A   1      42.994  22.649  25.675  1.00  0.00    -0.053 A 
ATOM     53  H   UNL A   1      42.235  21.153  24.402  1.00  0.00     0.063 H 
ATOM     54  C   UNL A   1      42.664  22.244  28.050  1.00  0.00    -0.053 A 
ATOM     55  H   UNL A   1      41.710  20.423  28.517  1.00  0.00     0.063 H 
ATOM     56  C   UNL A   1      43.126  23.056  27.008  1.00  0.00    -0.014 A 
ATOM     57  H   UNL A   1      43.376  23.232  24.913  1.00  0.00     0.063 H 
ATOM     58  H   UNL A   1      42.788  22.536  29.032  1.00  0.00     0.063 H 
BRANCH  56  59
ATOM     59  C   UNL A   1      43.581  24.437  27.282  1.00  0.00     0.031 A 
ATOM     60  C   UNL A   1      42.383  25.388  27.517  1.00  0.00     0.074 A 
ATOM     61  C   UNL A   1      44.932  24.655  27.265  1.00  0.00     0.049 A 
ATOM     62  N   UNL A   1      42.303  26.680  27.415  1.00  0.00    -0.248 NA
ATOM     63  C   UNL A   1      41.058  24.808  27.882  1.00  0.00    -0.034 C 
ATOM     64  C   UNL A   1      45.947  23.597  27.074  1.00  0.00    -0.036 A 
ATOM     65  N   UNL A   1      45.733  25.775  27.395  1.00  0.00    -0.354 N 
ATOM     66  C   UNL A   1      41.021  27.074  27.867  1.00  0.00     0.074 A 
ATOM     67  C   UNL A   1      40.269  25.872  28.047  1.00  0.00    -0.034 C 
ATOM     68  H   UNL A   1      40.809  23.812  27.984  1.00  0.00     0.065 H 
ATOM     69  C   UNL A   1      47.190  24.122  27.012  1.00  0.00    -0.036 A 
ATOM     70  H   UNL A   1      45.735  22.590  26.998  1.00  0.00     0.065 H 
ATOM     71  C   UNL A   1      47.121  25.561  27.166  1.00  0.00     0.049 A 
ATOM     72  H   UNL A   1      45.368  26.659  27.629  1.00  0.00     0.167 HD
ATOM     73  C   UNL A   1      40.703  28.368  28.177  1.00  0.00     0.037 A 
ATOM     74  H   UNL A   1      39.262  25.834  28.272  1.00  0.00     0.065 H 
ATOM     75  H   UNL A   1      48.058  23.580  26.876  1.00  0.00     0.065 H 
ATOM     76  C   UNL A   1      48.132  26.482  27.058  1.00  0.00     0.037 A 
ATOM     77  C   UNL A   1      41.805  29.214  27.879  1.00  0.00     0.049 A 
ATOM     78  C   UNL A   1      47.523  27.761  27.448  1.00  0.00     0.074 A 
ATOM     79  C   UNL A   1      42.323  29.653  26.690  1.00  0.00    -0.036 A 
ATOM     80  N   UNL A   1      42.726  29.410  28.877  1.00  0.00    -0.354 N 
ATOM     81  N   UNL A   1      47.198  28.082  28.665  1.00  0.00    -0.248 NA
ATOM     82  C   UNL A   1      47.176  28.724  26.397  1.00  0.00    -0.034 C 
ATOM     83  C   UNL A   1      43.711  29.646  26.923  1.00  0.00    -0.036 A 
ATOM     84  H   UNL A   1      41.819  29.921  25.831  1.00  0.00     0.065 H 
ATOM     85  C   UNL A   1      43.962  29.438  28.284  1.00  0.00     0.049 A 
ATOM     86  H   UNL A   1      42.535  29.513  29.837  1.00  0.00     0.167 HD
ATOM     87  C   UNL A   1      46.313  29.110  28.460  1.00  0.00     0.074 A 
ATOM     88  C   UNL A   1      46.591  29.652  27.149  1.00  0.00    -0.034 C 
ATOM     89  H   UNL A   1      47.338  28.692  25.378  1.00  0.00     0.065 H 
ATOM     90  H   UNL A   1      44.436  29.774  26.199  1.00  0.00     0.065 H 
ATOM     91  C   UNL A   1      45.107  29.076  29.081  1.00  0.00     0.037 A 
ATOM     92  H   UNL A   1      46.370  30.613  26.843  1.00  0.00     0.065 H 
BRANCH  73  93
ATOM     93  C   UNL A   1      39.558  28.994  28.927  1.00  0.00     0.064 A 
ATOM     94  C   UNL A   1      38.433  29.539  28.299  1.00  0.00     0.173 A 
ATOM     95  C   UNL A   1      39.421  28.703  30.310  1.00  0.00     0.173 A 
ATOM     96  F   UNL A   1      38.446  29.839  26.994  1.00  0.00    -0.203 F 
ATOM     97  C   UNL A   1      37.222  29.694  28.986  1.00  0.00     0.198 A 
ATOM     98  C   UNL A   1      38.202  28.812  30.975  1.00  0.00     0.198 A 
ATOM     99  F   UNL A   1      40.457  28.225  31.019  1.00  0.00    -0.203 F 
ATOM    100  F   UNL A   1      36.150  30.168  28.336  1.00  0.00    -0.200 F 
ATOM    101  C   UNL A   1      37.095  29.291  30.305  1.00  0.00     0.200 A 
ATOM    102  F   UNL A   1      38.091  28.386  32.242  1.00  0.00    -0.200 F 
ATOM    103  F   UNL A   1      35.904  29.333  30.917  1.00  0.00    -0.200 F 
ENDBRANCH  73  93
BRANCH  76 104
ATOM    104  C   UNL A   1      49.571  26.551  26.578  1.00  0.00     0.064 A 
ATOM    105  C   UNL A   1      50.613  26.854  27.507  1.00  0.00     0.173 A 
ATOM    106  C   UNL A   1      50.007  26.473  25.250  1.00  0.00     0.173 A 
ATOM    107  F   UNL A   1      50.417  26.789  28.830  1.00  0.00    -0.203 F 
ATOM    108  C   UNL A   1      51.895  27.255  27.130  1.00  0.00     0.198 A 
ATOM    109  C   UNL A   1      51.321  26.814  24.874  1.00  0.00     0.198 A 
ATOM    110  F   UNL A   1      49.191  26.058  24.276  1.00  0.00    -0.203 F 
ATOM    111  F   UNL A   1      52.765  27.664  28.065  1.00  0.00    -0.200 F 
ATOM    112  C   UNL A   1      52.245  27.257  25.804  1.00  0.00     0.200 A 
ATOM    113  F   UNL A   1      51.684  26.737  23.585  1.00  0.00    -0.200 F 
ATOM    114  F   UNL A   1      53.464  27.669  25.429  1.00  0.00    -0.200 F 
ENDBRANCH  76 104
BRANCH  91 115
ATOM    115  C   UNL A   1      45.095  28.291  30.376  1.00  0.00     0.064 A 
ATOM    116  C   UNL A   1      44.520  27.018  30.526  1.00  0.00     0.173 A 
ATOM    117  C   UNL A   1      45.784  28.790  31.492  1.00  0.00     0.173 A 
ATOM    118  F   UNL A   1      43.844  26.456  29.528  1.00  0.00    -0.203 F 
ATOM    119  C   UNL A   1      44.621  26.285  31.711  1.00  0.00     0.198 A 
ATOM    120  C   UNL A   1      45.892  28.057  32.678  1.00  0.00     0.198 A 
ATOM    121  F   UNL A   1      46.353  30.003  31.437  1.00  0.00    -0.203 F 
ATOM    122  F   UNL A   1      44.039  25.078  31.807  1.00  0.00    -0.200 F 
ATOM    123  C   UNL A   1      45.310  26.806  32.787  1.00  0.00     0.200 A 
ATOM    124  F   UNL A   1      46.556  28.574  33.721  1.00  0.00    -0.200 F 
ATOM    125  F   UNL A   1      45.400  26.112  33.931  1.00  0.00    -0.200 F 
ENDBRANCH  91 115
ENDBRANCH  56  59
ENDBRANCH  46  49
ENDBRANCH  42  45
ENDBRANCH  39  42
ENDBRANCH  36  39
ENDBRANCH   1  36
TORSDOF 15
ENDMDL
MODEL 5
REMARK VINA RESULT:     -11.3      4.410      7.122
REMARK SMILES O=C(Cc1ccn(-c2ccccc2F)c1)NCCCCCCNC(=O)c1ccc(-c2c3nc(c(-c4c(F)c(F)c(F)c(F)c4F)c4ccc([nH]4)c(-c4c(F)c(F)c(F)c(F)c4F)c4nc(c(-c5c(F)c(F)c(F)c(F)c5F)c5ccc2[nH]5)C=C4)C=C3)cc1
REMARK SMILES IDX 19 1 18 4 17 7 16 10 1 11 2 12 3 14 4 17 5 18 15 19 6 20
REMARK SMILES IDX 7 22 8 25 9 26 13 27 10 28 12 30 14 31 11 32 20 36 21 39
REMARK SMILES IDX 22 42 23 45 24 46 25 48 26 49 27 50 88 51 28 52 87 54 29 56
REMARK SMILES IDX 30 59 31 60 81 61 32 62 86 63 80 64 82 65 33 66 85 67 79 69
REMARK SMILES IDX 78 71 34 73 66 76 46 77 65 78 47 79 50 80 64 81 83 82 48 83
REMARK SMILES IDX 49 85 63 87 84 88 51 91 35 93 36 94 44 95 37 96 38 97 42 98
REMARK SMILES IDX 45 99 39 100 40 101 43 102 41 103 67 104 68 105 76 106
REMARK SMILES IDX 69 107 70 108 74 109 77 110 71 111 72 112 75 113 73 114
REMARK SMILES IDX 52 115 53 116 61 117 54 118 55 119 59 120 62 121 56 122
REMARK SMILES IDX 57 123 60 124 58 125
REMARK H PARENT 19 2 19 3 18 5 18 6 17 8 17 9 16 13 3 15 3 16 5 21 15 23 6 24
REMARK H PARENT 9 29 10 33 12 34 11 35 20 37 20 38 21 40 21 41 22 43 22 44
REMARK H PARENT 23 47 27 53 88 55 28 57 87 58 86 68 80 70 82 72 85 74 79 75
REMARK H PARENT 47 84 50 86 83 89 48 90 84 92
REMARK Flexibility Score: inf
ROOT
ATOM      1  C   UNL A   1      34.455  33.138  28.995  1.00  0.00    -0.052 C 
ATOM      2  H   UNL A   1      35.474  32.824  29.085  1.00  0.00     0.027 H 
ATOM      3  H   UNL A   1      33.885  33.006  29.892  1.00  0.00     0.027 H 
ENDROOT
BRANCH   1   4
ATOM      4  C   UNL A   1      33.780  32.261  27.932  1.00  0.00    -0.036 C 
ATOM      5  H   UNL A   1      32.786  32.042  28.262  1.00  0.00     0.028 H 
ATOM      6  H   UNL A   1      33.806  32.817  27.018  1.00  0.00     0.028 H 
BRANCH   4   7
ATOM      7  C   UNL A   1      34.493  30.937  27.656  1.00  0.00     0.017 C 
ATOM      8  H   UNL A   1      34.940  30.979  26.684  1.00  0.00     0.049 H 
ATOM      9  H   UNL A   1      35.238  30.792  28.410  1.00  0.00     0.049 H 
BRANCH   7  10
ATOM     10  N   UNL A   1      33.574  29.824  27.705  1.00  0.00    -0.356 N 
ATOM     11  O   UNL A   1      33.085  29.801  25.462  1.00  0.00    -0.275 OA
ATOM     12  C   UNL A   1      32.925  29.338  26.589  1.00  0.00     0.224 C 
ATOM     13  H   UNL A   1      33.403  29.392  28.572  1.00  0.00     0.163 HD
BRANCH  12  14
ATOM     14  C   UNL A   1      31.898  28.258  26.876  1.00  0.00     0.053 C 
ATOM     15  H   UNL A   1      30.996  28.505  26.358  1.00  0.00     0.042 H 
ATOM     16  H   UNL A   1      31.769  28.229  27.938  1.00  0.00     0.042 H 
BRANCH  14  17
ATOM     17  C   UNL A   1      32.323  26.886  26.454  1.00  0.00    -0.021 A 
ATOM     18  C   UNL A   1      31.496  25.738  26.336  1.00  0.00    -0.040 A 
ATOM     19  C   UNL A   1      33.589  26.494  26.060  1.00  0.00     0.013 A 
ATOM     20  C   UNL A   1      32.262  24.728  25.796  1.00  0.00     0.009 A 
ATOM     21  H   UNL A   1      30.502  25.672  26.604  1.00  0.00     0.064 H 
ATOM     22  N   UNL A   1      33.550  25.189  25.617  1.00  0.00    -0.321 N 
ATOM     23  H   UNL A   1      34.434  27.088  26.093  1.00  0.00     0.083 H 
ATOM     24  H   UNL A   1      31.927  23.780  25.563  1.00  0.00     0.082 H 
BRANCH  22  25
ATOM     25  C   UNL A   1      34.616  24.475  25.023  1.00  0.00     0.081 A 
ATOM     26  C   UNL A   1      35.755  24.169  25.779  1.00  0.00    -0.035 A 
ATOM     27  C   UNL A   1      34.530  24.044  23.698  1.00  0.00     0.147 A 
ATOM     28  C   UNL A   1      36.781  23.409  25.211  1.00  0.00    -0.060 A 
ATOM     29  H   UNL A   1      35.835  24.504  26.752  1.00  0.00     0.065 H 
ATOM     30  C   UNL A   1      35.572  23.320  23.122  1.00  0.00    -0.024 A 
ATOM     31  F   UNL A   1      33.485  24.369  22.924  1.00  0.00    -0.205 F 
ATOM     32  C   UNL A   1      36.693  22.992  23.882  1.00  0.00    -0.059 A 
ATOM     33  H   UNL A   1      37.607  23.156  25.777  1.00  0.00     0.062 H 
ATOM     34  H   UNL A   1      35.515  23.029  22.134  1.00  0.00     0.065 H 
ATOM     35  H   UNL A   1      37.459  22.441  23.463  1.00  0.00     0.062 H 
ENDBRANCH  22  25
ENDBRANCH  14  17
ENDBRANCH  12  14
ENDBRANCH   7  10
ENDBRANCH   4   7
ENDBRANCH   1   4
BRANCH   1  36
ATOM     36  C   UNL A   1      34.447  34.643  28.707  1.00  0.00    -0.052 C 
ATOM     37  H   UNL A   1      34.707  34.785  27.679  1.00  0.00     0.027 H 
ATOM     38  H   UNL A   1      35.146  35.080  29.389  1.00  0.00     0.027 H 
BRANCH  36  39
ATOM     39  C   UNL A   1      33.109  35.352  28.959  1.00  0.00    -0.036 C 
ATOM     40  H   UNL A   1      32.421  34.640  29.364  1.00  0.00     0.028 H 
ATOM     41  H   UNL A   1      32.784  35.748  28.020  1.00  0.00     0.028 H 
BRANCH  39  42
ATOM     42  C   UNL A   1      33.206  36.532  29.927  1.00  0.00     0.018 C 
ATOM     43  H   UNL A   1      32.869  37.419  29.434  1.00  0.00     0.049 H 
ATOM     44  H   UNL A   1      34.225  36.640  30.234  1.00  0.00     0.049 H 
BRANCH  42  45
ATOM     45  N   UNL A   1      32.388  36.303  31.106  1.00  0.00    -0.352 N 
ATOM     46  C   UNL A   1      32.556  35.420  32.141  1.00  0.00     0.251 C 
ATOM     47  H   UNL A   1      31.588  36.871  31.173  1.00  0.00     0.163 HD
ATOM     48  O   UNL A   1      31.591  35.121  32.834  1.00  0.00    -0.269 OA
BRANCH  46  49
ATOM     49  C   UNL A   1      33.871  34.811  32.437  1.00  0.00     0.039 A 
ATOM     50  C   UNL A   1      33.881  33.528  33.001  1.00  0.00    -0.049 A 
ATOM     51  C   UNL A   1      35.069  35.517  32.277  1.00  0.00    -0.049 A 
ATOM     52  C   UNL A   1      35.087  32.931  33.349  1.00  0.00    -0.053 A 
ATOM     53  H   UNL A   1      32.993  33.027  33.158  1.00  0.00     0.063 H 
ATOM     54  C   UNL A   1      36.281  34.915  32.603  1.00  0.00    -0.053 A 
ATOM     55  H   UNL A   1      35.053  36.484  31.916  1.00  0.00     0.063 H 
ATOM     56  C   UNL A   1      36.288  33.614  33.121  1.00  0.00    -0.014 A 
ATOM     57  H   UNL A   1      35.097  31.989  33.772  1.00  0.00     0.063 H 
ATOM     58  H   UNL A   1      37.168  35.423  32.463  1.00  0.00     0.063 H 
BRANCH  56  59
ATOM     59  C   UNL A   1      37.560  32.868  33.252  1.00  0.00     0.031 A 
ATOM     60  C   UNL A   1      37.635  31.702  32.237  1.00  0.00     0.074 A 
ATOM     61  C   UNL A   1      38.426  33.294  34.222  1.00  0.00     0.049 A 
ATOM     62  N   UNL A   1      38.351  30.619  32.254  1.00  0.00    -0.248 NA
ATOM     63  C   UNL A   1      36.746  31.725  31.040  1.00  0.00    -0.034 C 
ATOM     64  C   UNL A   1      38.208  34.481  35.076  1.00  0.00    -0.036 A 
ATOM     65  N   UNL A   1      39.643  32.840  34.699  1.00  0.00    -0.354 N 
ATOM     66  C   UNL A   1      38.148  29.945  31.026  1.00  0.00     0.074 A 
ATOM     67  C   UNL A   1      37.078  30.622  30.364  1.00  0.00    -0.034 C 
ATOM     68  H   UNL A   1      36.036  32.431  30.790  1.00  0.00     0.065 H 
ATOM     69  C   UNL A   1      39.184  34.600  36.001  1.00  0.00    -0.036 A 
ATOM     70  H   UNL A   1      37.414  35.134  34.978  1.00  0.00     0.065 H 
ATOM     71  C   UNL A   1      40.139  33.523  35.845  1.00  0.00     0.049 A 
ATOM     72  H   UNL A   1      40.130  32.097  34.275  1.00  0.00     0.167 HD
ATOM     73  C   UNL A   1      38.962  28.939  30.583  1.00  0.00     0.037 A 
ATOM     74  H   UNL A   1      36.627  30.304  29.492  1.00  0.00     0.065 H 
ATOM     75  H   UNL A   1      39.241  35.346  36.712  1.00  0.00     0.065 H 
ATOM     76  C   UNL A   1      41.214  33.211  36.639  1.00  0.00     0.037 A 
ATOM     77  C   UNL A   1      39.935  28.640  31.575  1.00  0.00     0.049 A 
ATOM     78  C   UNL A   1      41.904  32.122  35.932  1.00  0.00     0.074 A 
ATOM     79  C   UNL A   1      39.840  27.999  32.781  1.00  0.00    -0.036 A 
ATOM     80  N   UNL A   1      41.111  29.345  31.524  1.00  0.00    -0.354 N 
ATOM     81  N   UNL A   1      42.598  32.273  34.844  1.00  0.00    -0.248 NA
ATOM     82  C   UNL A   1      41.744  30.750  36.428  1.00  0.00    -0.034 C 
ATOM     83  C   UNL A   1      40.722  28.727  33.601  1.00  0.00    -0.036 A 
ATOM     84  H   UNL A   1      39.262  27.181  33.029  1.00  0.00     0.065 H 
ATOM     85  C   UNL A   1      41.478  29.609  32.819  1.00  0.00     0.049 A 
ATOM     86  H   UNL A   1      41.599  29.610  30.712  1.00  0.00     0.167 HD
ATOM     87  C   UNL A   1      42.651  30.989  34.362  1.00  0.00     0.074 A 
ATOM     88  C   UNL A   1      42.424  30.107  35.484  1.00  0.00    -0.034 C 
ATOM     89  H   UNL A   1      41.252  30.392  37.262  1.00  0.00     0.065 H 
ATOM     90  H   UNL A   1      40.801  28.627  34.625  1.00  0.00     0.065 H 
ATOM     91  C   UNL A   1      42.312  30.757  33.069  1.00  0.00     0.037 A 
ATOM     92  H   UNL A   1      42.742  29.126  35.544  1.00  0.00     0.065 H 
BRANCH  73  93
ATOM     93  C   UNL A   1      39.144  28.278  29.243  1.00  0.00     0.064 A 
ATOM     94  C   UNL A   1      39.649  28.943  28.119  1.00  0.00     0.173 A 
ATOM     95  C   UNL A   1      39.163  26.860  29.189  1.00  0.00     0.173 A 
ATOM     96  F   UNL A   1      39.692  30.280  28.068  1.00  0.00    -0.203 F 
ATOM     97  C   UNL A   1      40.221  28.236  27.054  1.00  0.00     0.198 A 
ATOM     98  C   UNL A   1      39.778  26.163  28.151  1.00  0.00     0.198 A 
ATOM     99  F   UNL A   1      38.655  26.125  30.192  1.00  0.00    -0.203 F 
ATOM    100  F   UNL A   1      40.745  28.910  26.020  1.00  0.00    -0.200 F 
ATOM    101  C   UNL A   1      40.325  26.855  27.090  1.00  0.00     0.200 A 
ATOM    102  F   UNL A   1      39.899  24.830  28.219  1.00  0.00    -0.200 F 
ATOM    103  F   UNL A   1      40.980  26.198  26.123  1.00  0.00    -0.200 F 
ENDBRANCH  73  93
BRANCH  76 104
ATOM    104  C   UNL A   1      41.780  33.584  37.998  1.00  0.00     0.064 A 
ATOM    105  C   UNL A   1      43.073  34.183  38.085  1.00  0.00     0.173 A 
ATOM    106  C   UNL A   1      41.214  33.284  39.242  1.00  0.00     0.173 A 
ATOM    107  F   UNL A   1      43.684  34.701  37.011  1.00  0.00    -0.203 F 
ATOM    108  C   UNL A   1      43.811  34.266  39.266  1.00  0.00     0.198 A 
ATOM    109  C   UNL A   1      41.934  33.428  40.445  1.00  0.00     0.198 A 
ATOM    110  F   UNL A   1      39.953  32.853  39.344  1.00  0.00    -0.203 F 
ATOM    111  F   UNL A   1      45.076  34.709  39.230  1.00  0.00    -0.200 F 
ATOM    112  C   UNL A   1      43.247  33.865  40.450  1.00  0.00     0.200 A 
ATOM    113  F   UNL A   1      41.350  33.111  41.610  1.00  0.00    -0.200 F 
ATOM    114  F   UNL A   1      43.958  33.912  41.585  1.00  0.00    -0.200 F 
ENDBRANCH  76 104
BRANCH  91 115
ATOM    115  C   UNL A   1      42.523  31.939  32.147  1.00  0.00     0.064 A 
ATOM    116  C   UNL A   1      41.485  32.717  31.607  1.00  0.00     0.173 A 
ATOM    117  C   UNL A   1      43.827  32.380  31.875  1.00  0.00     0.173 A 
ATOM    118  F   UNL A   1      40.212  32.385  31.805  1.00  0.00    -0.203 F 
ATOM    119  C   UNL A   1      41.727  33.863  30.843  1.00  0.00     0.198 A 
ATOM    120  C   UNL A   1      44.073  33.528  31.116  1.00  0.00     0.198 A 
ATOM    121  F   UNL A   1      44.876  31.687  32.344  1.00  0.00    -0.203 F 
ATOM    122  F   UNL A   1      40.699  34.563  30.337  1.00  0.00    -0.200 F 
ATOM    123  C   UNL A   1      43.024  34.268  30.600  1.00  0.00     0.200 A 
ATOM    124  F   UNL A   1      45.335  33.909  30.877  1.00  0.00    -0.200 F 
ATOM    125  F   UNL A   1      43.261  35.359  29.858  1.00  0.00    -0.200 F 
ENDBRANCH  91 115
ENDBRANCH  56  59
ENDBRANCH  46  49
ENDBRANCH  42  45
ENDBRANCH  39  42
ENDBRANCH  36  39
ENDBRANCH   1  36
TORSDOF 15
ENDMDL
MODEL 6
REMARK VINA RESULT:     -11.3      4.553      9.341
REMARK SMILES O=C(Cc1ccn(-c2ccccc2F)c1)NCCCCCCNC(=O)c1ccc(-c2c3nc(c(-c4c(F)c(F)c(F)c(F)c4F)c4ccc([nH]4)c(-c4c(F)c(F)c(F)c(F)c4F)c4nc(c(-c5c(F)c(F)c(F)c(F)c5F)c5ccc2[nH]5)C=C4)C=C3)cc1
REMARK SMILES IDX 19 1 18 4 17 7 16 10 1 11 2 12 3 14 4 17 5 18 15 19 6 20
REMARK SMILES IDX 7 22 8 25 9 26 13 27 10 28 12 30 14 31 11 32 20 36 21 39
REMARK SMILES IDX 22 42 23 45 24 46 25 48 26 49 27 50 88 51 28 52 87 54 29 56
REMARK SMILES IDX 30 59 31 60 81 61 32 62 86 63 80 64 82 65 33 66 85 67 79 69
REMARK SMILES IDX 78 71 34 73 66 76 46 77 65 78 47 79 50 80 64 81 83 82 48 83
REMARK SMILES IDX 49 85 63 87 84 88 51 91 35 93 36 94 44 95 37 96 38 97 42 98
REMARK SMILES IDX 45 99 39 100 40 101 43 102 41 103 67 104 68 105 76 106
REMARK SMILES IDX 69 107 70 108 74 109 77 110 71 111 72 112 75 113 73 114
REMARK SMILES IDX 52 115 53 116 61 117 54 118 55 119 59 120 62 121 56 122
REMARK SMILES IDX 57 123 60 124 58 125
REMARK H PARENT 19 2 19 3 18 5 18 6 17 8 17 9 16 13 3 15 3 16 5 21 15 23 6 24
REMARK H PARENT 9 29 10 33 12 34 11 35 20 37 20 38 21 40 21 41 22 43 22 44
REMARK H PARENT 23 47 27 53 88 55 28 57 87 58 86 68 80 70 82 72 85 74 79 75
REMARK H PARENT 47 84 50 86 83 89 48 90 84 92
REMARK Flexibility Score: inf
ROOT
ATOM      1  C   UNL A   1      34.200  23.011  26.333  1.00  0.00    -0.052 C 
ATOM      2  H   UNL A   1      33.979  23.305  27.338  1.00  0.00     0.027 H 
ATOM      3  H   UNL A   1      34.269  23.833  25.651  1.00  0.00     0.027 H 
ENDROOT
BRANCH   1   4
ATOM      4  C   UNL A   1      33.044  22.137  25.828  1.00  0.00    -0.036 C 
ATOM      5  H   UNL A   1      32.886  21.351  26.536  1.00  0.00     0.028 H 
ATOM      6  H   UNL A   1      32.198  22.783  25.723  1.00  0.00     0.028 H 
BRANCH   4   7
ATOM      7  C   UNL A   1      33.281  21.504  24.457  1.00  0.00     0.017 C 
ATOM      8  H   UNL A   1      34.333  21.368  24.313  1.00  0.00     0.049 H 
ATOM      9  H   UNL A   1      32.770  20.565  24.426  1.00  0.00     0.049 H 
BRANCH   7  10
ATOM     10  N   UNL A   1      32.764  22.338  23.396  1.00  0.00    -0.356 N 
ATOM     11  O   UNL A   1      34.793  23.172  22.718  1.00  0.00    -0.275 OA
ATOM     12  C   UNL A   1      33.570  23.125  22.601  1.00  0.00     0.224 C 
ATOM     13  H   UNL A   1      31.794  22.344  23.233  1.00  0.00     0.163 HD
BRANCH  12  14
ATOM     14  C   UNL A   1      32.820  24.029  21.640  1.00  0.00     0.053 C 
ATOM     15  H   UNL A   1      31.951  23.508  21.296  1.00  0.00     0.042 H 
ATOM     16  H   UNL A   1      33.498  24.267  20.847  1.00  0.00     0.042 H 
BRANCH  14  17
ATOM     17  C   UNL A   1      32.383  25.328  22.240  1.00  0.00    -0.021 A 
ATOM     18  C   UNL A   1      31.425  26.231  21.709  1.00  0.00    -0.040 A 
ATOM     19  C   UNL A   1      32.799  25.867  23.444  1.00  0.00     0.013 A 
ATOM     20  C   UNL A   1      31.232  27.228  22.641  1.00  0.00     0.009 A 
ATOM     21  H   UNL A   1      30.958  26.156  20.793  1.00  0.00     0.064 H 
ATOM     22  N   UNL A   1      32.069  27.005  23.715  1.00  0.00    -0.321 N 
ATOM     23  H   UNL A   1      33.542  25.477  24.047  1.00  0.00     0.083 H 
ATOM     24  H   UNL A   1      30.568  28.013  22.551  1.00  0.00     0.082 H 
BRANCH  22  25
ATOM     25  C   UNL A   1      32.119  27.767  24.905  1.00  0.00     0.081 A 
ATOM     26  C   UNL A   1      31.460  27.308  26.053  1.00  0.00    -0.035 A 
ATOM     27  C   UNL A   1      32.847  28.957  24.956  1.00  0.00     0.147 A 
ATOM     28  C   UNL A   1      31.561  28.029  27.247  1.00  0.00    -0.060 A 
ATOM     29  H   UNL A   1      30.901  26.440  26.017  1.00  0.00     0.065 H 
ATOM     30  C   UNL A   1      32.914  29.694  26.137  1.00  0.00    -0.024 A 
ATOM     31  F   UNL A   1      33.440  29.460  23.864  1.00  0.00    -0.205 F 
ATOM     32  C   UNL A   1      32.280  29.224  27.286  1.00  0.00    -0.059 A 
ATOM     33  H   UNL A   1      31.102  27.676  28.101  1.00  0.00     0.062 H 
ATOM     34  H   UNL A   1      33.430  30.588  26.160  1.00  0.00     0.065 H 
ATOM     35  H   UNL A   1      32.343  29.760  28.166  1.00  0.00     0.062 H 
ENDBRANCH  22  25
ENDBRANCH  14  17
ENDBRANCH  12  14
ENDBRANCH   7  10
ENDBRANCH   4   7
ENDBRANCH   1   4
BRANCH   1  36
ATOM     36  C   UNL A   1      35.579  22.342  26.329  1.00  0.00    -0.052 C 
ATOM     37  H   UNL A   1      35.468  21.357  25.925  1.00  0.00     0.027 H 
ATOM     38  H   UNL A   1      35.918  22.352  27.344  1.00  0.00     0.027 H 
BRANCH  36  39
ATOM     39  C   UNL A   1      36.659  23.068  25.514  1.00  0.00    -0.036 C 
ATOM     40  H   UNL A   1      36.176  23.640  24.749  1.00  0.00     0.028 H 
ATOM     41  H   UNL A   1      37.307  22.317  25.117  1.00  0.00     0.028 H 
BRANCH  39  42
ATOM     42  C   UNL A   1      37.529  24.013  26.343  1.00  0.00     0.018 C 
ATOM     43  H   UNL A   1      37.056  24.190  27.286  1.00  0.00     0.049 H 
ATOM     44  H   UNL A   1      37.646  24.931  25.806  1.00  0.00     0.049 H 
BRANCH  42  45
ATOM     45  N   UNL A   1      38.845  23.439  26.571  1.00  0.00    -0.352 N 
ATOM     46  C   UNL A   1      40.043  24.051  26.835  1.00  0.00     0.251 C 
ATOM     47  H   UNL A   1      38.882  22.456  26.530  1.00  0.00     0.163 HD
ATOM     48  O   UNL A   1      41.084  23.437  26.631  1.00  0.00    -0.269 OA
BRANCH  46  49
ATOM     49  C   UNL A   1      40.111  25.435  27.351  1.00  0.00     0.039 A 
ATOM     50  C   UNL A   1      39.719  25.653  28.678  1.00  0.00    -0.049 A 
ATOM     51  C   UNL A   1      40.441  26.518  26.529  1.00  0.00    -0.049 A 
ATOM     52  C   UNL A   1      39.713  26.943  29.198  1.00  0.00    -0.053 A 
ATOM     53  H   UNL A   1      39.436  24.857  29.270  1.00  0.00     0.063 H 
ATOM     54  C   UNL A   1      40.457  27.809  27.050  1.00  0.00    -0.053 A 
ATOM     55  H   UNL A   1      40.672  26.360  25.535  1.00  0.00     0.063 H 
ATOM     56  C   UNL A   1      40.111  28.016  28.391  1.00  0.00    -0.014 A 
ATOM     57  H   UNL A   1      39.417  27.108  30.173  1.00  0.00     0.063 H 
ATOM     58  H   UNL A   1      40.723  28.607  26.453  1.00  0.00     0.063 H 
BRANCH  56  59
ATOM     59  C   UNL A   1      40.347  29.330  29.030  1.00  0.00     0.031 A 
ATOM     60  C   UNL A   1      39.029  30.124  29.188  1.00  0.00     0.074 A 
ATOM     61  C   UNL A   1      41.642  29.634  29.350  1.00  0.00     0.049 A 
ATOM     62  N   UNL A   1      38.828  31.399  29.334  1.00  0.00    -0.248 NA
ATOM     63  C   UNL A   1      37.730  29.392  29.133  1.00  0.00    -0.034 C 
ATOM     64  C   UNL A   1      42.786  28.714  29.174  1.00  0.00    -0.036 A 
ATOM     65  N   UNL A   1      42.272  30.749  29.874  1.00  0.00    -0.354 N 
ATOM     66  C   UNL A   1      37.446  31.597  29.568  1.00  0.00     0.074 A 
ATOM     67  C   UNL A   1      36.810  30.338  29.335  1.00  0.00    -0.034 C 
ATOM     68  H   UNL A   1      37.577  28.384  28.975  1.00  0.00     0.065 H 
ATOM     69  C   UNL A   1      43.950  29.321  29.490  1.00  0.00    -0.036 A 
ATOM     70  H   UNL A   1      42.706  27.737  28.852  1.00  0.00     0.065 H 
ATOM     71  C   UNL A   1      43.694  30.682  29.911  1.00  0.00     0.049 A 
ATOM     72  H   UNL A   1      41.773  31.533  30.197  1.00  0.00     0.167 HD
ATOM     73  C   UNL A   1      36.932  32.767  30.056  1.00  0.00     0.037 A 
ATOM     74  H   UNL A   1      35.790  30.185  29.324  1.00  0.00     0.065 H 
ATOM     75  H   UNL A   1      44.882  28.881  29.437  1.00  0.00     0.065 H 
ATOM     76  C   UNL A   1      44.598  31.669  30.213  1.00  0.00     0.037 A 
ATOM     77  C   UNL A   1      37.970  33.729  30.181  1.00  0.00     0.049 A 
ATOM     78  C   UNL A   1      43.786  32.788  30.713  1.00  0.00     0.074 A 
ATOM     79  C   UNL A   1      38.661  34.452  29.245  1.00  0.00    -0.036 A 
ATOM     80  N   UNL A   1      38.648  33.761  31.373  1.00  0.00    -0.354 N 
ATOM     81  N   UNL A   1      43.193  32.810  31.869  1.00  0.00    -0.248 NA
ATOM     82  C   UNL A   1      43.548  33.934  29.828  1.00  0.00    -0.034 C 
ATOM     83  C   UNL A   1      39.967  34.486  29.767  1.00  0.00    -0.036 A 
ATOM     84  H   UNL A   1      38.309  34.870  28.370  1.00  0.00     0.065 H 
ATOM     85  C   UNL A   1      39.966  34.000  31.080  1.00  0.00     0.049 A 
ATOM     86  H   UNL A   1      38.262  33.636  32.269  1.00  0.00     0.167 HD
ATOM     87  C   UNL A   1      42.258  33.797  31.690  1.00  0.00     0.074 A 
ATOM     88  C   UNL A   1      42.728  34.632  30.607  1.00  0.00    -0.034 C 
ATOM     89  H   UNL A   1      43.910  34.138  28.883  1.00  0.00     0.065 H 
ATOM     90  H   UNL A   1      40.801  34.818  29.258  1.00  0.00     0.065 H 
ATOM     91  C   UNL A   1      40.965  33.547  32.015  1.00  0.00     0.037 A 
ATOM     92  H   UNL A   1      42.466  35.620  30.460  1.00  0.00     0.065 H 
BRANCH  73  93
ATOM     93  C   UNL A   1      35.599  33.135  30.651  1.00  0.00     0.064 A 
ATOM     94  C   UNL A   1      35.210  32.780  31.948  1.00  0.00     0.173 A 
ATOM     95  C   UNL A   1      34.856  34.180  30.042  1.00  0.00     0.173 A 
ATOM     96  F   UNL A   1      35.850  31.817  32.622  1.00  0.00    -0.203 F 
ATOM     97  C   UNL A   1      34.208  33.486  32.624  1.00  0.00     0.198 A 
ATOM     98  C   UNL A   1      33.895  34.911  30.735  1.00  0.00     0.198 A 
ATOM     99  F   UNL A   1      35.114  34.563  28.780  1.00  0.00    -0.203 F 
ATOM    100  F   UNL A   1      33.901  33.152  33.886  1.00  0.00    -0.200 F 
ATOM    101  C   UNL A   1      33.584  34.575  32.037  1.00  0.00     0.200 A 
ATOM    102  F   UNL A   1      33.326  35.982  30.163  1.00  0.00    -0.200 F 
ATOM    103  F   UNL A   1      32.713  35.316  32.735  1.00  0.00    -0.200 F 
ENDBRANCH  73  93
BRANCH  76 104
ATOM    104  C   UNL A   1      46.086  31.937  30.080  1.00  0.00     0.064 A 
ATOM    105  C   UNL A   1      46.889  32.067  31.254  1.00  0.00     0.173 A 
ATOM    106  C   UNL A   1      46.777  32.209  28.893  1.00  0.00     0.173 A 
ATOM    107  F   UNL A   1      46.450  31.671  32.455  1.00  0.00    -0.203 F 
ATOM    108  C   UNL A   1      48.169  32.622  31.259  1.00  0.00     0.198 A 
ATOM    109  C   UNL A   1      48.095  32.709  28.893  1.00  0.00     0.198 A 
ATOM    110  F   UNL A   1      46.214  31.996  27.700  1.00  0.00    -0.203 F 
ATOM    111  F   UNL A   1      48.793  32.842  32.426  1.00  0.00    -0.200 F 
ATOM    112  C   UNL A   1      48.767  32.966  30.074  1.00  0.00     0.200 A 
ATOM    113  F   UNL A   1      48.706  32.968  27.727  1.00  0.00    -0.200 F 
ATOM    114  F   UNL A   1      49.984  33.528  30.071  1.00  0.00    -0.200 F 
ENDBRANCH  76 104
BRANCH  91 115
ATOM    115  C   UNL A   1      40.785  32.497  33.091  1.00  0.00     0.064 A 
ATOM    116  C   UNL A   1      40.311  31.196  32.857  1.00  0.00     0.173 A 
ATOM    117  C   UNL A   1      41.206  32.771  34.401  1.00  0.00     0.173 A 
ATOM    118  F   UNL A   1      39.886  30.834  31.649  1.00  0.00    -0.203 F 
ATOM    119  C   UNL A   1      40.257  30.225  33.861  1.00  0.00     0.198 A 
ATOM    120  C   UNL A   1      41.159  31.802  35.408  1.00  0.00     0.198 A 
ATOM    121  F   UNL A   1      41.662  33.994  34.713  1.00  0.00    -0.203 F 
ATOM    122  F   UNL A   1      39.781  29.000  33.587  1.00  0.00    -0.200 F 
ATOM    123  C   UNL A   1      40.684  30.530  35.138  1.00  0.00     0.200 A 
ATOM    124  F   UNL A   1      41.567  32.109  36.647  1.00  0.00    -0.200 F 
ATOM    125  F   UNL A   1      40.624  29.607  36.107  1.00  0.00    -0.200 F 
ENDBRANCH  91 115
ENDBRANCH  56  59
ENDBRANCH  46  49
ENDBRANCH  42  45
ENDBRANCH  39  42
ENDBRANCH  36  39
ENDBRANCH   1  36
TORSDOF 15
ENDMDL
MODEL 7
REMARK VINA RESULT:     -11.3      4.870      8.043
REMARK SMILES O=C(Cc1ccn(-c2ccccc2F)c1)NCCCCCCNC(=O)c1ccc(-c2c3nc(c(-c4c(F)c(F)c(F)c(F)c4F)c4ccc([nH]4)c(-c4c(F)c(F)c(F)c(F)c4F)c4nc(c(-c5c(F)c(F)c(F)c(F)c5F)c5ccc2[nH]5)C=C4)C=C3)cc1
REMARK SMILES IDX 19 1 18 4 17 7 16 10 1 11 2 12 3 14 4 17 5 18 15 19 6 20
REMARK SMILES IDX 7 22 8 25 9 26 13 27 10 28 12 30 14 31 11 32 20 36 21 39
REMARK SMILES IDX 22 42 23 45 24 46 25 48 26 49 27 50 88 51 28 52 87 54 29 56
REMARK SMILES IDX 30 59 31 60 81 61 32 62 86 63 80 64 82 65 33 66 85 67 79 69
REMARK SMILES IDX 78 71 34 73 66 76 46 77 65 78 47 79 50 80 64 81 83 82 48 83
REMARK SMILES IDX 49 85 63 87 84 88 51 91 35 93 36 94 44 95 37 96 38 97 42 98
REMARK SMILES IDX 45 99 39 100 40 101 43 102 41 103 67 104 68 105 76 106
REMARK SMILES IDX 69 107 70 108 74 109 77 110 71 111 72 112 75 113 73 114
REMARK SMILES IDX 52 115 53 116 61 117 54 118 55 119 59 120 62 121 56 122
REMARK SMILES IDX 57 123 60 124 58 125
REMARK H PARENT 19 2 19 3 18 5 18 6 17 8 17 9 16 13 3 15 3 16 5 21 15 23 6 24
REMARK H PARENT 9 29 10 33 12 34 11 35 20 37 20 38 21 40 21 41 22 43 22 44
REMARK H PARENT 23 47 27 53 88 55 28 57 87 58 86 68 80 70 82 72 85 74 79 75
REMARK H PARENT 47 84 50 86 83 89 48 90 84 92
REMARK Flexibility Score: inf
ROOT
ATOM      1  C   UNL A   1      34.335  32.941  28.991  1.00  0.00    -0.052 C 
ATOM      2  H   UNL A   1      35.018  32.650  29.762  1.00  0.00     0.027 H 
ATOM      3  H   UNL A   1      33.312  32.726  29.220  1.00  0.00     0.027 H 
ENDROOT
BRANCH   1   4
ATOM      4  C   UNL A   1      34.666  32.129  27.732  1.00  0.00    -0.036 C 
ATOM      5  H   UNL A   1      33.991  32.425  26.956  1.00  0.00     0.028 H 
ATOM      6  H   UNL A   1      35.690  32.334  27.497  1.00  0.00     0.028 H 
BRANCH   4   7
ATOM      7  C   UNL A   1      34.556  30.614  27.908  1.00  0.00     0.017 C 
ATOM      8  H   UNL A   1      35.478  30.241  28.304  1.00  0.00     0.049 H 
ATOM      9  H   UNL A   1      33.746  30.410  28.577  1.00  0.00     0.049 H 
BRANCH   7  10
ATOM     10  N   UNL A   1      34.283  29.956  26.650  1.00  0.00    -0.356 N 
ATOM     11  O   UNL A   1      33.201  28.139  27.543  1.00  0.00    -0.275 OA
ATOM     12  C   UNL A   1      33.624  28.749  26.563  1.00  0.00     0.224 C 
ATOM     13  H   UNL A   1      34.581  30.390  25.818  1.00  0.00     0.163 HD
BRANCH  12  14
ATOM     14  C   UNL A   1      33.562  28.162  25.164  1.00  0.00     0.053 C 
ATOM     15  H   UNL A   1      33.806  27.122  25.224  1.00  0.00     0.042 H 
ATOM     16  H   UNL A   1      34.258  28.714  24.567  1.00  0.00     0.042 H 
BRANCH  14  17
ATOM     17  C   UNL A   1      32.225  28.295  24.506  1.00  0.00    -0.021 A 
ATOM     18  C   UNL A   1      31.187  27.326  24.484  1.00  0.00    -0.040 A 
ATOM     19  C   UNL A   1      31.736  29.401  23.836  1.00  0.00     0.013 A 
ATOM     20  C   UNL A   1      30.089  27.905  23.887  1.00  0.00     0.009 A 
ATOM     21  H   UNL A   1      31.245  26.363  24.850  1.00  0.00     0.064 H 
ATOM     22  N   UNL A   1      30.418  29.186  23.492  1.00  0.00    -0.321 N 
ATOM     23  H   UNL A   1      32.275  30.257  23.625  1.00  0.00     0.083 H 
ATOM     24  H   UNL A   1      29.170  27.455  23.756  1.00  0.00     0.082 H 
BRANCH  22  25
ATOM     25  C   UNL A   1      29.543  30.128  22.904  1.00  0.00     0.081 A 
ATOM     26  C   UNL A   1      29.042  29.902  21.615  1.00  0.00    -0.035 A 
ATOM     27  C   UNL A   1      29.145  31.265  23.610  1.00  0.00     0.147 A 
ATOM     28  C   UNL A   1      28.127  30.801  21.059  1.00  0.00    -0.060 A 
ATOM     29  H   UNL A   1      29.348  29.076  21.078  1.00  0.00     0.065 H 
ATOM     30  C   UNL A   1      28.264  32.180  23.038  1.00  0.00    -0.024 A 
ATOM     31  F   UNL A   1      29.649  31.546  24.820  1.00  0.00    -0.205 F 
ATOM     32  C   UNL A   1      27.745  31.942  21.766  1.00  0.00    -0.059 A 
ATOM     33  H   UNL A   1      27.734  30.621  20.122  1.00  0.00     0.062 H 
ATOM     34  H   UNL A   1      27.997  33.032  23.554  1.00  0.00     0.065 H 
ATOM     35  H   UNL A   1      27.079  32.610  21.347  1.00  0.00     0.062 H 
ENDBRANCH  22  25
ENDBRANCH  14  17
ENDBRANCH  12  14
ENDBRANCH   7  10
ENDBRANCH   4   7
ENDBRANCH   1   4
BRANCH   1  36
ATOM     36  C   UNL A   1      34.422  34.463  28.832  1.00  0.00    -0.052 C 
ATOM     37  H   UNL A   1      34.804  34.672  27.854  1.00  0.00     0.027 H 
ATOM     38  H   UNL A   1      35.057  34.808  29.622  1.00  0.00     0.027 H 
BRANCH  36  39
ATOM     39  C   UNL A   1      33.095  35.217  28.994  1.00  0.00    -0.036 C 
ATOM     40  H   UNL A   1      32.375  34.545  29.413  1.00  0.00     0.028 H 
ATOM     41  H   UNL A   1      32.815  35.565  28.023  1.00  0.00     0.028 H 
BRANCH  39  42
ATOM     42  C   UNL A   1      33.188  36.447  29.897  1.00  0.00     0.018 C 
ATOM     43  H   UNL A   1      32.831  37.302  29.363  1.00  0.00     0.049 H 
ATOM     44  H   UNL A   1      34.209  36.584  30.185  1.00  0.00     0.049 H 
BRANCH  42  45
ATOM     45  N   UNL A   1      32.389  36.269  31.098  1.00  0.00    -0.352 N 
ATOM     46  C   UNL A   1      32.569  35.425  32.164  1.00  0.00     0.251 C 
ATOM     47  H   UNL A   1      31.593  36.845  31.156  1.00  0.00     0.163 HD
ATOM     48  O   UNL A   1      31.614  35.160  32.883  1.00  0.00    -0.269 OA
BRANCH  46  49
ATOM     49  C   UNL A   1      33.885  34.821  32.461  1.00  0.00     0.039 A 
ATOM     50  C   UNL A   1      33.899  33.523  32.990  1.00  0.00    -0.049 A 
ATOM     51  C   UNL A   1      35.079  35.541  32.337  1.00  0.00    -0.049 A 
ATOM     52  C   UNL A   1      35.106  32.927  33.338  1.00  0.00    -0.053 A 
ATOM     53  H   UNL A   1      33.014  33.010  33.121  1.00  0.00     0.063 H 
ATOM     54  C   UNL A   1      36.292  34.941  32.664  1.00  0.00    -0.053 A 
ATOM     55  H   UNL A   1      35.059  36.518  32.003  1.00  0.00     0.063 H 
ATOM     56  C   UNL A   1      36.304  33.626  33.146  1.00  0.00    -0.014 A 
ATOM     57  H   UNL A   1      35.119  31.974  33.735  1.00  0.00     0.063 H 
ATOM     58  H   UNL A   1      37.175  35.461  32.550  1.00  0.00     0.063 H 
BRANCH  56  59
ATOM     59  C   UNL A   1      37.580  32.888  33.274  1.00  0.00     0.031 A 
ATOM     60  C   UNL A   1      37.657  31.718  32.265  1.00  0.00     0.074 A 
ATOM     61  C   UNL A   1      38.448  33.324  34.237  1.00  0.00     0.049 A 
ATOM     62  N   UNL A   1      38.379  30.639  32.283  1.00  0.00    -0.248 NA
ATOM     63  C   UNL A   1      36.761  31.728  31.072  1.00  0.00    -0.034 C 
ATOM     64  C   UNL A   1      38.229  34.515  35.086  1.00  0.00    -0.036 A 
ATOM     65  N   UNL A   1      39.671  32.880  34.710  1.00  0.00    -0.354 N 
ATOM     66  C   UNL A   1      38.174  29.956  31.060  1.00  0.00     0.074 A 
ATOM     67  C   UNL A   1      37.095  30.624  30.401  1.00  0.00    -0.034 C 
ATOM     68  H   UNL A   1      36.046  32.430  30.823  1.00  0.00     0.065 H 
ATOM     69  C   UNL A   1      39.209  34.644  36.005  1.00  0.00    -0.036 A 
ATOM     70  H   UNL A   1      37.430  35.162  34.989  1.00  0.00     0.065 H 
ATOM     71  C   UNL A   1      40.169  33.571  35.850  1.00  0.00     0.049 A 
ATOM     72  H   UNL A   1      40.160  32.138  34.288  1.00  0.00     0.167 HD
ATOM     73  C   UNL A   1      38.990  28.953  30.619  1.00  0.00     0.037 A 
ATOM     74  H   UNL A   1      36.642  30.299  29.533  1.00  0.00     0.065 H 
ATOM     75  H   UNL A   1      39.265  35.394  36.712  1.00  0.00     0.065 H 
ATOM     76  C   UNL A   1      41.250  33.270  36.639  1.00  0.00     0.037 A 
ATOM     77  C   UNL A   1      39.970  28.665  31.607  1.00  0.00     0.049 A 
ATOM     78  C   UNL A   1      41.943  32.181  35.935  1.00  0.00     0.074 A 
ATOM     79  C   UNL A   1      39.886  28.030  32.817  1.00  0.00    -0.036 A 
ATOM     80  N   UNL A   1      41.142  29.376  31.546  1.00  0.00    -0.354 N 
ATOM     81  N   UNL A   1      42.630  32.330  34.843  1.00  0.00    -0.248 NA
ATOM     82  C   UNL A   1      41.793  30.811  36.439  1.00  0.00    -0.034 C 
ATOM     83  C   UNL A   1      40.768  28.767  33.628  1.00  0.00    -0.036 A 
ATOM     84  H   UNL A   1      39.313  27.210  33.072  1.00  0.00     0.065 H 
ATOM     85  C   UNL A   1      41.514  29.649  32.837  1.00  0.00     0.049 A 
ATOM     86  H   UNL A   1      41.624  29.639  30.730  1.00  0.00     0.167 HD
ATOM     87  C   UNL A   1      42.688  31.044  34.367  1.00  0.00     0.074 A 
ATOM     88  C   UNL A   1      42.472  30.166  35.495  1.00  0.00    -0.034 C 
ATOM     89  H   UNL A   1      41.307  30.455  37.277  1.00  0.00     0.065 H 
ATOM     90  H   UNL A   1      40.852  28.673  34.652  1.00  0.00     0.065 H 
ATOM     91  C   UNL A   1      42.344  30.803  33.077  1.00  0.00     0.037 A 
ATOM     92  H   UNL A   1      42.795  29.188  35.558  1.00  0.00     0.065 H 
BRANCH  73  93
ATOM     93  C   UNL A   1      39.169  28.286  29.281  1.00  0.00     0.064 A 
ATOM     94  C   UNL A   1      39.648  28.952  28.147  1.00  0.00     0.173 A 
ATOM     95  C   UNL A   1      39.215  26.868  29.237  1.00  0.00     0.173 A 
ATOM     96  F   UNL A   1      39.664  30.289  28.086  1.00  0.00    -0.203 F 
ATOM     97  C   UNL A   1      40.221  28.249  27.080  1.00  0.00     0.198 A 
ATOM     98  C   UNL A   1      39.831  26.176  28.196  1.00  0.00     0.198 A 
ATOM     99  F   UNL A   1      38.733  26.131  30.252  1.00  0.00    -0.203 F 
ATOM    100  F   UNL A   1      40.719  28.925  26.035  1.00  0.00    -0.200 F 
ATOM    101  C   UNL A   1      40.352  26.870  27.124  1.00  0.00     0.200 A 
ATOM    102  F   UNL A   1      39.978  24.845  28.272  1.00  0.00    -0.200 F 
ATOM    103  F   UNL A   1      41.008  26.219  26.154  1.00  0.00    -0.200 F 
ENDBRANCH  73  93
BRANCH  76 104
ATOM    104  C   UNL A   1      41.821  33.653  37.993  1.00  0.00     0.064 A 
ATOM    105  C   UNL A   1      41.010  33.530  39.163  1.00  0.00     0.173 A 
ATOM    106  C   UNL A   1      43.060  34.258  38.229  1.00  0.00     0.173 A 
ATOM    107  F   UNL A   1      39.877  32.816  39.163  1.00  0.00    -0.203 F 
ATOM    108  C   UNL A   1      41.309  34.142  40.380  1.00  0.00     0.198 A 
ATOM    109  C   UNL A   1      43.392  34.821  39.478  1.00  0.00     0.198 A 
ATOM    110  F   UNL A   1      43.994  34.320  37.275  1.00  0.00    -0.203 F 
ATOM    111  F   UNL A   1      40.419  34.098  41.383  1.00  0.00    -0.200 F 
ATOM    112  C   UNL A   1      42.496  34.811  40.532  1.00  0.00     0.200 A 
ATOM    113  F   UNL A   1      44.588  35.404  39.647  1.00  0.00    -0.200 F 
ATOM    114  F   UNL A   1      42.778  35.429  41.688  1.00  0.00    -0.200 F 
ENDBRANCH  76 104
BRANCH  91 115
ATOM    115  C   UNL A   1      42.543  31.982  32.148  1.00  0.00     0.064 A 
ATOM    116  C   UNL A   1      41.498  32.753  31.612  1.00  0.00     0.173 A 
ATOM    117  C   UNL A   1      43.843  32.425  31.863  1.00  0.00     0.173 A 
ATOM    118  F   UNL A   1      40.228  32.418  31.822  1.00  0.00    -0.203 F 
ATOM    119  C   UNL A   1      41.729  33.896  30.841  1.00  0.00     0.198 A 
ATOM    120  C   UNL A   1      44.079  33.570  31.097  1.00  0.00     0.198 A 
ATOM    121  F   UNL A   1      44.898  31.739  32.327  1.00  0.00    -0.203 F 
ATOM    122  F   UNL A   1      40.695  34.590  30.340  1.00  0.00    -0.200 F 
ATOM    123  C   UNL A   1      43.023  34.305  30.586  1.00  0.00     0.200 A 
ATOM    124  F   UNL A   1      45.338  33.955  30.846  1.00  0.00    -0.200 F 
ATOM    125  F   UNL A   1      43.250  35.393  29.837  1.00  0.00    -0.200 F 
ENDBRANCH  91 115
ENDBRANCH  56  59
ENDBRANCH  46  49
ENDBRANCH  42  45
ENDBRANCH  39  42
ENDBRANCH  36  39
ENDBRANCH   1  36
TORSDOF 15
ENDMDL
MODEL 8
REMARK VINA RESULT:     -11.3      3.284      8.390
REMARK SMILES O=C(Cc1ccn(-c2ccccc2F)c1)NCCCCCCNC(=O)c1ccc(-c2c3nc(c(-c4c(F)c(F)c(F)c(F)c4F)c4ccc([nH]4)c(-c4c(F)c(F)c(F)c(F)c4F)c4nc(c(-c5c(F)c(F)c(F)c(F)c5F)c5ccc2[nH]5)C=C4)C=C3)cc1
REMARK SMILES IDX 19 1 18 4 17 7 16 10 1 11 2 12 3 14 4 17 5 18 15 19 6 20
REMARK SMILES IDX 7 22 8 25 9 26 13 27 10 28 12 30 14 31 11 32 20 36 21 39
REMARK SMILES IDX 22 42 23 45 24 46 25 48 26 49 27 50 88 51 28 52 87 54 29 56
REMARK SMILES IDX 30 59 31 60 81 61 32 62 86 63 80 64 82 65 33 66 85 67 79 69
REMARK SMILES IDX 78 71 34 73 66 76 46 77 65 78 47 79 50 80 64 81 83 82 48 83
REMARK SMILES IDX 49 85 63 87 84 88 51 91 35 93 36 94 44 95 37 96 38 97 42 98
REMARK SMILES IDX 45 99 39 100 40 101 43 102 41 103 67 104 68 105 76 106
REMARK SMILES IDX 69 107 70 108 74 109 77 110 71 111 72 112 75 113 73 114
REMARK SMILES IDX 52 115 53 116 61 117 54 118 55 119 59 120 62 121 56 122
REMARK SMILES IDX 57 123 60 124 58 125
REMARK H PARENT 19 2 19 3 18 5 18 6 17 8 17 9 16 13 3 15 3 16 5 21 15 23 6 24
REMARK H PARENT 9 29 10 33 12 34 11 35 20 37 20 38 21 40 21 41 22 43 22 44
REMARK H PARENT 23 47 27 53 88 55 28 57 87 58 86 68 80 70 82 72 85 74 79 75
REMARK H PARENT 47 84 50 86 83 89 48 90 84 92
REMARK Flexibility Score: inf
ROOT
ATOM      1  C   UNL A   1      36.566  21.507  25.505  1.00  0.00    -0.052 C 
ATOM      2  H   UNL A   1      36.596  21.485  26.574  1.00  0.00     0.027 H 
ATOM      3  H   UNL A   1      37.475  21.854  25.057  1.00  0.00     0.027 H 
ENDROOT
BRANCH   1   4
ATOM      4  C   UNL A   1      35.478  22.502  25.080  1.00  0.00    -0.036 C 
ATOM      5  H   UNL A   1      35.912  23.198  24.392  1.00  0.00     0.028 H 
ATOM      6  H   UNL A   1      34.688  21.924  24.648  1.00  0.00     0.028 H 
BRANCH   4   7
ATOM      7  C   UNL A   1      34.858  23.294  26.232  1.00  0.00     0.017 C 
ATOM      8  H   UNL A   1      35.022  22.762  27.147  1.00  0.00     0.049 H 
ATOM      9  H   UNL A   1      35.321  24.258  26.266  1.00  0.00     0.049 H 
BRANCH   7  10
ATOM     10  N   UNL A   1      33.438  23.477  26.041  1.00  0.00    -0.356 N 
ATOM     11  O   UNL A   1      32.793  22.572  28.050  1.00  0.00    -0.275 OA
ATOM     12  C   UNL A   1      32.500  23.090  26.974  1.00  0.00     0.224 C 
ATOM     13  H   UNL A   1      33.126  23.897  25.207  1.00  0.00     0.163 HD
BRANCH  12  14
ATOM     14  C   UNL A   1      31.059  23.242  26.522  1.00  0.00     0.053 C 
ATOM     15  H   UNL A   1      30.505  23.704  27.312  1.00  0.00     0.042 H 
ATOM     16  H   UNL A   1      30.703  22.260  26.289  1.00  0.00     0.042 H 
BRANCH  14  17
ATOM     17  C   UNL A   1      30.892  24.068  25.285  1.00  0.00    -0.021 A 
ATOM     18  C   UNL A   1      30.976  23.616  23.942  1.00  0.00    -0.040 A 
ATOM     19  C   UNL A   1      30.584  25.415  25.223  1.00  0.00     0.013 A 
ATOM     20  C   UNL A   1      30.632  24.671  23.126  1.00  0.00     0.009 A 
ATOM     21  H   UNL A   1      31.246  22.669  23.633  1.00  0.00     0.064 H 
ATOM     22  N   UNL A   1      30.382  25.779  23.908  1.00  0.00    -0.321 N 
ATOM     23  H   UNL A   1      30.515  26.049  26.035  1.00  0.00     0.083 H 
ATOM     24  H   UNL A   1      30.571  24.638  22.096  1.00  0.00     0.082 H 
BRANCH  22  25
ATOM     25  C   UNL A   1      29.933  27.039  23.450  1.00  0.00     0.081 A 
ATOM     26  C   UNL A   1      30.850  27.949  22.906  1.00  0.00    -0.035 A 
ATOM     27  C   UNL A   1      28.578  27.373  23.502  1.00  0.00     0.147 A 
ATOM     28  C   UNL A   1      30.398  29.169  22.395  1.00  0.00    -0.060 A 
ATOM     29  H   UNL A   1      31.856  27.719  22.884  1.00  0.00     0.065 H 
ATOM     30  C   UNL A   1      28.135  28.606  23.029  1.00  0.00    -0.024 A 
ATOM     31  F   UNL A   1      27.680  26.556  24.070  1.00  0.00    -0.205 F 
ATOM     32  C   UNL A   1      29.044  29.500  22.464  1.00  0.00    -0.059 A 
ATOM     33  H   UNL A   1      31.068  29.827  21.967  1.00  0.00     0.062 H 
ATOM     34  H   UNL A   1      27.137  28.858  23.097  1.00  0.00     0.065 H 
ATOM     35  H   UNL A   1      28.715  30.407  22.096  1.00  0.00     0.062 H 
ENDBRANCH  22  25
ENDBRANCH  14  17
ENDBRANCH  12  14
ENDBRANCH   7  10
ENDBRANCH   4   7
ENDBRANCH   1   4
BRANCH   1  36
ATOM     36  C   UNL A   1      36.372  20.070  25.007  1.00  0.00    -0.052 C 
ATOM     37  H   UNL A   1      35.990  20.115  24.008  1.00  0.00     0.027 H 
ATOM     38  H   UNL A   1      35.703  19.604  25.700  1.00  0.00     0.027 H 
BRANCH  36  39
ATOM     39  C   UNL A   1      37.639  19.204  24.991  1.00  0.00    -0.036 C 
ATOM     40  H   UNL A   1      37.814  18.881  23.986  1.00  0.00     0.028 H 
ATOM     41  H   UNL A   1      37.466  18.388  25.660  1.00  0.00     0.028 H 
BRANCH  39  42
ATOM     42  C   UNL A   1      38.890  19.928  25.489  1.00  0.00     0.018 C 
ATOM     43  H   UNL A   1      38.657  20.451  26.392  1.00  0.00     0.049 H 
ATOM     44  H   UNL A   1      39.213  20.613  24.733  1.00  0.00     0.049 H 
BRANCH  42  45
ATOM     45  N   UNL A   1      39.965  18.985  25.749  1.00  0.00    -0.352 N 
ATOM     46  C   UNL A   1      41.301  19.204  25.964  1.00  0.00     0.251 C 
ATOM     47  H   UNL A   1      39.691  18.040  25.776  1.00  0.00     0.163 HD
ATOM     48  O   UNL A   1      42.092  18.283  25.798  1.00  0.00    -0.269 OA
BRANCH  46  49
ATOM     49  C   UNL A   1      41.814  20.527  26.383  1.00  0.00     0.039 A 
ATOM     50  C   UNL A   1      42.254  21.400  25.379  1.00  0.00    -0.049 A 
ATOM     51  C   UNL A   1      41.970  20.870  27.731  1.00  0.00    -0.049 A 
ATOM     52  C   UNL A   1      42.796  22.635  25.720  1.00  0.00    -0.053 A 
ATOM     53  H   UNL A   1      42.177  21.127  24.387  1.00  0.00     0.063 H 
ATOM     54  C   UNL A   1      42.491  22.114  28.077  1.00  0.00    -0.053 A 
ATOM     55  H   UNL A   1      41.699  20.200  28.468  1.00  0.00     0.063 H 
ATOM     56  C   UNL A   1      42.885  23.002  27.069  1.00  0.00    -0.014 A 
ATOM     57  H   UNL A   1      43.128  23.277  24.984  1.00  0.00     0.063 H 
ATOM     58  H   UNL A   1      42.585  22.379  29.069  1.00  0.00     0.063 H 
BRANCH  56  59
ATOM     59  C   UNL A   1      43.215  24.406  27.397  1.00  0.00     0.031 A 
ATOM     60  C   UNL A   1      41.937  25.243  27.643  1.00  0.00     0.074 A 
ATOM     61  C   UNL A   1      44.543  24.739  27.411  1.00  0.00     0.049 A 
ATOM     62  N   UNL A   1      41.748  26.526  27.583  1.00  0.00    -0.248 NA
ATOM     63  C   UNL A   1      40.661  24.539  27.965  1.00  0.00    -0.034 C 
ATOM     64  C   UNL A   1      45.648  23.780  27.203  1.00  0.00    -0.036 A 
ATOM     65  N   UNL A   1      45.242  25.919  27.593  1.00  0.00    -0.354 N 
ATOM     66  C   UNL A   1      40.430  26.793  28.025  1.00  0.00     0.074 A 
ATOM     67  C   UNL A   1      39.781  25.525  28.152  1.00  0.00    -0.034 C 
ATOM     68  H   UNL A   1      40.497  23.523  28.028  1.00  0.00     0.065 H 
ATOM     69  C   UNL A   1      46.842  24.410  27.181  1.00  0.00    -0.036 A 
ATOM     70  H   UNL A   1      45.525  22.761  27.089  1.00  0.00     0.065 H 
ATOM     71  C   UNL A   1      46.647  25.831  27.381  1.00  0.00     0.049 A 
ATOM     72  H   UNL A   1      44.799  26.759  27.850  1.00  0.00     0.167 HD
ATOM     73  C   UNL A   1      39.998  28.043  28.372  1.00  0.00     0.037 A 
ATOM     74  H   UNL A   1      38.779  25.393  28.357  1.00  0.00     0.065 H 
ATOM     75  H   UNL A   1      47.755  23.949  27.041  1.00  0.00     0.065 H 
ATOM     76  C   UNL A   1      47.577  26.839  27.322  1.00  0.00     0.037 A 
ATOM     77  C   UNL A   1      41.027  28.990  28.123  1.00  0.00     0.049 A 
ATOM     78  C   UNL A   1      46.855  28.047  27.745  1.00  0.00     0.074 A 
ATOM     79  C   UNL A   1      41.523  29.513  26.959  1.00  0.00    -0.036 A 
ATOM     80  N   UNL A   1      41.913  29.229  29.143  1.00  0.00    -0.354 N 
ATOM     81  N   UNL A   1      46.485  28.296  28.965  1.00  0.00    -0.248 NA
ATOM     82  C   UNL A   1      46.441  29.013  26.720  1.00  0.00    -0.034 C 
ATOM     83  C   UNL A   1      42.902  29.616  27.216  1.00  0.00    -0.036 A 
ATOM     84  H   UNL A   1      41.010  29.767  26.100  1.00  0.00     0.065 H 
ATOM     85  C   UNL A   1      43.150  29.383  28.574  1.00  0.00     0.049 A 
ATOM     86  H   UNL A   1      41.700  29.281  30.102  1.00  0.00     0.167 HD
ATOM     87  C   UNL A   1      45.518  29.251  28.780  1.00  0.00     0.074 A 
ATOM     88  C   UNL A   1      45.768  29.861  27.492  1.00  0.00    -0.034 C 
ATOM     89  H   UNL A   1      46.620  29.030  25.704  1.00  0.00     0.065 H 
ATOM     90  H   UNL A   1      43.624  29.831  26.510  1.00  0.00     0.065 H 
ATOM     91  C   UNL A   1      44.310  29.092  29.378  1.00  0.00     0.037 A 
ATOM     92  H   UNL A   1      45.469  30.809  27.215  1.00  0.00     0.065 H 
BRANCH  73  93
ATOM     93  C   UNL A   1      38.792  28.542  29.123  1.00  0.00     0.064 A 
ATOM     94  C   UNL A   1      38.567  28.282  30.479  1.00  0.00     0.173 A 
ATOM     95  C   UNL A   1      38.045  29.610  28.561  1.00  0.00     0.173 A 
ATOM     96  F   UNL A   1      39.227  27.306  31.115  1.00  0.00    -0.203 F 
ATOM     97  C   UNL A   1      37.723  29.096  31.245  1.00  0.00     0.198 A 
ATOM     98  C   UNL A   1      37.246  30.448  29.336  1.00  0.00     0.198 A 
ATOM     99  F   UNL A   1      38.148  29.911  27.255  1.00  0.00    -0.203 F 
ATOM    100  F   UNL A   1      37.575  28.849  32.554  1.00  0.00    -0.200 F 
ATOM    101  C   UNL A   1      37.100  30.200  30.685  1.00  0.00     0.200 A 
ATOM    102  F   UNL A   1      36.678  31.530  28.785  1.00  0.00    -0.200 F 
ATOM    103  F   UNL A   1      36.391  31.040  31.451  1.00  0.00    -0.200 F 
ENDBRANCH  73  93
BRANCH  76 104
ATOM    104  C   UNL A   1      49.011  27.048  26.870  1.00  0.00     0.064 A 
ATOM    105  C   UNL A   1      49.325  27.022  25.477  1.00  0.00     0.173 A 
ATOM    106  C   UNL A   1      50.136  27.142  27.698  1.00  0.00     0.173 A 
ATOM    107  F   UNL A   1      48.373  27.119  24.539  1.00  0.00    -0.203 F 
ATOM    108  C   UNL A   1      50.619  26.880  24.976  1.00  0.00     0.198 A 
ATOM    109  C   UNL A   1      51.448  27.064  27.188  1.00  0.00     0.198 A 
ATOM    110  F   UNL A   1      50.013  27.321  29.016  1.00  0.00    -0.203 F 
ATOM    111  F   UNL A   1      50.808  26.716  23.659  1.00  0.00    -0.200 F 
ATOM    112  C   UNL A   1      51.685  26.877  25.838  1.00  0.00     0.200 A 
ATOM    113  F   UNL A   1      52.491  27.144  28.027  1.00  0.00    -0.200 F 
ATOM    114  F   UNL A   1      52.930  26.711  25.370  1.00  0.00    -0.200 F 
ENDBRANCH  76 104
BRANCH  91 115
ATOM    115  C   UNL A   1      44.347  28.264  30.645  1.00  0.00     0.064 A 
ATOM    116  C   UNL A   1      43.996  26.906  30.714  1.00  0.00     0.173 A 
ATOM    117  C   UNL A   1      44.858  28.828  31.824  1.00  0.00     0.173 A 
ATOM    118  F   UNL A   1      43.500  26.277  29.652  1.00  0.00    -0.203 F 
ATOM    119  C   UNL A   1      44.142  26.153  31.883  1.00  0.00     0.198 A 
ATOM    120  C   UNL A   1      45.011  28.078  32.993  1.00  0.00     0.198 A 
ATOM    121  F   UNL A   1      45.207  30.123  31.847  1.00  0.00    -0.203 F 
ATOM    122  F   UNL A   1      43.777  24.861  31.900  1.00  0.00    -0.200 F 
ATOM    123  C   UNL A   1      44.653  26.741  33.023  1.00  0.00     0.200 A 
ATOM    124  F   UNL A   1      45.499  28.658  34.098  1.00  0.00    -0.200 F 
ATOM    125  F   UNL A   1      44.783  26.026  34.149  1.00  0.00    -0.200 F 
ENDBRANCH  91 115
ENDBRANCH  56  59
ENDBRANCH  46  49
ENDBRANCH  42  45
ENDBRANCH  39  42
ENDBRANCH  36  39
ENDBRANCH   1  36
TORSDOF 15
ENDMDL
MODEL 9
REMARK VINA RESULT:     -11.3      1.575      2.649
REMARK SMILES O=C(Cc1ccn(-c2ccccc2F)c1)NCCCCCCNC(=O)c1ccc(-c2c3nc(c(-c4c(F)c(F)c(F)c(F)c4F)c4ccc([nH]4)c(-c4c(F)c(F)c(F)c(F)c4F)c4nc(c(-c5c(F)c(F)c(F)c(F)c5F)c5ccc2[nH]5)C=C4)C=C3)cc1
REMARK SMILES IDX 19 1 18 4 17 7 16 10 1 11 2 12 3 14 4 17 5 18 15 19 6 20
REMARK SMILES IDX 7 22 8 25 9 26 13 27 10 28 12 30 14 31 11 32 20 36 21 39
REMARK SMILES IDX 22 42 23 45 24 46 25 48 26 49 27 50 88 51 28 52 87 54 29 56
REMARK SMILES IDX 30 59 31 60 81 61 32 62 86 63 80 64 82 65 33 66 85 67 79 69
REMARK SMILES IDX 78 71 34 73 66 76 46 77 65 78 47 79 50 80 64 81 83 82 48 83
REMARK SMILES IDX 49 85 63 87 84 88 51 91 35 93 36 94 44 95 37 96 38 97 42 98
REMARK SMILES IDX 45 99 39 100 40 101 43 102 41 103 67 104 68 105 76 106
REMARK SMILES IDX 69 107 70 108 74 109 77 110 71 111 72 112 75 113 73 114
REMARK SMILES IDX 52 115 53 116 61 117 54 118 55 119 59 120 62 121 56 122
REMARK SMILES IDX 57 123 60 124 58 125
REMARK H PARENT 19 2 19 3 18 5 18 6 17 8 17 9 16 13 3 15 3 16 5 21 15 23 6 24
REMARK H PARENT 9 29 10 33 12 34 11 35 20 37 20 38 21 40 21 41 22 43 22 44
REMARK H PARENT 23 47 27 53 88 55 28 57 87 58 86 68 80 70 82 72 85 74 79 75
REMARK H PARENT 47 84 50 86 83 89 48 90 84 92
REMARK Flexibility Score: inf
ROOT
ATOM      1  C   UNL A   1      31.454  29.705  24.869  1.00  0.00    -0.052 C 
ATOM      2  H   UNL A   1      30.637  30.024  25.482  1.00  0.00     0.027 H 
ATOM      3  H   UNL A   1      31.603  30.316  24.002  1.00  0.00     0.027 H 
ENDROOT
BRANCH   1   4
ATOM      4  C   UNL A   1      31.134  28.299  24.344  1.00  0.00    -0.036 C 
ATOM      5  H   UNL A   1      31.825  27.612  24.785  1.00  0.00     0.028 H 
ATOM      6  H   UNL A   1      30.117  28.099  24.610  1.00  0.00     0.028 H 
BRANCH   4   7
ATOM      7  C   UNL A   1      31.222  28.155  22.824  1.00  0.00     0.017 C 
ATOM      8  H   UNL A   1      30.283  28.434  22.393  1.00  0.00     0.049 H 
ATOM      9  H   UNL A   1      32.006  28.790  22.470  1.00  0.00     0.049 H 
BRANCH   7  10
ATOM     10  N   UNL A   1      31.530  26.795  22.442  1.00  0.00    -0.356 N 
ATOM     11  O   UNL A   1      33.746  27.162  21.967  1.00  0.00    -0.275 OA
ATOM     12  C   UNL A   1      32.784  26.399  22.030  1.00  0.00     0.224 C 
ATOM     13  H   UNL A   1      30.813  26.123  22.478  1.00  0.00     0.163 HD
BRANCH  12  14
ATOM     14  C   UNL A   1      32.864  24.964  21.540  1.00  0.00     0.053 C 
ATOM     15  H   UNL A   1      33.746  24.861  20.943  1.00  0.00     0.042 H 
ATOM     16  H   UNL A   1      31.968  24.777  20.986  1.00  0.00     0.042 H 
BRANCH  14  17
ATOM     17  C   UNL A   1      32.916  23.948  22.637  1.00  0.00    -0.021 A 
ATOM     18  C   UNL A   1      32.927  24.204  24.034  1.00  0.00    -0.040 A 
ATOM     19  C   UNL A   1      32.920  22.572  22.494  1.00  0.00     0.013 A 
ATOM     20  C   UNL A   1      32.848  22.989  24.679  1.00  0.00     0.009 A 
ATOM     21  H   UNL A   1      32.984  25.130  24.483  1.00  0.00     0.064 H 
ATOM     22  N   UNL A   1      32.836  21.981  23.737  1.00  0.00    -0.321 N 
ATOM     23  H   UNL A   1      32.978  22.067  21.596  1.00  0.00     0.083 H 
ATOM     24  H   UNL A   1      32.804  22.854  25.701  1.00  0.00     0.082 H 
BRANCH  22  25
ATOM     25  C   UNL A   1      32.693  20.599  23.997  1.00  0.00     0.081 A 
ATOM     26  C   UNL A   1      32.332  19.729  22.959  1.00  0.00    -0.035 A 
ATOM     27  C   UNL A   1      32.940  20.087  25.272  1.00  0.00     0.147 A 
ATOM     28  C   UNL A   1      32.252  18.355  23.202  1.00  0.00    -0.060 A 
ATOM     29  H   UNL A   1      32.126  20.102  22.019  1.00  0.00     0.065 H 
ATOM     30  C   UNL A   1      32.821  18.721  25.521  1.00  0.00    -0.024 A 
ATOM     31  F   UNL A   1      33.227  20.893  26.304  1.00  0.00    -0.205 F 
ATOM     32  C   UNL A   1      32.488  17.853  24.482  1.00  0.00    -0.059 A 
ATOM     33  H   UNL A   1      32.016  17.710  22.431  1.00  0.00     0.062 H 
ATOM     34  H   UNL A   1      32.977  18.353  26.472  1.00  0.00     0.065 H 
ATOM     35  H   UNL A   1      32.416  16.838  24.660  1.00  0.00     0.062 H 
ENDBRANCH  22  25
ENDBRANCH  14  17
ENDBRANCH  12  14
ENDBRANCH   7  10
ENDBRANCH   4   7
ENDBRANCH   1   4
BRANCH   1  36
ATOM     36  C   UNL A   1      32.740  29.821  25.695  1.00  0.00    -0.052 C 
ATOM     37  H   UNL A   1      32.467  30.061  26.701  1.00  0.00     0.027 H 
ATOM     38  H   UNL A   1      33.331  30.576  25.219  1.00  0.00     0.027 H 
BRANCH  36  39
ATOM     39  C   UNL A   1      33.613  28.559  25.730  1.00  0.00    -0.036 C 
ATOM     40  H   UNL A   1      34.009  28.395  24.749  1.00  0.00     0.028 H 
ATOM     41  H   UNL A   1      32.987  27.756  26.059  1.00  0.00     0.028 H 
BRANCH  39  42
ATOM     42  C   UNL A   1      34.781  28.641  26.712  1.00  0.00     0.018 C 
ATOM     43  H   UNL A   1      35.616  28.105  26.311  1.00  0.00     0.049 H 
ATOM     44  H   UNL A   1      34.476  28.213  27.644  1.00  0.00     0.049 H 
BRANCH  42  45
ATOM     45  N   UNL A   1      35.169  30.023  26.942  1.00  0.00    -0.352 N 
ATOM     46  C   UNL A   1      36.223  30.540  27.650  1.00  0.00     0.251 C 
ATOM     47  H   UNL A   1      34.582  30.693  26.523  1.00  0.00     0.163 HD
ATOM     48  O   UNL A   1      36.171  31.703  28.032  1.00  0.00    -0.269 OA
BRANCH  46  49
ATOM     49  C   UNL A   1      37.415  29.728  27.971  1.00  0.00     0.039 A 
ATOM     50  C   UNL A   1      38.454  29.699  27.031  1.00  0.00    -0.049 A 
ATOM     51  C   UNL A   1      37.477  28.918  29.111  1.00  0.00    -0.049 A 
ATOM     52  C   UNL A   1      39.576  28.909  27.258  1.00  0.00    -0.053 A 
ATOM     53  H   UNL A   1      38.388  30.264  26.171  1.00  0.00     0.063 H 
ATOM     54  C   UNL A   1      38.607  28.142  29.354  1.00  0.00    -0.053 A 
ATOM     55  H   UNL A   1      36.684  28.896  29.772  1.00  0.00     0.063 H 
ATOM     56  C   UNL A   1      39.664  28.154  28.434  1.00  0.00    -0.014 A 
ATOM     57  H   UNL A   1      40.339  28.879  26.564  1.00  0.00     0.063 H 
ATOM     58  H   UNL A   1      38.667  27.563  30.205  1.00  0.00     0.063 H 
BRANCH  56  59
ATOM     59  C   UNL A   1      40.962  27.533  28.779  1.00  0.00     0.031 A 
ATOM     60  C   UNL A   1      41.056  26.087  28.237  1.00  0.00     0.074 A 
ATOM     61  C   UNL A   1      41.833  28.294  29.510  1.00  0.00     0.049 A 
ATOM     62  N   UNL A   1      41.808  25.097  28.611  1.00  0.00    -0.248 NA
ATOM     63  C   UNL A   1      40.141  25.665  27.136  1.00  0.00    -0.034 C 
ATOM     64  C   UNL A   1      41.593  29.700  29.899  1.00  0.00    -0.036 A 
ATOM     65  N   UNL A   1      43.074  28.067  30.078  1.00  0.00    -0.354 N 
ATOM     66  C   UNL A   1      41.602  24.028  27.705  1.00  0.00     0.074 A 
ATOM     67  C   UNL A   1      40.496  24.403  26.881  1.00  0.00    -0.034 C 
ATOM     68  H   UNL A   1      39.404  26.221  26.677  1.00  0.00     0.065 H 
ATOM     69  C   UNL A   1      42.584  30.161  30.692  1.00  0.00    -0.036 A 
ATOM     70  H   UNL A   1      40.776  30.257  29.603  1.00  0.00     0.065 H 
ATOM     71  C   UNL A   1      43.571  29.121  30.895  1.00  0.00     0.049 A 
ATOM     72  H   UNL A   1      43.577  27.234  29.928  1.00  0.00     0.167 HD
ATOM     73  C   UNL A   1      42.440  22.951  27.619  1.00  0.00     0.037 A 
ATOM     74  H   UNL A   1      40.038  23.788  26.191  1.00  0.00     0.065 H 
ATOM     75  H   UNL A   1      42.630  31.111  31.094  1.00  0.00     0.065 H 
ATOM     76  C   UNL A   1      44.672  29.134  31.714  1.00  0.00     0.037 A 
ATOM     77  C   UNL A   1      43.443  23.044  28.621  1.00  0.00     0.049 A 
ATOM     78  C   UNL A   1      45.383  27.884  31.414  1.00  0.00     0.074 A 
ATOM     79  C   UNL A   1      43.394  22.867  29.978  1.00  0.00    -0.036 A 
ATOM     80  N   UNL A   1      44.593  23.714  28.290  1.00  0.00    -0.354 N 
ATOM     81  N   UNL A   1      46.049  27.659  30.321  1.00  0.00    -0.248 NA
ATOM     82  C   UNL A   1      45.280  26.771  32.365  1.00  0.00    -0.034 C 
ATOM     83  C   UNL A   1      44.268  23.858  30.462  1.00  0.00    -0.036 A 
ATOM     84  H   UNL A   1      42.849  22.175  30.516  1.00  0.00     0.065 H 
ATOM     85  C   UNL A   1      44.977  24.426  29.397  1.00  0.00     0.049 A 
ATOM     86  H   UNL A   1      45.055  23.688  27.422  1.00  0.00     0.167 HD
ATOM     87  C   UNL A   1      46.135  26.289  30.320  1.00  0.00     0.074 A 
ATOM     88  C   UNL A   1      45.961  25.853  31.687  1.00  0.00    -0.034 C 
ATOM     89  H   UNL A   1      44.817  26.717  33.286  1.00  0.00     0.065 H 
ATOM     90  H   UNL A   1      44.371  24.127  31.453  1.00  0.00     0.065 H 
ATOM     91  C   UNL A   1      45.778  25.608  29.202  1.00  0.00     0.037 A 
ATOM     92  H   UNL A   1      46.312  24.964  32.077  1.00  0.00     0.065 H 
BRANCH  73  93
ATOM     93  C   UNL A   1      42.617  21.866  26.591  1.00  0.00     0.064 A 
ATOM     94  C   UNL A   1      43.546  21.937  25.547  1.00  0.00     0.173 A 
ATOM     95  C   UNL A   1      42.104  20.574  26.881  1.00  0.00     0.173 A 
ATOM     96  F   UNL A   1      44.105  23.102  25.198  1.00  0.00    -0.203 F 
ATOM     97  C   UNL A   1      44.004  20.781  24.902  1.00  0.00     0.198 A 
ATOM     98  C   UNL A   1      42.598  19.423  26.271  1.00  0.00     0.198 A 
ATOM     99  F   UNL A   1      41.168  20.402  27.830  1.00  0.00    -0.203 F 
ATOM    100  F   UNL A   1      44.937  20.884  23.945  1.00  0.00    -0.200 F 
ATOM    101  C   UNL A   1      43.565  19.527  25.292  1.00  0.00     0.200 A 
ATOM    102  F   UNL A   1      42.185  18.216  26.685  1.00  0.00    -0.200 F 
ATOM    103  F   UNL A   1      44.096  18.422  24.751  1.00  0.00    -0.200 F 
ENDBRANCH  73  93
BRANCH  76 104
ATOM    104  C   UNL A   1      45.253  29.976  32.837  1.00  0.00     0.064 A 
ATOM    105  C   UNL A   1      46.274  30.932  32.549  1.00  0.00     0.173 A 
ATOM    106  C   UNL A   1      44.984  29.834  34.204  1.00  0.00     0.173 A 
ATOM    107  F   UNL A   1      46.533  31.330  31.297  1.00  0.00    -0.203 F 
ATOM    108  C   UNL A   1      47.088  31.512  33.522  1.00  0.00     0.198 A 
ATOM    109  C   UNL A   1      45.765  30.471  35.189  1.00  0.00     0.198 A 
ATOM    110  F   UNL A   1      43.962  29.089  34.635  1.00  0.00    -0.203 F 
ATOM    111  F   UNL A   1      48.119  32.285  33.150  1.00  0.00    -0.200 F 
ATOM    112  C   UNL A   1      46.848  31.263  34.848  1.00  0.00     0.200 A 
ATOM    113  F   UNL A   1      45.475  30.289  36.485  1.00  0.00    -0.200 F 
ATOM    114  F   UNL A   1      47.643  31.791  35.789  1.00  0.00    -0.200 F 
ENDBRANCH  76 104
BRANCH  91 115
ATOM    115  C   UNL A   1      45.930  26.395  27.918  1.00  0.00     0.064 A 
ATOM    116  C   UNL A   1      47.163  26.727  27.333  1.00  0.00     0.173 A 
ATOM    117  C   UNL A   1      44.787  26.744  27.182  1.00  0.00     0.173 A 
ATOM    118  F   UNL A   1      48.307  26.441  27.949  1.00  0.00    -0.203 F 
ATOM    119  C   UNL A   1      47.257  27.367  26.093  1.00  0.00     0.198 A 
ATOM    120  C   UNL A   1      44.876  27.379  25.940  1.00  0.00     0.198 A 
ATOM    121  F   UNL A   1      43.569  26.474  27.675  1.00  0.00    -0.203 F 
ATOM    122  F   UNL A   1      48.461  27.675  25.585  1.00  0.00    -0.200 F 
ATOM    123  C   UNL A   1      46.111  27.691  25.396  1.00  0.00     0.200 A 
ATOM    124  F   UNL A   1      43.758  27.699  25.274  1.00  0.00    -0.200 F 
ATOM    125  F   UNL A   1      46.195  28.315  24.213  1.00  0.00    -0.200 F 
ENDBRANCH  91 115
ENDBRANCH  56  59
ENDBRANCH  46  49
ENDBRANCH  42  45
ENDBRANCH  39  42
ENDBRANCH  36  39
ENDBRANCH   1  36
TORSDOF 15
ENDMDL
MODEL 10
REMARK VINA RESULT:     -11.2      4.671      9.663
REMARK SMILES O=C(Cc1ccn(-c2ccccc2F)c1)NCCCCCCNC(=O)c1ccc(-c2c3nc(c(-c4c(F)c(F)c(F)c(F)c4F)c4ccc([nH]4)c(-c4c(F)c(F)c(F)c(F)c4F)c4nc(c(-c5c(F)c(F)c(F)c(F)c5F)c5ccc2[nH]5)C=C4)C=C3)cc1
REMARK SMILES IDX 19 1 18 4 17 7 16 10 1 11 2 12 3 14 4 17 5 18 15 19 6 20
REMARK SMILES IDX 7 22 8 25 9 26 13 27 10 28 12 30 14 31 11 32 20 36 21 39
REMARK SMILES IDX 22 42 23 45 24 46 25 48 26 49 27 50 88 51 28 52 87 54 29 56
REMARK SMILES IDX 30 59 31 60 81 61 32 62 86 63 80 64 82 65 33 66 85 67 79 69
REMARK SMILES IDX 78 71 34 73 66 76 46 77 65 78 47 79 50 80 64 81 83 82 48 83
REMARK SMILES IDX 49 85 63 87 84 88 51 91 35 93 36 94 44 95 37 96 38 97 42 98
REMARK SMILES IDX 45 99 39 100 40 101 43 102 41 103 67 104 68 105 76 106
REMARK SMILES IDX 69 107 70 108 74 109 77 110 71 111 72 112 75 113 73 114
REMARK SMILES IDX 52 115 53 116 61 117 54 118 55 119 59 120 62 121 56 122
REMARK SMILES IDX 57 123 60 124 58 125
REMARK H PARENT 19 2 19 3 18 5 18 6 17 8 17 9 16 13 3 15 3 16 5 21 15 23 6 24
REMARK H PARENT 9 29 10 33 12 34 11 35 20 37 20 38 21 40 21 41 22 43 22 44
REMARK H PARENT 23 47 27 53 88 55 28 57 87 58 86 68 80 70 82 72 85 74 79 75
REMARK H PARENT 47 84 50 86 83 89 48 90 84 92
REMARK Flexibility Score: inf
ROOT
ATOM      1  C   UNL A   1      34.213  23.040  26.234  1.00  0.00    -0.052 C 
ATOM      2  H   UNL A   1      34.058  23.248  27.272  1.00  0.00     0.027 H 
ATOM      3  H   UNL A   1      34.309  23.919  25.631  1.00  0.00     0.027 H 
ENDROOT
BRANCH   1   4
ATOM      4  C   UNL A   1      32.977  22.299  25.708  1.00  0.00    -0.036 C 
ATOM      5  H   UNL A   1      32.750  21.504  26.387  1.00  0.00     0.028 H 
ATOM      6  H   UNL A   1      32.195  23.025  25.634  1.00  0.00     0.028 H 
BRANCH   4   7
ATOM      7  C   UNL A   1      33.146  21.699  24.311  1.00  0.00     0.017 C 
ATOM      8  H   UNL A   1      34.176  21.448  24.162  1.00  0.00     0.049 H 
ATOM      9  H   UNL A   1      32.530  20.826  24.243  1.00  0.00     0.049 H 
BRANCH   7  10
ATOM     10  N   UNL A   1      32.733  22.629  23.285  1.00  0.00    -0.356 N 
ATOM     11  O   UNL A   1      34.845  23.163  22.563  1.00  0.00    -0.275 OA
ATOM     12  C   UNL A   1      33.627  23.305  22.483  1.00  0.00     0.224 C 
ATOM     13  H   UNL A   1      31.771  22.786  23.153  1.00  0.00     0.163 HD
BRANCH  12  14
ATOM     14  C   UNL A   1      32.997  24.337  21.566  1.00  0.00     0.053 C 
ATOM     15  H   UNL A   1      32.223  23.859  21.002  1.00  0.00     0.042 H 
ATOM     16  H   UNL A   1      33.781  24.719  20.946  1.00  0.00     0.042 H 
BRANCH  14  17
ATOM     17  C   UNL A   1      32.402  25.508  22.283  1.00  0.00    -0.021 A 
ATOM     18  C   UNL A   1      33.001  26.259  23.328  1.00  0.00    -0.040 A 
ATOM     19  C   UNL A   1      31.177  26.100  22.032  1.00  0.00     0.013 A 
ATOM     20  C   UNL A   1      32.167  27.320  23.608  1.00  0.00     0.009 A 
ATOM     21  H   UNL A   1      33.898  26.050  23.793  1.00  0.00     0.064 H 
ATOM     22  N   UNL A   1      31.046  27.232  22.808  1.00  0.00    -0.321 N 
ATOM     23  H   UNL A   1      30.470  25.748  21.366  1.00  0.00     0.083 H 
ATOM     24  H   UNL A   1      32.351  28.061  24.302  1.00  0.00     0.082 H 
BRANCH  22  25
ATOM     25  C   UNL A   1      29.990  28.170  22.747  1.00  0.00     0.081 A 
ATOM     26  C   UNL A   1      30.221  29.444  22.211  1.00  0.00    -0.035 A 
ATOM     27  C   UNL A   1      28.710  27.827  23.187  1.00  0.00     0.147 A 
ATOM     28  C   UNL A   1      29.162  30.349  22.093  1.00  0.00    -0.060 A 
ATOM     29  H   UNL A   1      31.169  29.713  21.905  1.00  0.00     0.065 H 
ATOM     30  C   UNL A   1      27.665  28.745  23.105  1.00  0.00    -0.024 A 
ATOM     31  F   UNL A   1      28.464  26.641  23.761  1.00  0.00    -0.205 F 
ATOM     32  C   UNL A   1      27.889  30.003  22.546  1.00  0.00    -0.059 A 
ATOM     33  H   UNL A   1      29.324  31.277  21.670  1.00  0.00     0.062 H 
ATOM     34  H   UNL A   1      26.728  28.495  23.457  1.00  0.00     0.065 H 
ATOM     35  H   UNL A   1      27.112  30.679  22.469  1.00  0.00     0.062 H 
ENDBRANCH  22  25
ENDBRANCH  14  17
ENDBRANCH  12  14
ENDBRANCH   7  10
ENDBRANCH   4   7
ENDBRANCH   1   4
BRANCH   1  36
ATOM     36  C   UNL A   1      35.540  22.285  26.096  1.00  0.00    -0.052 C 
ATOM     37  H   UNL A   1      35.345  21.362  25.592  1.00  0.00     0.027 H 
ATOM     38  H   UNL A   1      35.914  22.158  27.091  1.00  0.00     0.027 H 
BRANCH  36  39
ATOM     39  C   UNL A   1      36.639  23.025  25.321  1.00  0.00    -0.036 C 
ATOM     40  H   UNL A   1      36.177  23.591  24.539  1.00  0.00     0.028 H 
ATOM     41  H   UNL A   1      37.311  22.282  24.948  1.00  0.00     0.028 H 
BRANCH  39  42
ATOM     42  C   UNL A   1      37.467  23.981  26.181  1.00  0.00     0.018 C 
ATOM     43  H   UNL A   1      36.886  24.286  27.025  1.00  0.00     0.049 H 
ATOM     44  H   UNL A   1      37.737  24.829  25.586  1.00  0.00     0.049 H 
BRANCH  42  45
ATOM     45  N   UNL A   1      38.683  23.336  26.647  1.00  0.00    -0.352 N 
ATOM     46  C   UNL A   1      39.868  23.882  27.067  1.00  0.00     0.251 C 
ATOM     47  H   UNL A   1      38.650  22.353  26.666  1.00  0.00     0.163 HD
ATOM     48  O   UNL A   1      40.878  23.188  27.066  1.00  0.00    -0.269 OA
BRANCH  46  49
ATOM     49  C   UNL A   1      39.961  25.289  27.511  1.00  0.00     0.039 A 
ATOM     50  C   UNL A   1      39.553  25.586  28.819  1.00  0.00    -0.049 A 
ATOM     51  C   UNL A   1      40.329  26.321  26.640  1.00  0.00    -0.049 A 
ATOM     52  C   UNL A   1      39.568  26.900  29.271  1.00  0.00    -0.053 A 
ATOM     53  H   UNL A   1      39.241  24.828  29.446  1.00  0.00     0.063 H 
ATOM     54  C   UNL A   1      40.367  27.636  27.094  1.00  0.00    -0.053 A 
ATOM     55  H   UNL A   1      40.572  26.105  25.660  1.00  0.00     0.063 H 
ATOM     56  C   UNL A   1      40.005  27.920  28.417  1.00  0.00    -0.014 A 
ATOM     57  H   UNL A   1      39.261  27.123  30.231  1.00  0.00     0.063 H 
ATOM     58  H   UNL A   1      40.662  28.395  26.462  1.00  0.00     0.063 H 
BRANCH  56  59
ATOM     59  C   UNL A   1      40.261  29.260  28.991  1.00  0.00     0.031 A 
ATOM     60  C   UNL A   1      38.946  30.052  29.181  1.00  0.00     0.074 A 
ATOM     61  C   UNL A   1      41.568  29.585  29.234  1.00  0.00     0.049 A 
ATOM     62  N   UNL A   1      38.743  31.331  29.286  1.00  0.00    -0.248 NA
ATOM     63  C   UNL A   1      37.652  29.311  29.219  1.00  0.00    -0.034 C 
ATOM     64  C   UNL A   1      42.709  28.665  29.039  1.00  0.00    -0.036 A 
ATOM     65  N   UNL A   1      42.215  30.723  29.682  1.00  0.00    -0.354 N 
ATOM     66  C   UNL A   1      37.372  31.531  29.580  1.00  0.00     0.074 A 
ATOM     67  C   UNL A   1      36.736  30.260  29.428  1.00  0.00    -0.034 C 
ATOM     68  H   UNL A   1      37.500  28.296  29.109  1.00  0.00     0.065 H 
ATOM     69  C   UNL A   1      43.883  29.290  29.273  1.00  0.00    -0.036 A 
ATOM     70  H   UNL A   1      42.621  27.675  28.760  1.00  0.00     0.065 H 
ATOM     71  C   UNL A   1      43.637  30.666  29.653  1.00  0.00     0.049 A 
ATOM     72  H   UNL A   1      41.725  31.516  29.998  1.00  0.00     0.167 HD
ATOM     73  C   UNL A   1      36.874  32.716  30.046  1.00  0.00     0.037 A 
ATOM     74  H   UNL A   1      35.718  30.100  29.473  1.00  0.00     0.065 H 
ATOM     75  H   UNL A   1      44.815  28.854  29.192  1.00  0.00     0.065 H 
ATOM     76  C   UNL A   1      44.547  31.670  29.870  1.00  0.00     0.037 A 
ATOM     77  C   UNL A   1      37.910  33.688  30.081  1.00  0.00     0.049 A 
ATOM     78  C   UNL A   1      43.752  32.803  30.364  1.00  0.00     0.074 A 
ATOM     79  C   UNL A   1      38.548  34.377  29.085  1.00  0.00    -0.036 A 
ATOM     80  N   UNL A   1      38.645  33.771  31.236  1.00  0.00    -0.354 N 
ATOM     81  N   UNL A   1      43.216  32.867  31.546  1.00  0.00    -0.248 NA
ATOM     82  C   UNL A   1      43.462  33.911  29.447  1.00  0.00    -0.034 C 
ATOM     83  C   UNL A   1      39.878  34.439  29.540  1.00  0.00    -0.036 A 
ATOM     84  H   UNL A   1      38.151  34.758  28.212  1.00  0.00     0.065 H 
ATOM     85  C   UNL A   1      39.945  34.007  30.870  1.00  0.00     0.049 A 
ATOM     86  H   UNL A   1      38.304  33.680  32.155  1.00  0.00     0.167 HD
ATOM     87  C   UNL A   1      42.265  33.842  31.374  1.00  0.00     0.074 A 
ATOM     88  C   UNL A   1      42.675  34.635  30.237  1.00  0.00    -0.034 C 
ATOM     89  H   UNL A   1      43.776  34.079  28.478  1.00  0.00     0.065 H 
ATOM     90  H   UNL A   1      40.684  34.755  28.978  1.00  0.00     0.065 H 
ATOM     91  C   UNL A   1      40.991  33.597  31.772  1.00  0.00     0.037 A 
ATOM     92  H   UNL A   1      42.399  35.615  30.065  1.00  0.00     0.065 H 
BRANCH  73  93
ATOM     93  C   UNL A   1      35.569  33.099  30.690  1.00  0.00     0.064 A 
ATOM     94  C   UNL A   1      35.238  32.777  32.011  1.00  0.00     0.173 A 
ATOM     95  C   UNL A   1      34.799  34.130  30.089  1.00  0.00     0.173 A 
ATOM     96  F   UNL A   1      35.908  31.830  32.680  1.00  0.00    -0.203 F 
ATOM     97  C   UNL A   1      34.267  33.500  32.714  1.00  0.00     0.198 A 
ATOM     98  C   UNL A   1      33.870  34.879  30.807  1.00  0.00     0.198 A 
ATOM     99  F   UNL A   1      35.000  34.482  28.808  1.00  0.00    -0.203 F 
ATOM    100  F   UNL A   1      34.017  33.198  33.996  1.00  0.00    -0.200 F 
ATOM    101  C   UNL A   1      33.617  34.575  32.129  1.00  0.00     0.200 A 
ATOM    102  F   UNL A   1      33.276  35.936  30.234  1.00  0.00    -0.200 F 
ATOM    103  F   UNL A   1      32.778  35.334  32.846  1.00  0.00    -0.200 F 
ENDBRANCH  73  93
BRANCH  76 104
ATOM    104  C   UNL A   1      46.025  31.941  29.653  1.00  0.00     0.064 A 
ATOM    105  C   UNL A   1      46.512  32.188  28.334  1.00  0.00     0.173 A 
ATOM    106  C   UNL A   1      47.035  31.851  30.618  1.00  0.00     0.173 A 
ATOM    107  F   UNL A   1      45.687  32.484  27.321  1.00  0.00    -0.203 F 
ATOM    108  C   UNL A   1      47.861  32.127  27.982  1.00  0.00     0.198 A 
ATOM    109  C   UNL A   1      48.401  31.855  30.273  1.00  0.00     0.198 A 
ATOM    110  F   UNL A   1      46.743  31.767  31.920  1.00  0.00    -0.203 F 
ATOM    111  F   UNL A   1      48.217  32.225  26.693  1.00  0.00    -0.200 F 
ATOM    112  C   UNL A   1      48.810  31.937  28.954  1.00  0.00     0.200 A 
ATOM    113  F   UNL A   1      49.329  31.750  31.236  1.00  0.00    -0.200 F 
ATOM    114  F   UNL A   1      50.105  31.846  28.622  1.00  0.00    -0.200 F 
ENDBRANCH  76 104
BRANCH  91 115
ATOM    115  C   UNL A   1      40.873  32.590  32.896  1.00  0.00     0.064 A 
ATOM    116  C   UNL A   1      41.191  32.859  34.238  1.00  0.00     0.173 A 
ATOM    117  C   UNL A   1      40.316  31.328  32.637  1.00  0.00     0.173 A 
ATOM    118  F   UNL A   1      41.725  34.025  34.590  1.00  0.00    -0.203 F 
ATOM    119  C   UNL A   1      40.970  31.932  35.261  1.00  0.00     0.198 A 
ATOM    120  C   UNL A   1      40.089  30.400  33.658  1.00  0.00     0.198 A 
ATOM    121  F   UNL A   1      39.995  30.986  31.381  1.00  0.00    -0.203 F 
ATOM    122  F   UNL A   1      41.306  32.234  36.526  1.00  0.00    -0.200 F 
ATOM    123  C   UNL A   1      40.416  30.702  34.969  1.00  0.00     0.200 A 
ATOM    124  F   UNL A   1      39.559  29.205  33.365  1.00  0.00    -0.200 F 
ATOM    125  F   UNL A   1      40.214  29.805  35.944  1.00  0.00    -0.200 F 
ENDBRANCH  91 115
ENDBRANCH  56  59
ENDBRANCH  46  49
ENDBRANCH  42  45
ENDBRANCH  39  42
ENDBRANCH  36  39
ENDBRANCH   1  36
TORSDOF 15
ENDMDL
