MODEL 1
REMARK VINA RESULT:     -12.8      0.000      0.000
REMARK SMILES CC(=O)NS(=O)(=O)c1ccc(-c2ccn(C(F)F)c(=O)c2)cc1C(=O)NCCCCCCNC(=O)c1ccc(-c2c3nc(c(-c4c(F)c(F)c(F)c(F)c4F)c4ccc([nH]4)c(-c4c(F)c(F)c(F)c(F)c4F)c4nc(c(-c5c(F)c(F)c(F)c(F)c5F)c5ccc2[nH]5)C=C4)C=C3)cc1
REMARK SMILES IDX 29 1 28 4 27 7 26 10 24 11 25 12 23 14 8 15 9 16 10 17 22 19
REMARK SMILES IDX 11 20 5 23 6 24 7 25 4 26 2 27 3 28 1 30 12 34 13 35 21 36
REMARK SMILES IDX 14 37 19 39 15 41 20 43 16 44 17 45 18 46 30 48 31 51 32 54
REMARK SMILES IDX 33 57 34 58 35 60 36 61 37 62 98 63 38 64 97 66 39 68 40 71
REMARK SMILES IDX 41 72 91 73 42 74 96 75 90 76 92 77 43 78 95 79 89 81 88 83
REMARK SMILES IDX 44 85 76 88 56 89 75 90 57 91 60 92 74 93 93 94 58 95 59 97
REMARK SMILES IDX 73 99 94 100 61 103 45 105 46 106 54 107 47 108 48 109
REMARK SMILES IDX 52 110 55 111 49 112 50 113 53 114 51 115 77 116 78 117
REMARK SMILES IDX 86 118 79 119 80 120 84 121 87 122 81 123 82 124 85 125
REMARK SMILES IDX 83 126 62 127 63 128 71 129 64 130 65 131 69 132 72 133
REMARK SMILES IDX 66 134 67 135 70 136 68 137
REMARK H PARENT 29 2 29 3 28 5 28 6 27 8 27 9 26 13 9 18 10 21 22 22 4 29 1 31
REMARK H PARENT 1 32 1 33 13 38 21 40 14 42 16 47 30 49 30 50 31 52 31 53
REMARK H PARENT 32 55 32 56 33 59 37 65 98 67 38 69 97 70 96 80 90 82 92 84
REMARK H PARENT 95 86 89 87 57 96 60 98 93 101 58 102 94 104
REMARK Flexibility Score: inf
ROOT
ATOM      1  C   UNL A   1      32.335  29.540  26.867  1.00  0.00    -0.052 C 
ATOM      2  H   UNL A   1      33.275  29.348  26.394  1.00  0.00     0.027 H 
ATOM      3  H   UNL A   1      32.431  30.054  27.800  1.00  0.00     0.027 H 
ENDROOT
BRANCH   1   4
ATOM      4  C   UNL A   1      31.675  28.196  27.180  1.00  0.00    -0.036 C 
ATOM      5  H   UNL A   1      31.425  28.180  28.220  1.00  0.00     0.028 H 
ATOM      6  H   UNL A   1      30.819  28.121  26.542  1.00  0.00     0.028 H 
BRANCH   4   7
ATOM      7  C   UNL A   1      32.550  26.971  26.880  1.00  0.00     0.018 C 
ATOM      8  H   UNL A   1      33.008  27.087  25.920  1.00  0.00     0.049 H 
ATOM      9  H   UNL A   1      33.311  26.884  27.629  1.00  0.00     0.049 H 
BRANCH   7  10
ATOM     10  N   UNL A   1      31.725  25.771  26.884  1.00  0.00    -0.352 N 
ATOM     11  C   UNL A   1      30.991  25.155  25.911  1.00  0.00     0.252 C 
ATOM     12  O   UNL A   1      30.323  24.160  26.185  1.00  0.00    -0.269 OA
ATOM     13  H   UNL A   1      31.691  25.317  27.756  1.00  0.00     0.163 HD
BRANCH  11  14
ATOM     14  C   UNL A   1      31.053  25.561  24.494  1.00  0.00     0.060 A 
ATOM     15  C   UNL A   1      31.888  25.015  23.520  1.00  0.00     0.100 A 
ATOM     16  C   UNL A   1      31.889  25.550  22.220  1.00  0.00    -0.040 A 
ATOM     17  C   UNL A   1      31.151  26.701  21.928  1.00  0.00    -0.053 A 
ATOM     18  H   UNL A   1      32.437  25.091  21.476  1.00  0.00     0.064 H 
ATOM     19  C   UNL A   1      30.313  26.720  24.185  1.00  0.00    -0.040 A 
ATOM     20  C   UNL A   1      30.387  27.323  22.921  1.00  0.00    -0.017 A 
ATOM     21  H   UNL A   1      31.171  27.093  20.974  1.00  0.00     0.063 H 
ATOM     22  H   UNL A   1      29.704  27.136  24.906  1.00  0.00     0.064 H 
BRANCH  15  23
ATOM     23  S   UNL A   1      33.094  23.776  23.887  1.00  0.00     0.264 S 
ATOM     24  O   UNL A   1      33.770  24.211  25.091  1.00  0.00    -0.201 OA
ATOM     25  O   UNL A   1      33.819  23.411  22.696  1.00  0.00    -0.201 OA
BRANCH  23  26
ATOM     26  N   UNL A   1      32.185  22.461  24.323  1.00  0.00    -0.249 N 
ATOM     27  C   UNL A   1      32.610  21.215  24.801  1.00  0.00     0.230 C 
ATOM     28  O   UNL A   1      31.762  20.438  25.219  1.00  0.00    -0.274 OA
ATOM     29  H   UNL A   1      31.211  22.572  24.233  1.00  0.00     0.183 HD
BRANCH  27  30
ATOM     30  C   UNL A   1      34.064  20.851  24.738  1.00  0.00     0.016 C 
ATOM     31  H   UNL A   1      34.578  21.289  25.567  1.00  0.00     0.033 H 
ATOM     32  H   UNL A   1      34.485  21.216  23.824  1.00  0.00     0.033 H 
ATOM     33  H   UNL A   1      34.167  19.786  24.777  1.00  0.00     0.033 H 
ENDBRANCH  27  30
ENDBRANCH  23  26
ENDBRANCH  15  23
BRANCH  20  34
ATOM     34  C   UNL A   1      29.785  28.658  22.692  1.00  0.00    -0.011 A 
ATOM     35  C   UNL A   1      30.333  29.588  21.717  1.00  0.00    -0.038 A 
ATOM     36  C   UNL A   1      28.663  29.007  23.348  1.00  0.00     0.012 A 
ATOM     37  C   UNL A   1      29.728  30.752  21.458  1.00  0.00     0.013 A 
ATOM     38  H   UNL A   1      31.203  29.346  21.217  1.00  0.00     0.064 H 
ATOM     39  C   UNL A   1      27.975  30.301  23.069  1.00  0.00     0.255 A 
ATOM     40  H   UNL A   1      28.273  28.369  24.057  1.00  0.00     0.069 H 
ATOM     41  N   UNL A   1      28.566  31.110  22.114  1.00  0.00    -0.258 N 
ATOM     42  H   UNL A   1      30.133  31.393  20.758  1.00  0.00     0.082 H 
ATOM     43  O   UNL A   1      26.939  30.553  23.679  1.00  0.00    -0.269 OA
BRANCH  41  44
ATOM     44  C   UNL A   1      27.899  32.347  21.793  1.00  0.00     0.321 C 
ATOM     45  F   UNL A   1      28.495  33.393  22.416  1.00  0.00    -0.185 F 
ATOM     46  F   UNL A   1      27.918  32.584  20.459  1.00  0.00    -0.185 F 
ATOM     47  H   UNL A   1      26.888  32.248  22.127  1.00  0.00     0.131 H 
ENDBRANCH  41  44
ENDBRANCH  20  34
ENDBRANCH  11  14
ENDBRANCH   7  10
ENDBRANCH   4   7
ENDBRANCH   1   4
BRANCH   1  48
ATOM     48  C   UNL A   1      31.519  30.456  25.950  1.00  0.00    -0.052 C 
ATOM     49  H   UNL A   1      30.540  30.036  25.858  1.00  0.00     0.027 H 
ATOM     50  H   UNL A   1      32.070  30.504  25.034  1.00  0.00     0.027 H 
BRANCH  48  51
ATOM     51  C   UNL A   1      31.361  31.915  26.409  1.00  0.00    -0.036 C 
ATOM     52  H   UNL A   1      30.520  31.958  27.069  1.00  0.00     0.028 H 
ATOM     53  H   UNL A   1      31.251  32.481  25.507  1.00  0.00     0.028 H 
BRANCH  51  54
ATOM     54  C   UNL A   1      32.553  32.544  27.135  1.00  0.00     0.018 C 
ATOM     55  H   UNL A   1      33.395  32.533  26.477  1.00  0.00     0.049 H 
ATOM     56  H   UNL A   1      32.725  31.967  28.021  1.00  0.00     0.049 H 
BRANCH  54  57
ATOM     57  N   UNL A   1      32.311  33.912  27.553  1.00  0.00    -0.352 N 
ATOM     58  C   UNL A   1      32.995  34.677  28.465  1.00  0.00     0.251 C 
ATOM     59  H   UNL A   1      31.547  34.356  27.120  1.00  0.00     0.163 HD
ATOM     60  O   UNL A   1      32.592  35.803  28.745  1.00  0.00    -0.269 OA
BRANCH  58  61
ATOM     61  C   UNL A   1      34.197  34.150  29.151  1.00  0.00     0.039 A 
ATOM     62  C   UNL A   1      34.009  33.312  30.257  1.00  0.00    -0.049 A 
ATOM     63  C   UNL A   1      35.492  34.506  28.758  1.00  0.00    -0.049 A 
ATOM     64  C   UNL A   1      35.112  32.783  30.932  1.00  0.00    -0.053 A 
ATOM     65  H   UNL A   1      33.054  33.087  30.575  1.00  0.00     0.063 H 
ATOM     66  C   UNL A   1      36.596  33.965  29.427  1.00  0.00    -0.053 A 
ATOM     67  H   UNL A   1      35.633  35.165  27.977  1.00  0.00     0.063 H 
ATOM     68  C   UNL A   1      36.413  33.092  30.509  1.00  0.00    -0.014 A 
ATOM     69  H   UNL A   1      34.969  32.162  31.744  1.00  0.00     0.063 H 
ATOM     70  H   UNL A   1      37.550  34.210  29.120  1.00  0.00     0.063 H 
BRANCH  68  71
ATOM     71  C   UNL A   1      37.585  32.470  31.169  1.00  0.00     0.031 A 
ATOM     72  C   UNL A   1      38.369  31.390  30.487  1.00  0.00     0.074 A 
ATOM     73  C   UNL A   1      37.933  32.871  32.405  1.00  0.00     0.049 A 
ATOM     74  N   UNL A   1      39.363  30.675  30.952  1.00  0.00    -0.248 NA
ATOM     75  C   UNL A   1      37.986  31.067  29.105  1.00  0.00    -0.034 C 
ATOM     76  C   UNL A   1      37.254  33.913  33.176  1.00  0.00    -0.036 A 
ATOM     77  N   UNL A   1      38.944  32.447  33.229  1.00  0.00    -0.354 N 
ATOM     78  C   UNL A   1      39.708  29.800  29.933  1.00  0.00     0.074 A 
ATOM     79  C   UNL A   1      38.830  30.085  28.816  1.00  0.00    -0.034 C 
ATOM     80  H   UNL A   1      37.254  31.493  28.516  1.00  0.00     0.065 H 
ATOM     81  C   UNL A   1      37.872  34.050  34.362  1.00  0.00    -0.036 A 
ATOM     82  H   UNL A   1      36.435  34.455  32.861  1.00  0.00     0.065 H 
ATOM     83  C   UNL A   1      38.976  33.096  34.435  1.00  0.00     0.049 A 
ATOM     84  H   UNL A   1      39.585  31.743  32.977  1.00  0.00     0.167 HD
ATOM     85  C   UNL A   1      40.661  28.839  29.936  1.00  0.00     0.037 A 
ATOM     86  H   UNL A   1      38.858  29.588  27.912  1.00  0.00     0.065 H 
ATOM     87  H   UNL A   1      37.608  34.720  35.101  1.00  0.00     0.065 H 
ATOM     88  C   UNL A   1      39.798  32.935  35.488  1.00  0.00     0.037 A 
ATOM     89  C   UNL A   1      41.548  28.556  31.032  1.00  0.00     0.049 A 
ATOM     90  C   UNL A   1      40.884  31.904  35.441  1.00  0.00     0.074 A 
ATOM     91  C   UNL A   1      42.515  27.569  31.132  1.00  0.00    -0.036 A 
ATOM     92  N   UNL A   1      41.584  29.274  32.216  1.00  0.00    -0.354 N 
ATOM     93  N   UNL A   1      41.168  31.050  34.490  1.00  0.00    -0.248 NA
ATOM     94  C   UNL A   1      41.762  31.811  36.618  1.00  0.00    -0.034 C 
ATOM     95  C   UNL A   1      43.143  27.697  32.378  1.00  0.00    -0.036 A 
ATOM     96  H   UNL A   1      42.733  26.863  30.414  1.00  0.00     0.065 H 
ATOM     97  C   UNL A   1      42.569  28.762  33.048  1.00  0.00     0.049 A 
ATOM     98  H   UNL A   1      40.999  30.035  32.435  1.00  0.00     0.167 HD
ATOM     99  C   UNL A   1      42.246  30.311  34.954  1.00  0.00     0.074 A 
ATOM    100  C   UNL A   1      42.578  30.826  36.266  1.00  0.00    -0.034 C 
ATOM    101  H   UNL A   1      41.747  32.366  37.488  1.00  0.00     0.065 H 
ATOM    102  H   UNL A   1      43.905  27.098  32.734  1.00  0.00     0.065 H 
ATOM    103  C   UNL A   1      42.891  29.288  34.346  1.00  0.00     0.037 A 
ATOM    104  H   UNL A   1      43.351  30.473  36.851  1.00  0.00     0.065 H 
BRANCH  85 105
ATOM    105  C   UNL A   1      40.782  27.999  28.706  1.00  0.00     0.064 A 
ATOM    106  C   UNL A   1      40.045  26.818  28.561  1.00  0.00     0.173 A 
ATOM    107  C   UNL A   1      41.613  28.400  27.650  1.00  0.00     0.173 A 
ATOM    108  F   UNL A   1      39.245  26.395  29.551  1.00  0.00    -0.203 F 
ATOM    109  C   UNL A   1      40.137  26.061  27.396  1.00  0.00     0.198 A 
ATOM    110  C   UNL A   1      41.700  27.644  26.486  1.00  0.00     0.198 A 
ATOM    111  F   UNL A   1      42.339  29.524  27.752  1.00  0.00    -0.203 F 
ATOM    112  F   UNL A   1      39.431  24.929  27.276  1.00  0.00    -0.200 F 
ATOM    113  C   UNL A   1      40.961  26.476  26.359  1.00  0.00     0.200 A 
ATOM    114  F   UNL A   1      42.498  28.043  25.487  1.00  0.00    -0.200 F 
ATOM    115  F   UNL A   1      41.048  25.747  25.239  1.00  0.00    -0.200 F 
ENDBRANCH  85 105
BRANCH  88 116
ATOM    116  C   UNL A   1      39.611  33.778  36.689  1.00  0.00     0.064 A 
ATOM    117  C   UNL A   1      40.203  35.044  36.774  1.00  0.00     0.173 A 
ATOM    118  C   UNL A   1      38.822  33.341  37.760  1.00  0.00     0.173 A 
ATOM    119  F   UNL A   1      40.977  35.491  35.775  1.00  0.00    -0.203 F 
ATOM    120  C   UNL A   1      40.011  35.847  37.895  1.00  0.00     0.198 A 
ATOM    121  C   UNL A   1      38.627  34.147  38.878  1.00  0.00     0.198 A 
ATOM    122  F   UNL A   1      38.243  32.132  37.715  1.00  0.00    -0.203 F 
ATOM    123  F   UNL A   1      40.594  37.052  37.963  1.00  0.00    -0.200 F 
ATOM    124  C   UNL A   1      39.221  35.399  38.944  1.00  0.00     0.200 A 
ATOM    125  F   UNL A   1      37.864  33.712  39.890  1.00  0.00    -0.200 F 
ATOM    126  F   UNL A   1      39.035  36.172  40.023  1.00  0.00    -0.200 F 
ENDBRANCH  88 116
BRANCH 103 127
ATOM    127  C   UNL A   1      44.017  28.657  35.099  1.00  0.00     0.064 A 
ATOM    128  C   UNL A   1      45.329  29.123  34.950  1.00  0.00     0.173 A 
ATOM    129  C   UNL A   1      43.782  27.601  35.990  1.00  0.00     0.173 A 
ATOM    130  F   UNL A   1      45.598  30.123  34.097  1.00  0.00    -0.203 F 
ATOM    131  C   UNL A   1      46.375  28.549  35.668  1.00  0.00     0.198 A 
ATOM    132  C   UNL A   1      44.829  27.031  36.708  1.00  0.00     0.198 A 
ATOM    133  F   UNL A   1      42.542  27.119  36.153  1.00  0.00    -0.203 F 
ATOM    134  F   UNL A   1      47.626  28.999  35.503  1.00  0.00    -0.200 F 
ATOM    135  C   UNL A   1      46.124  27.505  36.546  1.00  0.00     0.200 A 
ATOM    136  F   UNL A   1      44.589  26.016  37.549  1.00  0.00    -0.200 F 
ATOM    137  F   UNL A   1      47.131  26.949  37.232  1.00  0.00    -0.200 F 
ENDBRANCH 103 127
ENDBRANCH  68  71
ENDBRANCH  58  61
ENDBRANCH  54  57
ENDBRANCH  51  54
ENDBRANCH  48  51
ENDBRANCH   1  48
TORSDOF 18
ENDMDL
MODEL 2
REMARK VINA RESULT:     -12.7      2.596      4.822
REMARK SMILES CC(=O)NS(=O)(=O)c1ccc(-c2ccn(C(F)F)c(=O)c2)cc1C(=O)NCCCCCCNC(=O)c1ccc(-c2c3nc(c(-c4c(F)c(F)c(F)c(F)c4F)c4ccc([nH]4)c(-c4c(F)c(F)c(F)c(F)c4F)c4nc(c(-c5c(F)c(F)c(F)c(F)c5F)c5ccc2[nH]5)C=C4)C=C3)cc1
REMARK SMILES IDX 29 1 28 4 27 7 26 10 24 11 25 12 23 14 8 15 9 16 10 17 22 19
REMARK SMILES IDX 11 20 5 23 6 24 7 25 4 26 2 27 3 28 1 30 12 34 13 35 21 36
REMARK SMILES IDX 14 37 19 39 15 41 20 43 16 44 17 45 18 46 30 48 31 51 32 54
REMARK SMILES IDX 33 57 34 58 35 60 36 61 37 62 98 63 38 64 97 66 39 68 40 71
REMARK SMILES IDX 41 72 91 73 42 74 96 75 90 76 92 77 43 78 95 79 89 81 88 83
REMARK SMILES IDX 44 85 76 88 56 89 75 90 57 91 60 92 74 93 93 94 58 95 59 97
REMARK SMILES IDX 73 99 94 100 61 103 45 105 46 106 54 107 47 108 48 109
REMARK SMILES IDX 52 110 55 111 49 112 50 113 53 114 51 115 77 116 78 117
REMARK SMILES IDX 86 118 79 119 80 120 84 121 87 122 81 123 82 124 85 125
REMARK SMILES IDX 83 126 62 127 63 128 71 129 64 130 65 131 69 132 72 133
REMARK SMILES IDX 66 134 67 135 70 136 68 137
REMARK H PARENT 29 2 29 3 28 5 28 6 27 8 27 9 26 13 9 18 10 21 22 22 4 29 1 31
REMARK H PARENT 1 32 1 33 13 38 21 40 14 42 16 47 30 49 30 50 31 52 31 53
REMARK H PARENT 32 55 32 56 33 59 37 65 98 67 38 69 97 70 96 80 90 82 92 84
REMARK H PARENT 95 86 89 87 57 96 60 98 93 101 58 102 94 104
REMARK Flexibility Score: inf
ROOT
ATOM      1  C   UNL A   1      33.838  30.387  27.388  1.00  0.00    -0.052 C 
ATOM      2  H   UNL A   1      34.264  31.225  26.877  1.00  0.00     0.027 H 
ATOM      3  H   UNL A   1      34.018  30.402  28.442  1.00  0.00     0.027 H 
ENDROOT
BRANCH   1   4
ATOM      4  C   UNL A   1      34.502  29.115  26.855  1.00  0.00    -0.036 C 
ATOM      5  H   UNL A   1      35.420  29.391  26.381  1.00  0.00     0.028 H 
ATOM      6  H   UNL A   1      34.642  28.470  27.697  1.00  0.00     0.028 H 
BRANCH   4   7
ATOM      7  C   UNL A   1      33.656  28.332  25.841  1.00  0.00     0.018 C 
ATOM      8  H   UNL A   1      33.893  27.291  25.908  1.00  0.00     0.049 H 
ATOM      9  H   UNL A   1      32.617  28.476  26.057  1.00  0.00     0.049 H 
BRANCH   7  10
ATOM     10  N   UNL A   1      33.943  28.810  24.496  1.00  0.00    -0.352 N 
ATOM     11  C   UNL A   1      33.608  28.339  23.259  1.00  0.00     0.252 C 
ATOM     12  O   UNL A   1      34.028  28.905  22.252  1.00  0.00    -0.269 OA
ATOM     13  H   UNL A   1      34.484  29.633  24.475  1.00  0.00     0.163 HD
BRANCH  11  14
ATOM     14  C   UNL A   1      32.652  27.231  23.066  1.00  0.00     0.060 A 
ATOM     15  C   UNL A   1      31.271  27.354  22.926  1.00  0.00     0.100 A 
ATOM     16  C   UNL A   1      30.473  26.202  22.817  1.00  0.00    -0.040 A 
ATOM     17  C   UNL A   1      31.039  24.933  22.970  1.00  0.00    -0.053 A 
ATOM     18  H   UNL A   1      29.464  26.292  22.622  1.00  0.00     0.064 H 
ATOM     19  C   UNL A   1      33.209  25.944  23.217  1.00  0.00    -0.040 A 
ATOM     20  C   UNL A   1      32.409  24.793  23.214  1.00  0.00    -0.017 A 
ATOM     21  H   UNL A   1      30.441  24.094  22.903  1.00  0.00     0.063 H 
ATOM     22  H   UNL A   1      34.230  25.849  23.334  1.00  0.00     0.064 H 
BRANCH  15  23
ATOM     23  S   UNL A   1      30.437  28.907  23.056  1.00  0.00     0.264 S 
ATOM     24  O   UNL A   1      30.578  29.554  21.769  1.00  0.00    -0.201 OA
ATOM     25  O   UNL A   1      30.798  29.570  24.284  1.00  0.00    -0.201 OA
BRANCH  23  26
ATOM     26  N   UNL A   1      28.841  28.487  23.184  1.00  0.00    -0.249 N 
ATOM     27  C   UNL A   1      27.709  29.312  23.201  1.00  0.00     0.230 C 
ATOM     28  O   UNL A   1      26.607  28.783  23.138  1.00  0.00    -0.274 OA
ATOM     29  H   UNL A   1      28.662  27.521  23.259  1.00  0.00     0.183 HD
BRANCH  27  30
ATOM     30  C   UNL A   1      27.874  30.797  23.347  1.00  0.00     0.016 C 
ATOM     31  H   UNL A   1      27.947  31.244  22.378  1.00  0.00     0.033 H 
ATOM     32  H   UNL A   1      28.764  31.004  23.903  1.00  0.00     0.033 H 
ATOM     33  H   UNL A   1      27.028  31.200  23.863  1.00  0.00     0.033 H 
ENDBRANCH  27  30
ENDBRANCH  23  26
ENDBRANCH  15  23
BRANCH  20  34
ATOM     34  C   UNL A   1      32.983  23.482  23.600  1.00  0.00    -0.011 A 
ATOM     35  C   UNL A   1      34.416  23.233  23.561  1.00  0.00    -0.038 A 
ATOM     36  C   UNL A   1      32.177  22.509  24.062  1.00  0.00     0.012 A 
ATOM     37  C   UNL A   1      34.926  22.075  23.996  1.00  0.00     0.013 A 
ATOM     38  H   UNL A   1      35.048  23.960  23.192  1.00  0.00     0.064 H 
ATOM     39  C   UNL A   1      32.731  21.213  24.553  1.00  0.00     0.255 A 
ATOM     40  H   UNL A   1      31.157  22.661  24.077  1.00  0.00     0.069 H 
ATOM     41  N   UNL A   1      34.108  21.078  24.489  1.00  0.00    -0.258 N 
ATOM     42  H   UNL A   1      35.946  21.924  23.963  1.00  0.00     0.082 H 
ATOM     43  O   UNL A   1      31.948  20.374  24.988  1.00  0.00    -0.269 OA
BRANCH  41  44
ATOM     44  C   UNL A   1      34.673  19.854  24.996  1.00  0.00     0.321 C 
ATOM     45  F   UNL A   1      34.322  18.800  24.218  1.00  0.00    -0.185 F 
ATOM     46  F   UNL A   1      36.026  19.916  25.034  1.00  0.00    -0.185 F 
ATOM     47  H   UNL A   1      34.291  19.723  25.986  1.00  0.00     0.131 H 
ENDBRANCH  41  44
ENDBRANCH  20  34
ENDBRANCH  11  14
ENDBRANCH   7  10
ENDBRANCH   4   7
ENDBRANCH   1   4
BRANCH   1  48
ATOM     48  C   UNL A   1      32.319  30.441  27.206  1.00  0.00    -0.052 C 
ATOM     49  H   UNL A   1      31.873  29.947  28.044  1.00  0.00     0.027 H 
ATOM     50  H   UNL A   1      32.129  29.974  26.263  1.00  0.00     0.027 H 
BRANCH  48  51
ATOM     51  C   UNL A   1      31.693  31.841  27.102  1.00  0.00    -0.036 C 
ATOM     52  H   UNL A   1      31.226  32.058  28.040  1.00  0.00     0.028 H 
ATOM     53  H   UNL A   1      31.022  31.786  26.270  1.00  0.00     0.028 H 
BRANCH  51  54
ATOM     54  C   UNL A   1      32.641  32.999  26.778  1.00  0.00     0.018 C 
ATOM     55  H   UNL A   1      32.569  33.214  25.733  1.00  0.00     0.049 H 
ATOM     56  H   UNL A   1      33.626  32.690  27.059  1.00  0.00     0.049 H 
BRANCH  54  57
ATOM     57  N   UNL A   1      32.341  34.209  27.520  1.00  0.00    -0.352 N 
ATOM     58  C   UNL A   1      32.963  34.726  28.630  1.00  0.00     0.251 C 
ATOM     59  H   UNL A   1      31.583  34.736  27.178  1.00  0.00     0.163 HD
ATOM     60  O   UNL A   1      32.515  35.735  29.168  1.00  0.00    -0.269 OA
BRANCH  58  61
ATOM     61  C   UNL A   1      34.149  34.061  29.216  1.00  0.00     0.039 A 
ATOM     62  C   UNL A   1      35.416  34.498  28.811  1.00  0.00    -0.049 A 
ATOM     63  C   UNL A   1      34.034  32.990  30.109  1.00  0.00    -0.049 A 
ATOM     64  C   UNL A   1      36.566  33.908  29.342  1.00  0.00    -0.053 A 
ATOM     65  H   UNL A   1      35.501  35.258  28.117  1.00  0.00     0.063 H 
ATOM     66  C   UNL A   1      35.185  32.407  30.650  1.00  0.00    -0.053 A 
ATOM     67  H   UNL A   1      33.102  32.630  30.367  1.00  0.00     0.063 H 
ATOM     68  C   UNL A   1      36.457  32.870  30.279  1.00  0.00    -0.014 A 
ATOM     69  H   UNL A   1      37.497  34.236  29.045  1.00  0.00     0.063 H 
ATOM     70  H   UNL A   1      35.098  31.633  31.326  1.00  0.00     0.063 H 
BRANCH  68  71
ATOM     71  C   UNL A   1      37.669  32.295  30.907  1.00  0.00     0.031 A 
ATOM     72  C   UNL A   1      38.466  31.233  30.212  1.00  0.00     0.074 A 
ATOM     73  C   UNL A   1      38.045  32.724  32.126  1.00  0.00     0.049 A 
ATOM     74  N   UNL A   1      39.497  30.557  30.652  1.00  0.00    -0.248 NA
ATOM     75  C   UNL A   1      38.048  30.880  28.848  1.00  0.00    -0.034 C 
ATOM     76  C   UNL A   1      37.359  33.753  32.907  1.00  0.00    -0.036 A 
ATOM     77  N   UNL A   1      39.096  32.343  32.920  1.00  0.00    -0.354 N 
ATOM     78  C   UNL A   1      39.837  29.680  29.632  1.00  0.00     0.074 A 
ATOM     79  C   UNL A   1      38.914  29.922  28.542  1.00  0.00    -0.034 C 
ATOM     80  H   UNL A   1      37.283  31.274  28.278  1.00  0.00     0.065 H 
ATOM     81  C   UNL A   1      38.010  33.925  34.070  1.00  0.00    -0.036 A 
ATOM     82  H   UNL A   1      36.511  34.264  32.613  1.00  0.00     0.065 H 
ATOM     83  C   UNL A   1      39.146  33.008  34.118  1.00  0.00     0.049 A 
ATOM     84  H   UNL A   1      39.751  31.657  32.656  1.00  0.00     0.167 HD
ATOM     85  C   UNL A   1      40.821  28.750  29.615  1.00  0.00     0.037 A 
ATOM     86  H   UNL A   1      38.928  29.414  27.643  1.00  0.00     0.065 H 
ATOM     87  H   UNL A   1      37.749  34.595  34.809  1.00  0.00     0.065 H 
ATOM     88  C   UNL A   1      40.008  32.888  35.144  1.00  0.00     0.037 A 
ATOM     89  C   UNL A   1      41.752  28.510  30.684  1.00  0.00     0.049 A 
ATOM     90  C   UNL A   1      41.125  31.891  35.073  1.00  0.00     0.074 A 
ATOM     91  C   UNL A   1      42.753  27.557  30.764  1.00  0.00    -0.036 A 
ATOM     92  N   UNL A   1      41.804  29.244  31.858  1.00  0.00    -0.354 N 
ATOM     93  N   UNL A   1      41.405  31.035  34.123  1.00  0.00    -0.248 NA
ATOM     94  C   UNL A   1      42.044  31.842  36.221  1.00  0.00    -0.034 C 
ATOM     95  C   UNL A   1      43.418  27.720  31.986  1.00  0.00    -0.036 A 
ATOM     96  H   UNL A   1      42.971  26.848  30.047  1.00  0.00     0.065 H 
ATOM     97  C   UNL A   1      42.832  28.776  32.662  1.00  0.00     0.049 A 
ATOM     98  H   UNL A   1      41.202  29.989  32.087  1.00  0.00     0.167 HD
ATOM     99  C   UNL A   1      42.521  30.337  34.559  1.00  0.00     0.074 A 
ATOM    100  C   UNL A   1      42.880  30.880  35.853  1.00  0.00    -0.034 C 
ATOM    101  H   UNL A   1      42.039  32.407  37.084  1.00  0.00     0.065 H 
ATOM    102  H   UNL A   1      44.211  27.151  32.323  1.00  0.00     0.065 H 
ATOM    103  C   UNL A   1      43.179  29.328  33.943  1.00  0.00     0.037 A 
ATOM    104  H   UNL A   1      43.683  30.559  36.416  1.00  0.00     0.065 H 
BRANCH  85 105
ATOM    105  C   UNL A   1      40.929  27.899  28.392  1.00  0.00     0.064 A 
ATOM    106  C   UNL A   1      41.730  28.285  27.310  1.00  0.00     0.173 A 
ATOM    107  C   UNL A   1      40.256  26.671  28.318  1.00  0.00     0.173 A 
ATOM    108  F   UNL A   1      42.384  29.455  27.337  1.00  0.00    -0.203 F 
ATOM    109  C   UNL A   1      41.853  27.467  26.190  1.00  0.00     0.198 A 
ATOM    110  C   UNL A   1      40.384  25.855  27.199  1.00  0.00     0.198 A 
ATOM    111  F   UNL A   1      39.474  26.268  29.332  1.00  0.00    -0.203 F 
ATOM    112  F   UNL A   1      42.617  27.854  25.160  1.00  0.00    -0.200 F 
ATOM    113  C   UNL A   1      41.183  26.252  26.137  1.00  0.00     0.200 A 
ATOM    114  F   UNL A   1      39.734  24.684  27.146  1.00  0.00    -0.200 F 
ATOM    115  F   UNL A   1      41.302  25.467  25.058  1.00  0.00    -0.200 F 
ENDBRANCH  85 105
BRANCH  88 116
ATOM    116  C   UNL A   1      39.833  33.740  36.340  1.00  0.00     0.064 A 
ATOM    117  C   UNL A   1      40.481  34.977  36.439  1.00  0.00     0.173 A 
ATOM    118  C   UNL A   1      39.000  33.340  37.393  1.00  0.00     0.173 A 
ATOM    119  F   UNL A   1      41.298  35.386  35.458  1.00  0.00    -0.203 F 
ATOM    120  C   UNL A   1      40.301  35.789  37.556  1.00  0.00     0.198 A 
ATOM    121  C   UNL A   1      38.817  34.156  38.506  1.00  0.00     0.198 A 
ATOM    122  F   UNL A   1      38.367  32.160  37.335  1.00  0.00    -0.203 F 
ATOM    123  F   UNL A   1      40.939  36.965  37.637  1.00  0.00    -0.200 F 
ATOM    124  C   UNL A   1      39.467  35.379  38.586  1.00  0.00     0.200 A 
ATOM    125  F   UNL A   1      38.013  33.758  39.501  1.00  0.00    -0.200 F 
ATOM    126  F   UNL A   1      39.294  36.161  39.661  1.00  0.00    -0.200 F 
ENDBRANCH  88 116
BRANCH 103 127
ATOM    127  C   UNL A   1      44.349  28.743  34.665  1.00  0.00     0.064 A 
ATOM    128  C   UNL A   1      44.186  27.648  35.524  1.00  0.00     0.173 A 
ATOM    129  C   UNL A   1      45.639  29.258  34.480  1.00  0.00     0.173 A 
ATOM    130  F   UNL A   1      42.966  27.134  35.738  1.00  0.00    -0.203 F 
ATOM    131  C   UNL A   1      45.279  27.089  36.180  1.00  0.00     0.198 A 
ATOM    132  C   UNL A   1      46.730  28.695  35.135  1.00  0.00     0.198 A 
ATOM    133  F   UNL A   1      45.835  30.312  33.674  1.00  0.00    -0.203 F 
ATOM    134  F   UNL A   1      45.103  26.050  37.008  1.00  0.00    -0.200 F 
ATOM    135  C   UNL A   1      46.549  27.612  35.984  1.00  0.00     0.200 A 
ATOM    136  F   UNL A   1      47.956  29.206  34.954  1.00  0.00    -0.200 F 
ATOM    137  F   UNL A   1      47.600  27.077  36.620  1.00  0.00    -0.200 F 
ENDBRANCH 103 127
ENDBRANCH  68  71
ENDBRANCH  58  61
ENDBRANCH  54  57
ENDBRANCH  51  54
ENDBRANCH  48  51
ENDBRANCH   1  48
TORSDOF 18
ENDMDL
MODEL 3
REMARK VINA RESULT:     -12.6      2.665      8.392
REMARK SMILES CC(=O)NS(=O)(=O)c1ccc(-c2ccn(C(F)F)c(=O)c2)cc1C(=O)NCCCCCCNC(=O)c1ccc(-c2c3nc(c(-c4c(F)c(F)c(F)c(F)c4F)c4ccc([nH]4)c(-c4c(F)c(F)c(F)c(F)c4F)c4nc(c(-c5c(F)c(F)c(F)c(F)c5F)c5ccc2[nH]5)C=C4)C=C3)cc1
REMARK SMILES IDX 29 1 28 4 27 7 26 10 24 11 25 12 23 14 8 15 9 16 10 17 22 19
REMARK SMILES IDX 11 20 5 23 6 24 7 25 4 26 2 27 3 28 1 30 12 34 13 35 21 36
REMARK SMILES IDX 14 37 19 39 15 41 20 43 16 44 17 45 18 46 30 48 31 51 32 54
REMARK SMILES IDX 33 57 34 58 35 60 36 61 37 62 98 63 38 64 97 66 39 68 40 71
REMARK SMILES IDX 41 72 91 73 42 74 96 75 90 76 92 77 43 78 95 79 89 81 88 83
REMARK SMILES IDX 44 85 76 88 56 89 75 90 57 91 60 92 74 93 93 94 58 95 59 97
REMARK SMILES IDX 73 99 94 100 61 103 45 105 46 106 54 107 47 108 48 109
REMARK SMILES IDX 52 110 55 111 49 112 50 113 53 114 51 115 77 116 78 117
REMARK SMILES IDX 86 118 79 119 80 120 84 121 87 122 81 123 82 124 85 125
REMARK SMILES IDX 83 126 62 127 63 128 71 129 64 130 65 131 69 132 72 133
REMARK SMILES IDX 66 134 67 135 70 136 68 137
REMARK H PARENT 29 2 29 3 28 5 28 6 27 8 27 9 26 13 9 18 10 21 22 22 4 29 1 31
REMARK H PARENT 1 32 1 33 13 38 21 40 14 42 16 47 30 49 30 50 31 52 31 53
REMARK H PARENT 32 55 32 56 33 59 37 65 98 67 38 69 97 70 96 80 90 82 92 84
REMARK H PARENT 95 86 89 87 57 96 60 98 93 101 58 102 94 104
REMARK Flexibility Score: inf
ROOT
ATOM      1  C   UNL A   1      33.874  30.392  27.339  1.00  0.00    -0.052 C 
ATOM      2  H   UNL A   1      34.281  31.223  26.801  1.00  0.00     0.027 H 
ATOM      3  H   UNL A   1      34.082  30.427  28.388  1.00  0.00     0.027 H 
ENDROOT
BRANCH   1   4
ATOM      4  C   UNL A   1      34.530  29.115  26.811  1.00  0.00    -0.036 C 
ATOM      5  H   UNL A   1      35.445  29.384  26.328  1.00  0.00     0.028 H 
ATOM      6  H   UNL A   1      34.676  28.476  27.657  1.00  0.00     0.028 H 
BRANCH   4   7
ATOM      7  C   UNL A   1      33.675  28.326  25.811  1.00  0.00     0.018 C 
ATOM      8  H   UNL A   1      33.908  27.284  25.886  1.00  0.00     0.049 H 
ATOM      9  H   UNL A   1      32.637  28.475  26.032  1.00  0.00     0.049 H 
BRANCH   7  10
ATOM     10  N   UNL A   1      33.954  28.790  24.459  1.00  0.00    -0.352 N 
ATOM     11  C   UNL A   1      33.606  28.310  23.229  1.00  0.00     0.252 C 
ATOM     12  O   UNL A   1      34.021  28.865  22.214  1.00  0.00    -0.269 OA
ATOM     13  H   UNL A   1      34.501  29.608  24.427  1.00  0.00     0.163 HD
BRANCH  11  14
ATOM     14  C   UNL A   1      32.641  27.208  23.053  1.00  0.00     0.060 A 
ATOM     15  C   UNL A   1      31.258  27.339  22.928  1.00  0.00     0.100 A 
ATOM     16  C   UNL A   1      30.452  26.192  22.834  1.00  0.00    -0.040 A 
ATOM     17  C   UNL A   1      31.011  24.920  22.989  1.00  0.00    -0.053 A 
ATOM     18  H   UNL A   1      29.441  26.288  22.650  1.00  0.00     0.064 H 
ATOM     19  C   UNL A   1      33.191  25.919  23.205  1.00  0.00    -0.040 A 
ATOM     20  C   UNL A   1      32.383  24.773  23.218  1.00  0.00    -0.017 A 
ATOM     21  H   UNL A   1      30.407  24.086  22.933  1.00  0.00     0.063 H 
ATOM     22  H   UNL A   1      34.212  25.817  23.312  1.00  0.00     0.064 H 
BRANCH  15  23
ATOM     23  S   UNL A   1      30.437  28.899  23.058  1.00  0.00     0.264 S 
ATOM     24  O   UNL A   1      30.577  29.542  21.769  1.00  0.00    -0.201 OA
ATOM     25  O   UNL A   1      30.808  29.562  24.283  1.00  0.00    -0.201 OA
BRANCH  23  26
ATOM     26  N   UNL A   1      28.838  28.491  23.194  1.00  0.00    -0.249 N 
ATOM     27  C   UNL A   1      27.712  29.324  23.210  1.00  0.00     0.230 C 
ATOM     28  O   UNL A   1      26.606  28.802  23.155  1.00  0.00    -0.274 OA
ATOM     29  H   UNL A   1      28.653  27.527  23.275  1.00  0.00     0.183 HD
BRANCH  27  30
ATOM     30  C   UNL A   1      27.888  30.808  23.348  1.00  0.00     0.016 C 
ATOM     31  H   UNL A   1      28.062  31.237  22.383  1.00  0.00     0.033 H 
ATOM     32  H   UNL A   1      28.723  31.012  23.985  1.00  0.00     0.033 H 
ATOM     33  H   UNL A   1      27.003  31.234  23.773  1.00  0.00     0.033 H 
ENDBRANCH  27  30
ENDBRANCH  23  26
ENDBRANCH  15  23
BRANCH  20  34
ATOM     34  C   UNL A   1      32.952  23.460  23.606  1.00  0.00    -0.011 A 
ATOM     35  C   UNL A   1      34.381  23.195  23.536  1.00  0.00    -0.038 A 
ATOM     36  C   UNL A   1      32.147  22.501  24.098  1.00  0.00     0.012 A 
ATOM     37  C   UNL A   1      34.889  22.037  23.971  1.00  0.00     0.013 A 
ATOM     38  H   UNL A   1      35.012  23.911  23.143  1.00  0.00     0.064 H 
ATOM     39  C   UNL A   1      32.700  21.205  24.590  1.00  0.00     0.255 A 
ATOM     40  H   UNL A   1      31.130  22.665  24.136  1.00  0.00     0.069 H 
ATOM     41  N   UNL A   1      34.073  21.055  24.495  1.00  0.00    -0.258 N 
ATOM     42  H   UNL A   1      35.907  21.875  23.915  1.00  0.00     0.082 H 
ATOM     43  O   UNL A   1      31.919  20.379  25.055  1.00  0.00    -0.269 OA
BRANCH  41  44
ATOM     44  C   UNL A   1      34.638  19.830  25.003  1.00  0.00     0.321 C 
ATOM     45  F   UNL A   1      34.334  18.786  24.193  1.00  0.00    -0.185 F 
ATOM     46  F   UNL A   1      35.987  19.913  25.095  1.00  0.00    -0.185 F 
ATOM     47  H   UNL A   1      34.220  19.676  25.975  1.00  0.00     0.131 H 
ENDBRANCH  41  44
ENDBRANCH  20  34
ENDBRANCH  11  14
ENDBRANCH   7  10
ENDBRANCH   4   7
ENDBRANCH   1   4
BRANCH   1  48
ATOM     48  C   UNL A   1      32.350  30.435  27.198  1.00  0.00    -0.052 C 
ATOM     49  H   UNL A   1      31.931  29.936  28.047  1.00  0.00     0.027 H 
ATOM     50  H   UNL A   1      32.138  29.967  26.260  1.00  0.00     0.027 H 
BRANCH  48  51
ATOM     51  C   UNL A   1      31.711  31.830  27.113  1.00  0.00    -0.036 C 
ATOM     52  H   UNL A   1      31.289  32.053  28.071  1.00  0.00     0.028 H 
ATOM     53  H   UNL A   1      31.000  31.764  26.316  1.00  0.00     0.028 H 
BRANCH  51  54
ATOM     54  C   UNL A   1      32.634  32.990  26.732  1.00  0.00     0.018 C 
ATOM     55  H   UNL A   1      32.489  33.214  25.697  1.00  0.00     0.049 H 
ATOM     56  H   UNL A   1      33.637  32.680  26.942  1.00  0.00     0.049 H 
BRANCH  54  57
ATOM     57  N   UNL A   1      32.387  34.195  27.503  1.00  0.00    -0.352 N 
ATOM     58  C   UNL A   1      33.032  34.659  28.623  1.00  0.00     0.251 C 
ATOM     59  H   UNL A   1      31.652  34.762  27.175  1.00  0.00     0.163 HD
ATOM     60  O   UNL A   1      32.628  35.673  29.186  1.00  0.00    -0.269 OA
BRANCH  58  61
ATOM     61  C   UNL A   1      34.189  33.930  29.191  1.00  0.00     0.039 A 
ATOM     62  C   UNL A   1      35.474  34.335  28.810  1.00  0.00    -0.049 A 
ATOM     63  C   UNL A   1      34.029  32.832  30.043  1.00  0.00    -0.049 A 
ATOM     64  C   UNL A   1      36.597  33.685  29.326  1.00  0.00    -0.053 A 
ATOM     65  H   UNL A   1      35.591  35.116  28.145  1.00  0.00     0.063 H 
ATOM     66  C   UNL A   1      35.155  32.189  30.569  1.00  0.00    -0.053 A 
ATOM     67  H   UNL A   1      33.083  32.497  30.283  1.00  0.00     0.063 H 
ATOM     68  C   UNL A   1      36.444  32.618  30.223  1.00  0.00    -0.014 A 
ATOM     69  H   UNL A   1      37.542  33.990  29.046  1.00  0.00     0.063 H 
ATOM     70  H   UNL A   1      35.035  31.394  31.216  1.00  0.00     0.063 H 
BRANCH  68  71
ATOM     71  C   UNL A   1      37.631  31.977  30.836  1.00  0.00     0.031 A 
ATOM     72  C   UNL A   1      38.101  32.373  32.204  1.00  0.00     0.074 A 
ATOM     73  C   UNL A   1      38.303  31.039  30.144  1.00  0.00     0.049 A 
ATOM     74  N   UNL A   1      39.169  31.983  32.852  1.00  0.00    -0.248 NA
ATOM     75  C   UNL A   1      37.266  33.337  32.935  1.00  0.00    -0.034 C 
ATOM     76  C   UNL A   1      37.949  30.562  28.807  1.00  0.00    -0.036 A 
ATOM     77  N   UNL A   1      39.426  30.323  30.471  1.00  0.00    -0.354 N 
ATOM     78  C   UNL A   1      39.151  32.671  34.057  1.00  0.00     0.074 A 
ATOM     79  C   UNL A   1      37.956  33.490  34.058  1.00  0.00    -0.034 C 
ATOM     80  H   UNL A   1      36.378  33.778  32.650  1.00  0.00     0.065 H 
ATOM     81  C   UNL A   1      38.837  29.627  28.428  1.00  0.00    -0.036 A 
ATOM     82  H   UNL A   1      37.147  30.890  28.246  1.00  0.00     0.065 H 
ATOM     83  C   UNL A   1      39.826  29.454  29.488  1.00  0.00     0.049 A 
ATOM     84  H   UNL A   1      39.900  30.424  31.328  1.00  0.00     0.167 HD
ATOM     85  C   UNL A   1      40.056  32.630  35.062  1.00  0.00     0.037 A 
ATOM     86  H   UNL A   1      37.677  34.113  34.833  1.00  0.00     0.065 H 
ATOM     87  H   UNL A   1      38.822  29.115  27.532  1.00  0.00     0.065 H 
ATOM     88  C   UNL A   1      40.878  28.617  29.444  1.00  0.00     0.037 A 
ATOM     89  C   UNL A   1      41.238  31.811  35.080  1.00  0.00     0.049 A 
ATOM     90  C   UNL A   1      41.832  28.548  30.597  1.00  0.00     0.074 A 
ATOM     91  C   UNL A   1      42.232  31.743  36.042  1.00  0.00    -0.036 A 
ATOM     92  N   UNL A   1      41.577  30.903  34.090  1.00  0.00    -0.354 N 
ATOM     93  N   UNL A   1      41.831  29.240  31.709  1.00  0.00    -0.248 NA
ATOM     94  C   UNL A   1      42.938  27.585  30.487  1.00  0.00    -0.034 C 
ATOM     95  C   UNL A   1      43.170  30.785  35.637  1.00  0.00    -0.036 A 
ATOM     96  H   UNL A   1      42.273  32.302  36.908  1.00  0.00     0.065 H 
ATOM     97  C   UNL A   1      42.758  30.258  34.425  1.00  0.00     0.049 A 
ATOM     98  H   UNL A   1      41.058  30.740  33.270  1.00  0.00     0.167 HD
ATOM     99  C   UNL A   1      42.936  28.808  32.426  1.00  0.00     0.074 A 
ATOM    100  C   UNL A   1      43.579  27.781  31.632  1.00  0.00    -0.034 C 
ATOM    101  H   UNL A   1      43.158  26.930  29.721  1.00  0.00     0.065 H 
ATOM    102  H   UNL A   1      44.022  30.518  36.154  1.00  0.00     0.065 H 
ATOM    103  C   UNL A   1      43.381  29.236  33.629  1.00  0.00     0.037 A 
ATOM    104  H   UNL A   1      44.427  27.268  31.921  1.00  0.00     0.065 H 
BRANCH  85 105
ATOM    105  C   UNL A   1      39.810  33.524  36.234  1.00  0.00     0.064 A 
ATOM    106  C   UNL A   1      40.366  34.808  36.294  1.00  0.00     0.173 A 
ATOM    107  C   UNL A   1      38.981  33.107  37.285  1.00  0.00     0.173 A 
ATOM    108  F   UNL A   1      41.170  35.242  35.313  1.00  0.00    -0.203 F 
ATOM    109  C   UNL A   1      40.101  35.647  37.373  1.00  0.00     0.198 A 
ATOM    110  C   UNL A   1      38.715  33.949  38.359  1.00  0.00     0.198 A 
ATOM    111  F   UNL A   1      38.433  31.882  37.267  1.00  0.00    -0.203 F 
ATOM    112  F   UNL A   1      40.647  36.870  37.419  1.00  0.00    -0.200 F 
ATOM    113  C   UNL A   1      39.274  35.219  38.402  1.00  0.00     0.200 A 
ATOM    114  F   UNL A   1      37.920  33.534  39.355  1.00  0.00    -0.200 F 
ATOM    115  F   UNL A   1      39.020  36.028  39.439  1.00  0.00    -0.200 F 
ENDBRANCH  85 105
BRANCH  88 116
ATOM    116  C   UNL A   1      41.084  27.776  28.245  1.00  0.00     0.064 A 
ATOM    117  C   UNL A   1      41.903  28.212  27.196  1.00  0.00     0.173 A 
ATOM    118  C   UNL A   1      40.484  26.515  28.138  1.00  0.00     0.173 A 
ATOM    119  F   UNL A   1      42.482  29.419  27.257  1.00  0.00    -0.203 F 
ATOM    120  C   UNL A   1      42.114  27.412  26.077  1.00  0.00     0.198 A 
ATOM    121  C   UNL A   1      40.700  25.714  27.020  1.00  0.00     0.198 A 
ATOM    122  F   UNL A   1      39.690  26.066  29.121  1.00  0.00    -0.203 F 
ATOM    123  F   UNL A   1      42.893  27.851  25.078  1.00  0.00    -0.200 F 
ATOM    124  C   UNL A   1      41.515  26.163  25.991  1.00  0.00     0.200 A 
ATOM    125  F   UNL A   1      40.120  24.509  26.939  1.00  0.00    -0.200 F 
ATOM    126  F   UNL A   1      41.720  25.393  24.913  1.00  0.00    -0.200 F 
ENDBRANCH  88 116
BRANCH 103 127
ATOM    127  C   UNL A   1      44.626  28.599  34.156  1.00  0.00     0.064 A 
ATOM    128  C   UNL A   1      44.561  27.435  34.934  1.00  0.00     0.173 A 
ATOM    129  C   UNL A   1      45.887  29.136  33.864  1.00  0.00     0.173 A 
ATOM    130  F   UNL A   1      43.373  26.897  35.246  1.00  0.00    -0.203 F 
ATOM    131  C   UNL A   1      45.722  26.829  35.406  1.00  0.00     0.198 A 
ATOM    132  C   UNL A   1      47.046  28.527  34.336  1.00  0.00     0.198 A 
ATOM    133  F   UNL A   1      45.990  30.255  33.133  1.00  0.00    -0.203 F 
ATOM    134  F   UNL A   1      45.641  25.724  36.159  1.00  0.00    -0.200 F 
ATOM    135  C   UNL A   1      46.962  27.375  35.106  1.00  0.00     0.200 A 
ATOM    136  F   UNL A   1      48.243  29.058  34.055  1.00  0.00    -0.200 F 
ATOM    137  F   UNL A   1      48.079  26.794  35.566  1.00  0.00    -0.200 F 
ENDBRANCH 103 127
ENDBRANCH  68  71
ENDBRANCH  58  61
ENDBRANCH  54  57
ENDBRANCH  51  54
ENDBRANCH  48  51
ENDBRANCH   1  48
TORSDOF 18
ENDMDL
MODEL 4
REMARK VINA RESULT:     -12.3      2.598      4.792
REMARK SMILES CC(=O)NS(=O)(=O)c1ccc(-c2ccn(C(F)F)c(=O)c2)cc1C(=O)NCCCCCCNC(=O)c1ccc(-c2c3nc(c(-c4c(F)c(F)c(F)c(F)c4F)c4ccc([nH]4)c(-c4c(F)c(F)c(F)c(F)c4F)c4nc(c(-c5c(F)c(F)c(F)c(F)c5F)c5ccc2[nH]5)C=C4)C=C3)cc1
REMARK SMILES IDX 29 1 28 4 27 7 26 10 24 11 25 12 23 14 8 15 9 16 10 17 22 19
REMARK SMILES IDX 11 20 5 23 6 24 7 25 4 26 2 27 3 28 1 30 12 34 13 35 21 36
REMARK SMILES IDX 14 37 19 39 15 41 20 43 16 44 17 45 18 46 30 48 31 51 32 54
REMARK SMILES IDX 33 57 34 58 35 60 36 61 37 62 98 63 38 64 97 66 39 68 40 71
REMARK SMILES IDX 41 72 91 73 42 74 96 75 90 76 92 77 43 78 95 79 89 81 88 83
REMARK SMILES IDX 44 85 76 88 56 89 75 90 57 91 60 92 74 93 93 94 58 95 59 97
REMARK SMILES IDX 73 99 94 100 61 103 45 105 46 106 54 107 47 108 48 109
REMARK SMILES IDX 52 110 55 111 49 112 50 113 53 114 51 115 77 116 78 117
REMARK SMILES IDX 86 118 79 119 80 120 84 121 87 122 81 123 82 124 85 125
REMARK SMILES IDX 83 126 62 127 63 128 71 129 64 130 65 131 69 132 72 133
REMARK SMILES IDX 66 134 67 135 70 136 68 137
REMARK H PARENT 29 2 29 3 28 5 28 6 27 8 27 9 26 13 9 18 10 21 22 22 4 29 1 31
REMARK H PARENT 1 32 1 33 13 38 21 40 14 42 16 47 30 49 30 50 31 52 31 53
REMARK H PARENT 32 55 32 56 33 59 37 65 98 67 38 69 97 70 96 80 90 82 92 84
REMARK H PARENT 95 86 89 87 57 96 60 98 93 101 58 102 94 104
REMARK Flexibility Score: inf
ROOT
ATOM      1  C   UNL A   1      32.834  30.048  26.816  1.00  0.00    -0.052 C 
ATOM      2  H   UNL A   1      33.470  30.060  25.956  1.00  0.00     0.027 H 
ATOM      3  H   UNL A   1      33.222  30.617  27.635  1.00  0.00     0.027 H 
ENDROOT
BRANCH   1   4
ATOM      4  C   UNL A   1      32.726  28.603  27.308  1.00  0.00    -0.036 C 
ATOM      5  H   UNL A   1      33.181  28.544  28.274  1.00  0.00     0.028 H 
ATOM      6  H   UNL A   1      31.683  28.363  27.322  1.00  0.00     0.028 H 
BRANCH   4   7
ATOM      7  C   UNL A   1      33.400  27.568  26.397  1.00  0.00     0.018 C 
ATOM      8  H   UNL A   1      34.406  27.406  26.724  1.00  0.00     0.049 H 
ATOM      9  H   UNL A   1      32.858  26.646  26.443  1.00  0.00     0.049 H 
BRANCH   7  10
ATOM     10  N   UNL A   1      33.408  28.059  25.026  1.00  0.00    -0.352 N 
ATOM     11  C   UNL A   1      33.147  27.455  23.830  1.00  0.00     0.252 C 
ATOM     12  O   UNL A   1      33.278  28.086  22.783  1.00  0.00    -0.269 OA
ATOM     13  H   UNL A   1      33.648  29.011  24.948  1.00  0.00     0.163 HD
BRANCH  11  14
ATOM     14  C   UNL A   1      32.591  26.092  23.734  1.00  0.00     0.060 A 
ATOM     15  C   UNL A   1      31.239  25.757  23.704  1.00  0.00     0.100 A 
ATOM     16  C   UNL A   1      30.852  24.406  23.681  1.00  0.00    -0.040 A 
ATOM     17  C   UNL A   1      31.808  23.395  23.812  1.00  0.00    -0.053 A 
ATOM     18  H   UNL A   1      29.857  24.158  23.566  1.00  0.00     0.064 H 
ATOM     19  C   UNL A   1      33.545  25.061  23.865  1.00  0.00    -0.040 A 
ATOM     20  C   UNL A   1      33.163  23.714  23.948  1.00  0.00    -0.017 A 
ATOM     21  H   UNL A   1      31.511  22.406  23.809  1.00  0.00     0.063 H 
ATOM     22  H   UNL A   1      34.547  25.304  23.901  1.00  0.00     0.064 H 
BRANCH  15  23
ATOM     23  S   UNL A   1      29.958  26.964  23.871  1.00  0.00     0.264 S 
ATOM     24  O   UNL A   1      30.290  27.751  25.038  1.00  0.00    -0.201 OA
ATOM     25  O   UNL A   1      28.664  26.349  23.711  1.00  0.00    -0.201 OA
BRANCH  23  26
ATOM     26  N   UNL A   1      30.184  27.960  22.567  1.00  0.00    -0.249 N 
ATOM     27  C   UNL A   1      29.534  29.160  22.250  1.00  0.00     0.230 C 
ATOM     28  O   UNL A   1      29.970  29.824  21.319  1.00  0.00    -0.274 OA
ATOM     29  H   UNL A   1      30.872  27.668  21.926  1.00  0.00     0.183 HD
BRANCH  27  30
ATOM     30  C   UNL A   1      28.307  29.565  23.013  1.00  0.00     0.016 C 
ATOM     31  H   UNL A   1      27.652  30.113  22.369  1.00  0.00     0.033 H 
ATOM     32  H   UNL A   1      28.588  30.179  23.842  1.00  0.00     0.033 H 
ATOM     33  H   UNL A   1      27.805  28.690  23.371  1.00  0.00     0.033 H 
ENDBRANCH  27  30
ENDBRANCH  23  26
ENDBRANCH  15  23
BRANCH  20  34
ATOM     34  C   UNL A   1      34.156  22.676  24.311  1.00  0.00    -0.011 A 
ATOM     35  C   UNL A   1      33.769  21.290  24.532  1.00  0.00    -0.038 A 
ATOM     36  C   UNL A   1      35.462  22.993  24.378  1.00  0.00     0.012 A 
ATOM     37  C   UNL A   1      34.688  20.349  24.772  1.00  0.00     0.013 A 
ATOM     38  H   UNL A   1      32.771  21.031  24.503  1.00  0.00     0.064 H 
ATOM     39  C   UNL A   1      36.499  21.953  24.643  1.00  0.00     0.255 A 
ATOM     40  H   UNL A   1      35.751  23.974  24.244  1.00  0.00     0.069 H 
ATOM     41  N   UNL A   1      36.031  20.663  24.825  1.00  0.00    -0.258 N 
ATOM     42  H   UNL A   1      34.389  19.372  24.921  1.00  0.00     0.082 H 
ATOM     43  O   UNL A   1      37.677  22.298  24.665  1.00  0.00    -0.269 OA
BRANCH  41  44
ATOM     44  C   UNL A   1      37.014  19.631  25.039  1.00  0.00     0.321 C 
ATOM     45  F   UNL A   1      36.458  18.400  24.915  1.00  0.00    -0.185 F 
ATOM     46  F   UNL A   1      38.029  19.726  24.147  1.00  0.00    -0.185 F 
ATOM     47  H   UNL A   1      37.393  19.765  26.031  1.00  0.00     0.131 H 
ENDBRANCH  41  44
ENDBRANCH  20  34
ENDBRANCH  11  14
ENDBRANCH   7  10
ENDBRANCH   4   7
ENDBRANCH   1   4
BRANCH   1  48
ATOM     48  C   UNL A   1      31.501  30.695  26.432  1.00  0.00    -0.052 C 
ATOM     49  H   UNL A   1      30.736  30.242  27.027  1.00  0.00     0.027 H 
ATOM     50  H   UNL A   1      31.399  30.532  25.380  1.00  0.00     0.027 H 
BRANCH  48  51
ATOM     51  C   UNL A   1      31.401  32.217  26.621  1.00  0.00    -0.036 C 
ATOM     52  H   UNL A   1      30.591  32.408  27.293  1.00  0.00     0.028 H 
ATOM     53  H   UNL A   1      31.269  32.613  25.636  1.00  0.00     0.028 H 
BRANCH  51  54
ATOM     54  C   UNL A   1      32.639  32.927  27.176  1.00  0.00     0.018 C 
ATOM     55  H   UNL A   1      33.361  33.013  26.392  1.00  0.00     0.049 H 
ATOM     56  H   UNL A   1      33.001  32.339  27.995  1.00  0.00     0.049 H 
BRANCH  54  57
ATOM     57  N   UNL A   1      32.356  34.253  27.692  1.00  0.00    -0.352 N 
ATOM     58  C   UNL A   1      33.000  34.960  28.677  1.00  0.00     0.251 C 
ATOM     59  H   UNL A   1      31.593  34.713  27.274  1.00  0.00     0.163 HD
ATOM     60  O   UNL A   1      32.564  36.052  29.031  1.00  0.00    -0.269 OA
BRANCH  58  61
ATOM     61  C   UNL A   1      34.196  34.406  29.352  1.00  0.00     0.039 A 
ATOM     62  C   UNL A   1      34.013  33.729  30.564  1.00  0.00    -0.049 A 
ATOM     63  C   UNL A   1      35.487  34.587  28.843  1.00  0.00    -0.049 A 
ATOM     64  C   UNL A   1      35.109  33.181  31.234  1.00  0.00    -0.053 A 
ATOM     65  H   UNL A   1      33.066  33.634  30.963  1.00  0.00     0.063 H 
ATOM     66  C   UNL A   1      36.583  34.028  29.508  1.00  0.00    -0.053 A 
ATOM     67  H   UNL A   1      35.630  35.133  27.979  1.00  0.00     0.063 H 
ATOM     68  C   UNL A   1      36.400  33.312  30.700  1.00  0.00    -0.014 A 
ATOM     69  H   UNL A   1      34.970  32.678  32.124  1.00  0.00     0.063 H 
ATOM     70  H   UNL A   1      37.531  34.142  29.118  1.00  0.00     0.063 H 
BRANCH  68  71
ATOM     71  C   UNL A   1      37.556  32.664  31.363  1.00  0.00     0.031 A 
ATOM     72  C   UNL A   1      38.317  31.566  30.685  1.00  0.00     0.074 A 
ATOM     73  C   UNL A   1      37.911  33.060  32.599  1.00  0.00     0.049 A 
ATOM     74  N   UNL A   1      39.293  30.829  31.153  1.00  0.00    -0.248 NA
ATOM     75  C   UNL A   1      37.929  31.249  29.303  1.00  0.00    -0.034 C 
ATOM     76  C   UNL A   1      37.256  34.118  33.368  1.00  0.00    -0.036 A 
ATOM     77  N   UNL A   1      38.911  32.614  33.426  1.00  0.00    -0.354 N 
ATOM     78  C   UNL A   1      39.620  29.945  30.136  1.00  0.00     0.074 A 
ATOM     79  C   UNL A   1      38.751  30.247  29.017  1.00  0.00    -0.034 C 
ATOM     80  H   UNL A   1      37.208  31.690  28.712  1.00  0.00     0.065 H 
ATOM     81  C   UNL A   1      37.874  34.243  34.554  1.00  0.00    -0.036 A 
ATOM     82  H   UNL A   1      36.449  34.678  33.050  1.00  0.00     0.065 H 
ATOM     83  C   UNL A   1      38.955  33.264  34.631  1.00  0.00     0.049 A 
ATOM     84  H   UNL A   1      39.536  31.895  33.177  1.00  0.00     0.167 HD
ATOM     85  C   UNL A   1      40.551  28.962  30.142  1.00  0.00     0.037 A 
ATOM     86  H   UNL A   1      38.769  29.748  28.114  1.00  0.00     0.065 H 
ATOM     87  H   UNL A   1      37.624  34.920  35.292  1.00  0.00     0.065 H 
ATOM     88  C   UNL A   1      39.772  33.087  35.686  1.00  0.00     0.037 A 
ATOM     89  C   UNL A   1      41.429  28.661  31.240  1.00  0.00     0.049 A 
ATOM     90  C   UNL A   1      40.834  32.031  35.643  1.00  0.00     0.074 A 
ATOM     91  C   UNL A   1      42.373  27.652  31.344  1.00  0.00    -0.036 A 
ATOM     92  N   UNL A   1      41.480  29.380  32.424  1.00  0.00    -0.354 N 
ATOM     93  N   UNL A   1      41.100  31.169  34.694  1.00  0.00    -0.248 NA
ATOM     94  C   UNL A   1      41.708  31.920  36.821  1.00  0.00    -0.034 C 
ATOM     95  C   UNL A   1      43.002  27.768  32.591  1.00  0.00    -0.036 A 
ATOM     96  H   UNL A   1      42.577  26.940  30.627  1.00  0.00     0.065 H 
ATOM     97  C   UNL A   1      42.451  28.847  33.258  1.00  0.00     0.049 A 
ATOM     98  H   UNL A   1      40.912  30.154  32.640  1.00  0.00     0.167 HD
ATOM     99  C   UNL A   1      42.160  30.406  35.160  1.00  0.00     0.074 A 
ATOM    100  C   UNL A   1      42.502  30.916  36.472  1.00  0.00    -0.034 C 
ATOM    101  H   UNL A   1      41.704  32.476  37.690  1.00  0.00     0.065 H 
ATOM    102  H   UNL A   1      43.750  27.152  32.949  1.00  0.00     0.065 H 
ATOM    103  C   UNL A   1      42.783  29.368  34.556  1.00  0.00     0.037 A 
ATOM    104  H   UNL A   1      43.266  30.546  37.059  1.00  0.00     0.065 H 
BRANCH  85 105
ATOM    105  C   UNL A   1      40.655  28.117  28.914  1.00  0.00     0.064 A 
ATOM    106  C   UNL A   1      39.908  26.941  28.779  1.00  0.00     0.173 A 
ATOM    107  C   UNL A   1      41.479  28.509  27.850  1.00  0.00     0.173 A 
ATOM    108  F   UNL A   1      39.113  26.528  29.777  1.00  0.00    -0.203 F 
ATOM    109  C   UNL A   1      39.984  26.181  27.616  1.00  0.00     0.198 A 
ATOM    110  C   UNL A   1      41.550  27.749  26.687  1.00  0.00     0.198 A 
ATOM    111  F   UNL A   1      42.215  29.627  27.942  1.00  0.00    -0.203 F 
ATOM    112  F   UNL A   1      39.268  25.053  27.506  1.00  0.00    -0.200 F 
ATOM    113  C   UNL A   1      40.802  26.586  26.570  1.00  0.00     0.200 A 
ATOM    114  F   UNL A   1      42.343  28.138  25.680  1.00  0.00    -0.200 F 
ATOM    115  F   UNL A   1      40.874  25.852  25.452  1.00  0.00    -0.200 F 
ENDBRANCH  85 105
BRANCH  88 116
ATOM    116  C   UNL A   1      39.603  33.936  36.885  1.00  0.00     0.064 A 
ATOM    117  C   UNL A   1      40.212  35.195  36.963  1.00  0.00     0.173 A 
ATOM    118  C   UNL A   1      38.813  33.512  37.961  1.00  0.00     0.173 A 
ATOM    119  F   UNL A   1      40.986  35.627  35.958  1.00  0.00    -0.203 F 
ATOM    120  C   UNL A   1      40.035  36.003  38.082  1.00  0.00     0.198 A 
ATOM    121  C   UNL A   1      38.634  34.324  39.077  1.00  0.00     0.198 A 
ATOM    122  F   UNL A   1      38.218  32.311  37.923  1.00  0.00    -0.203 F 
ATOM    123  F   UNL A   1      40.635  37.201  38.143  1.00  0.00    -0.200 F 
ATOM    124  C   UNL A   1      39.245  35.568  39.137  1.00  0.00     0.200 A 
ATOM    125  F   UNL A   1      37.871  33.902  40.095  1.00  0.00    -0.200 F 
ATOM    126  F   UNL A   1      39.075  36.348  40.214  1.00  0.00    -0.200 F 
ENDBRANCH  88 116
BRANCH 103 127
ATOM    127  C   UNL A   1      43.893  28.712  35.312  1.00  0.00     0.064 A 
ATOM    128  C   UNL A   1      45.222  29.115  35.126  1.00  0.00     0.173 A 
ATOM    129  C   UNL A   1      43.627  27.698  36.241  1.00  0.00     0.173 A 
ATOM    130  F   UNL A   1      45.519  30.073  34.236  1.00  0.00    -0.203 F 
ATOM    131  C   UNL A   1      46.253  28.519  35.846  1.00  0.00     0.198 A 
ATOM    132  C   UNL A   1      44.661  27.106  36.961  1.00  0.00     0.198 A 
ATOM    133  F   UNL A   1      42.370  27.277  36.440  1.00  0.00    -0.203 F 
ATOM    134  F   UNL A   1      47.520  28.907  35.646  1.00  0.00    -0.200 F 
ATOM    135  C   UNL A   1      45.972  27.516  36.763  1.00  0.00     0.200 A 
ATOM    136  F   UNL A   1      44.391  26.131  37.840  1.00  0.00    -0.200 F 
ATOM    137  F   UNL A   1      46.966  26.939  37.452  1.00  0.00    -0.200 F 
ENDBRANCH 103 127
ENDBRANCH  68  71
ENDBRANCH  58  61
ENDBRANCH  54  57
ENDBRANCH  51  54
ENDBRANCH  48  51
ENDBRANCH   1  48
TORSDOF 18
ENDMDL
MODEL 5
REMARK VINA RESULT:     -12.2      0.600      6.969
REMARK SMILES CC(=O)NS(=O)(=O)c1ccc(-c2ccn(C(F)F)c(=O)c2)cc1C(=O)NCCCCCCNC(=O)c1ccc(-c2c3nc(c(-c4c(F)c(F)c(F)c(F)c4F)c4ccc([nH]4)c(-c4c(F)c(F)c(F)c(F)c4F)c4nc(c(-c5c(F)c(F)c(F)c(F)c5F)c5ccc2[nH]5)C=C4)C=C3)cc1
REMARK SMILES IDX 29 1 28 4 27 7 26 10 24 11 25 12 23 14 8 15 9 16 10 17 22 19
REMARK SMILES IDX 11 20 5 23 6 24 7 25 4 26 2 27 3 28 1 30 12 34 13 35 21 36
REMARK SMILES IDX 14 37 19 39 15 41 20 43 16 44 17 45 18 46 30 48 31 51 32 54
REMARK SMILES IDX 33 57 34 58 35 60 36 61 37 62 98 63 38 64 97 66 39 68 40 71
REMARK SMILES IDX 41 72 91 73 42 74 96 75 90 76 92 77 43 78 95 79 89 81 88 83
REMARK SMILES IDX 44 85 76 88 56 89 75 90 57 91 60 92 74 93 93 94 58 95 59 97
REMARK SMILES IDX 73 99 94 100 61 103 45 105 46 106 54 107 47 108 48 109
REMARK SMILES IDX 52 110 55 111 49 112 50 113 53 114 51 115 77 116 78 117
REMARK SMILES IDX 86 118 79 119 80 120 84 121 87 122 81 123 82 124 85 125
REMARK SMILES IDX 83 126 62 127 63 128 71 129 64 130 65 131 69 132 72 133
REMARK SMILES IDX 66 134 67 135 70 136 68 137
REMARK H PARENT 29 2 29 3 28 5 28 6 27 8 27 9 26 13 9 18 10 21 22 22 4 29 1 31
REMARK H PARENT 1 32 1 33 13 38 21 40 14 42 16 47 30 49 30 50 31 52 31 53
REMARK H PARENT 32 55 32 56 33 59 37 65 98 67 38 69 97 70 96 80 90 82 92 84
REMARK H PARENT 95 86 89 87 57 96 60 98 93 101 58 102 94 104
REMARK Flexibility Score: inf
ROOT
ATOM      1  C   UNL A   1      32.286  29.597  27.166  1.00  0.00    -0.052 C 
ATOM      2  H   UNL A   1      33.271  29.534  26.751  1.00  0.00     0.027 H 
ATOM      3  H   UNL A   1      32.273  29.993  28.160  1.00  0.00     0.027 H 
ENDROOT
BRANCH   1   4
ATOM      4  C   UNL A   1      31.715  28.180  27.258  1.00  0.00    -0.036 C 
ATOM      5  H   UNL A   1      31.471  27.984  28.281  1.00  0.00     0.028 H 
ATOM      6  H   UNL A   1      30.864  28.152  26.611  1.00  0.00     0.028 H 
BRANCH   4   7
ATOM      7  C   UNL A   1      32.667  27.078  26.774  1.00  0.00     0.018 C 
ATOM      8  H   UNL A   1      32.956  27.274  25.762  1.00  0.00     0.049 H 
ATOM      9  H   UNL A   1      33.539  27.059  27.396  1.00  0.00     0.049 H 
BRANCH   7  10
ATOM     10  N   UNL A   1      31.993  25.788  26.845  1.00  0.00    -0.352 N 
ATOM     11  C   UNL A   1      31.314  25.051  25.917  1.00  0.00     0.252 C 
ATOM     12  O   UNL A   1      30.778  23.995  26.246  1.00  0.00    -0.269 OA
ATOM     13  H   UNL A   1      32.036  25.367  27.733  1.00  0.00     0.163 HD
BRANCH  11  14
ATOM     14  C   UNL A   1      31.291  25.406  24.485  1.00  0.00     0.060 A 
ATOM     15  C   UNL A   1      32.082  24.842  23.486  1.00  0.00     0.100 A 
ATOM     16  C   UNL A   1      32.001  25.329  22.170  1.00  0.00    -0.040 A 
ATOM     17  C   UNL A   1      31.225  26.454  21.879  1.00  0.00    -0.053 A 
ATOM     18  H   UNL A   1      32.518  24.853  21.414  1.00  0.00     0.064 H 
ATOM     19  C   UNL A   1      30.511  26.540  24.176  1.00  0.00    -0.040 A 
ATOM     20  C   UNL A   1      30.504  27.098  22.890  1.00  0.00    -0.017 A 
ATOM     21  H   UNL A   1      31.185  26.812  20.912  1.00  0.00     0.063 H 
ATOM     22  H   UNL A   1      29.934  26.970  24.915  1.00  0.00     0.064 H 
BRANCH  15  23
ATOM     23  S   UNL A   1      33.332  23.640  23.830  1.00  0.00     0.264 S 
ATOM     24  O   UNL A   1      33.961  24.050  25.067  1.00  0.00    -0.201 OA
ATOM     25  O   UNL A   1      34.099  23.358  22.643  1.00  0.00    -0.201 OA
BRANCH  23  26
ATOM     26  N   UNL A   1      32.472  22.270  24.187  1.00  0.00    -0.249 N 
ATOM     27  C   UNL A   1      32.926  21.055  24.714  1.00  0.00     0.230 C 
ATOM     28  O   UNL A   1      32.093  20.225  25.055  1.00  0.00    -0.274 OA
ATOM     29  H   UNL A   1      31.506  22.318  24.003  1.00  0.00     0.183 HD
BRANCH  27  30
ATOM     30  C   UNL A   1      34.400  20.784  24.794  1.00  0.00     0.016 C 
ATOM     31  H   UNL A   1      34.936  21.709  24.746  1.00  0.00     0.033 H 
ATOM     32  H   UNL A   1      34.694  20.160  23.976  1.00  0.00     0.033 H 
ATOM     33  H   UNL A   1      34.623  20.291  25.717  1.00  0.00     0.033 H 
ENDBRANCH  27  30
ENDBRANCH  23  26
ENDBRANCH  15  23
BRANCH  20  34
ATOM     34  C   UNL A   1      29.862  28.412  22.647  1.00  0.00    -0.011 A 
ATOM     35  C   UNL A   1      30.488  29.427  21.814  1.00  0.00    -0.038 A 
ATOM     36  C   UNL A   1      28.640  28.662  23.150  1.00  0.00     0.012 A 
ATOM     37  C   UNL A   1      29.858  30.573  21.533  1.00  0.00     0.013 A 
ATOM     38  H   UNL A   1      31.433  29.261  21.435  1.00  0.00     0.064 H 
ATOM     39  C   UNL A   1      27.922  29.935  22.844  1.00  0.00     0.255 A 
ATOM     40  H   UNL A   1      28.190  27.962  23.759  1.00  0.00     0.069 H 
ATOM     41  N   UNL A   1      28.596  30.830  22.030  1.00  0.00    -0.258 N 
ATOM     42  H   UNL A   1      30.321  31.275  20.935  1.00  0.00     0.082 H 
ATOM     43  O   UNL A   1      26.798  30.095  23.309  1.00  0.00    -0.269 OA
BRANCH  41  44
ATOM     44  C   UNL A   1      27.909  32.048  21.682  1.00  0.00     0.321 C 
ATOM     45  F   UNL A   1      28.630  33.133  22.057  1.00  0.00    -0.185 F 
ATOM     46  F   UNL A   1      27.693  32.127  20.347  1.00  0.00    -0.185 F 
ATOM     47  H   UNL A   1      26.972  32.033  22.198  1.00  0.00     0.131 H 
ENDBRANCH  41  44
ENDBRANCH  20  34
ENDBRANCH  11  14
ENDBRANCH   7  10
ENDBRANCH   4   7
ENDBRANCH   1   4
BRANCH   1  48
ATOM     48  C   UNL A   1      31.468  30.562  26.304  1.00  0.00    -0.052 C 
ATOM     49  H   UNL A   1      30.478  30.165  26.222  1.00  0.00     0.027 H 
ATOM     50  H   UNL A   1      31.997  30.633  25.377  1.00  0.00     0.027 H 
BRANCH  48  51
ATOM     51  C   UNL A   1      31.351  32.006  26.819  1.00  0.00    -0.036 C 
ATOM     52  H   UNL A   1      30.963  31.965  27.815  1.00  0.00     0.028 H 
ATOM     53  H   UNL A   1      30.721  32.505  26.113  1.00  0.00     0.028 H 
BRANCH  51  54
ATOM     54  C   UNL A   1      32.640  32.831  26.859  1.00  0.00     0.018 C 
ATOM     55  H   UNL A   1      32.962  33.007  25.855  1.00  0.00     0.049 H 
ATOM     56  H   UNL A   1      33.359  32.270  27.421  1.00  0.00     0.049 H 
BRANCH  54  57
ATOM     57  N   UNL A   1      32.480  34.111  27.524  1.00  0.00    -0.352 N 
ATOM     58  C   UNL A   1      33.182  34.637  28.580  1.00  0.00     0.251 C 
ATOM     59  H   UNL A   1      31.766  34.685  27.165  1.00  0.00     0.163 HD
ATOM     60  O   UNL A   1      32.850  35.718  29.059  1.00  0.00    -0.269 OA
BRANCH  58  61
ATOM     61  C   UNL A   1      34.317  33.900  29.182  1.00  0.00     0.039 A 
ATOM     62  C   UNL A   1      35.615  34.304  28.849  1.00  0.00    -0.049 A 
ATOM     63  C   UNL A   1      34.124  32.795  30.019  1.00  0.00    -0.049 A 
ATOM     64  C   UNL A   1      36.718  33.645  29.398  1.00  0.00    -0.053 A 
ATOM     65  H   UNL A   1      35.758  35.090  28.195  1.00  0.00     0.063 H 
ATOM     66  C   UNL A   1      35.229  32.143  30.578  1.00  0.00    -0.053 A 
ATOM     67  H   UNL A   1      33.169  32.461  30.223  1.00  0.00     0.063 H 
ATOM     68  C   UNL A   1      36.531  32.572  30.281  1.00  0.00    -0.014 A 
ATOM     69  H   UNL A   1      37.673  33.949  29.154  1.00  0.00     0.063 H 
ATOM     70  H   UNL A   1      35.084  31.344  31.214  1.00  0.00     0.063 H 
BRANCH  68  71
ATOM     71  C   UNL A   1      37.694  31.921  30.929  1.00  0.00     0.031 A 
ATOM     72  C   UNL A   1      38.109  32.296  32.320  1.00  0.00     0.074 A 
ATOM     73  C   UNL A   1      38.393  30.995  30.248  1.00  0.00     0.049 A 
ATOM     74  N   UNL A   1      39.151  31.895  33.004  1.00  0.00    -0.248 NA
ATOM     75  C   UNL A   1      37.245  33.247  33.034  1.00  0.00    -0.034 C 
ATOM     76  C   UNL A   1      38.092  30.540  28.891  1.00  0.00    -0.036 A 
ATOM     77  N   UNL A   1      39.504  30.275  30.607  1.00  0.00    -0.354 N 
ATOM     78  C   UNL A   1      39.085  32.564  34.217  1.00  0.00     0.074 A 
ATOM     79  C   UNL A   1      37.890  33.382  34.185  1.00  0.00    -0.034 C 
ATOM     80  H   UNL A   1      36.369  33.692  32.721  1.00  0.00     0.065 H 
ATOM     81  C   UNL A   1      38.995  29.612  28.532  1.00  0.00    -0.036 A 
ATOM     82  H   UNL A   1      37.312  30.876  28.304  1.00  0.00     0.065 H 
ATOM     83  C   UNL A   1      39.943  29.422  29.627  1.00  0.00     0.049 A 
ATOM     84  H   UNL A   1      39.943  30.362  31.484  1.00  0.00     0.167 HD
ATOM     85  C   UNL A   1      39.951  32.508  35.257  1.00  0.00     0.037 A 
ATOM     86  H   UNL A   1      37.581  33.992  34.959  1.00  0.00     0.065 H 
ATOM     87  H   UNL A   1      39.016  29.115  27.628  1.00  0.00     0.065 H 
ATOM     88  C   UNL A   1      40.997  28.586  29.610  1.00  0.00     0.037 A 
ATOM     89  C   UNL A   1      41.132  31.689  35.307  1.00  0.00     0.049 A 
ATOM     90  C   UNL A   1      41.905  28.500  30.799  1.00  0.00     0.074 A 
ATOM     91  C   UNL A   1      42.088  31.606  36.307  1.00  0.00    -0.036 A 
ATOM     92  N   UNL A   1      41.511  30.798  34.316  1.00  0.00    -0.354 N 
ATOM     93  N   UNL A   1      41.860  29.173  31.921  1.00  0.00    -0.248 NA
ATOM     94  C   UNL A   1      43.016  27.540  30.716  1.00  0.00    -0.034 C 
ATOM     95  C   UNL A   1      43.042  30.655  35.923  1.00  0.00    -0.036 A 
ATOM     96  H   UNL A   1      42.094  32.150  37.182  1.00  0.00     0.065 H 
ATOM     97  C   UNL A   1      42.678  30.148  34.688  1.00  0.00     0.049 A 
ATOM     98  H   UNL A   1      41.024  30.647  33.474  1.00  0.00     0.167 HD
ATOM     99  C   UNL A   1      42.937  28.730  32.673  1.00  0.00     0.074 A 
ATOM    100  C   UNL A   1      43.612  27.717  31.889  1.00  0.00    -0.034 C 
ATOM    101  H   UNL A   1      43.266  26.897  29.949  1.00  0.00     0.065 H 
ATOM    102  H   UNL A   1      43.874  30.380  36.468  1.00  0.00     0.065 H 
ATOM    103  C   UNL A   1      43.334  29.140  33.900  1.00  0.00     0.037 A 
ATOM    104  H   UNL A   1      44.448  27.200  32.202  1.00  0.00     0.065 H 
BRANCH  85 105
ATOM    105  C   UNL A   1      39.658  33.382  36.432  1.00  0.00     0.064 A 
ATOM    106  C   UNL A   1      38.803  32.956  37.456  1.00  0.00     0.173 A 
ATOM    107  C   UNL A   1      40.267  34.639  36.553  1.00  0.00     0.173 A 
ATOM    108  F   UNL A   1      38.195  31.764  37.375  1.00  0.00    -0.203 F 
ATOM    109  C   UNL A   1      38.566  33.763  38.565  1.00  0.00     0.198 A 
ATOM    110  C   UNL A   1      40.031  35.442  37.664  1.00  0.00     0.198 A 
ATOM    111  F   UNL A   1      41.089  35.086  35.590  1.00  0.00    -0.203 F 
ATOM    112  F   UNL A   1      37.739  33.344  39.532  1.00  0.00    -0.200 F 
ATOM    113  C   UNL A   1      39.181  35.003  38.670  1.00  0.00     0.200 A 
ATOM    114  F   UNL A   1      40.622  36.640  37.763  1.00  0.00    -0.200 F 
ATOM    115  F   UNL A   1      38.951  35.778  39.738  1.00  0.00    -0.200 F 
ENDBRANCH  85 105
BRANCH  88 116
ATOM    116  C   UNL A   1      41.251  27.765  28.407  1.00  0.00     0.064 A 
ATOM    117  C   UNL A   1      40.620  26.527  28.238  1.00  0.00     0.173 A 
ATOM    118  C   UNL A   1      42.112  28.215  27.398  1.00  0.00     0.173 A 
ATOM    119  F   UNL A   1      39.801  26.057  29.190  1.00  0.00    -0.203 F 
ATOM    120  C   UNL A   1      40.843  25.763  27.096  1.00  0.00     0.198 A 
ATOM    121  C   UNL A   1      42.329  27.452  26.254  1.00  0.00     0.198 A 
ATOM    122  F   UNL A   1      42.737  29.394  27.527  1.00  0.00    -0.203 F 
ATOM    123  F   UNL A   1      40.238  24.575  26.957  1.00  0.00    -0.200 F 
ATOM    124  C   UNL A   1      41.695  26.228  26.104  1.00  0.00     0.200 A 
ATOM    125  F   UNL A   1      43.153  27.902  25.298  1.00  0.00    -0.200 F 
ATOM    126  F   UNL A   1      41.909  25.492  25.004  1.00  0.00    -0.200 F 
ENDBRANCH  88 116
BRANCH 103 127
ATOM    127  C   UNL A   1      44.558  28.495  34.465  1.00  0.00     0.064 A 
ATOM    128  C   UNL A   1      45.826  29.050  34.244  1.00  0.00     0.173 A 
ATOM    129  C   UNL A   1      44.464  27.337  35.248  1.00  0.00     0.173 A 
ATOM    130  F   UNL A   1      45.960  30.150  33.490  1.00  0.00    -0.203 F 
ATOM    131  C   UNL A   1      46.964  28.461  34.789  1.00  0.00     0.198 A 
ATOM    132  C   UNL A   1      45.604  26.753  35.793  1.00  0.00     0.198 A 
ATOM    133  F   UNL A   1      43.270  26.770  35.473  1.00  0.00    -0.203 F 
ATOM    134  F   UNL A   1      48.170  28.997  34.557  1.00  0.00    -0.200 F 
ATOM    135  C   UNL A   1      46.852  27.315  35.563  1.00  0.00     0.200 A 
ATOM    136  F   UNL A   1      45.498  25.641  36.532  1.00  0.00    -0.200 F 
ATOM    137  F   UNL A   1      47.949  26.746  36.081  1.00  0.00    -0.200 F 
ENDBRANCH 103 127
ENDBRANCH  68  71
ENDBRANCH  58  61
ENDBRANCH  54  57
ENDBRANCH  51  54
ENDBRANCH  48  51
ENDBRANCH   1  48
TORSDOF 18
ENDMDL
MODEL 6
REMARK VINA RESULT:     -12.2      3.413      6.190
REMARK SMILES CC(=O)NS(=O)(=O)c1ccc(-c2ccn(C(F)F)c(=O)c2)cc1C(=O)NCCCCCCNC(=O)c1ccc(-c2c3nc(c(-c4c(F)c(F)c(F)c(F)c4F)c4ccc([nH]4)c(-c4c(F)c(F)c(F)c(F)c4F)c4nc(c(-c5c(F)c(F)c(F)c(F)c5F)c5ccc2[nH]5)C=C4)C=C3)cc1
REMARK SMILES IDX 29 1 28 4 27 7 26 10 24 11 25 12 23 14 8 15 9 16 10 17 22 19
REMARK SMILES IDX 11 20 5 23 6 24 7 25 4 26 2 27 3 28 1 30 12 34 13 35 21 36
REMARK SMILES IDX 14 37 19 39 15 41 20 43 16 44 17 45 18 46 30 48 31 51 32 54
REMARK SMILES IDX 33 57 34 58 35 60 36 61 37 62 98 63 38 64 97 66 39 68 40 71
REMARK SMILES IDX 41 72 91 73 42 74 96 75 90 76 92 77 43 78 95 79 89 81 88 83
REMARK SMILES IDX 44 85 76 88 56 89 75 90 57 91 60 92 74 93 93 94 58 95 59 97
REMARK SMILES IDX 73 99 94 100 61 103 45 105 46 106 54 107 47 108 48 109
REMARK SMILES IDX 52 110 55 111 49 112 50 113 53 114 51 115 77 116 78 117
REMARK SMILES IDX 86 118 79 119 80 120 84 121 87 122 81 123 82 124 85 125
REMARK SMILES IDX 83 126 62 127 63 128 71 129 64 130 65 131 69 132 72 133
REMARK SMILES IDX 66 134 67 135 70 136 68 137
REMARK H PARENT 29 2 29 3 28 5 28 6 27 8 27 9 26 13 9 18 10 21 22 22 4 29 1 31
REMARK H PARENT 1 32 1 33 13 38 21 40 14 42 16 47 30 49 30 50 31 52 31 53
REMARK H PARENT 32 55 32 56 33 59 37 65 98 67 38 69 97 70 96 80 90 82 92 84
REMARK H PARENT 95 86 89 87 57 96 60 98 93 101 58 102 94 104
REMARK Flexibility Score: inf
ROOT
ATOM      1  C   UNL A   1      30.639  26.233  25.829  1.00  0.00    -0.052 C 
ATOM      2  H   UNL A   1      29.772  26.704  26.244  1.00  0.00     0.027 H 
ATOM      3  H   UNL A   1      30.593  26.133  24.764  1.00  0.00     0.027 H 
ENDROOT
BRANCH   1   4
ATOM      4  C   UNL A   1      30.725  24.813  26.392  1.00  0.00    -0.036 C 
ATOM      5  H   UNL A   1      30.277  24.811  27.363  1.00  0.00     0.028 H 
ATOM      6  H   UNL A   1      30.218  24.178  25.696  1.00  0.00     0.028 H 
BRANCH   4   7
ATOM      7  C   UNL A   1      32.153  24.265  26.522  1.00  0.00     0.018 C 
ATOM      8  H   UNL A   1      32.768  24.686  25.754  1.00  0.00     0.049 H 
ATOM      9  H   UNL A   1      32.550  24.528  27.481  1.00  0.00     0.049 H 
BRANCH   7  10
ATOM     10  N   UNL A   1      32.131  22.815  26.386  1.00  0.00    -0.352 N 
ATOM     11  C   UNL A   1      32.848  21.952  25.608  1.00  0.00     0.252 C 
ATOM     12  O   UNL A   1      32.599  20.748  25.638  1.00  0.00    -0.269 OA
ATOM     13  H   UNL A   1      31.472  22.372  26.968  1.00  0.00     0.163 HD
BRANCH  11  14
ATOM     14  C   UNL A   1      34.008  22.385  24.805  1.00  0.00     0.060 A 
ATOM     15  C   UNL A   1      33.972  22.831  23.485  1.00  0.00     0.100 A 
ATOM     16  C   UNL A   1      35.169  23.147  22.820  1.00  0.00    -0.040 A 
ATOM     17  C   UNL A   1      36.402  22.902  23.429  1.00  0.00    -0.053 A 
ATOM     18  H   UNL A   1      35.138  23.564  21.876  1.00  0.00     0.064 H 
ATOM     19  C   UNL A   1      35.260  22.143  25.408  1.00  0.00    -0.040 A 
ATOM     20  C   UNL A   1      36.461  22.356  24.716  1.00  0.00    -0.017 A 
ATOM     21  H   UNL A   1      37.275  23.124  22.926  1.00  0.00     0.063 H 
ATOM     22  H   UNL A   1      35.292  21.800  26.380  1.00  0.00     0.064 H 
BRANCH  15  23
ATOM     23  S   UNL A   1      32.484  22.855  22.531  1.00  0.00     0.264 S 
ATOM     24  O   UNL A   1      31.541  23.669  23.268  1.00  0.00    -0.201 OA
ATOM     25  O   UNL A   1      32.153  21.526  22.081  1.00  0.00    -0.201 OA
BRANCH  23  26
ATOM     26  N   UNL A   1      32.893  23.733  21.187  1.00  0.00    -0.249 N 
ATOM     27  C   UNL A   1      32.760  25.108  20.957  1.00  0.00     0.230 C 
ATOM     28  O   UNL A   1      33.278  25.578  19.953  1.00  0.00    -0.274 OA
ATOM     29  H   UNL A   1      33.284  23.215  20.447  1.00  0.00     0.183 HD
BRANCH  27  30
ATOM     30  C   UNL A   1      31.953  25.946  21.905  1.00  0.00     0.016 C 
ATOM     31  H   UNL A   1      30.981  26.115  21.492  1.00  0.00     0.033 H 
ATOM     32  H   UNL A   1      32.443  26.884  22.059  1.00  0.00     0.033 H 
ATOM     33  H   UNL A   1      31.858  25.435  22.840  1.00  0.00     0.033 H 
ENDBRANCH  27  30
ENDBRANCH  23  26
ENDBRANCH  15  23
BRANCH  20  34
ATOM     34  C   UNL A   1      37.745  21.883  25.284  1.00  0.00    -0.011 A 
ATOM     35  C   UNL A   1      38.570  22.736  26.127  1.00  0.00    -0.038 A 
ATOM     36  C   UNL A   1      38.141  20.614  25.078  1.00  0.00     0.012 A 
ATOM     37  C   UNL A   1      39.682  22.267  26.703  1.00  0.00     0.013 A 
ATOM     38  H   UNL A   1      38.293  23.718  26.281  1.00  0.00     0.064 H 
ATOM     39  C   UNL A   1      39.377  20.075  25.716  1.00  0.00     0.255 A 
ATOM     40  H   UNL A   1      37.579  20.002  24.467  1.00  0.00     0.069 H 
ATOM     41  N   UNL A   1      40.085  20.961  26.512  1.00  0.00    -0.258 N 
ATOM     42  H   UNL A   1      40.247  22.890  27.301  1.00  0.00     0.082 H 
ATOM     43  O   UNL A   1      39.672  18.901  25.514  1.00  0.00    -0.269 OA
BRANCH  41  44
ATOM     44  C   UNL A   1      41.260  20.455  27.176  1.00  0.00     0.321 C 
ATOM     45  F   UNL A   1      42.289  20.323  26.303  1.00  0.00    -0.185 F 
ATOM     46  F   UNL A   1      41.656  21.282  28.172  1.00  0.00    -0.185 F 
ATOM     47  H   UNL A   1      40.999  19.501  27.583  1.00  0.00     0.131 H 
ENDBRANCH  41  44
ENDBRANCH  20  34
ENDBRANCH  11  14
ENDBRANCH   7  10
ENDBRANCH   4   7
ENDBRANCH   1   4
BRANCH   1  48
ATOM     48  C   UNL A   1      31.852  27.117  26.129  1.00  0.00    -0.052 C 
ATOM     49  H   UNL A   1      32.679  26.472  26.339  1.00  0.00     0.027 H 
ATOM     50  H   UNL A   1      31.554  27.738  26.948  1.00  0.00     0.027 H 
BRANCH  48  51
ATOM     51  C   UNL A   1      32.283  28.086  25.017  1.00  0.00    -0.036 C 
ATOM     52  H   UNL A   1      31.413  28.617  24.693  1.00  0.00     0.028 H 
ATOM     53  H   UNL A   1      32.735  27.468  24.268  1.00  0.00     0.028 H 
BRANCH  51  54
ATOM     54  C   UNL A   1      33.350  29.122  25.379  1.00  0.00     0.018 C 
ATOM     55  H   UNL A   1      33.920  29.344  24.502  1.00  0.00     0.049 H 
ATOM     56  H   UNL A   1      33.953  28.698  26.156  1.00  0.00     0.049 H 
BRANCH  54  57
ATOM     57  N   UNL A   1      32.794  30.360  25.894  1.00  0.00    -0.352 N 
ATOM     58  C   UNL A   1      33.257  31.169  26.902  1.00  0.00     0.251 C 
ATOM     59  H   UNL A   1      31.967  30.664  25.456  1.00  0.00     0.163 HD
ATOM     60  O   UNL A   1      32.603  32.149  27.249  1.00  0.00    -0.269 OA
BRANCH  58  61
ATOM     61  C   UNL A   1      34.520  30.856  27.609  1.00  0.00     0.039 A 
ATOM     62  C   UNL A   1      35.465  31.879  27.753  1.00  0.00    -0.049 A 
ATOM     63  C   UNL A   1      34.807  29.571  28.082  1.00  0.00    -0.049 A 
ATOM     64  C   UNL A   1      36.667  31.636  28.421  1.00  0.00    -0.053 A 
ATOM     65  H   UNL A   1      35.272  32.816  27.364  1.00  0.00     0.063 H 
ATOM     66  C   UNL A   1      36.006  29.330  28.761  1.00  0.00    -0.053 A 
ATOM     67  H   UNL A   1      34.136  28.801  27.930  1.00  0.00     0.063 H 
ATOM     68  C   UNL A   1      36.937  30.363  28.945  1.00  0.00    -0.014 A 
ATOM     69  H   UNL A   1      37.358  32.393  28.529  1.00  0.00     0.063 H 
ATOM     70  H   UNL A   1      36.206  28.387  29.129  1.00  0.00     0.063 H 
BRANCH  68  71
ATOM     71  C   UNL A   1      38.174  30.119  29.724  1.00  0.00     0.031 A 
ATOM     72  C   UNL A   1      39.299  29.311  29.150  1.00  0.00     0.074 A 
ATOM     73  C   UNL A   1      38.275  30.617  30.970  1.00  0.00     0.049 A 
ATOM     74  N   UNL A   1      40.410  28.924  29.723  1.00  0.00    -0.248 NA
ATOM     75  C   UNL A   1      39.155  28.878  27.753  1.00  0.00    -0.034 C 
ATOM     76  C   UNL A   1      37.255  31.420  31.643  1.00  0.00    -0.036 A 
ATOM     77  N   UNL A   1      39.287  30.515  31.891  1.00  0.00    -0.354 N 
ATOM     78  C   UNL A   1      41.088  28.180  28.769  1.00  0.00     0.074 A 
ATOM     79  C   UNL A   1      40.271  28.184  27.572  1.00  0.00    -0.034 C 
ATOM     80  H   UNL A   1      38.387  29.063  27.089  1.00  0.00     0.065 H 
ATOM     81  C   UNL A   1      37.694  31.743  32.871  1.00  0.00    -0.036 A 
ATOM     82  H   UNL A   1      36.345  31.695  31.240  1.00  0.00     0.065 H 
ATOM     83  C   UNL A   1      39.017  31.157  33.072  1.00  0.00     0.049 A 
ATOM     84  H   UNL A   1      40.125  30.029  31.720  1.00  0.00     0.167 HD
ATOM     85  C   UNL A   1      42.276  27.541  28.887  1.00  0.00     0.037 A 
ATOM     86  H   UNL A   1      40.526  27.709  26.692  1.00  0.00     0.065 H 
ATOM     87  H   UNL A   1      37.179  32.313  33.561  1.00  0.00     0.065 H 
ATOM     88  C   UNL A   1      39.750  31.255  34.196  1.00  0.00     0.037 A 
ATOM     89  C   UNL A   1      43.102  27.542  30.063  1.00  0.00     0.049 A 
ATOM     90  C   UNL A   1      41.089  30.587  34.278  1.00  0.00     0.074 A 
ATOM     91  C   UNL A   1      44.301  26.883  30.281  1.00  0.00    -0.036 A 
ATOM     92  N   UNL A   1      42.819  28.250  31.220  1.00  0.00    -0.354 N 
ATOM     93  N   UNL A   1      41.696  29.846  33.386  1.00  0.00    -0.248 NA
ATOM     94  C   UNL A   1      41.845  30.767  35.528  1.00  0.00    -0.034 C 
ATOM     95  C   UNL A   1      44.749  27.202  31.570  1.00  0.00    -0.036 A 
ATOM     96  H   UNL A   1      44.782  26.266  29.609  1.00  0.00     0.065 H 
ATOM     97  C   UNL A   1      43.829  28.058  32.150  1.00  0.00     0.049 A 
ATOM     98  H   UNL A   1      42.020  28.807  31.361  1.00  0.00     0.167 HD
ATOM     99  C   UNL A   1      42.895  29.460  33.965  1.00  0.00     0.074 A 
ATOM    100  C   UNL A   1      42.942  30.063  35.281  1.00  0.00    -0.034 C 
ATOM    101  H   UNL A   1      41.589  31.301  36.373  1.00  0.00     0.065 H 
ATOM    102  H   UNL A   1      45.616  26.856  32.011  1.00  0.00     0.065 H 
ATOM    103  C   UNL A   1      43.864  28.667  33.452  1.00  0.00     0.037 A 
ATOM    104  H   UNL A   1      43.727  29.958  35.942  1.00  0.00     0.065 H 
BRANCH  85 105
ATOM    105  C   UNL A   1      42.749  26.763  27.702  1.00  0.00     0.064 A 
ATOM    106  C   UNL A   1      43.558  27.354  26.725  1.00  0.00     0.173 A 
ATOM    107  C   UNL A   1      42.421  25.406  27.566  1.00  0.00     0.173 A 
ATOM    108  F   UNL A   1      43.889  28.650  26.814  1.00  0.00    -0.203 F 
ATOM    109  C   UNL A   1      44.025  26.610  25.644  1.00  0.00     0.198 A 
ATOM    110  C   UNL A   1      42.891  24.665  26.487  1.00  0.00     0.198 A 
ATOM    111  F   UNL A   1      41.643  24.805  28.479  1.00  0.00    -0.203 F 
ATOM    112  F   UNL A   1      44.792  27.192  24.713  1.00  0.00    -0.200 F 
ATOM    113  C   UNL A   1      43.693  25.267  25.528  1.00  0.00     0.200 A 
ATOM    114  F   UNL A   1      42.568  23.370  26.373  1.00  0.00    -0.200 F 
ATOM    115  F   UNL A   1      44.142  24.553  24.487  1.00  0.00    -0.200 F 
ENDBRANCH  85 105
BRANCH  88 116
ATOM    116  C   UNL A   1      39.216  32.017  35.345  1.00  0.00     0.064 A 
ATOM    117  C   UNL A   1      38.448  31.384  36.330  1.00  0.00     0.173 A 
ATOM    118  C   UNL A   1      39.484  33.384  35.488  1.00  0.00     0.173 A 
ATOM    119  F   UNL A   1      38.160  30.080  36.219  1.00  0.00    -0.203 F 
ATOM    120  C   UNL A   1      37.963  32.097  37.423  1.00  0.00     0.198 A 
ATOM    121  C   UNL A   1      39.002  34.094  36.585  1.00  0.00     0.198 A 
ATOM    122  F   UNL A   1      40.212  34.025  34.563  1.00  0.00    -0.203 F 
ATOM    123  F   UNL A   1      37.220  31.475  38.350  1.00  0.00    -0.200 F 
ATOM    124  C   UNL A   1      38.243  33.450  37.551  1.00  0.00     0.200 A 
ATOM    125  F   UNL A   1      39.273  35.401  36.706  1.00  0.00    -0.200 F 
ATOM    126  F   UNL A   1      37.776  34.135  38.604  1.00  0.00    -0.200 F 
ENDBRANCH  88 116
BRANCH 103 127
ATOM    127  C   UNL A   1      45.051  28.401  34.319  1.00  0.00     0.064 A 
ATOM    128  C   UNL A   1      45.067  27.307  35.195  1.00  0.00     0.173 A 
ATOM    129  C   UNL A   1      46.184  29.223  34.259  1.00  0.00     0.173 A 
ATOM    130  F   UNL A   1      43.998  26.504  35.292  1.00  0.00    -0.203 F 
ATOM    131  C   UNL A   1      46.182  27.046  35.987  1.00  0.00     0.198 A 
ATOM    132  C   UNL A   1      47.297  28.958  35.050  1.00  0.00     0.198 A 
ATOM    133  F   UNL A   1      46.203  30.286  33.441  1.00  0.00    -0.203 F 
ATOM    134  F   UNL A   1      46.175  26.004  36.829  1.00  0.00    -0.200 F 
ATOM    135  C   UNL A   1      47.295  27.871  35.913  1.00  0.00     0.200 A 
ATOM    136  F   UNL A   1      48.370  29.759  34.987  1.00  0.00    -0.200 F 
ATOM    137  F   UNL A   1      48.365  27.623  36.681  1.00  0.00    -0.200 F 
ENDBRANCH 103 127
ENDBRANCH  68  71
ENDBRANCH  58  61
ENDBRANCH  54  57
ENDBRANCH  51  54
ENDBRANCH  48  51
ENDBRANCH   1  48
TORSDOF 18
ENDMDL
MODEL 7
REMARK VINA RESULT:     -12.0      2.966      5.549
REMARK SMILES CC(=O)NS(=O)(=O)c1ccc(-c2ccn(C(F)F)c(=O)c2)cc1C(=O)NCCCCCCNC(=O)c1ccc(-c2c3nc(c(-c4c(F)c(F)c(F)c(F)c4F)c4ccc([nH]4)c(-c4c(F)c(F)c(F)c(F)c4F)c4nc(c(-c5c(F)c(F)c(F)c(F)c5F)c5ccc2[nH]5)C=C4)C=C3)cc1
REMARK SMILES IDX 29 1 28 4 27 7 26 10 24 11 25 12 23 14 8 15 9 16 10 17 22 19
REMARK SMILES IDX 11 20 5 23 6 24 7 25 4 26 2 27 3 28 1 30 12 34 13 35 21 36
REMARK SMILES IDX 14 37 19 39 15 41 20 43 16 44 17 45 18 46 30 48 31 51 32 54
REMARK SMILES IDX 33 57 34 58 35 60 36 61 37 62 98 63 38 64 97 66 39 68 40 71
REMARK SMILES IDX 41 72 91 73 42 74 96 75 90 76 92 77 43 78 95 79 89 81 88 83
REMARK SMILES IDX 44 85 76 88 56 89 75 90 57 91 60 92 74 93 93 94 58 95 59 97
REMARK SMILES IDX 73 99 94 100 61 103 45 105 46 106 54 107 47 108 48 109
REMARK SMILES IDX 52 110 55 111 49 112 50 113 53 114 51 115 77 116 78 117
REMARK SMILES IDX 86 118 79 119 80 120 84 121 87 122 81 123 82 124 85 125
REMARK SMILES IDX 83 126 62 127 63 128 71 129 64 130 65 131 69 132 72 133
REMARK SMILES IDX 66 134 67 135 70 136 68 137
REMARK H PARENT 29 2 29 3 28 5 28 6 27 8 27 9 26 13 9 18 10 21 22 22 4 29 1 31
REMARK H PARENT 1 32 1 33 13 38 21 40 14 42 16 47 30 49 30 50 31 52 31 53
REMARK H PARENT 32 55 32 56 33 59 37 65 98 67 38 69 97 70 96 80 90 82 92 84
REMARK H PARENT 95 86 89 87 57 96 60 98 93 101 58 102 94 104
REMARK Flexibility Score: inf
ROOT
ATOM      1  C   UNL A   1      32.882  29.301  26.532  1.00  0.00    -0.052 C 
ATOM      2  H   UNL A   1      33.514  29.921  25.931  1.00  0.00     0.027 H 
ATOM      3  H   UNL A   1      33.337  29.005  27.454  1.00  0.00     0.027 H 
ENDROOT
BRANCH   1   4
ATOM      4  C   UNL A   1      32.601  28.013  25.757  1.00  0.00    -0.036 C 
ATOM      5  H   UNL A   1      31.702  27.580  26.141  1.00  0.00     0.028 H 
ATOM      6  H   UNL A   1      32.525  28.288  24.725  1.00  0.00     0.028 H 
BRANCH   4   7
ATOM      7  C   UNL A   1      33.714  26.960  25.845  1.00  0.00     0.018 C 
ATOM      8  H   UNL A   1      34.067  26.730  24.861  1.00  0.00     0.049 H 
ATOM      9  H   UNL A   1      34.523  27.345  26.433  1.00  0.00     0.049 H 
BRANCH   7  10
ATOM     10  N   UNL A   1      33.193  25.752  26.469  1.00  0.00    -0.352 N 
ATOM     11  C   UNL A   1      33.281  24.431  26.136  1.00  0.00     0.252 C 
ATOM     12  O   UNL A   1      32.695  23.587  26.811  1.00  0.00    -0.269 OA
ATOM     13  H   UNL A   1      32.677  25.921  27.291  1.00  0.00     0.163 HD
BRANCH  11  14
ATOM     14  C   UNL A   1      34.158  23.943  25.055  1.00  0.00     0.060 A 
ATOM     15  C   UNL A   1      33.785  23.730  23.728  1.00  0.00     0.100 A 
ATOM     16  C   UNL A   1      34.712  23.195  22.818  1.00  0.00    -0.040 A 
ATOM     17  C   UNL A   1      35.966  22.761  23.258  1.00  0.00    -0.053 A 
ATOM     18  H   UNL A   1      34.467  23.122  21.818  1.00  0.00     0.064 H 
ATOM     19  C   UNL A   1      35.427  23.503  25.484  1.00  0.00    -0.040 A 
ATOM     20  C   UNL A   1      36.321  22.872  24.606  1.00  0.00    -0.017 A 
ATOM     21  H   UNL A   1      36.633  22.356  22.583  1.00  0.00     0.063 H 
ATOM     22  H   UNL A   1      35.703  23.646  26.467  1.00  0.00     0.064 H 
BRANCH  15  23
ATOM     23  S   UNL A   1      32.123  23.938  23.164  1.00  0.00     0.264 S 
ATOM     24  O   UNL A   1      31.599  25.093  23.861  1.00  0.00    -0.201 OA
ATOM     25  O   UNL A   1      31.431  22.674  23.159  1.00  0.00    -0.201 OA
BRANCH  23  26
ATOM     26  N   UNL A   1      32.300  24.399  21.583  1.00  0.00    -0.249 N 
ATOM     27  C   UNL A   1      32.859  25.574  21.064  1.00  0.00     0.230 C 
ATOM     28  O   UNL A   1      33.040  25.642  19.855  1.00  0.00    -0.274 OA
ATOM     29  H   UNL A   1      31.964  23.758  20.916  1.00  0.00     0.183 HD
BRANCH  27  30
ATOM     30  C   UNL A   1      33.168  26.720  21.982  1.00  0.00     0.016 C 
ATOM     31  H   UNL A   1      32.355  27.416  21.969  1.00  0.00     0.033 H 
ATOM     32  H   UNL A   1      34.062  27.209  21.656  1.00  0.00     0.033 H 
ATOM     33  H   UNL A   1      33.305  26.352  22.978  1.00  0.00     0.033 H 
ENDBRANCH  27  30
ENDBRANCH  23  26
ENDBRANCH  15  23
BRANCH  20  34
ATOM     34  C   UNL A   1      37.545  22.218  25.127  1.00  0.00    -0.011 A 
ATOM     35  C   UNL A   1      38.520  22.945  25.925  1.00  0.00    -0.038 A 
ATOM     36  C   UNL A   1      37.741  20.904  24.919  1.00  0.00     0.012 A 
ATOM     37  C   UNL A   1      39.575  22.320  26.462  1.00  0.00     0.013 A 
ATOM     38  H   UNL A   1      38.398  23.958  26.079  1.00  0.00     0.064 H 
ATOM     39  C   UNL A   1      38.911  20.192  25.513  1.00  0.00     0.255 A 
ATOM     40  H   UNL A   1      37.070  20.378  24.339  1.00  0.00     0.069 H 
ATOM     41  N   UNL A   1      39.773  20.968  26.269  1.00  0.00    -0.258 N 
ATOM     42  H   UNL A   1      40.250  22.857  27.029  1.00  0.00     0.082 H 
ATOM     43  O   UNL A   1      39.021  18.986  25.312  1.00  0.00    -0.269 OA
BRANCH  41  44
ATOM     44  C   UNL A   1      40.888  20.298  26.890  1.00  0.00     0.321 C 
ATOM     45  F   UNL A   1      42.008  20.423  26.136  1.00  0.00    -0.185 F 
ATOM     46  F   UNL A   1      41.147  20.810  28.117  1.00  0.00    -0.185 F 
ATOM     47  H   UNL A   1      40.618  19.267  26.981  1.00  0.00     0.131 H 
ENDBRANCH  41  44
ENDBRANCH  20  34
ENDBRANCH  11  14
ENDBRANCH   7  10
ENDBRANCH   4   7
ENDBRANCH   1   4
BRANCH   1  48
ATOM     48  C   UNL A   1      31.636  30.110  26.904  1.00  0.00    -0.052 C 
ATOM     49  H   UNL A   1      31.445  29.952  27.945  1.00  0.00     0.027 H 
ATOM     50  H   UNL A   1      30.864  29.758  26.252  1.00  0.00     0.027 H 
BRANCH  48  51
ATOM     51  C   UNL A   1      31.711  31.627  26.667  1.00  0.00    -0.036 C 
ATOM     52  H   UNL A   1      30.820  32.062  27.069  1.00  0.00     0.028 H 
ATOM     53  H   UNL A   1      31.826  31.739  25.609  1.00  0.00     0.028 H 
BRANCH  51  54
ATOM     54  C   UNL A   1      32.904  32.364  27.281  1.00  0.00     0.018 C 
ATOM     55  H   UNL A   1      33.694  32.390  26.561  1.00  0.00     0.049 H 
ATOM     56  H   UNL A   1      33.184  31.832  28.167  1.00  0.00     0.049 H 
BRANCH  54  57
ATOM     57  N   UNL A   1      32.595  33.725  27.676  1.00  0.00    -0.352 N 
ATOM     58  C   UNL A   1      33.204  34.518  28.617  1.00  0.00     0.251 C 
ATOM     59  H   UNL A   1      31.840  34.140  27.200  1.00  0.00     0.163 HD
ATOM     60  O   UNL A   1      32.749  35.631  28.867  1.00  0.00    -0.269 OA
BRANCH  58  61
ATOM     61  C   UNL A   1      34.385  34.036  29.369  1.00  0.00     0.039 A 
ATOM     62  C   UNL A   1      34.168  33.186  30.461  1.00  0.00    -0.049 A 
ATOM     63  C   UNL A   1      35.685  34.445  29.052  1.00  0.00    -0.049 A 
ATOM     64  C   UNL A   1      35.250  32.698  31.196  1.00  0.00    -0.053 A 
ATOM     65  H   UNL A   1      33.205  32.921  30.723  1.00  0.00     0.063 H 
ATOM     66  C   UNL A   1      36.769  33.945  29.781  1.00  0.00    -0.053 A 
ATOM     67  H   UNL A   1      35.843  35.113  28.282  1.00  0.00     0.063 H 
ATOM     68  C   UNL A   1      36.560  33.060  30.849  1.00  0.00    -0.014 A 
ATOM     69  H   UNL A   1      35.086  32.068  31.997  1.00  0.00     0.063 H 
ATOM     70  H   UNL A   1      37.729  34.229  29.530  1.00  0.00     0.063 H 
BRANCH  68  71
ATOM     71  C   UNL A   1      37.716  32.482  31.573  1.00  0.00     0.031 A 
ATOM     72  C   UNL A   1      38.534  31.383  30.965  1.00  0.00     0.074 A 
ATOM     73  C   UNL A   1      38.019  32.942  32.801  1.00  0.00     0.049 A 
ATOM     74  N   UNL A   1      39.520  30.702  31.494  1.00  0.00    -0.248 NA
ATOM     75  C   UNL A   1      38.200  30.996  29.588  1.00  0.00    -0.034 C 
ATOM     76  C   UNL A   1      37.305  34.008  33.503  1.00  0.00    -0.036 A 
ATOM     77  N   UNL A   1      39.008  32.566  33.675  1.00  0.00    -0.354 N 
ATOM     78  C   UNL A   1      39.907  29.787  30.526  1.00  0.00     0.074 A 
ATOM     79  C   UNL A   1      39.064  30.012  29.370  1.00  0.00    -0.034 C 
ATOM     80  H   UNL A   1      37.483  31.385  28.957  1.00  0.00     0.065 H 
ATOM     81  C   UNL A   1      37.881  34.205  34.701  1.00  0.00    -0.036 A 
ATOM     82  H   UNL A   1      36.490  34.526  33.138  1.00  0.00     0.065 H 
ATOM     83  C   UNL A   1      38.993  33.269  34.852  1.00  0.00     0.049 A 
ATOM     84  H   UNL A   1      39.664  31.860  33.475  1.00  0.00     0.167 HD
ATOM     85  C   UNL A   1      40.870  28.839  30.602  1.00  0.00     0.037 A 
ATOM     86  H   UNL A   1      39.126  29.476  28.490  1.00  0.00     0.065 H 
ATOM     87  H   UNL A   1      37.586  34.903  35.400  1.00  0.00     0.065 H 
ATOM     88  C   UNL A   1      39.782  33.165  35.937  1.00  0.00     0.037 A 
ATOM     89  C   UNL A   1      41.724  28.615  31.737  1.00  0.00     0.049 A 
ATOM     90  C   UNL A   1      40.880  32.145  35.971  1.00  0.00     0.074 A 
ATOM     91  C   UNL A   1      42.697  27.646  31.913  1.00  0.00    -0.036 A 
ATOM     92  N   UNL A   1      41.714  29.385  32.890  1.00  0.00    -0.354 N 
ATOM     93  N   UNL A   1      41.204  31.254  35.068  1.00  0.00    -0.248 NA
ATOM     94  C   UNL A   1      41.720  32.115  37.178  1.00  0.00    -0.034 C 
ATOM     95  C   UNL A   1      43.284  27.835  33.171  1.00  0.00    -0.036 A 
ATOM     96  H   UNL A   1      42.947  26.911  31.234  1.00  0.00     0.065 H 
ATOM     97  C   UNL A   1      42.676  28.923  33.774  1.00  0.00     0.049 A 
ATOM     98  H   UNL A   1      41.114  30.147  33.055  1.00  0.00     0.167 HD
ATOM     99  C   UNL A   1      42.274  30.549  35.598  1.00  0.00     0.074 A 
ATOM    100  C   UNL A   1      42.558  31.126  36.896  1.00  0.00    -0.034 C 
ATOM    101  H   UNL A   1      41.671  32.707  38.021  1.00  0.00     0.065 H 
ATOM    102  H   UNL A   1      44.040  27.262  33.578  1.00  0.00     0.065 H 
ATOM    103  C   UNL A   1      42.950  29.509  35.058  1.00  0.00     0.037 A 
ATOM    104  H   UNL A   1      43.315  30.808  37.521  1.00  0.00     0.065 H 
BRANCH  85 105
ATOM    105  C   UNL A   1      41.041  27.947  29.415  1.00  0.00     0.064 A 
ATOM    106  C   UNL A   1      42.101  28.130  28.520  1.00  0.00     0.173 A 
ATOM    107  C   UNL A   1      40.158  26.880  29.195  1.00  0.00     0.173 A 
ATOM    108  F   UNL A   1      42.963  29.143  28.690  1.00  0.00    -0.203 F 
ATOM    109  C   UNL A   1      42.273  27.271  27.438  1.00  0.00     0.198 A 
ATOM    110  C   UNL A   1      40.334  26.022  28.115  1.00  0.00     0.198 A 
ATOM    111  F   UNL A   1      39.126  26.675  30.028  1.00  0.00    -0.203 F 
ATOM    112  F   UNL A   1      43.288  27.464  26.585  1.00  0.00    -0.200 F 
ATOM    113  C   UNL A   1      41.392  26.217  27.238  1.00  0.00     0.200 A 
ATOM    114  F   UNL A   1      39.482  25.007  27.920  1.00  0.00    -0.200 F 
ATOM    115  F   UNL A   1      41.558  25.392  26.195  1.00  0.00    -0.200 F 
ENDBRANCH  85 105
BRANCH  88 116
ATOM    116  C   UNL A   1      39.547  34.057  37.092  1.00  0.00     0.064 A 
ATOM    117  C   UNL A   1      38.767  33.636  38.176  1.00  0.00     0.173 A 
ATOM    118  C   UNL A   1      40.116  35.337  37.140  1.00  0.00     0.173 A 
ATOM    119  F   UNL A   1      38.195  32.424  38.158  1.00  0.00    -0.203 F 
ATOM    120  C   UNL A   1      38.563  34.468  39.273  1.00  0.00     0.198 A 
ATOM    121  C   UNL A   1      39.914  36.165  38.240  1.00  0.00     0.198 A 
ATOM    122  F   UNL A   1      40.865  35.776  36.118  1.00  0.00    -0.203 F 
ATOM    123  F   UNL A   1      37.805  34.051  40.297  1.00  0.00    -0.200 F 
ATOM    124  C   UNL A   1      39.139  35.731  39.305  1.00  0.00     0.200 A 
ATOM    125  F   UNL A   1      40.471  37.384  38.269  1.00  0.00    -0.200 F 
ATOM    126  F   UNL A   1      38.943  36.531  40.362  1.00  0.00    -0.200 F 
ENDBRANCH  88 116
BRANCH 103 127
ATOM    127  C   UNL A   1      44.057  28.925  35.874  1.00  0.00     0.064 A 
ATOM    128  C   UNL A   1      45.363  29.422  35.769  1.00  0.00     0.173 A 
ATOM    129  C   UNL A   1      43.810  27.885  36.780  1.00  0.00     0.173 A 
ATOM    130  F   UNL A   1      45.643  30.407  34.904  1.00  0.00    -0.203 F 
ATOM    131  C   UNL A   1      46.390  28.892  36.545  1.00  0.00     0.198 A 
ATOM    132  C   UNL A   1      44.839  27.359  37.556  1.00  0.00     0.198 A 
ATOM    133  F   UNL A   1      42.576  27.375  36.901  1.00  0.00    -0.203 F 
ATOM    134  F   UNL A   1      47.636  29.370  36.423  1.00  0.00    -0.200 F 
ATOM    135  C   UNL A   1      46.127  27.863  37.438  1.00  0.00     0.200 A 
ATOM    136  F   UNL A   1      44.588  26.359  38.411  1.00  0.00    -0.200 F 
ATOM    137  F   UNL A   1      47.118  27.350  38.180  1.00  0.00    -0.200 F 
ENDBRANCH 103 127
ENDBRANCH  68  71
ENDBRANCH  58  61
ENDBRANCH  54  57
ENDBRANCH  51  54
ENDBRANCH  48  51
ENDBRANCH   1  48
TORSDOF 18
ENDMDL
MODEL 8
REMARK VINA RESULT:     -11.9      3.475      9.060
REMARK SMILES CC(=O)NS(=O)(=O)c1ccc(-c2ccn(C(F)F)c(=O)c2)cc1C(=O)NCCCCCCNC(=O)c1ccc(-c2c3nc(c(-c4c(F)c(F)c(F)c(F)c4F)c4ccc([nH]4)c(-c4c(F)c(F)c(F)c(F)c4F)c4nc(c(-c5c(F)c(F)c(F)c(F)c5F)c5ccc2[nH]5)C=C4)C=C3)cc1
REMARK SMILES IDX 29 1 28 4 27 7 26 10 24 11 25 12 23 14 8 15 9 16 10 17 22 19
REMARK SMILES IDX 11 20 5 23 6 24 7 25 4 26 2 27 3 28 1 30 12 34 13 35 21 36
REMARK SMILES IDX 14 37 19 39 15 41 20 43 16 44 17 45 18 46 30 48 31 51 32 54
REMARK SMILES IDX 33 57 34 58 35 60 36 61 37 62 98 63 38 64 97 66 39 68 40 71
REMARK SMILES IDX 41 72 91 73 42 74 96 75 90 76 92 77 43 78 95 79 89 81 88 83
REMARK SMILES IDX 44 85 76 88 56 89 75 90 57 91 60 92 74 93 93 94 58 95 59 97
REMARK SMILES IDX 73 99 94 100 61 103 45 105 46 106 54 107 47 108 48 109
REMARK SMILES IDX 52 110 55 111 49 112 50 113 53 114 51 115 77 116 78 117
REMARK SMILES IDX 86 118 79 119 80 120 84 121 87 122 81 123 82 124 85 125
REMARK SMILES IDX 83 126 62 127 63 128 71 129 64 130 65 131 69 132 72 133
REMARK SMILES IDX 66 134 67 135 70 136 68 137
REMARK H PARENT 29 2 29 3 28 5 28 6 27 8 27 9 26 13 9 18 10 21 22 22 4 29 1 31
REMARK H PARENT 1 32 1 33 13 38 21 40 14 42 16 47 30 49 30 50 31 52 31 53
REMARK H PARENT 32 55 32 56 33 59 37 65 98 67 38 69 97 70 96 80 90 82 92 84
REMARK H PARENT 95 86 89 87 57 96 60 98 93 101 58 102 94 104
REMARK Flexibility Score: inf
ROOT
ATOM      1  C   UNL A   1      30.660  26.367  25.754  1.00  0.00    -0.052 C 
ATOM      2  H   UNL A   1      29.806  26.855  26.177  1.00  0.00     0.027 H 
ATOM      3  H   UNL A   1      30.599  26.260  24.691  1.00  0.00     0.027 H 
ENDROOT
BRANCH   1   4
ATOM      4  C   UNL A   1      30.732  24.951  26.327  1.00  0.00    -0.036 C 
ATOM      5  H   UNL A   1      30.271  24.956  27.292  1.00  0.00     0.028 H 
ATOM      6  H   UNL A   1      30.231  24.314  25.628  1.00  0.00     0.028 H 
BRANCH   4   7
ATOM      7  C   UNL A   1      32.155  24.397  26.480  1.00  0.00     0.018 C 
ATOM      8  H   UNL A   1      32.777  24.793  25.705  1.00  0.00     0.049 H 
ATOM      9  H   UNL A   1      32.549  24.682  27.434  1.00  0.00     0.049 H 
BRANCH   7  10
ATOM     10  N   UNL A   1      32.124  22.944  26.382  1.00  0.00    -0.352 N 
ATOM     11  C   UNL A   1      32.833  22.056  25.624  1.00  0.00     0.252 C 
ATOM     12  O   UNL A   1      32.577  20.855  25.687  1.00  0.00    -0.269 OA
ATOM     13  H   UNL A   1      31.466  22.521  26.979  1.00  0.00     0.163 HD
BRANCH  11  14
ATOM     14  C   UNL A   1      33.991  22.460  24.805  1.00  0.00     0.060 A 
ATOM     15  C   UNL A   1      33.952  22.864  23.471  1.00  0.00     0.100 A 
ATOM     16  C   UNL A   1      35.148  23.156  22.793  1.00  0.00    -0.040 A 
ATOM     17  C   UNL A   1      36.383  22.928  23.407  1.00  0.00    -0.053 A 
ATOM     18  H   UNL A   1      35.115  23.542  21.837  1.00  0.00     0.064 H 
ATOM     19  C   UNL A   1      35.244  22.237  25.412  1.00  0.00    -0.040 A 
ATOM     20  C   UNL A   1      36.444  22.425  24.711  1.00  0.00    -0.017 A 
ATOM     21  H   UNL A   1      37.255  23.132  22.894  1.00  0.00     0.063 H 
ATOM     22  H   UNL A   1      35.278  21.925  26.395  1.00  0.00     0.064 H 
BRANCH  15  23
ATOM     23  S   UNL A   1      32.462  22.859  22.521  1.00  0.00     0.264 S 
ATOM     24  O   UNL A   1      31.507  23.661  23.256  1.00  0.00    -0.201 OA
ATOM     25  O   UNL A   1      32.152  21.523  22.078  1.00  0.00    -0.201 OA
BRANCH  23  26
ATOM     26  N   UNL A   1      32.853  23.737  21.172  1.00  0.00    -0.249 N 
ATOM     27  C   UNL A   1      32.783  25.121  20.968  1.00  0.00     0.230 C 
ATOM     28  O   UNL A   1      33.277  25.581  19.947  1.00  0.00    -0.274 OA
ATOM     29  H   UNL A   1      33.182  23.212  20.406  1.00  0.00     0.183 HD
BRANCH  27  30
ATOM     30  C   UNL A   1      32.066  25.983  21.965  1.00  0.00     0.016 C 
ATOM     31  H   UNL A   1      31.831  25.404  22.834  1.00  0.00     0.033 H 
ATOM     32  H   UNL A   1      31.162  26.357  21.531  1.00  0.00     0.033 H 
ATOM     33  H   UNL A   1      32.693  26.804  22.243  1.00  0.00     0.033 H 
ENDBRANCH  27  30
ENDBRANCH  23  26
ENDBRANCH  15  23
BRANCH  20  34
ATOM     34  C   UNL A   1      37.729  21.968  25.290  1.00  0.00    -0.011 A 
ATOM     35  C   UNL A   1      38.543  22.838  26.126  1.00  0.00    -0.038 A 
ATOM     36  C   UNL A   1      38.135  20.700  25.101  1.00  0.00     0.012 A 
ATOM     37  C   UNL A   1      39.656  22.384  26.714  1.00  0.00     0.013 A 
ATOM     38  H   UNL A   1      38.259  23.819  26.267  1.00  0.00     0.064 H 
ATOM     39  C   UNL A   1      39.372  20.178  25.752  1.00  0.00     0.255 A 
ATOM     40  H   UNL A   1      37.580  20.076  24.496  1.00  0.00     0.069 H 
ATOM     41  N   UNL A   1      40.069  21.078  26.540  1.00  0.00    -0.258 N 
ATOM     42  H   UNL A   1      40.214  23.018  27.307  1.00  0.00     0.082 H 
ATOM     43  O   UNL A   1      39.677  19.004  25.565  1.00  0.00    -0.269 OA
BRANCH  41  44
ATOM     44  C   UNL A   1      41.245  20.589  27.216  1.00  0.00     0.321 C 
ATOM     45  F   UNL A   1      42.246  20.352  26.332  1.00  0.00    -0.185 F 
ATOM     46  F   UNL A   1      41.693  21.482  28.131  1.00  0.00    -0.185 F 
ATOM     47  H   UNL A   1      40.965  19.681  27.706  1.00  0.00     0.131 H 
ENDBRANCH  41  44
ENDBRANCH  20  34
ENDBRANCH  11  14
ENDBRANCH   7  10
ENDBRANCH   4   7
ENDBRANCH   1   4
BRANCH   1  48
ATOM     48  C   UNL A   1      31.890  27.234  26.033  1.00  0.00    -0.052 C 
ATOM     49  H   UNL A   1      32.729  26.581  26.152  1.00  0.00     0.027 H 
ATOM     50  H   UNL A   1      31.644  27.804  26.904  1.00  0.00     0.027 H 
BRANCH  48  51
ATOM     51  C   UNL A   1      32.254  28.270  24.957  1.00  0.00    -0.036 C 
ATOM     52  H   UNL A   1      31.366  28.820  24.723  1.00  0.00     0.028 H 
ATOM     53  H   UNL A   1      32.655  27.700  24.144  1.00  0.00     0.028 H 
BRANCH  51  54
ATOM     54  C   UNL A   1      33.345  29.283  25.314  1.00  0.00     0.018 C 
ATOM     55  H   UNL A   1      33.873  29.542  24.421  1.00  0.00     0.049 H 
ATOM     56  H   UNL A   1      33.983  28.820  26.039  1.00  0.00     0.049 H 
BRANCH  54  57
ATOM     57  N   UNL A   1      32.825  30.498  25.912  1.00  0.00    -0.352 N 
ATOM     58  C   UNL A   1      33.320  31.232  26.961  1.00  0.00     0.251 C 
ATOM     59  H   UNL A   1      31.999  30.847  25.507  1.00  0.00     0.163 HD
ATOM     60  O   UNL A   1      32.694  32.203  27.379  1.00  0.00    -0.269 OA
BRANCH  58  61
ATOM     61  C   UNL A   1      34.586  30.849  27.628  1.00  0.00     0.039 A 
ATOM     62  C   UNL A   1      35.579  31.826  27.768  1.00  0.00    -0.049 A 
ATOM     63  C   UNL A   1      34.827  29.542  28.066  1.00  0.00    -0.049 A 
ATOM     64  C   UNL A   1      36.786  31.515  28.398  1.00  0.00    -0.053 A 
ATOM     65  H   UNL A   1      35.418  32.778  27.403  1.00  0.00     0.063 H 
ATOM     66  C   UNL A   1      36.031  29.234  28.708  1.00  0.00    -0.053 A 
ATOM     67  H   UNL A   1      34.118  28.807  27.916  1.00  0.00     0.063 H 
ATOM     68  C   UNL A   1      37.012  30.220  28.888  1.00  0.00    -0.014 A 
ATOM     69  H   UNL A   1      37.513  32.239  28.503  1.00  0.00     0.063 H 
ATOM     70  H   UNL A   1      36.198  28.276  29.052  1.00  0.00     0.063 H 
BRANCH  68  71
ATOM     71  C   UNL A   1      38.257  29.905  29.629  1.00  0.00     0.031 A 
ATOM     72  C   UNL A   1      38.479  30.424  31.018  1.00  0.00     0.074 A 
ATOM     73  C   UNL A   1      39.204  29.157  29.034  1.00  0.00     0.049 A 
ATOM     74  N   UNL A   1      39.543  30.322  31.774  1.00  0.00    -0.248 NA
ATOM     75  C   UNL A   1      37.364  31.156  31.635  1.00  0.00    -0.034 C 
ATOM     76  C   UNL A   1      39.110  28.590  27.689  1.00  0.00    -0.036 A 
ATOM     77  N   UNL A   1      40.433  28.750  29.486  1.00  0.00    -0.354 N 
ATOM     78  C   UNL A   1      39.238  30.998  32.946  1.00  0.00     0.074 A 
ATOM     79  C   UNL A   1      37.883  31.491  32.810  1.00  0.00    -0.034 C 
ATOM     80  H   UNL A   1      36.426  31.357  31.255  1.00  0.00     0.065 H 
ATOM     81  C   UNL A   1      40.235  27.903  27.425  1.00  0.00    -0.036 A 
ATOM     82  H   UNL A   1      38.310  28.699  27.046  1.00  0.00     0.065 H 
ATOM     83  C   UNL A   1      41.129  27.997  28.576  1.00  0.00     0.049 A 
ATOM     84  H   UNL A   1      40.782  28.977  30.379  1.00  0.00     0.167 HD
ATOM     85  C   UNL A   1      40.024  31.199  34.030  1.00  0.00     0.037 A 
ATOM     86  H   UNL A   1      37.385  32.033  33.533  1.00  0.00     0.065 H 
ATOM     87  H   UNL A   1      40.434  27.393  26.551  1.00  0.00     0.065 H 
ATOM     88  C   UNL A   1      42.355  27.450  28.657  1.00  0.00     0.037 A 
ATOM     89  C   UNL A   1      41.365  30.702  34.184  1.00  0.00     0.049 A 
ATOM     90  C   UNL A   1      43.181  27.638  29.893  1.00  0.00     0.074 A 
ATOM     91  C   UNL A   1      42.247  30.898  35.233  1.00  0.00    -0.036 A 
ATOM     92  N   UNL A   1      42.013  29.897  33.261  1.00  0.00    -0.354 N 
ATOM     93  N   UNL A   1      42.900  28.321  30.975  1.00  0.00    -0.248 NA
ATOM     94  C   UNL A   1      44.497  26.982  29.918  1.00  0.00    -0.034 C 
ATOM     95  C   UNL A   1      43.429  30.201  34.949  1.00  0.00    -0.036 A 
ATOM     96  H   UNL A   1      42.065  31.460  36.079  1.00  0.00     0.065 H 
ATOM     97  C   UNL A   1      43.279  29.572  33.725  1.00  0.00     0.049 A 
ATOM     98  H   UNL A   1      41.632  29.598  32.404  1.00  0.00     0.167 HD
ATOM     99  C   UNL A   1      44.004  28.189  31.803  1.00  0.00     0.074 A 
ATOM    100  C   UNL A   1      44.956  27.346  31.109  1.00  0.00    -0.034 C 
ATOM    101  H   UNL A   1      44.946  26.393  29.200  1.00  0.00     0.065 H 
ATOM    102  H   UNL A   1      44.267  30.163  35.550  1.00  0.00     0.065 H 
ATOM    103  C   UNL A   1      44.211  28.730  33.026  1.00  0.00     0.037 A 
ATOM    104  H   UNL A   1      45.872  27.066  31.491  1.00  0.00     0.065 H 
BRANCH  85 105
ATOM    105  C   UNL A   1      39.452  32.017  35.141  1.00  0.00     0.064 A 
ATOM    106  C   UNL A   1      39.627  33.405  35.182  1.00  0.00     0.173 A 
ATOM    107  C   UNL A   1      38.691  31.411  36.151  1.00  0.00     0.173 A 
ATOM    108  F   UNL A   1      40.355  34.022  34.240  1.00  0.00    -0.203 F 
ATOM    109  C   UNL A   1      39.059  34.163  36.202  1.00  0.00     0.198 A 
ATOM    110  C   UNL A   1      38.121  32.172  37.166  1.00  0.00     0.198 A 
ATOM    111  F   UNL A   1      38.504  30.082  36.150  1.00  0.00    -0.203 F 
ATOM    112  F   UNL A   1      39.242  35.490  36.231  1.00  0.00    -0.200 F 
ATOM    113  C   UNL A   1      38.304  33.547  37.191  1.00  0.00     0.200 A 
ATOM    114  F   UNL A   1      37.396  31.576  38.123  1.00  0.00    -0.200 F 
ATOM    115  F   UNL A   1      37.758  34.278  38.172  1.00  0.00    -0.200 F 
ENDBRANCH  85 105
BRANCH  88 116
ATOM    116  C   UNL A   1      42.879  26.673  27.513  1.00  0.00     0.064 A 
ATOM    117  C   UNL A   1      43.741  27.263  26.581  1.00  0.00     0.173 A 
ATOM    118  C   UNL A   1      42.542  25.324  27.345  1.00  0.00     0.173 A 
ATOM    119  F   UNL A   1      44.074  28.556  26.701  1.00  0.00    -0.203 F 
ATOM    120  C   UNL A   1      44.251  26.526  25.515  1.00  0.00     0.198 A 
ATOM    121  C   UNL A   1      43.057  24.587  26.282  1.00  0.00     0.198 A 
ATOM    122  F   UNL A   1      41.715  24.726  28.215  1.00  0.00    -0.203 F 
ATOM    123  F   UNL A   1      45.067  27.111  24.628  1.00  0.00    -0.200 F 
ATOM    124  C   UNL A   1      43.911  25.189  25.368  1.00  0.00     0.200 A 
ATOM    125  F   UNL A   1      42.726  23.297  26.141  1.00  0.00    -0.200 F 
ATOM    126  F   UNL A   1      44.402  24.480  24.342  1.00  0.00    -0.200 F 
ENDBRANCH  88 116
BRANCH 103 127
ATOM    127  C   UNL A   1      45.518  28.433  33.686  1.00  0.00     0.064 A 
ATOM    128  C   UNL A   1      46.630  29.260  33.477  1.00  0.00     0.173 A 
ATOM    129  C   UNL A   1      45.655  27.336  34.547  1.00  0.00     0.173 A 
ATOM    130  F   UNL A   1      46.544  30.312  32.650  1.00  0.00    -0.203 F 
ATOM    131  C   UNL A   1      47.842  28.995  34.109  1.00  0.00     0.198 A 
ATOM    132  C   UNL A   1      46.868  27.076  35.179  1.00  0.00     0.198 A 
ATOM    133  F   UNL A   1      44.618  26.515  34.764  1.00  0.00    -0.203 F 
ATOM    134  F   UNL A   1      48.899  29.788  33.888  1.00  0.00    -0.200 F 
ATOM    135  C   UNL A   1      47.959  27.904  34.959  1.00  0.00     0.200 A 
ATOM    136  F   UNL A   1      46.985  26.017  35.993  1.00  0.00    -0.200 F 
ATOM    137  F   UNL A   1      49.128  27.647  35.562  1.00  0.00    -0.200 F 
ENDBRANCH 103 127
ENDBRANCH  68  71
ENDBRANCH  58  61
ENDBRANCH  54  57
ENDBRANCH  51  54
ENDBRANCH  48  51
ENDBRANCH   1  48
TORSDOF 18
ENDMDL
MODEL 9
REMARK VINA RESULT:     -11.9      2.909      5.160
REMARK SMILES CC(=O)NS(=O)(=O)c1ccc(-c2ccn(C(F)F)c(=O)c2)cc1C(=O)NCCCCCCNC(=O)c1ccc(-c2c3nc(c(-c4c(F)c(F)c(F)c(F)c4F)c4ccc([nH]4)c(-c4c(F)c(F)c(F)c(F)c4F)c4nc(c(-c5c(F)c(F)c(F)c(F)c5F)c5ccc2[nH]5)C=C4)C=C3)cc1
REMARK SMILES IDX 29 1 28 4 27 7 26 10 24 11 25 12 23 14 8 15 9 16 10 17 22 19
REMARK SMILES IDX 11 20 5 23 6 24 7 25 4 26 2 27 3 28 1 30 12 34 13 35 21 36
REMARK SMILES IDX 14 37 19 39 15 41 20 43 16 44 17 45 18 46 30 48 31 51 32 54
REMARK SMILES IDX 33 57 34 58 35 60 36 61 37 62 98 63 38 64 97 66 39 68 40 71
REMARK SMILES IDX 41 72 91 73 42 74 96 75 90 76 92 77 43 78 95 79 89 81 88 83
REMARK SMILES IDX 44 85 76 88 56 89 75 90 57 91 60 92 74 93 93 94 58 95 59 97
REMARK SMILES IDX 73 99 94 100 61 103 45 105 46 106 54 107 47 108 48 109
REMARK SMILES IDX 52 110 55 111 49 112 50 113 53 114 51 115 77 116 78 117
REMARK SMILES IDX 86 118 79 119 80 120 84 121 87 122 81 123 82 124 85 125
REMARK SMILES IDX 83 126 62 127 63 128 71 129 64 130 65 131 69 132 72 133
REMARK SMILES IDX 66 134 67 135 70 136 68 137
REMARK H PARENT 29 2 29 3 28 5 28 6 27 8 27 9 26 13 9 18 10 21 22 22 4 29 1 31
REMARK H PARENT 1 32 1 33 13 38 21 40 14 42 16 47 30 49 30 50 31 52 31 53
REMARK H PARENT 32 55 32 56 33 59 37 65 98 67 38 69 97 70 96 80 90 82 92 84
REMARK H PARENT 95 86 89 87 57 96 60 98 93 101 58 102 94 104
REMARK Flexibility Score: inf
ROOT
ATOM      1  C   UNL A   1      32.818  30.052  25.568  1.00  0.00    -0.052 C 
ATOM      2  H   UNL A   1      33.498  30.877  25.605  1.00  0.00     0.027 H 
ATOM      3  H   UNL A   1      33.040  29.292  26.288  1.00  0.00     0.027 H 
ENDROOT
BRANCH   1   4
ATOM      4  C   UNL A   1      32.941  29.393  24.193  1.00  0.00    -0.036 C 
ATOM      5  H   UNL A   1      31.963  29.324  23.767  1.00  0.00     0.028 H 
ATOM      6  H   UNL A   1      33.605  30.006  23.620  1.00  0.00     0.028 H 
BRANCH   4   7
ATOM      7  C   UNL A   1      33.554  27.986  24.214  1.00  0.00     0.018 C 
ATOM      8  H   UNL A   1      33.186  27.424  23.381  1.00  0.00     0.049 H 
ATOM      9  H   UNL A   1      34.621  28.061  24.150  1.00  0.00     0.049 H 
BRANCH   7  10
ATOM     10  N   UNL A   1      33.189  27.314  25.453  1.00  0.00    -0.352 N 
ATOM     11  C   UNL A   1      33.080  25.995  25.789  1.00  0.00     0.252 C 
ATOM     12  O   UNL A   1      32.692  25.678  26.911  1.00  0.00    -0.269 OA
ATOM     13  H   UNL A   1      32.980  27.931  26.192  1.00  0.00     0.163 HD
BRANCH  11  14
ATOM     14  C   UNL A   1      33.524  24.910  24.893  1.00  0.00     0.060 A 
ATOM     15  C   UNL A   1      32.727  24.219  23.982  1.00  0.00     0.100 A 
ATOM     16  C   UNL A   1      33.272  23.158  23.239  1.00  0.00    -0.040 A 
ATOM     17  C   UNL A   1      34.570  22.709  23.495  1.00  0.00    -0.053 A 
ATOM     18  H   UNL A   1      32.710  22.706  22.501  1.00  0.00     0.064 H 
ATOM     19  C   UNL A   1      34.834  24.448  25.139  1.00  0.00    -0.040 A 
ATOM     20  C   UNL A   1      35.352  23.324  24.478  1.00  0.00    -0.017 A 
ATOM     21  H   UNL A   1      34.955  21.919  22.954  1.00  0.00     0.063 H 
ATOM     22  H   UNL A   1      35.424  24.947  25.822  1.00  0.00     0.064 H 
BRANCH  15  23
ATOM     23  S   UNL A   1      30.988  24.502  23.836  1.00  0.00     0.264 S 
ATOM     24  O   UNL A   1      30.465  23.417  23.036  1.00  0.00    -0.201 OA
ATOM     25  O   UNL A   1      30.729  25.882  23.510  1.00  0.00    -0.201 OA
BRANCH  23  26
ATOM     26  N   UNL A   1      30.420  24.253  25.372  1.00  0.00    -0.249 N 
ATOM     27  C   UNL A   1      30.628  23.161  26.224  1.00  0.00     0.230 C 
ATOM     28  O   UNL A   1      30.249  23.253  27.384  1.00  0.00    -0.274 OA
ATOM     29  H   UNL A   1      29.857  24.974  25.737  1.00  0.00     0.183 HD
BRANCH  27  30
ATOM     30  C   UNL A   1      31.252  21.907  25.685  1.00  0.00     0.016 C 
ATOM     31  H   UNL A   1      32.289  21.883  25.949  1.00  0.00     0.033 H 
ATOM     32  H   UNL A   1      31.154  21.888  24.620  1.00  0.00     0.033 H 
ATOM     33  H   UNL A   1      30.758  21.055  26.104  1.00  0.00     0.033 H 
ENDBRANCH  27  30
ENDBRANCH  23  26
ENDBRANCH  15  23
BRANCH  20  34
ATOM     34  C   UNL A   1      36.635  22.725  24.916  1.00  0.00    -0.011 A 
ATOM     35  C   UNL A   1      37.608  23.481  25.689  1.00  0.00    -0.038 A 
ATOM     36  C   UNL A   1      36.892  21.430  24.655  1.00  0.00     0.012 A 
ATOM     37  C   UNL A   1      38.722  22.901  26.151  1.00  0.00     0.013 A 
ATOM     38  H   UNL A   1      37.438  24.480  25.882  1.00  0.00     0.064 H 
ATOM     39  C   UNL A   1      38.128  20.769  25.166  1.00  0.00     0.255 A 
ATOM     40  H   UNL A   1      36.222  20.886  24.091  1.00  0.00     0.069 H 
ATOM     41  N   UNL A   1      38.984  21.569  25.903  1.00  0.00    -0.258 N 
ATOM     42  H   UNL A   1      39.395  23.458  26.701  1.00  0.00     0.082 H 
ATOM     43  O   UNL A   1      38.295  19.578  24.919  1.00  0.00    -0.269 OA
BRANCH  41  44
ATOM     44  C   UNL A   1      40.165  20.944  26.446  1.00  0.00     0.321 C 
ATOM     45  F   UNL A   1      41.260  21.266  25.715  1.00  0.00    -0.185 F 
ATOM     46  F   UNL A   1      40.383  21.334  27.725  1.00  0.00    -0.185 F 
ATOM     47  H   UNL A   1      39.999  19.888  26.414  1.00  0.00     0.131 H 
ENDBRANCH  41  44
ENDBRANCH  20  34
ENDBRANCH  11  14
ENDBRANCH   7  10
ENDBRANCH   4   7
ENDBRANCH   1   4
BRANCH   1  48
ATOM     48  C   UNL A   1      31.419  30.573  25.906  1.00  0.00    -0.052 C 
ATOM     49  H   UNL A   1      30.974  29.887  26.596  1.00  0.00     0.027 H 
ATOM     50  H   UNL A   1      30.911  30.652  24.968  1.00  0.00     0.027 H 
BRANCH  48  51
ATOM     51  C   UNL A   1      31.345  31.976  26.530  1.00  0.00    -0.036 C 
ATOM     52  H   UNL A   1      30.543  31.975  27.238  1.00  0.00     0.028 H 
ATOM     53  H   UNL A   1      31.211  32.643  25.704  1.00  0.00     0.028 H 
BRANCH  51  54
ATOM     54  C   UNL A   1      32.598  32.478  27.252  1.00  0.00     0.018 C 
ATOM     55  H   UNL A   1      33.436  32.364  26.597  1.00  0.00     0.049 H 
ATOM     56  H   UNL A   1      32.703  31.898  28.146  1.00  0.00     0.049 H 
BRANCH  54  57
ATOM     57  N   UNL A   1      32.511  33.870  27.651  1.00  0.00    -0.352 N 
ATOM     58  C   UNL A   1      33.289  34.573  28.537  1.00  0.00     0.251 C 
ATOM     59  H   UNL A   1      31.790  34.386  27.223  1.00  0.00     0.163 HD
ATOM     60  O   UNL A   1      33.013  35.739  28.804  1.00  0.00    -0.269 OA
BRANCH  58  61
ATOM     61  C   UNL A   1      34.441  33.931  29.211  1.00  0.00     0.039 A 
ATOM     62  C   UNL A   1      35.727  34.388  28.896  1.00  0.00    -0.049 A 
ATOM     63  C   UNL A   1      34.280  32.862  30.100  1.00  0.00    -0.049 A 
ATOM     64  C   UNL A   1      36.844  33.821  29.513  1.00  0.00    -0.053 A 
ATOM     65  H   UNL A   1      35.848  35.146  28.206  1.00  0.00     0.063 H 
ATOM     66  C   UNL A   1      35.399  32.303  30.727  1.00  0.00    -0.053 A 
ATOM     67  H   UNL A   1      33.338  32.488  30.293  1.00  0.00     0.063 H 
ATOM     68  C   UNL A   1      36.685  32.786  30.446  1.00  0.00    -0.014 A 
ATOM     69  H   UNL A   1      37.789  34.164  29.281  1.00  0.00     0.063 H 
ATOM     70  H   UNL A   1      35.276  31.531  31.400  1.00  0.00     0.063 H 
BRANCH  68  71
ATOM     71  C   UNL A   1      37.859  32.235  31.163  1.00  0.00     0.031 A 
ATOM     72  C   UNL A   1      38.725  31.186  30.532  1.00  0.00     0.074 A 
ATOM     73  C   UNL A   1      38.136  32.673  32.405  1.00  0.00     0.049 A 
ATOM     74  N   UNL A   1      39.733  30.531  31.050  1.00  0.00    -0.248 NA
ATOM     75  C   UNL A   1      38.414  30.823  29.142  1.00  0.00    -0.034 C 
ATOM     76  C   UNL A   1      37.375  33.691  33.130  1.00  0.00    -0.036 A 
ATOM     77  N   UNL A   1      39.133  32.314  33.276  1.00  0.00    -0.354 N 
ATOM     78  C   UNL A   1      40.163  29.658  30.061  1.00  0.00     0.074 A 
ATOM     79  C   UNL A   1      39.318  29.880  28.905  1.00  0.00    -0.034 C 
ATOM     80  H   UNL A   1      37.687  31.201  28.517  1.00  0.00     0.065 H 
ATOM     81  C   UNL A   1      37.936  33.878  34.337  1.00  0.00    -0.036 A 
ATOM     82  H   UNL A   1      36.543  34.186  32.772  1.00  0.00     0.065 H 
ATOM     83  C   UNL A   1      39.082  32.983  34.471  1.00  0.00     0.049 A 
ATOM     84  H   UNL A   1      39.818  31.640  33.063  1.00  0.00     0.167 HD
ATOM     85  C   UNL A   1      41.162  28.747  30.119  1.00  0.00     0.037 A 
ATOM     86  H   UNL A   1      39.408  29.371  28.011  1.00  0.00     0.065 H 
ATOM     87  H   UNL A   1      37.609  34.545  35.052  1.00  0.00     0.065 H 
ATOM     88  C   UNL A   1      39.868  32.881  35.559  1.00  0.00     0.037 A 
ATOM     89  C   UNL A   1      42.017  28.527  31.254  1.00  0.00     0.049 A 
ATOM     90  C   UNL A   1      41.006  31.906  35.573  1.00  0.00     0.074 A 
ATOM     91  C   UNL A   1      43.027  27.593  31.411  1.00  0.00    -0.036 A 
ATOM     92  N   UNL A   1      41.969  29.265  32.426  1.00  0.00    -0.354 N 
ATOM     93  N   UNL A   1      41.371  31.052  34.650  1.00  0.00    -0.248 NA
ATOM     94  C   UNL A   1      41.839  31.876  36.786  1.00  0.00    -0.034 C 
ATOM     95  C   UNL A   1      43.597  27.772  32.678  1.00  0.00    -0.036 A 
ATOM     96  H   UNL A   1      43.310  26.887  30.715  1.00  0.00     0.065 H 
ATOM     97  C   UNL A   1      42.943  28.817  33.306  1.00  0.00     0.049 A 
ATOM     98  H   UNL A   1      41.338  29.998  32.608  1.00  0.00     0.167 HD
ATOM     99  C   UNL A   1      42.465  30.377  35.169  1.00  0.00     0.074 A 
ATOM    100  C   UNL A   1      42.717  30.929  36.484  1.00  0.00    -0.034 C 
ATOM    101  H   UNL A   1      41.760  32.443  37.644  1.00  0.00     0.065 H 
ATOM    102  H   UNL A   1      44.373  27.218  33.075  1.00  0.00     0.065 H 
ATOM    103  C   UNL A   1      43.185  29.379  34.606  1.00  0.00     0.037 A 
ATOM    104  H   UNL A   1      43.482  30.625  37.106  1.00  0.00     0.065 H 
BRANCH  85 105
ATOM    105  C   UNL A   1      41.376  27.895  28.910  1.00  0.00     0.064 A 
ATOM    106  C   UNL A   1      42.321  28.243  27.937  1.00  0.00     0.173 A 
ATOM    107  C   UNL A   1      40.656  26.703  28.744  1.00  0.00     0.173 A 
ATOM    108  F   UNL A   1      43.024  29.379  28.055  1.00  0.00    -0.203 F 
ATOM    109  C   UNL A   1      42.538  27.424  26.833  1.00  0.00     0.198 A 
ATOM    110  C   UNL A   1      40.878  25.885  27.642  1.00  0.00     0.198 A 
ATOM    111  F   UNL A   1      39.738  26.338  29.652  1.00  0.00    -0.203 F 
ATOM    112  F   UNL A   1      43.441  27.775  25.908  1.00  0.00    -0.200 F 
ATOM    113  C   UNL A   1      41.820  26.245  26.688  1.00  0.00     0.200 A 
ATOM    114  F   UNL A   1      40.182  24.749  27.499  1.00  0.00    -0.200 F 
ATOM    115  F   UNL A   1      42.030  25.458  25.624  1.00  0.00    -0.200 F 
ENDBRANCH  85 105
BRANCH  88 116
ATOM    116  C   UNL A   1      39.591  33.732  36.735  1.00  0.00     0.064 A 
ATOM    117  C   UNL A   1      40.110  35.030  36.820  1.00  0.00     0.173 A 
ATOM    118  C   UNL A   1      38.785  33.270  37.784  1.00  0.00     0.173 A 
ATOM    119  F   UNL A   1      40.897  35.501  35.842  1.00  0.00    -0.203 F 
ATOM    120  C   UNL A   1      39.832  35.839  37.918  1.00  0.00     0.198 A 
ATOM    121  C   UNL A   1      38.504  34.083  38.879  1.00  0.00     0.198 A 
ATOM    122  F   UNL A   1      38.274  32.031  37.740  1.00  0.00    -0.203 F 
ATOM    123  F   UNL A   1      40.347  37.075  37.985  1.00  0.00    -0.200 F 
ATOM    124  C   UNL A   1      39.027  35.366  38.945  1.00  0.00     0.200 A 
ATOM    125  F   UNL A   1      37.728  33.623  39.870  1.00  0.00    -0.200 F 
ATOM    126  F   UNL A   1      38.759  36.146  40.001  1.00  0.00    -0.200 F 
ENDBRANCH  88 116
BRANCH 103 127
ATOM    127  C   UNL A   1      44.309  28.817  35.414  1.00  0.00     0.064 A 
ATOM    128  C   UNL A   1      44.094  27.750  36.297  1.00  0.00     0.173 A 
ATOM    129  C   UNL A   1      45.608  29.327  35.290  1.00  0.00     0.173 A 
ATOM    130  F   UNL A   1      42.863  27.243  36.455  1.00  0.00    -0.203 F 
ATOM    131  C   UNL A   1      45.146  27.213  37.034  1.00  0.00     0.198 A 
ATOM    132  C   UNL A   1      46.658  28.785  36.026  1.00  0.00     0.198 A 
ATOM    133  F   UNL A   1      45.853  30.355  34.464  1.00  0.00    -0.203 F 
ATOM    134  F   UNL A   1      44.919  26.201  37.883  1.00  0.00    -0.200 F 
ATOM    135  C   UNL A   1      46.426  27.730  36.897  1.00  0.00     0.200 A 
ATOM    136  F   UNL A   1      47.893  29.290  35.901  1.00  0.00    -0.200 F 
ATOM    137  F   UNL A   1      47.437  27.216  37.610  1.00  0.00    -0.200 F 
ENDBRANCH 103 127
ENDBRANCH  68  71
ENDBRANCH  58  61
ENDBRANCH  54  57
ENDBRANCH  51  54
ENDBRANCH  48  51
ENDBRANCH   1  48
TORSDOF 18
ENDMDL
MODEL 10
REMARK VINA RESULT:     -11.8      1.909      2.706
REMARK SMILES CC(=O)NS(=O)(=O)c1ccc(-c2ccn(C(F)F)c(=O)c2)cc1C(=O)NCCCCCCNC(=O)c1ccc(-c2c3nc(c(-c4c(F)c(F)c(F)c(F)c4F)c4ccc([nH]4)c(-c4c(F)c(F)c(F)c(F)c4F)c4nc(c(-c5c(F)c(F)c(F)c(F)c5F)c5ccc2[nH]5)C=C4)C=C3)cc1
REMARK SMILES IDX 29 1 28 4 27 7 26 10 24 11 25 12 23 14 8 15 9 16 10 17 22 19
REMARK SMILES IDX 11 20 5 23 6 24 7 25 4 26 2 27 3 28 1 30 12 34 13 35 21 36
REMARK SMILES IDX 14 37 19 39 15 41 20 43 16 44 17 45 18 46 30 48 31 51 32 54
REMARK SMILES IDX 33 57 34 58 35 60 36 61 37 62 98 63 38 64 97 66 39 68 40 71
REMARK SMILES IDX 41 72 91 73 42 74 96 75 90 76 92 77 43 78 95 79 89 81 88 83
REMARK SMILES IDX 44 85 76 88 56 89 75 90 57 91 60 92 74 93 93 94 58 95 59 97
REMARK SMILES IDX 73 99 94 100 61 103 45 105 46 106 54 107 47 108 48 109
REMARK SMILES IDX 52 110 55 111 49 112 50 113 53 114 51 115 77 116 78 117
REMARK SMILES IDX 86 118 79 119 80 120 84 121 87 122 81 123 82 124 85 125
REMARK SMILES IDX 83 126 62 127 63 128 71 129 64 130 65 131 69 132 72 133
REMARK SMILES IDX 66 134 67 135 70 136 68 137
REMARK H PARENT 29 2 29 3 28 5 28 6 27 8 27 9 26 13 9 18 10 21 22 22 4 29 1 31
REMARK H PARENT 1 32 1 33 13 38 21 40 14 42 16 47 30 49 30 50 31 52 31 53
REMARK H PARENT 32 55 32 56 33 59 37 65 98 67 38 69 97 70 96 80 90 82 92 84
REMARK H PARENT 95 86 89 87 57 96 60 98 93 101 58 102 94 104
REMARK Flexibility Score: inf
ROOT
ATOM      1  C   UNL A   1      31.071  26.742  26.687  1.00  0.00    -0.052 C 
ATOM      2  H   UNL A   1      30.556  26.692  27.623  1.00  0.00     0.027 H 
ATOM      3  H   UNL A   1      30.469  27.140  25.897  1.00  0.00     0.027 H 
ENDROOT
BRANCH   1   4
ATOM      4  C   UNL A   1      31.443  25.318  26.271  1.00  0.00    -0.036 C 
ATOM      5  H   UNL A   1      32.047  25.373  25.390  1.00  0.00     0.028 H 
ATOM      6  H   UNL A   1      31.955  24.881  27.103  1.00  0.00     0.028 H 
BRANCH   4   7
ATOM      7  C   UNL A   1      30.244  24.408  25.972  1.00  0.00     0.018 C 
ATOM      8  H   UNL A   1      29.896  23.965  26.882  1.00  0.00     0.049 H 
ATOM      9  H   UNL A   1      29.457  24.987  25.534  1.00  0.00     0.049 H 
BRANCH   7  10
ATOM     10  N   UNL A   1      30.648  23.359  25.045  1.00  0.00    -0.352 N 
ATOM     11  C   UNL A   1      31.257  23.393  23.824  1.00  0.00     0.252 C 
ATOM     12  O   UNL A   1      31.446  22.349  23.204  1.00  0.00    -0.269 OA
ATOM     13  H   UNL A   1      30.442  22.450  25.362  1.00  0.00     0.163 HD
BRANCH  11  14
ATOM     14  C   UNL A   1      31.816  24.633  23.251  1.00  0.00     0.060 A 
ATOM     15  C   UNL A   1      33.170  24.920  23.080  1.00  0.00     0.100 A 
ATOM     16  C   UNL A   1      33.561  26.175  22.583  1.00  0.00    -0.040 A 
ATOM     17  C   UNL A   1      32.613  27.180  22.374  1.00  0.00    -0.053 A 
ATOM     18  H   UNL A   1      34.554  26.356  22.370  1.00  0.00     0.064 H 
ATOM     19  C   UNL A   1      30.871  25.656  23.035  1.00  0.00    -0.040 A 
ATOM     20  C   UNL A   1      31.260  26.944  22.639  1.00  0.00    -0.017 A 
ATOM     21  H   UNL A   1      32.914  28.103  22.023  1.00  0.00     0.063 H 
ATOM     22  H   UNL A   1      29.869  25.453  23.174  1.00  0.00     0.064 H 
BRANCH  15  23
ATOM     23  S   UNL A   1      34.449  23.831  23.629  1.00  0.00     0.264 S 
ATOM     24  O   UNL A   1      35.397  24.649  24.353  1.00  0.00    -0.201 OA
ATOM     25  O   UNL A   1      34.859  22.956  22.559  1.00  0.00    -0.201 OA
BRANCH  23  26
ATOM     26  N   UNL A   1      33.699  22.886  24.765  1.00  0.00    -0.249 N 
ATOM     27  C   UNL A   1      34.262  21.962  25.654  1.00  0.00     0.230 C 
ATOM     28  O   UNL A   1      33.544  21.489  26.526  1.00  0.00    -0.274 OA
ATOM     29  H   UNL A   1      32.722  22.990  24.823  1.00  0.00     0.183 HD
BRANCH  27  30
ATOM     30  C   UNL A   1      35.692  21.542  25.484  1.00  0.00     0.016 C 
ATOM     31  H   UNL A   1      35.759  20.809  24.707  1.00  0.00     0.033 H 
ATOM     32  H   UNL A   1      36.053  21.123  26.400  1.00  0.00     0.033 H 
ATOM     33  H   UNL A   1      36.285  22.393  25.223  1.00  0.00     0.033 H 
ENDBRANCH  27  30
ENDBRANCH  23  26
ENDBRANCH  15  23
BRANCH  20  34
ATOM     34  C   UNL A   1      30.279  28.056  22.640  1.00  0.00    -0.011 A 
ATOM     35  C   UNL A   1      30.596  29.355  22.068  1.00  0.00    -0.038 A 
ATOM     36  C   UNL A   1      29.039  27.853  23.120  1.00  0.00     0.012 A 
ATOM     37  C   UNL A   1      29.672  30.320  21.997  1.00  0.00     0.013 A 
ATOM     38  H   UNL A   1      31.548  29.536  21.713  1.00  0.00     0.064 H 
ATOM     39  C   UNL A   1      27.997  28.919  23.045  1.00  0.00     0.255 A 
ATOM     40  H   UNL A   1      28.804  26.944  23.547  1.00  0.00     0.069 H 
ATOM     41  N   UNL A   1      28.392  30.115  22.470  1.00  0.00    -0.258 N 
ATOM     42  H   UNL A   1      29.920  31.233  21.582  1.00  0.00     0.082 H 
ATOM     43  O   UNL A   1      26.875  28.666  23.474  1.00  0.00    -0.269 OA
BRANCH  41  44
ATOM     44  C   UNL A   1      27.393  31.147  22.346  1.00  0.00     0.321 C 
ATOM     45  F   UNL A   1      27.316  31.883  23.482  1.00  0.00    -0.185 F 
ATOM     46  F   UNL A   1      27.678  31.985  21.320  1.00  0.00    -0.185 F 
ATOM     47  H   UNL A   1      26.461  30.655  22.162  1.00  0.00     0.131 H 
ENDBRANCH  41  44
ENDBRANCH  20  34
ENDBRANCH  11  14
ENDBRANCH   7  10
ENDBRANCH   4   7
ENDBRANCH   1   4
BRANCH   1  48
ATOM     48  C   UNL A   1      32.259  27.694  26.847  1.00  0.00    -0.052 C 
ATOM     49  H   UNL A   1      32.705  27.500  27.800  1.00  0.00     0.027 H 
ATOM     50  H   UNL A   1      31.852  28.677  26.739  1.00  0.00     0.027 H 
BRANCH  48  51
ATOM     51  C   UNL A   1      33.365  27.591  25.784  1.00  0.00    -0.036 C 
ATOM     52  H   UNL A   1      32.956  27.078  24.939  1.00  0.00     0.028 H 
ATOM     53  H   UNL A   1      34.173  27.083  26.269  1.00  0.00     0.028 H 
BRANCH  51  54
ATOM     54  C   UNL A   1      33.964  28.908  25.282  1.00  0.00     0.018 C 
ATOM     55  H   UNL A   1      33.940  28.905  24.213  1.00  0.00     0.049 H 
ATOM     56  H   UNL A   1      34.962  28.968  25.663  1.00  0.00     0.049 H 
BRANCH  54  57
ATOM     57  N   UNL A   1      33.251  30.079  25.756  1.00  0.00    -0.352 N 
ATOM     58  C   UNL A   1      33.543  30.908  26.811  1.00  0.00     0.251 C 
ATOM     59  H   UNL A   1      32.442  30.314  25.247  1.00  0.00     0.163 HD
ATOM     60  O   UNL A   1      32.772  31.817  27.107  1.00  0.00    -0.269 OA
BRANCH  58  61
ATOM     61  C   UNL A   1      34.761  30.699  27.628  1.00  0.00     0.039 A 
ATOM     62  C   UNL A   1      34.810  29.574  28.460  1.00  0.00    -0.049 A 
ATOM     63  C   UNL A   1      35.821  31.612  27.626  1.00  0.00    -0.049 A 
ATOM     64  C   UNL A   1      35.941  29.328  29.243  1.00  0.00    -0.053 A 
ATOM     65  H   UNL A   1      34.009  28.924  28.495  1.00  0.00     0.063 H 
ATOM     66  C   UNL A   1      36.958  31.359  28.401  1.00  0.00    -0.053 A 
ATOM     67  H   UNL A   1      35.765  32.469  27.056  1.00  0.00     0.063 H 
ATOM     68  C   UNL A   1      37.030  30.211  29.204  1.00  0.00    -0.014 A 
ATOM     69  H   UNL A   1      35.975  28.496  29.851  1.00  0.00     0.063 H 
ATOM     70  H   UNL A   1      37.749  32.021  28.381  1.00  0.00     0.063 H 
BRANCH  68  71
ATOM     71  C   UNL A   1      38.264  29.915  29.970  1.00  0.00     0.031 A 
ATOM     72  C   UNL A   1      39.331  29.030  29.398  1.00  0.00     0.074 A 
ATOM     73  C   UNL A   1      38.414  30.436  31.201  1.00  0.00     0.049 A 
ATOM     74  N   UNL A   1      40.428  28.594  29.964  1.00  0.00    -0.248 NA
ATOM     75  C   UNL A   1      39.138  28.572  28.015  1.00  0.00    -0.034 C 
ATOM     76  C   UNL A   1      37.453  31.313  31.870  1.00  0.00    -0.036 A 
ATOM     77  N   UNL A   1      39.433  30.298  32.109  1.00  0.00    -0.354 N 
ATOM     78  C   UNL A   1      41.045  27.789  29.018  1.00  0.00     0.074 A 
ATOM     79  C   UNL A   1      40.210  27.811  27.834  1.00  0.00    -0.034 C 
ATOM     80  H   UNL A   1      38.372  28.786  27.359  1.00  0.00     0.065 H 
ATOM     81  C   UNL A   1      37.930  31.639  33.083  1.00  0.00    -0.036 A 
ATOM     82  H   UNL A   1      36.554  31.629  31.474  1.00  0.00     0.065 H 
ATOM     83  C   UNL A   1      39.221  30.982  33.278  1.00  0.00     0.049 A 
ATOM     84  H   UNL A   1      40.240  29.760  31.937  1.00  0.00     0.167 HD
ATOM     85  C   UNL A   1      42.196  27.086  29.134  1.00  0.00     0.037 A 
ATOM     86  H   UNL A   1      40.422  27.301  26.962  1.00  0.00     0.065 H 
ATOM     87  H   UNL A   1      37.461  32.254  33.765  1.00  0.00     0.065 H 
ATOM     88  C   UNL A   1      39.977  31.065  34.387  1.00  0.00     0.037 A 
ATOM     89  C   UNL A   1      43.041  27.067  30.297  1.00  0.00     0.049 A 
ATOM     90  C   UNL A   1      41.277  30.324  34.465  1.00  0.00     0.074 A 
ATOM     91  C   UNL A   1      44.204  26.346  30.512  1.00  0.00    -0.036 A 
ATOM     92  N   UNL A   1      42.819  27.817  31.440  1.00  0.00    -0.354 N 
ATOM     93  N   UNL A   1      41.825  29.527  33.582  1.00  0.00    -0.248 NA
ATOM     94  C   UNL A   1      42.063  30.490  35.698  1.00  0.00    -0.034 C 
ATOM     95  C   UNL A   1      44.691  26.669  31.786  1.00  0.00    -0.036 A 
ATOM     96  H   UNL A   1      44.637  25.686  29.849  1.00  0.00     0.065 H 
ATOM     97  C   UNL A   1      43.832  27.590  32.359  1.00  0.00     0.049 A 
ATOM     98  H   UNL A   1      42.055  28.423  31.579  1.00  0.00     0.167 HD
ATOM     99  C   UNL A   1      43.010  29.087  34.152  1.00  0.00     0.074 A 
ATOM    100  C   UNL A   1      43.113  29.717  35.452  1.00  0.00    -0.034 C 
ATOM    101  H   UNL A   1      41.852  31.058  36.533  1.00  0.00     0.065 H 
ATOM    102  H   UNL A   1      45.544  26.285  32.221  1.00  0.00     0.065 H 
ATOM    103  C   UNL A   1      43.923  28.227  33.644  1.00  0.00     0.037 A 
ATOM    104  H   UNL A   1      43.902  29.583  36.103  1.00  0.00     0.065 H 
BRANCH  85 105
ATOM    105  C   UNL A   1      42.604  26.253  27.962  1.00  0.00     0.064 A 
ATOM    106  C   UNL A   1      43.475  26.754  26.987  1.00  0.00     0.173 A 
ATOM    107  C   UNL A   1      42.149  24.933  27.835  1.00  0.00     0.173 A 
ATOM    108  F   UNL A   1      43.926  28.014  27.067  1.00  0.00    -0.203 F 
ATOM    109  C   UNL A   1      43.878  25.957  25.918  1.00  0.00     0.198 A 
ATOM    110  C   UNL A   1      42.557  24.139  26.769  1.00  0.00     0.198 A 
ATOM    111  F   UNL A   1      41.309  24.418  28.746  1.00  0.00    -0.203 F 
ATOM    112  F   UNL A   1      44.706  26.454  24.989  1.00  0.00    -0.200 F 
ATOM    113  C   UNL A   1      43.422  24.651  25.812  1.00  0.00     0.200 A 
ATOM    114  F   UNL A   1      42.113  22.879  26.664  1.00  0.00    -0.200 F 
ATOM    115  F   UNL A   1      43.810  23.887  24.782  1.00  0.00    -0.200 F 
ENDBRANCH  85 105
BRANCH  88 116
ATOM    116  C   UNL A   1      39.508  31.884  35.525  1.00  0.00     0.064 A 
ATOM    117  C   UNL A   1      39.929  33.210  35.676  1.00  0.00     0.173 A 
ATOM    118  C   UNL A   1      38.614  31.360  36.468  1.00  0.00     0.173 A 
ATOM    119  F   UNL A   1      40.796  33.741  34.801  1.00  0.00    -0.203 F 
ATOM    120  C   UNL A   1      39.471  33.988  36.735  1.00  0.00     0.198 A 
ATOM    121  C   UNL A   1      38.153  32.141  37.524  1.00  0.00     0.198 A 
ATOM    122  F   UNL A   1      38.192  30.092  36.359  1.00  0.00    -0.203 F 
ATOM    123  F   UNL A   1      39.895  35.253  36.868  1.00  0.00    -0.200 F 
ATOM    124  C   UNL A   1      38.582  33.454  37.657  1.00  0.00     0.200 A 
ATOM    125  F   UNL A   1      37.295  31.623  38.414  1.00  0.00    -0.200 F 
ATOM    126  F   UNL A   1      38.141  34.204  38.677  1.00  0.00    -0.200 F 
ENDBRANCH  88 116
BRANCH 103 127
ATOM    127  C   UNL A   1      45.107  27.914  34.499  1.00  0.00     0.064 A 
ATOM    128  C   UNL A   1      46.269  28.695  34.428  1.00  0.00     0.173 A 
ATOM    129  C   UNL A   1      45.075  26.850  35.410  1.00  0.00     0.173 A 
ATOM    130  F   UNL A   1      46.345  29.714  33.560  1.00  0.00    -0.203 F 
ATOM    131  C   UNL A   1      47.365  28.416  35.240  1.00  0.00     0.198 A 
ATOM    132  C   UNL A   1      46.171  26.576  36.223  1.00  0.00     0.198 A 
ATOM    133  F   UNL A   1      43.986  26.073  35.501  1.00  0.00    -0.203 F 
ATOM    134  F   UNL A   1      48.473  29.165  35.149  1.00  0.00    -0.200 F 
ATOM    135  C   UNL A   1      47.314  27.358  36.137  1.00  0.00     0.200 A 
ATOM    136  F   UNL A   1      46.127  25.549  37.082  1.00  0.00    -0.200 F 
ATOM    137  F   UNL A   1      48.371  27.088  36.915  1.00  0.00    -0.200 F 
ENDBRANCH 103 127
ENDBRANCH  68  71
ENDBRANCH  58  61
ENDBRANCH  54  57
ENDBRANCH  51  54
ENDBRANCH  48  51
ENDBRANCH   1  48
TORSDOF 18
ENDMDL
