MODEL 1
REMARK VINA RESULT:     -10.5      0.000      0.000
REMARK SMILES CC(C)C[C@H](NC(=O)CNC(=O)[C@@H]([NH3+])C(C)C)C(=O)NCCCCCCNC(=O)c1ccc(-c2c3nc(c(-c4c(F)c(F)c(F)c(F)c4F)c4ccc([nH]4)c(-c4c(F)c(F)c(F)c(F)c4F)c4nc(c(-c5c(F)c(F)c(F)c(F)c5F)c5ccc2[nH]5)C=C4)C=C3)cc1
REMARK SMILES IDX 21 1 20 4 18 5 19 6 5 8 4 10 2 13 1 15 3 19 6 23 7 24 8 26
REMARK SMILES IDX 9 27 10 30 11 31 12 33 13 34 14 36 15 40 16 42 17 46 22 50
REMARK SMILES IDX 23 53 24 56 25 59 26 62 27 65 28 66 29 68 30 69 31 70 92 71
REMARK SMILES IDX 32 72 91 74 33 76 34 79 35 80 85 81 36 82 90 83 84 84 86 85
REMARK SMILES IDX 37 86 89 87 83 89 82 91 38 93 70 96 50 97 69 98 51 99 54 100
REMARK SMILES IDX 68 101 87 102 52 103 53 105 67 107 88 108 55 111 39 113
REMARK SMILES IDX 40 114 48 115 41 116 42 117 46 118 49 119 43 120 44 121
REMARK SMILES IDX 47 122 45 123 71 124 72 125 80 126 73 127 74 128 78 129
REMARK SMILES IDX 81 130 75 131 76 132 79 133 77 134 56 135 57 136 65 137
REMARK SMILES IDX 58 138 59 139 63 140 66 141 60 142 61 143 64 144 62 145
REMARK H PARENT 21 2 21 3 20 7 5 9 4 11 4 12 2 14 1 16 1 17 1 18 3 20 3 21
REMARK H PARENT 3 22 6 25 9 28 9 29 10 32 13 35 14 37 14 38 14 39 15 41 16 43
REMARK H PARENT 16 44 16 45 17 47 17 48 17 49 22 51 22 52 23 54 23 55 24 57
REMARK H PARENT 24 58 25 60 25 61 26 63 26 64 27 67 31 73 92 75 32 77 91 78
REMARK H PARENT 90 88 84 90 86 92 89 94 83 95 51 104 54 106 87 109 52 110
REMARK H PARENT 88 112
REMARK Flexibility Score: inf
ROOT
ATOM      1  C   UNL A   1      35.347  23.572  23.239  1.00  0.00     0.017 C 
ATOM      2  H   UNL A   1      35.466  24.405  22.578  1.00  0.00     0.049 H 
ATOM      3  H   UNL A   1      34.543  22.947  22.914  1.00  0.00     0.049 H 
ENDROOT
BRANCH   1   4
ATOM      4  N   UNL A   1      35.045  24.060  24.566  1.00  0.00    -0.354 N 
ATOM      5  C   UNL A   1      33.860  24.439  25.114  1.00  0.00     0.242 C 
ATOM      6  O   UNL A   1      33.843  24.686  26.324  1.00  0.00    -0.273 OA
ATOM      7  H   UNL A   1      35.821  24.128  25.167  1.00  0.00     0.163 HD
BRANCH   5   8
ATOM      8  C   UNL A   1      32.558  24.434  24.294  1.00  0.00     0.108 C 
ATOM      9  H   UNL A   1      32.752  23.842  23.424  1.00  0.00     0.063 H 
BRANCH   8  10
ATOM     10  C   UNL A   1      32.182  25.830  23.777  1.00  0.00    -0.021 C 
ATOM     11  H   UNL A   1      32.001  25.760  22.725  1.00  0.00     0.030 H 
ATOM     12  H   UNL A   1      31.320  26.139  24.330  1.00  0.00     0.030 H 
BRANCH  10  13
ATOM     13  C   UNL A   1      33.265  26.913  24.009  1.00  0.00    -0.045 C 
ATOM     14  H   UNL A   1      34.134  26.403  24.369  1.00  0.00     0.030 H 
BRANCH  13  15
ATOM     15  C   UNL A   1      33.663  27.648  22.731  1.00  0.00    -0.063 C 
ATOM     16  H   UNL A   1      33.164  27.205  21.894  1.00  0.00     0.023 H 
ATOM     17  H   UNL A   1      34.721  27.578  22.592  1.00  0.00     0.023 H 
ATOM     18  H   UNL A   1      33.381  28.678  22.809  1.00  0.00     0.023 H 
ENDBRANCH  13  15
BRANCH  13  19
ATOM     19  C   UNL A   1      32.765  27.933  25.031  1.00  0.00    -0.063 C 
ATOM     20  H   UNL A   1      32.005  28.540  24.586  1.00  0.00     0.023 H 
ATOM     21  H   UNL A   1      33.579  28.554  25.344  1.00  0.00     0.023 H 
ATOM     22  H   UNL A   1      32.361  27.421  25.879  1.00  0.00     0.023 H 
ENDBRANCH  13  19
ENDBRANCH  10  13
ENDBRANCH   8  10
BRANCH   8  23
ATOM     23  N   UNL A   1      31.457  23.771  24.994  1.00  0.00    -0.343 N 
ATOM     24  C   UNL A   1      31.301  22.464  25.345  1.00  0.00     0.240 C 
ATOM     25  H   UNL A   1      30.713  24.361  25.253  1.00  0.00     0.164 HD
ATOM     26  O   UNL A   1      30.388  22.214  26.140  1.00  0.00    -0.273 OA
BRANCH  24  27
ATOM     27  C   UNL A   1      32.277  21.359  24.914  1.00  0.00     0.097 C 
ATOM     28  H   UNL A   1      33.272  21.722  25.061  1.00  0.00     0.059 H 
ATOM     29  H   UNL A   1      32.042  21.144  23.891  1.00  0.00     0.059 H 
BRANCH  27  30
ATOM     30  N   UNL A   1      32.150  20.100  25.625  1.00  0.00    -0.342 N 
ATOM     31  C   UNL A   1      32.732  18.891  25.390  1.00  0.00     0.278 C 
ATOM     32  H   UNL A   1      31.547  20.123  26.401  1.00  0.00     0.164 HD
ATOM     33  O   UNL A   1      32.491  17.997  26.208  1.00  0.00    -0.268 OA
BRANCH  31  34
ATOM     34  C   UNL A   1      33.703  18.626  24.207  1.00  0.00     0.166 C 
ATOM     35  H   UNL A   1      33.824  19.545  23.674  1.00  0.00     0.107 H 
BRANCH  34  36
ATOM     36  N   UNL A   1      35.054  18.242  24.664  1.00  0.00    -0.347 N 
ATOM     37  H   UNL A   1      35.620  19.080  24.795  1.00  0.00     0.345 HD
ATOM     38  H   UNL A   1      35.492  17.642  23.965  1.00  0.00     0.345 HD
ATOM     39  H   UNL A   1      34.985  17.738  25.548  1.00  0.00     0.345 HD
ENDBRANCH  34  36
BRANCH  34  40
ATOM     40  C   UNL A   1      33.099  17.595  23.228  1.00  0.00     0.015 C 
ATOM     41  H   UNL A   1      32.332  17.074  23.762  1.00  0.00     0.036 H 
BRANCH  40  42
ATOM     42  C   UNL A   1      32.508  18.303  22.001  1.00  0.00    -0.057 C 
ATOM     43  H   UNL A   1      32.828  19.324  21.990  1.00  0.00     0.024 H 
ATOM     44  H   UNL A   1      31.440  18.262  22.046  1.00  0.00     0.024 H 
ATOM     45  H   UNL A   1      32.846  17.814  21.111  1.00  0.00     0.024 H 
ENDBRANCH  40  42
BRANCH  40  46
ATOM     46  C   UNL A   1      34.144  16.578  22.751  1.00  0.00    -0.057 C 
ATOM     47  H   UNL A   1      34.993  16.606  23.402  1.00  0.00     0.024 H 
ATOM     48  H   UNL A   1      34.451  16.822  21.755  1.00  0.00     0.024 H 
ATOM     49  H   UNL A   1      33.719  15.596  22.763  1.00  0.00     0.024 H 
ENDBRANCH  40  46
ENDBRANCH  34  40
ENDBRANCH  31  34
ENDBRANCH  27  30
ENDBRANCH  24  27
ENDBRANCH   8  23
ENDBRANCH   5   8
ENDBRANCH   1   4
BRANCH   1  50
ATOM     50  C   UNL A   1      36.631  22.752  23.238  1.00  0.00    -0.036 C 
ATOM     51  H   UNL A   1      37.386  23.305  22.719  1.00  0.00     0.028 H 
ATOM     52  H   UNL A   1      36.406  21.821  22.761  1.00  0.00     0.028 H 
BRANCH  50  53
ATOM     53  C   UNL A   1      37.152  22.421  24.641  1.00  0.00    -0.052 C 
ATOM     54  H   UNL A   1      36.650  23.056  25.341  1.00  0.00     0.027 H 
ATOM     55  H   UNL A   1      38.210  22.577  24.613  1.00  0.00     0.027 H 
BRANCH  53  56
ATOM     56  C   UNL A   1      36.941  20.967  25.078  1.00  0.00    -0.052 C 
ATOM     57  H   UNL A   1      36.171  20.545  24.468  1.00  0.00     0.027 H 
ATOM     58  H   UNL A   1      36.688  21.001  26.118  1.00  0.00     0.027 H 
BRANCH  56  59
ATOM     59  C   UNL A   1      38.180  20.075  24.967  1.00  0.00    -0.036 C 
ATOM     60  H   UNL A   1      38.639  20.258  24.017  1.00  0.00     0.028 H 
ATOM     61  H   UNL A   1      37.841  19.066  25.078  1.00  0.00     0.028 H 
BRANCH  59  62
ATOM     62  C   UNL A   1      39.221  20.309  26.052  1.00  0.00     0.018 C 
ATOM     63  H   UNL A   1      38.729  20.357  27.000  1.00  0.00     0.049 H 
ATOM     64  H   UNL A   1      39.727  21.227  25.833  1.00  0.00     0.049 H 
BRANCH  62  65
ATOM     65  N   UNL A   1      40.213  19.248  26.091  1.00  0.00    -0.352 N 
ATOM     66  C   UNL A   1      41.577  19.344  26.157  1.00  0.00     0.251 C 
ATOM     67  H   UNL A   1      39.853  18.331  26.064  1.00  0.00     0.163 HD
ATOM     68  O   UNL A   1      42.282  18.355  25.971  1.00  0.00    -0.269 OA
BRANCH  66  69
ATOM     69  C   UNL A   1      42.199  20.654  26.431  1.00  0.00     0.039 A 
ATOM     70  C   UNL A   1      42.539  21.476  25.356  1.00  0.00    -0.049 A 
ATOM     71  C   UNL A   1      42.426  21.077  27.745  1.00  0.00    -0.049 A 
ATOM     72  C   UNL A   1      43.051  22.749  25.598  1.00  0.00    -0.053 A 
ATOM     73  H   UNL A   1      42.413  21.142  24.386  1.00  0.00     0.063 H 
ATOM     74  C   UNL A   1      42.860  22.376  27.986  1.00  0.00    -0.053 A 
ATOM     75  H   UNL A   1      42.270  20.428  28.532  1.00  0.00     0.063 H 
ATOM     76  C   UNL A   1      43.177  23.224  26.915  1.00  0.00    -0.014 A 
ATOM     77  H   UNL A   1      43.339  23.347  24.807  1.00  0.00     0.063 H 
ATOM     78  H   UNL A   1      42.949  22.717  28.956  1.00  0.00     0.063 H 
BRANCH  76  79
ATOM     79  C   UNL A   1      43.617  24.615  27.185  1.00  0.00     0.031 A 
ATOM     80  C   UNL A   1      42.641  25.638  27.688  1.00  0.00     0.074 A 
ATOM     81  C   UNL A   1      44.888  24.968  26.913  1.00  0.00     0.049 A 
ATOM     82  N   UNL A   1      42.830  26.910  27.934  1.00  0.00    -0.248 NA
ATOM     83  C   UNL A   1      41.264  25.178  27.919  1.00  0.00    -0.034 C 
ATOM     84  C   UNL A   1      45.911  24.075  26.365  1.00  0.00    -0.036 A 
ATOM     85  N   UNL A   1      45.531  26.172  27.044  1.00  0.00    -0.354 N 
ATOM     86  C   UNL A   1      41.598  27.400  28.345  1.00  0.00     0.074 A 
ATOM     87  C   UNL A   1      40.655  26.307  28.249  1.00  0.00    -0.034 C 
ATOM     88  H   UNL A   1      40.874  24.225  27.843  1.00  0.00     0.065 H 
ATOM     89  C   UNL A   1      47.058  24.757  26.227  1.00  0.00    -0.036 A 
ATOM     90  H   UNL A   1      45.772  23.081  26.125  1.00  0.00     0.065 H 
ATOM     91  C   UNL A   1      46.841  26.142  26.633  1.00  0.00     0.049 A 
ATOM     92  H   UNL A   1      45.096  26.981  27.400  1.00  0.00     0.167 HD
ATOM     93  C   UNL A   1      41.287  28.642  28.788  1.00  0.00     0.037 A 
ATOM     94  H   UNL A   1      39.641  26.393  28.416  1.00  0.00     0.065 H 
ATOM     95  H   UNL A   1      47.951  24.366  25.887  1.00  0.00     0.065 H 
ATOM     96  C   UNL A   1      47.760  27.124  26.575  1.00  0.00     0.037 A 
ATOM     97  C   UNL A   1      42.232  29.727  28.877  1.00  0.00     0.049 A 
ATOM     98  C   UNL A   1      47.389  28.503  27.045  1.00  0.00     0.074 A 
ATOM     99  C   UNL A   1      42.035  31.007  29.362  1.00  0.00    -0.036 A 
ATOM    100  N   UNL A   1      43.553  29.660  28.456  1.00  0.00    -0.354 N 
ATOM    101  N   UNL A   1      46.242  28.936  27.510  1.00  0.00    -0.248 NA
ATOM    102  C   UNL A   1      48.440  29.526  26.990  1.00  0.00    -0.034 C 
ATOM    103  C   UNL A   1      43.217  31.733  29.176  1.00  0.00    -0.036 A 
ATOM    104  H   UNL A   1      41.165  31.365  29.786  1.00  0.00     0.065 H 
ATOM    105  C   UNL A   1      44.173  30.887  28.635  1.00  0.00     0.049 A 
ATOM    106  H   UNL A   1      43.988  28.858  28.085  1.00  0.00     0.167 HD
ATOM    107  C   UNL A   1      46.435  30.277  27.816  1.00  0.00     0.074 A 
ATOM    108  C   UNL A   1      47.819  30.578  27.505  1.00  0.00    -0.034 C 
ATOM    109  H   UNL A   1      49.408  29.448  26.640  1.00  0.00     0.065 H 
ATOM    110  H   UNL A   1      43.354  32.730  29.404  1.00  0.00     0.065 H 
ATOM    111  C   UNL A   1      45.547  31.176  28.307  1.00  0.00     0.037 A 
ATOM    112  H   UNL A   1      48.263  31.495  27.666  1.00  0.00     0.065 H 
BRANCH  93 113
ATOM    113  C   UNL A   1      39.862  28.892  29.197  1.00  0.00     0.064 A 
ATOM    114  C   UNL A   1      39.428  28.696  30.518  1.00  0.00     0.173 A 
ATOM    115  C   UNL A   1      38.917  29.338  28.261  1.00  0.00     0.173 A 
ATOM    116  F   UNL A   1      40.287  28.261  31.453  1.00  0.00    -0.203 F 
ATOM    117  C   UNL A   1      38.096  28.888  30.874  1.00  0.00     0.198 A 
ATOM    118  C   UNL A   1      37.594  29.567  28.629  1.00  0.00     0.198 A 
ATOM    119  F   UNL A   1      39.275  29.551  26.985  1.00  0.00    -0.203 F 
ATOM    120  F   UNL A   1      37.694  28.626  32.125  1.00  0.00    -0.200 F 
ATOM    121  C   UNL A   1      37.181  29.328  29.931  1.00  0.00     0.200 A 
ATOM    122  F   UNL A   1      36.713  30.008  27.718  1.00  0.00    -0.200 F 
ATOM    123  F   UNL A   1      35.899  29.514  30.274  1.00  0.00    -0.200 F 
ENDBRANCH  93 113
BRANCH  96 124
ATOM    124  C   UNL A   1      49.119  26.823  26.057  1.00  0.00     0.064 A 
ATOM    125  C   UNL A   1      50.110  26.288  26.891  1.00  0.00     0.173 A 
ATOM    126  C   UNL A   1      49.445  27.034  24.709  1.00  0.00     0.173 A 
ATOM    127  F   UNL A   1      49.852  26.084  28.192  1.00  0.00    -0.203 F 
ATOM    128  C   UNL A   1      51.378  25.985  26.400  1.00  0.00     0.198 A 
ATOM    129  C   UNL A   1      50.704  26.702  24.211  1.00  0.00     0.198 A 
ATOM    130  F   UNL A   1      48.531  27.537  23.868  1.00  0.00    -0.203 F 
ATOM    131  F   UNL A   1      52.318  25.506  27.226  1.00  0.00    -0.200 F 
ATOM    132  C   UNL A   1      51.671  26.183  25.058  1.00  0.00     0.200 A 
ATOM    133  F   UNL A   1      50.975  26.878  22.911  1.00  0.00    -0.200 F 
ATOM    134  F   UNL A   1      52.886  25.877  24.582  1.00  0.00    -0.200 F 
ENDBRANCH  96 124
BRANCH 111 135
ATOM    135  C   UNL A   1      46.046  32.573  28.548  1.00  0.00     0.064 A 
ATOM    136  C   UNL A   1      46.652  32.940  29.759  1.00  0.00     0.173 A 
ATOM    137  C   UNL A   1      45.951  33.547  27.542  1.00  0.00     0.173 A 
ATOM    138  F   UNL A   1      46.753  32.051  30.759  1.00  0.00    -0.203 F 
ATOM    139  C   UNL A   1      47.120  34.236  29.964  1.00  0.00     0.198 A 
ATOM    140  C   UNL A   1      46.450  34.832  27.738  1.00  0.00     0.198 A 
ATOM    141  F   UNL A   1      45.386  33.249  26.362  1.00  0.00    -0.203 F 
ATOM    142  F   UNL A   1      47.647  34.576  31.147  1.00  0.00    -0.200 F 
ATOM    143  C   UNL A   1      47.026  35.177  28.950  1.00  0.00     0.200 A 
ATOM    144  F   UNL A   1      46.374  35.736  26.751  1.00  0.00    -0.200 F 
ATOM    145  F   UNL A   1      47.485  36.422  29.145  1.00  0.00    -0.200 F 
ENDBRANCH 111 135
ENDBRANCH  76  79
ENDBRANCH  66  69
ENDBRANCH  62  65
ENDBRANCH  59  62
ENDBRANCH  56  59
ENDBRANCH  53  56
ENDBRANCH  50  53
ENDBRANCH   1  50
TORSDOF 25
ENDMDL
MODEL 2
REMARK VINA RESULT:     -10.4      5.384      9.593
REMARK SMILES CC(C)C[C@H](NC(=O)CNC(=O)[C@@H]([NH3+])C(C)C)C(=O)NCCCCCCNC(=O)c1ccc(-c2c3nc(c(-c4c(F)c(F)c(F)c(F)c4F)c4ccc([nH]4)c(-c4c(F)c(F)c(F)c(F)c4F)c4nc(c(-c5c(F)c(F)c(F)c(F)c5F)c5ccc2[nH]5)C=C4)C=C3)cc1
REMARK SMILES IDX 21 1 20 4 18 5 19 6 5 8 4 10 2 13 1 15 3 19 6 23 7 24 8 26
REMARK SMILES IDX 9 27 10 30 11 31 12 33 13 34 14 36 15 40 16 42 17 46 22 50
REMARK SMILES IDX 23 53 24 56 25 59 26 62 27 65 28 66 29 68 30 69 31 70 92 71
REMARK SMILES IDX 32 72 91 74 33 76 34 79 35 80 85 81 36 82 90 83 84 84 86 85
REMARK SMILES IDX 37 86 89 87 83 89 82 91 38 93 70 96 50 97 69 98 51 99 54 100
REMARK SMILES IDX 68 101 87 102 52 103 53 105 67 107 88 108 55 111 39 113
REMARK SMILES IDX 40 114 48 115 41 116 42 117 46 118 49 119 43 120 44 121
REMARK SMILES IDX 47 122 45 123 71 124 72 125 80 126 73 127 74 128 78 129
REMARK SMILES IDX 81 130 75 131 76 132 79 133 77 134 56 135 57 136 65 137
REMARK SMILES IDX 58 138 59 139 63 140 66 141 60 142 61 143 64 144 62 145
REMARK H PARENT 21 2 21 3 20 7 5 9 4 11 4 12 2 14 1 16 1 17 1 18 3 20 3 21
REMARK H PARENT 3 22 6 25 9 28 9 29 10 32 13 35 14 37 14 38 14 39 15 41 16 43
REMARK H PARENT 16 44 16 45 17 47 17 48 17 49 22 51 22 52 23 54 23 55 24 57
REMARK H PARENT 24 58 25 60 25 61 26 63 26 64 27 67 31 73 92 75 32 77 91 78
REMARK H PARENT 90 88 84 90 86 92 89 94 83 95 51 104 54 106 87 109 52 110
REMARK H PARENT 88 112
REMARK Flexibility Score: inf
ROOT
ATOM      1  C   UNL A   1      32.291  27.476  26.443  1.00  0.00     0.017 C 
ATOM      2  H   UNL A   1      32.192  27.875  25.456  1.00  0.00     0.049 H 
ATOM      3  H   UNL A   1      33.178  26.882  26.520  1.00  0.00     0.049 H 
ENDROOT
BRANCH   1   4
ATOM      4  N   UNL A   1      31.149  26.639  26.734  1.00  0.00    -0.354 N 
ATOM      5  C   UNL A   1      30.315  25.967  25.895  1.00  0.00     0.242 C 
ATOM      6  O   UNL A   1      29.491  25.200  26.402  1.00  0.00    -0.273 OA
ATOM      7  H   UNL A   1      30.942  26.538  27.691  1.00  0.00     0.163 HD
BRANCH   5   8
ATOM      8  C   UNL A   1      30.474  26.054  24.367  1.00  0.00     0.108 C 
ATOM      9  H   UNL A   1      31.472  26.395  24.186  1.00  0.00     0.063 H 
BRANCH   8  10
ATOM     10  C   UNL A   1      29.550  27.108  23.737  1.00  0.00    -0.021 C 
ATOM     11  H   UNL A   1      29.312  26.794  22.743  1.00  0.00     0.030 H 
ATOM     12  H   UNL A   1      28.691  27.178  24.371  1.00  0.00     0.030 H 
BRANCH  10  13
ATOM     13  C   UNL A   1      30.159  28.531  23.662  1.00  0.00    -0.045 C 
ATOM     14  H   UNL A   1      30.358  28.831  24.669  1.00  0.00     0.030 H 
BRANCH  13  15
ATOM     15  C   UNL A   1      31.480  28.579  22.898  1.00  0.00    -0.063 C 
ATOM     16  H   UNL A   1      32.258  28.164  23.506  1.00  0.00     0.023 H 
ATOM     17  H   UNL A   1      31.719  29.594  22.661  1.00  0.00     0.023 H 
ATOM     18  H   UNL A   1      31.392  28.012  21.995  1.00  0.00     0.023 H 
ENDBRANCH  13  15
BRANCH  13  19
ATOM     19  C   UNL A   1      29.166  29.482  22.992  1.00  0.00    -0.063 C 
ATOM     20  H   UNL A   1      29.545  30.481  23.036  1.00  0.00     0.023 H 
ATOM     21  H   UNL A   1      28.227  29.434  23.504  1.00  0.00     0.023 H 
ATOM     22  H   UNL A   1      29.031  29.196  21.971  1.00  0.00     0.023 H 
ENDBRANCH  13  19
ENDBRANCH  10  13
ENDBRANCH   8  10
BRANCH   8  23
ATOM     23  N   UNL A   1      30.371  24.747  23.717  1.00  0.00    -0.343 N 
ATOM     24  C   UNL A   1      31.247  23.703  23.705  1.00  0.00     0.240 C 
ATOM     25  H   UNL A   1      29.541  24.598  23.211  1.00  0.00     0.164 HD
ATOM     26  O   UNL A   1      30.811  22.627  23.279  1.00  0.00    -0.273 OA
BRANCH  24  27
ATOM     27  C   UNL A   1      32.654  23.783  24.313  1.00  0.00     0.097 C 
ATOM     28  H   UNL A   1      32.757  22.983  25.014  1.00  0.00     0.059 H 
ATOM     29  H   UNL A   1      32.728  24.757  24.753  1.00  0.00     0.059 H 
BRANCH  27  30
ATOM     30  N   UNL A   1      33.751  23.691  23.366  1.00  0.00    -0.342 N 
ATOM     31  C   UNL A   1      35.015  23.208  23.524  1.00  0.00     0.278 C 
ATOM     32  H   UNL A   1      33.549  24.032  22.466  1.00  0.00     0.164 HD
ATOM     33  O   UNL A   1      35.727  23.193  22.514  1.00  0.00    -0.268 OA
BRANCH  31  34
ATOM     34  C   UNL A   1      35.551  22.641  24.866  1.00  0.00     0.166 C 
ATOM     35  H   UNL A   1      35.094  23.195  25.659  1.00  0.00     0.107 H 
BRANCH  34  36
ATOM     36  N   UNL A   1      35.158  21.233  25.079  1.00  0.00    -0.347 N 
ATOM     37  H   UNL A   1      35.884  20.617  24.715  1.00  0.00     0.345 HD
ATOM     38  H   UNL A   1      34.280  21.048  24.593  1.00  0.00     0.345 HD
ATOM     39  H   UNL A   1      35.035  21.060  26.077  1.00  0.00     0.345 HD
ENDBRANCH  34  36
BRANCH  34  40
ATOM     40  C   UNL A   1      37.078  22.846  24.974  1.00  0.00     0.015 C 
ATOM     41  H   UNL A   1      37.399  23.275  24.047  1.00  0.00     0.036 H 
BRANCH  40  42
ATOM     42  C   UNL A   1      37.412  23.786  26.140  1.00  0.00    -0.057 C 
ATOM     43  H   UNL A   1      36.643  23.722  26.881  1.00  0.00     0.024 H 
ATOM     44  H   UNL A   1      37.479  24.791  25.780  1.00  0.00     0.024 H 
ATOM     45  H   UNL A   1      38.348  23.500  26.572  1.00  0.00     0.024 H 
ENDBRANCH  40  42
BRANCH  40  46
ATOM     46  C   UNL A   1      37.821  21.520  25.185  1.00  0.00    -0.057 C 
ATOM     47  H   UNL A   1      38.717  21.516  24.600  1.00  0.00     0.024 H 
ATOM     48  H   UNL A   1      37.194  20.708  24.881  1.00  0.00     0.024 H 
ATOM     49  H   UNL A   1      38.070  21.411  26.220  1.00  0.00     0.024 H 
ENDBRANCH  40  46
ENDBRANCH  34  40
ENDBRANCH  31  34
ENDBRANCH  27  30
ENDBRANCH  24  27
ENDBRANCH   8  23
ENDBRANCH   5   8
ENDBRANCH   1   4
BRANCH   1  50
ATOM     50  C   UNL A   1      32.391  28.626  27.437  1.00  0.00    -0.036 C 
ATOM     51  H   UNL A   1      33.152  28.391  28.152  1.00  0.00     0.028 H 
ATOM     52  H   UNL A   1      31.426  28.734  27.888  1.00  0.00     0.028 H 
BRANCH  50  53
ATOM     53  C   UNL A   1      32.735  29.972  26.790  1.00  0.00    -0.052 C 
ATOM     54  H   UNL A   1      33.464  29.797  26.027  1.00  0.00     0.027 H 
ATOM     55  H   UNL A   1      33.090  30.602  27.577  1.00  0.00     0.027 H 
BRANCH  53  56
ATOM     56  C   UNL A   1      31.546  30.702  26.155  1.00  0.00    -0.052 C 
ATOM     57  H   UNL A   1      30.651  30.188  26.436  1.00  0.00     0.027 H 
ATOM     58  H   UNL A   1      31.721  30.699  25.099  1.00  0.00     0.027 H 
BRANCH  56  59
ATOM     59  C   UNL A   1      31.399  32.170  26.562  1.00  0.00    -0.036 C 
ATOM     60  H   UNL A   1      30.560  32.251  27.221  1.00  0.00     0.028 H 
ATOM     61  H   UNL A   1      31.273  32.727  25.658  1.00  0.00     0.028 H 
BRANCH  59  62
ATOM     62  C   UNL A   1      32.617  32.750  27.268  1.00  0.00     0.018 C 
ATOM     63  H   UNL A   1      33.466  32.661  26.624  1.00  0.00     0.049 H 
ATOM     64  H   UNL A   1      32.763  32.204  28.177  1.00  0.00     0.049 H 
BRANCH  62  65
ATOM     65  N   UNL A   1      32.430  34.149  27.609  1.00  0.00    -0.352 N 
ATOM     66  C   UNL A   1      33.042  34.888  28.587  1.00  0.00     0.251 C 
ATOM     67  H   UNL A   1      31.770  34.635  27.062  1.00  0.00     0.163 HD
ATOM     68  O   UNL A   1      32.621  36.003  28.882  1.00  0.00    -0.269 OA
BRANCH  66  69
ATOM     69  C   UNL A   1      34.201  34.322  29.304  1.00  0.00     0.039 A 
ATOM     70  C   UNL A   1      33.975  33.536  30.435  1.00  0.00    -0.049 A 
ATOM     71  C   UNL A   1      35.504  34.550  28.849  1.00  0.00    -0.049 A 
ATOM     72  C   UNL A   1      35.052  32.927  31.076  1.00  0.00    -0.053 A 
ATOM     73  H   UNL A   1      33.015  33.407  30.795  1.00  0.00     0.063 H 
ATOM     74  C   UNL A   1      36.568  33.877  29.440  1.00  0.00    -0.053 A 
ATOM     75  H   UNL A   1      35.674  35.214  28.078  1.00  0.00     0.063 H 
ATOM     76  C   UNL A   1      36.352  33.060  30.559  1.00  0.00    -0.014 A 
ATOM     77  H   UNL A   1      34.894  32.374  31.934  1.00  0.00     0.063 H 
ATOM     78  H   UNL A   1      37.519  33.980  29.054  1.00  0.00     0.063 H 
BRANCH  76  79
ATOM     79  C   UNL A   1      37.492  32.329  31.166  1.00  0.00     0.031 A 
ATOM     80  C   UNL A   1      37.998  32.704  32.528  1.00  0.00     0.074 A 
ATOM     81  C   UNL A   1      38.110  31.367  30.456  1.00  0.00     0.049 A 
ATOM     82  N   UNL A   1      39.009  32.214  33.199  1.00  0.00    -0.248 NA
ATOM     83  C   UNL A   1      37.291  33.794  33.217  1.00  0.00    -0.034 C 
ATOM     84  C   UNL A   1      37.746  30.956  29.099  1.00  0.00    -0.036 A 
ATOM     85  N   UNL A   1      39.184  30.572  30.768  1.00  0.00    -0.354 N 
ATOM     86  C   UNL A   1      39.060  32.935  34.384  1.00  0.00     0.074 A 
ATOM     87  C   UNL A   1      38.023  33.941  34.311  1.00  0.00    -0.034 C 
ATOM     88  H   UNL A   1      36.445  34.309  32.925  1.00  0.00     0.065 H 
ATOM     89  C   UNL A   1      38.568  29.972  28.704  1.00  0.00    -0.036 A 
ATOM     90  H   UNL A   1      36.979  31.357  28.537  1.00  0.00     0.065 H 
ATOM     91  C   UNL A   1      39.543  29.713  29.759  1.00  0.00     0.049 A 
ATOM     92  H   UNL A   1      39.651  30.612  31.634  1.00  0.00     0.167 HD
ATOM     93  C   UNL A   1      39.881  32.757  35.447  1.00  0.00     0.037 A 
ATOM     94  H   UNL A   1      37.873  34.678  35.017  1.00  0.00     0.065 H 
ATOM     95  H   UNL A   1      38.519  29.477  27.799  1.00  0.00     0.065 H 
ATOM     96  C   UNL A   1      40.553  28.826  29.686  1.00  0.00     0.037 A 
ATOM     97  C   UNL A   1      40.913  31.754  35.511  1.00  0.00     0.049 A 
ATOM     98  C   UNL A   1      41.469  28.662  30.866  1.00  0.00     0.074 A 
ATOM     99  C   UNL A   1      41.762  31.452  36.561  1.00  0.00    -0.036 A 
ATOM    100  N   UNL A   1      41.246  30.896  34.471  1.00  0.00    -0.354 N 
ATOM    101  N   UNL A   1      41.458  29.293  32.015  1.00  0.00    -0.248 NA
ATOM    102  C   UNL A   1      42.534  27.659  30.742  1.00  0.00    -0.034 C 
ATOM    103  C   UNL A   1      42.650  30.458  36.134  1.00  0.00    -0.036 A 
ATOM    104  H   UNL A   1      41.745  31.888  37.496  1.00  0.00     0.065 H 
ATOM    105  C   UNL A   1      42.313  30.092  34.840  1.00  0.00     0.049 A 
ATOM    106  H   UNL A   1      40.791  30.864  33.598  1.00  0.00     0.167 HD
ATOM    107  C   UNL A   1      42.501  28.755  32.757  1.00  0.00     0.074 A 
ATOM    108  C   UNL A   1      43.109  27.728  31.934  1.00  0.00    -0.034 C 
ATOM    109  H   UNL A   1      42.772  27.057  29.938  1.00  0.00     0.065 H 
ATOM    110  H   UNL A   1      43.424  30.063  36.690  1.00  0.00     0.065 H 
ATOM    111  C   UNL A   1      42.918  29.083  34.005  1.00  0.00     0.037 A 
ATOM    112  H   UNL A   1      43.891  27.128  32.239  1.00  0.00     0.065 H 
BRANCH  93 113
ATOM    113  C   UNL A   1      39.696  33.677  36.622  1.00  0.00     0.064 A 
ATOM    114  C   UNL A   1      38.897  33.322  37.720  1.00  0.00     0.173 A 
ATOM    115  C   UNL A   1      40.329  34.928  36.655  1.00  0.00     0.173 A 
ATOM    116  F   UNL A   1      38.260  32.140  37.738  1.00  0.00    -0.203 F 
ATOM    117  C   UNL A   1      38.699  34.201  38.782  1.00  0.00     0.198 A 
ATOM    118  C   UNL A   1      40.160  35.790  37.736  1.00  0.00     0.198 A 
ATOM    119  F   UNL A   1      41.112  35.320  35.638  1.00  0.00    -0.203 F 
ATOM    120  F   UNL A   1      37.875  33.865  39.783  1.00  0.00    -0.200 F 
ATOM    121  C   UNL A   1      39.335  35.433  38.791  1.00  0.00     0.200 A 
ATOM    122  F   UNL A   1      40.789  36.975  37.751  1.00  0.00    -0.200 F 
ATOM    123  F   UNL A   1      39.145  36.279  39.813  1.00  0.00    -0.200 F 
ENDBRANCH  93 113
BRANCH  96 124
ATOM    124  C   UNL A   1      40.735  28.027  28.447  1.00  0.00     0.064 A 
ATOM    125  C   UNL A   1      41.417  28.551  27.340  1.00  0.00     0.173 A 
ATOM    126  C   UNL A   1      40.259  26.710  28.357  1.00  0.00     0.173 A 
ATOM    127  F   UNL A   1      41.875  29.811  27.372  1.00  0.00    -0.203 F 
ATOM    128  C   UNL A   1      41.606  27.793  26.187  1.00  0.00     0.198 A 
ATOM    129  C   UNL A   1      40.476  25.942  27.214  1.00  0.00     0.198 A 
ATOM    130  F   UNL A   1      39.608  26.159  29.391  1.00  0.00    -0.203 F 
ATOM    131  F   UNL A   1      42.231  28.329  25.130  1.00  0.00    -0.200 F 
ATOM    132  C   UNL A   1      41.144  26.486  26.128  1.00  0.00     0.200 A 
ATOM    133  F   UNL A   1      40.044  24.674  27.171  1.00  0.00    -0.200 F 
ATOM    134  F   UNL A   1      41.341  25.752  25.024  1.00  0.00    -0.200 F 
ENDBRANCH  96 124
BRANCH 111 135
ATOM    135  C   UNL A   1      44.085  28.319  34.563  1.00  0.00     0.064 A 
ATOM    136  C   UNL A   1      43.911  27.104  35.243  1.00  0.00     0.173 A 
ATOM    137  C   UNL A   1      45.396  28.786  34.383  1.00  0.00     0.173 A 
ATOM    138  F   UNL A   1      42.678  26.620  35.457  1.00  0.00    -0.203 F 
ATOM    139  C   UNL A   1      45.004  26.401  35.746  1.00  0.00     0.198 A 
ATOM    140  C   UNL A   1      46.487  28.064  34.856  1.00  0.00     0.198 A 
ATOM    141  F   UNL A   1      45.620  29.939  33.734  1.00  0.00    -0.203 F 
ATOM    142  F   UNL A   1      44.809  25.270  36.438  1.00  0.00    -0.200 F 
ATOM    143  C   UNL A   1      46.290  26.877  35.543  1.00  0.00     0.200 A 
ATOM    144  F   UNL A   1      47.731  28.517  34.646  1.00  0.00    -0.200 F 
ATOM    145  F   UNL A   1      47.341  26.195  36.019  1.00  0.00    -0.200 F 
ENDBRANCH 111 135
ENDBRANCH  76  79
ENDBRANCH  66  69
ENDBRANCH  62  65
ENDBRANCH  59  62
ENDBRANCH  56  59
ENDBRANCH  53  56
ENDBRANCH  50  53
ENDBRANCH   1  50
TORSDOF 25
ENDMDL
MODEL 3
REMARK VINA RESULT:     -10.3      5.529     10.928
REMARK SMILES CC(C)C[C@H](NC(=O)CNC(=O)[C@@H]([NH3+])C(C)C)C(=O)NCCCCCCNC(=O)c1ccc(-c2c3nc(c(-c4c(F)c(F)c(F)c(F)c4F)c4ccc([nH]4)c(-c4c(F)c(F)c(F)c(F)c4F)c4nc(c(-c5c(F)c(F)c(F)c(F)c5F)c5ccc2[nH]5)C=C4)C=C3)cc1
REMARK SMILES IDX 21 1 20 4 18 5 19 6 5 8 4 10 2 13 1 15 3 19 6 23 7 24 8 26
REMARK SMILES IDX 9 27 10 30 11 31 12 33 13 34 14 36 15 40 16 42 17 46 22 50
REMARK SMILES IDX 23 53 24 56 25 59 26 62 27 65 28 66 29 68 30 69 31 70 92 71
REMARK SMILES IDX 32 72 91 74 33 76 34 79 35 80 85 81 36 82 90 83 84 84 86 85
REMARK SMILES IDX 37 86 89 87 83 89 82 91 38 93 70 96 50 97 69 98 51 99 54 100
REMARK SMILES IDX 68 101 87 102 52 103 53 105 67 107 88 108 55 111 39 113
REMARK SMILES IDX 40 114 48 115 41 116 42 117 46 118 49 119 43 120 44 121
REMARK SMILES IDX 47 122 45 123 71 124 72 125 80 126 73 127 74 128 78 129
REMARK SMILES IDX 81 130 75 131 76 132 79 133 77 134 56 135 57 136 65 137
REMARK SMILES IDX 58 138 59 139 63 140 66 141 60 142 61 143 64 144 62 145
REMARK H PARENT 21 2 21 3 20 7 5 9 4 11 4 12 2 14 1 16 1 17 1 18 3 20 3 21
REMARK H PARENT 3 22 6 25 9 28 9 29 10 32 13 35 14 37 14 38 14 39 15 41 16 43
REMARK H PARENT 16 44 16 45 17 47 17 48 17 49 22 51 22 52 23 54 23 55 24 57
REMARK H PARENT 24 58 25 60 25 61 26 63 26 64 27 67 31 73 92 75 32 77 91 78
REMARK H PARENT 90 88 84 90 86 92 89 94 83 95 51 104 54 106 87 109 52 110
REMARK H PARENT 88 112
REMARK Flexibility Score: inf
ROOT
ATOM      1  C   UNL A   1      32.416  27.434  26.487  1.00  0.00     0.017 C 
ATOM      2  H   UNL A   1      32.522  27.833  25.500  1.00  0.00     0.049 H 
ATOM      3  H   UNL A   1      33.098  26.624  26.639  1.00  0.00     0.049 H 
ENDROOT
BRANCH   1   4
ATOM      4  N   UNL A   1      31.068  26.941  26.657  1.00  0.00    -0.354 N 
ATOM      5  C   UNL A   1      30.432  25.898  26.060  1.00  0.00     0.242 C 
ATOM      6  O   UNL A   1      29.314  25.591  26.485  1.00  0.00    -0.273 OA
ATOM      7  H   UNL A   1      30.524  27.440  27.308  1.00  0.00     0.163 HD
BRANCH   5   8
ATOM      8  C   UNL A   1      31.127  25.043  24.986  1.00  0.00     0.108 C 
ATOM      9  H   UNL A   1      32.173  25.070  25.209  1.00  0.00     0.063 H 
BRANCH   8  10
ATOM     10  C   UNL A   1      30.984  25.636  23.576  1.00  0.00    -0.021 C 
ATOM     11  H   UNL A   1      30.637  24.865  22.922  1.00  0.00     0.030 H 
ATOM     12  H   UNL A   1      30.299  26.454  23.658  1.00  0.00     0.030 H 
BRANCH  10  13
ATOM     13  C   UNL A   1      32.294  26.216  22.988  1.00  0.00    -0.045 C 
ATOM     14  H   UNL A   1      33.063  26.024  23.708  1.00  0.00     0.030 H 
BRANCH  13  15
ATOM     15  C   UNL A   1      32.713  25.547  21.681  1.00  0.00    -0.063 C 
ATOM     16  H   UNL A   1      32.290  24.565  21.631  1.00  0.00     0.023 H 
ATOM     17  H   UNL A   1      33.780  25.476  21.642  1.00  0.00     0.023 H 
ATOM     18  H   UNL A   1      32.364  26.129  20.854  1.00  0.00     0.023 H 
ENDBRANCH  13  15
BRANCH  13  19
ATOM     19  C   UNL A   1      32.132  27.717  22.746  1.00  0.00    -0.063 C 
ATOM     20  H   UNL A   1      31.092  27.958  22.690  1.00  0.00     0.023 H 
ATOM     21  H   UNL A   1      32.610  27.983  21.826  1.00  0.00     0.023 H 
ATOM     22  H   UNL A   1      32.582  28.259  23.551  1.00  0.00     0.023 H 
ENDBRANCH  13  19
ENDBRANCH  10  13
ENDBRANCH   8  10
BRANCH   8  23
ATOM     23  N   UNL A   1      30.738  23.633  25.052  1.00  0.00    -0.343 N 
ATOM     24  C   UNL A   1      31.485  22.530  25.336  1.00  0.00     0.240 C 
ATOM     25  H   UNL A   1      29.789  23.454  24.864  1.00  0.00     0.164 HD
ATOM     26  O   UNL A   1      30.859  21.487  25.560  1.00  0.00    -0.273 OA
BRANCH  24  27
ATOM     27  C   UNL A   1      33.008  22.575  25.520  1.00  0.00     0.097 C 
ATOM     28  H   UNL A   1      33.320  21.635  25.924  1.00  0.00     0.059 H 
ATOM     29  H   UNL A   1      33.201  23.407  26.165  1.00  0.00     0.059 H 
BRANCH  27  30
ATOM     30  N   UNL A   1      33.778  22.820  24.314  1.00  0.00    -0.342 N 
ATOM     31  C   UNL A   1      35.077  22.535  24.022  1.00  0.00     0.278 C 
ATOM     32  H   UNL A   1      33.281  23.265  23.590  1.00  0.00     0.164 HD
ATOM     33  O   UNL A   1      35.455  22.801  22.876  1.00  0.00    -0.268 OA
BRANCH  31  34
ATOM     34  C   UNL A   1      36.048  21.853  25.025  1.00  0.00     0.166 C 
ATOM     35  H   UNL A   1      35.664  22.017  26.010  1.00  0.00     0.107 H 
BRANCH  34  36
ATOM     36  N   UNL A   1      36.100  20.387  24.849  1.00  0.00    -0.347 N 
ATOM     37  H   UNL A   1      35.153  20.008  24.869  1.00  0.00     0.345 HD
ATOM     38  H   UNL A   1      36.648  19.974  25.603  1.00  0.00     0.345 HD
ATOM     39  H   UNL A   1      36.534  20.167  23.953  1.00  0.00     0.345 HD
ENDBRANCH  34  36
BRANCH  34  40
ATOM     40  C   UNL A   1      37.448  22.502  24.955  1.00  0.00     0.015 C 
ATOM     41  H   UNL A   1      37.725  22.531  23.921  1.00  0.00     0.036 H 
BRANCH  40  42
ATOM     42  C   UNL A   1      37.410  23.923  25.535  1.00  0.00    -0.057 C 
ATOM     43  H   UNL A   1      36.567  24.448  25.136  1.00  0.00     0.024 H 
ATOM     44  H   UNL A   1      38.309  24.440  25.273  1.00  0.00     0.024 H 
ATOM     45  H   UNL A   1      37.325  23.871  26.600  1.00  0.00     0.024 H 
ENDBRANCH  40  42
BRANCH  40  46
ATOM     46  C   UNL A   1      38.496  21.688  25.723  1.00  0.00    -0.057 C 
ATOM     47  H   UNL A   1      38.010  21.094  26.469  1.00  0.00     0.024 H 
ATOM     48  H   UNL A   1      39.191  22.353  26.193  1.00  0.00     0.024 H 
ATOM     49  H   UNL A   1      39.019  21.047  25.044  1.00  0.00     0.024 H 
ENDBRANCH  40  46
ENDBRANCH  34  40
ENDBRANCH  31  34
ENDBRANCH  27  30
ENDBRANCH  24  27
ENDBRANCH   8  23
ENDBRANCH   5   8
ENDBRANCH   1   4
BRANCH   1  50
ATOM     50  C   UNL A   1      32.728  28.528  27.501  1.00  0.00    -0.036 C 
ATOM     51  H   UNL A   1      33.602  28.241  28.049  1.00  0.00     0.028 H 
ATOM     52  H   UNL A   1      31.867  28.628  28.127  1.00  0.00     0.028 H 
BRANCH  50  53
ATOM     53  C   UNL A   1      32.984  29.901  26.869  1.00  0.00    -0.052 C 
ATOM     54  H   UNL A   1      33.726  29.783  26.107  1.00  0.00     0.027 H 
ATOM     55  H   UNL A   1      33.293  30.545  27.664  1.00  0.00     0.027 H 
BRANCH  53  56
ATOM     56  C   UNL A   1      31.751  30.556  26.236  1.00  0.00    -0.052 C 
ATOM     57  H   UNL A   1      30.892  29.979  26.506  1.00  0.00     0.027 H 
ATOM     58  H   UNL A   1      31.931  30.578  25.181  1.00  0.00     0.027 H 
BRANCH  56  59
ATOM     59  C   UNL A   1      31.503  32.005  26.659  1.00  0.00    -0.036 C 
ATOM     60  H   UNL A   1      30.654  32.022  27.311  1.00  0.00     0.028 H 
ATOM     61  H   UNL A   1      31.348  32.564  25.760  1.00  0.00     0.028 H 
BRANCH  59  62
ATOM     62  C   UNL A   1      32.673  32.656  27.383  1.00  0.00     0.018 C 
ATOM     63  H   UNL A   1      33.550  32.563  26.780  1.00  0.00     0.049 H 
ATOM     64  H   UNL A   1      32.797  32.160  28.324  1.00  0.00     0.049 H 
BRANCH  62  65
ATOM     65  N   UNL A   1      32.432  34.064  27.647  1.00  0.00    -0.352 N 
ATOM     66  C   UNL A   1      33.008  34.877  28.587  1.00  0.00     0.251 C 
ATOM     67  H   UNL A   1      31.759  34.494  27.070  1.00  0.00     0.163 HD
ATOM     68  O   UNL A   1      32.544  35.990  28.817  1.00  0.00    -0.269 OA
BRANCH  66  69
ATOM     69  C   UNL A   1      34.182  34.394  29.341  1.00  0.00     0.039 A 
ATOM     70  C   UNL A   1      33.981  33.787  30.581  1.00  0.00    -0.049 A 
ATOM     71  C   UNL A   1      35.472  34.524  28.815  1.00  0.00    -0.049 A 
ATOM     72  C   UNL A   1      35.069  33.252  31.268  1.00  0.00    -0.053 A 
ATOM     73  H   UNL A   1      33.033  33.734  30.987  1.00  0.00     0.063 H 
ATOM     74  C   UNL A   1      36.544  33.919  29.463  1.00  0.00    -0.053 A 
ATOM     75  H   UNL A   1      35.626  35.064  27.950  1.00  0.00     0.063 H 
ATOM     76  C   UNL A   1      36.352  33.279  30.696  1.00  0.00    -0.014 A 
ATOM     77  H   UNL A   1      34.932  32.834  32.203  1.00  0.00     0.063 H 
ATOM     78  H   UNL A   1      37.482  33.943  29.036  1.00  0.00     0.063 H 
BRANCH  76  79
ATOM     79  C   UNL A   1      37.499  32.618  31.366  1.00  0.00     0.031 A 
ATOM     80  C   UNL A   1      38.189  31.452  30.720  1.00  0.00     0.074 A 
ATOM     81  C   UNL A   1      37.876  33.034  32.589  1.00  0.00     0.049 A 
ATOM     82  N   UNL A   1      39.174  30.719  31.174  1.00  0.00    -0.248 NA
ATOM     83  C   UNL A   1      37.687  31.036  29.402  1.00  0.00    -0.034 C 
ATOM     84  C   UNL A   1      37.243  34.119  33.342  1.00  0.00    -0.036 A 
ATOM     85  N   UNL A   1      38.870  32.586  33.423  1.00  0.00    -0.354 N 
ATOM     86  C   UNL A   1      39.407  29.757  30.200  1.00  0.00     0.074 A 
ATOM     87  C   UNL A   1      38.417  29.956  29.164  1.00  0.00    -0.034 C 
ATOM     88  H   UNL A   1      36.958  31.472  28.816  1.00  0.00     0.065 H 
ATOM     89  C   UNL A   1      37.876  34.265  34.516  1.00  0.00    -0.036 A 
ATOM     90  H   UNL A   1      36.440  34.681  33.021  1.00  0.00     0.065 H 
ATOM     91  C   UNL A   1      38.929  33.259  34.618  1.00  0.00     0.049 A 
ATOM     92  H   UNL A   1      39.483  31.852  33.185  1.00  0.00     0.167 HD
ATOM     93  C   UNL A   1      40.376  28.811  30.162  1.00  0.00     0.037 A 
ATOM     94  H   UNL A   1      38.294  29.339  28.347  1.00  0.00     0.065 H 
ATOM     95  H   UNL A   1      37.655  34.975  35.232  1.00  0.00     0.065 H 
ATOM     96  C   UNL A   1      39.731  33.076  35.683  1.00  0.00     0.037 A 
ATOM     97  C   UNL A   1      41.357  28.617  31.199  1.00  0.00     0.049 A 
ATOM     98  C   UNL A   1      40.782  32.003  35.633  1.00  0.00     0.074 A 
ATOM     99  C   UNL A   1      42.414  27.726  31.234  1.00  0.00    -0.036 A 
ATOM    100  N   UNL A   1      41.390  29.321  32.396  1.00  0.00    -0.354 N 
ATOM    101  N   UNL A   1      41.048  31.151  34.672  1.00  0.00    -0.248 NA
ATOM    102  C   UNL A   1      41.649  31.870  36.809  1.00  0.00    -0.034 C 
ATOM    103  C   UNL A   1      43.047  27.845  32.477  1.00  0.00    -0.036 A 
ATOM    104  H   UNL A   1      42.687  27.082  30.476  1.00  0.00     0.065 H 
ATOM    105  C   UNL A   1      42.427  28.857  33.192  1.00  0.00     0.049 A 
ATOM    106  H   UNL A   1      40.769  30.044  32.643  1.00  0.00     0.167 HD
ATOM    107  C   UNL A   1      42.120  30.391  35.120  1.00  0.00     0.074 A 
ATOM    108  C   UNL A   1      42.470  30.900  36.431  1.00  0.00    -0.034 C 
ATOM    109  H   UNL A   1      41.626  32.393  37.699  1.00  0.00     0.065 H 
ATOM    110  H   UNL A   1      43.843  27.276  32.805  1.00  0.00     0.065 H 
ATOM    111  C   UNL A   1      42.754  29.364  34.502  1.00  0.00     0.037 A 
ATOM    112  H   UNL A   1      43.259  30.552  36.997  1.00  0.00     0.065 H 
BRANCH  93 113
ATOM    113  C   UNL A   1      40.410  27.908  28.960  1.00  0.00     0.064 A 
ATOM    114  C   UNL A   1      41.114  28.255  27.795  1.00  0.00     0.173 A 
ATOM    115  C   UNL A   1      39.736  26.678  28.971  1.00  0.00     0.173 A 
ATOM    116  F   UNL A   1      41.770  29.424  27.726  1.00  0.00    -0.203 F 
ATOM    117  C   UNL A   1      41.101  27.430  26.674  1.00  0.00     0.198 A 
ATOM    118  C   UNL A   1      39.757  25.837  27.861  1.00  0.00     0.198 A 
ATOM    119  F   UNL A   1      39.054  26.289  30.059  1.00  0.00    -0.203 F 
ATOM    120  F   UNL A   1      41.722  27.818  25.552  1.00  0.00    -0.200 F 
ATOM    121  C   UNL A   1      40.427  26.219  26.709  1.00  0.00     0.200 A 
ATOM    122  F   UNL A   1      39.118  24.659  27.903  1.00  0.00    -0.200 F 
ATOM    123  F   UNL A   1      40.415  25.425  25.630  1.00  0.00    -0.200 F 
ENDBRANCH  93 113
BRANCH  96 124
ATOM    124  C   UNL A   1      39.565  33.941  36.879  1.00  0.00     0.064 A 
ATOM    125  C   UNL A   1      40.166  35.206  36.947  1.00  0.00     0.173 A 
ATOM    126  C   UNL A   1      38.776  33.534  37.966  1.00  0.00     0.173 A 
ATOM    127  F   UNL A   1      40.944  35.633  35.941  1.00  0.00    -0.203 F 
ATOM    128  C   UNL A   1      39.992  36.026  38.060  1.00  0.00     0.198 A 
ATOM    129  C   UNL A   1      38.578  34.368  39.065  1.00  0.00     0.198 A 
ATOM    130  F   UNL A   1      38.173  32.337  37.947  1.00  0.00    -0.203 F 
ATOM    131  F   UNL A   1      40.605  37.216  38.115  1.00  0.00    -0.200 F 
ATOM    132  C   UNL A   1      39.190  35.611  39.114  1.00  0.00     0.200 A 
ATOM    133  F   UNL A   1      37.788  33.969  40.071  1.00  0.00    -0.200 F 
ATOM    134  F   UNL A   1      39.010  36.407  40.177  1.00  0.00    -0.200 F 
ENDBRANCH  96 124
BRANCH 111 135
ATOM    135  C   UNL A   1      43.900  28.725  35.234  1.00  0.00     0.064 A 
ATOM    136  C   UNL A   1      45.213  29.206  35.110  1.00  0.00     0.173 A 
ATOM    137  C   UNL A   1      43.679  27.642  36.099  1.00  0.00     0.173 A 
ATOM    138  F   UNL A   1      45.482  30.228  34.284  1.00  0.00    -0.203 F 
ATOM    139  C   UNL A   1      46.264  28.609  35.804  1.00  0.00     0.198 A 
ATOM    140  C   UNL A   1      44.726  27.070  36.817  1.00  0.00     0.198 A 
ATOM    141  F   UNL A   1      42.442  27.146  36.260  1.00  0.00    -0.203 F 
ATOM    142  F   UNL A   1      47.515  29.053  35.629  1.00  0.00    -0.200 F 
ATOM    143  C   UNL A   1      46.017  27.549  36.663  1.00  0.00     0.200 A 
ATOM    144  F   UNL A   1      44.483  26.056  37.658  1.00  0.00    -0.200 F 
ATOM    145  F   UNL A   1      47.028  26.982  37.336  1.00  0.00    -0.200 F 
ENDBRANCH 111 135
ENDBRANCH  76  79
ENDBRANCH  66  69
ENDBRANCH  62  65
ENDBRANCH  59  62
ENDBRANCH  56  59
ENDBRANCH  53  56
ENDBRANCH  50  53
ENDBRANCH   1  50
TORSDOF 25
ENDMDL
MODEL 4
REMARK VINA RESULT:     -10.2      1.345      2.043
REMARK SMILES CC(C)C[C@H](NC(=O)CNC(=O)[C@@H]([NH3+])C(C)C)C(=O)NCCCCCCNC(=O)c1ccc(-c2c3nc(c(-c4c(F)c(F)c(F)c(F)c4F)c4ccc([nH]4)c(-c4c(F)c(F)c(F)c(F)c4F)c4nc(c(-c5c(F)c(F)c(F)c(F)c5F)c5ccc2[nH]5)C=C4)C=C3)cc1
REMARK SMILES IDX 21 1 20 4 18 5 19 6 5 8 4 10 2 13 1 15 3 19 6 23 7 24 8 26
REMARK SMILES IDX 9 27 10 30 11 31 12 33 13 34 14 36 15 40 16 42 17 46 22 50
REMARK SMILES IDX 23 53 24 56 25 59 26 62 27 65 28 66 29 68 30 69 31 70 92 71
REMARK SMILES IDX 32 72 91 74 33 76 34 79 35 80 85 81 36 82 90 83 84 84 86 85
REMARK SMILES IDX 37 86 89 87 83 89 82 91 38 93 70 96 50 97 69 98 51 99 54 100
REMARK SMILES IDX 68 101 87 102 52 103 53 105 67 107 88 108 55 111 39 113
REMARK SMILES IDX 40 114 48 115 41 116 42 117 46 118 49 119 43 120 44 121
REMARK SMILES IDX 47 122 45 123 71 124 72 125 80 126 73 127 74 128 78 129
REMARK SMILES IDX 81 130 75 131 76 132 79 133 77 134 56 135 57 136 65 137
REMARK SMILES IDX 58 138 59 139 63 140 66 141 60 142 61 143 64 144 62 145
REMARK H PARENT 21 2 21 3 20 7 5 9 4 11 4 12 2 14 1 16 1 17 1 18 3 20 3 21
REMARK H PARENT 3 22 6 25 9 28 9 29 10 32 13 35 14 37 14 38 14 39 15 41 16 43
REMARK H PARENT 16 44 16 45 17 47 17 48 17 49 22 51 22 52 23 54 23 55 24 57
REMARK H PARENT 24 58 25 60 25 61 26 63 26 64 27 67 31 73 92 75 32 77 91 78
REMARK H PARENT 90 88 84 90 86 92 89 94 83 95 51 104 54 106 87 109 52 110
REMARK H PARENT 88 112
REMARK Flexibility Score: inf
ROOT
ATOM      1  C   UNL A   1      36.089  23.973  25.376  1.00  0.00     0.017 C 
ATOM      2  H   UNL A   1      36.449  24.962  25.567  1.00  0.00     0.049 H 
ATOM      3  H   UNL A   1      35.863  23.850  24.338  1.00  0.00     0.049 H 
ENDROOT
BRANCH   1   4
ATOM      4  N   UNL A   1      34.883  23.750  26.140  1.00  0.00    -0.354 N 
ATOM      5  C   UNL A   1      33.685  24.393  26.098  1.00  0.00     0.242 C 
ATOM      6  O   UNL A   1      32.757  23.916  26.761  1.00  0.00    -0.273 OA
ATOM      7  H   UNL A   1      34.937  23.017  26.794  1.00  0.00     0.163 HD
BRANCH   5   8
ATOM      8  C   UNL A   1      33.449  25.591  25.162  1.00  0.00     0.108 C 
ATOM      9  H   UNL A   1      34.206  25.538  24.408  1.00  0.00     0.063 H 
BRANCH   8  10
ATOM     10  C   UNL A   1      33.653  26.939  25.867  1.00  0.00    -0.021 C 
ATOM     11  H   UNL A   1      33.951  26.748  26.877  1.00  0.00     0.030 H 
ATOM     12  H   UNL A   1      34.395  27.468  25.306  1.00  0.00     0.030 H 
BRANCH  10  13
ATOM     13  C   UNL A   1      32.396  27.844  25.898  1.00  0.00    -0.045 C 
ATOM     14  H   UNL A   1      31.671  27.380  25.263  1.00  0.00     0.030 H 
BRANCH  13  15
ATOM     15  C   UNL A   1      31.777  27.967  27.288  1.00  0.00    -0.063 C 
ATOM     16  H   UNL A   1      32.252  27.273  27.952  1.00  0.00     0.023 H 
ATOM     17  H   UNL A   1      30.731  27.748  27.234  1.00  0.00     0.023 H 
ATOM     18  H   UNL A   1      31.915  28.962  27.654  1.00  0.00     0.023 H 
ENDBRANCH  13  15
BRANCH  13  19
ATOM     19  C   UNL A   1      32.754  29.242  25.391  1.00  0.00    -0.063 C 
ATOM     20  H   UNL A   1      32.729  29.934  26.206  1.00  0.00     0.023 H 
ATOM     21  H   UNL A   1      32.046  29.543  24.646  1.00  0.00     0.023 H 
ATOM     22  H   UNL A   1      33.735  29.228  24.965  1.00  0.00     0.023 H 
ENDBRANCH  13  19
ENDBRANCH  10  13
ENDBRANCH   8  10
BRANCH   8  23
ATOM     23  N   UNL A   1      32.171  25.506  24.454  1.00  0.00    -0.343 N 
ATOM     24  C   UNL A   1      31.815  24.757  23.374  1.00  0.00     0.240 C 
ATOM     25  H   UNL A   1      31.457  26.079  24.816  1.00  0.00     0.164 HD
ATOM     26  O   UNL A   1      30.605  24.695  23.125  1.00  0.00    -0.273 OA
BRANCH  24  27
ATOM     27  C   UNL A   1      32.815  23.907  22.578  1.00  0.00     0.097 C 
ATOM     28  H   UNL A   1      33.684  23.767  23.184  1.00  0.00     0.059 H 
ATOM     29  H   UNL A   1      33.002  24.446  21.672  1.00  0.00     0.059 H 
BRANCH  27  30
ATOM     30  N   UNL A   1      32.338  22.598  22.170  1.00  0.00    -0.342 N 
ATOM     31  C   UNL A   1      32.309  21.418  22.849  1.00  0.00     0.278 C 
ATOM     32  H   UNL A   1      31.978  22.556  21.255  1.00  0.00     0.164 HD
ATOM     33  O   UNL A   1      31.780  20.463  22.270  1.00  0.00    -0.268 OA
BRANCH  31  34
ATOM     34  C   UNL A   1      32.845  21.252  24.297  1.00  0.00     0.166 C 
ATOM     35  H   UNL A   1      33.530  22.052  24.483  1.00  0.00     0.107 H 
BRANCH  34  36
ATOM     36  N   UNL A   1      31.778  21.391  25.310  1.00  0.00    -0.347 N 
ATOM     37  H   UNL A   1      31.992  20.801  26.114  1.00  0.00     0.345 HD
ATOM     38  H   UNL A   1      30.886  21.106  24.907  1.00  0.00     0.345 HD
ATOM     39  H   UNL A   1      31.719  22.365  25.610  1.00  0.00     0.345 HD
ENDBRANCH  34  36
BRANCH  34  40
ATOM     40  C   UNL A   1      33.623  19.927  24.443  1.00  0.00     0.015 C 
ATOM     41  H   UNL A   1      33.686  19.496  23.465  1.00  0.00     0.036 H 
BRANCH  40  42
ATOM     42  C   UNL A   1      35.029  20.189  25.001  1.00  0.00    -0.057 C 
ATOM     43  H   UNL A   1      35.727  19.523  24.536  1.00  0.00     0.024 H 
ATOM     44  H   UNL A   1      35.029  20.025  26.058  1.00  0.00     0.024 H 
ATOM     45  H   UNL A   1      35.311  21.200  24.796  1.00  0.00     0.024 H 
ENDBRANCH  40  42
BRANCH  40  46
ATOM     46  C   UNL A   1      32.904  18.939  25.370  1.00  0.00    -0.057 C 
ATOM     47  H   UNL A   1      32.128  19.448  25.901  1.00  0.00     0.024 H 
ATOM     48  H   UNL A   1      33.605  18.530  26.069  1.00  0.00     0.024 H 
ATOM     49  H   UNL A   1      32.478  18.148  24.789  1.00  0.00     0.024 H 
ENDBRANCH  40  46
ENDBRANCH  34  40
ENDBRANCH  31  34
ENDBRANCH  27  30
ENDBRANCH  24  27
ENDBRANCH   8  23
ENDBRANCH   5   8
ENDBRANCH   1   4
BRANCH   1  50
ATOM     50  C   UNL A   1      37.170  22.969  25.759  1.00  0.00    -0.036 C 
ATOM     51  H   UNL A   1      37.329  22.311  24.929  1.00  0.00     0.028 H 
ATOM     52  H   UNL A   1      36.823  22.453  26.629  1.00  0.00     0.028 H 
BRANCH  50  53
ATOM     53  C   UNL A   1      38.510  23.615  26.127  1.00  0.00    -0.052 C 
ATOM     54  H   UNL A   1      38.333  24.325  26.908  1.00  0.00     0.027 H 
ATOM     55  H   UNL A   1      38.886  24.060  25.230  1.00  0.00     0.027 H 
BRANCH  53  56
ATOM     56  C   UNL A   1      39.585  22.634  26.608  1.00  0.00    -0.052 C 
ATOM     57  H   UNL A   1      39.484  22.522  27.666  1.00  0.00     0.027 H 
ATOM     58  H   UNL A   1      40.526  23.053  26.315  1.00  0.00     0.027 H 
BRANCH  56  59
ATOM     59  C   UNL A   1      39.519  21.243  25.973  1.00  0.00    -0.036 C 
ATOM     60  H   UNL A   1      40.126  21.250  25.091  1.00  0.00     0.028 H 
ATOM     61  H   UNL A   1      38.487  21.050  25.766  1.00  0.00     0.028 H 
BRANCH  59  62
ATOM     62  C   UNL A   1      40.003  20.118  26.876  1.00  0.00     0.018 C 
ATOM     63  H   UNL A   1      39.170  19.503  27.141  1.00  0.00     0.049 H 
ATOM     64  H   UNL A   1      40.449  20.559  27.743  1.00  0.00     0.049 H 
BRANCH  62  65
ATOM     65  N   UNL A   1      41.007  19.294  26.225  1.00  0.00    -0.352 N 
ATOM     66  C   UNL A   1      42.242  19.650  25.752  1.00  0.00     0.251 C 
ATOM     67  H   UNL A   1      40.764  18.346  26.105  1.00  0.00     0.163 HD
ATOM     68  O   UNL A   1      42.883  18.881  25.041  1.00  0.00    -0.269 OA
BRANCH  66  69
ATOM     69  C   UNL A   1      42.790  20.979  26.085  1.00  0.00     0.039 A 
ATOM     70  C   UNL A   1      43.046  21.880  25.051  1.00  0.00    -0.049 A 
ATOM     71  C   UNL A   1      43.029  21.341  27.415  1.00  0.00    -0.049 A 
ATOM     72  C   UNL A   1      43.486  23.167  25.353  1.00  0.00    -0.053 A 
ATOM     73  H   UNL A   1      42.912  21.594  24.067  1.00  0.00     0.063 H 
ATOM     74  C   UNL A   1      43.389  22.649  27.720  1.00  0.00    -0.053 A 
ATOM     75  H   UNL A   1      42.938  20.640  28.167  1.00  0.00     0.063 H 
ATOM     76  C   UNL A   1      43.622  23.574  26.692  1.00  0.00    -0.014 A 
ATOM     77  H   UNL A   1      43.712  23.826  24.591  1.00  0.00     0.063 H 
ATOM     78  H   UNL A   1      43.487  22.939  28.705  1.00  0.00     0.063 H 
BRANCH  76  79
ATOM     79  C   UNL A   1      43.983  24.973  27.030  1.00  0.00     0.031 A 
ATOM     80  C   UNL A   1      42.937  25.933  27.516  1.00  0.00     0.074 A 
ATOM     81  C   UNL A   1      45.248  25.391  26.836  1.00  0.00     0.049 A 
ATOM     82  N   UNL A   1      43.054  27.202  27.813  1.00  0.00    -0.248 NA
ATOM     83  C   UNL A   1      41.573  25.404  27.660  1.00  0.00    -0.034 C 
ATOM     84  C   UNL A   1      46.337  24.565  26.312  1.00  0.00    -0.036 A 
ATOM     85  N   UNL A   1      45.828  26.617  27.040  1.00  0.00    -0.354 N 
ATOM     86  C   UNL A   1      41.782  27.622  28.177  1.00  0.00     0.074 A 
ATOM     87  C   UNL A   1      40.896  26.493  27.996  1.00  0.00    -0.034 C 
ATOM     88  H   UNL A   1      41.232  24.438  27.533  1.00  0.00     0.065 H 
ATOM     89  C   UNL A   1      47.457  25.301  26.256  1.00  0.00    -0.036 A 
ATOM     90  H   UNL A   1      46.257  23.575  26.032  1.00  0.00     0.065 H 
ATOM     91  C   UNL A   1      47.157  26.660  26.696  1.00  0.00     0.049 A 
ATOM     92  H   UNL A   1      45.339  27.393  27.400  1.00  0.00     0.167 HD
ATOM     93  C   UNL A   1      41.393  28.833  28.644  1.00  0.00     0.037 A 
ATOM     94  H   UNL A   1      39.872  26.528  28.113  1.00  0.00     0.065 H 
ATOM     95  H   UNL A   1      48.383  24.962  25.950  1.00  0.00     0.065 H 
ATOM     96  C   UNL A   1      48.031  27.684  26.719  1.00  0.00     0.037 A 
ATOM     97  C   UNL A   1      42.281  29.954  28.818  1.00  0.00     0.049 A 
ATOM     98  C   UNL A   1      47.574  29.027  27.215  1.00  0.00     0.074 A 
ATOM     99  C   UNL A   1      42.001  31.207  29.335  1.00  0.00    -0.036 A 
ATOM    100  N   UNL A   1      43.623  29.961  28.464  1.00  0.00    -0.354 N 
ATOM    101  N   UNL A   1      46.387  29.392  27.634  1.00  0.00    -0.248 NA
ATOM    102  C   UNL A   1      48.578  30.097  27.248  1.00  0.00    -0.034 C 
ATOM    103  C   UNL A   1      43.156  31.990  29.234  1.00  0.00    -0.036 A 
ATOM    104  H   UNL A   1      41.096  31.511  29.725  1.00  0.00     0.065 H 
ATOM    105  C   UNL A   1      44.176  31.208  28.715  1.00  0.00     0.049 A 
ATOM    106  H   UNL A   1      44.112  29.193  28.089  1.00  0.00     0.167 HD
ATOM    107  C   UNL A   1      46.502  30.728  27.994  1.00  0.00     0.074 A 
ATOM    108  C   UNL A   1      47.884  31.101  27.765  1.00  0.00    -0.034 C 
ATOM    109  H   UNL A   1      49.565  30.074  26.946  1.00  0.00     0.065 H 
ATOM    110  H   UNL A   1      43.236  32.984  29.502  1.00  0.00     0.065 H 
ATOM    111  C   UNL A   1      45.551  31.569  28.468  1.00  0.00     0.037 A 
ATOM    112  H   UNL A   1      48.278  32.030  27.979  1.00  0.00     0.065 H 
BRANCH  93 113
ATOM    113  C   UNL A   1      39.939  29.005  28.987  1.00  0.00     0.064 A 
ATOM    114  C   UNL A   1      39.459  28.798  30.291  1.00  0.00     0.173 A 
ATOM    115  C   UNL A   1      39.013  29.385  28.005  1.00  0.00     0.173 A 
ATOM    116  F   UNL A   1      40.299  28.423  31.268  1.00  0.00    -0.203 F 
ATOM    117  C   UNL A   1      38.103  28.917  30.586  1.00  0.00     0.198 A 
ATOM    118  C   UNL A   1      37.663  29.541  28.312  1.00  0.00     0.198 A 
ATOM    119  F   UNL A   1      39.414  29.605  26.744  1.00  0.00    -0.203 F 
ATOM    120  F   UNL A   1      37.662  28.645  31.822  1.00  0.00    -0.200 F 
ATOM    121  C   UNL A   1      37.208  29.294  29.598  1.00  0.00     0.200 A 
ATOM    122  F   UNL A   1      36.800  29.922  27.358  1.00  0.00    -0.200 F 
ATOM    123  F   UNL A   1      35.903  29.409  29.882  1.00  0.00    -0.200 F 
ENDBRANCH  93 113
BRANCH  96 124
ATOM    124  C   UNL A   1      49.427  27.461  26.262  1.00  0.00     0.064 A 
ATOM    125  C   UNL A   1      50.448  27.158  27.173  1.00  0.00     0.173 A 
ATOM    126  C   UNL A   1      49.762  27.516  24.900  1.00  0.00     0.173 A 
ATOM    127  F   UNL A   1      50.181  27.111  28.486  1.00  0.00    -0.203 F 
ATOM    128  C   UNL A   1      51.753  26.928  26.741  1.00  0.00     0.198 A 
ATOM    129  C   UNL A   1      51.061  27.256  24.467  1.00  0.00     0.198 A 
ATOM    130  F   UNL A   1      48.821  27.795  23.988  1.00  0.00    -0.203 F 
ATOM    131  F   UNL A   1      52.717  26.673  27.636  1.00  0.00    -0.200 F 
ATOM    132  C   UNL A   1      52.056  26.968  25.388  1.00  0.00     0.200 A 
ATOM    133  F   UNL A   1      51.344  27.278  23.157  1.00  0.00    -0.200 F 
ATOM    134  F   UNL A   1      53.308  26.731  24.972  1.00  0.00    -0.200 F 
ENDBRANCH  96 124
BRANCH 111 135
ATOM    135  C   UNL A   1      45.972  32.977  28.781  1.00  0.00     0.064 A 
ATOM    136  C   UNL A   1      45.866  34.005  27.832  1.00  0.00     0.173 A 
ATOM    137  C   UNL A   1      46.453  33.311  30.057  1.00  0.00     0.173 A 
ATOM    138  F   UNL A   1      45.428  33.737  26.593  1.00  0.00    -0.203 F 
ATOM    139  C   UNL A   1      46.251  35.308  28.140  1.00  0.00     0.198 A 
ATOM    140  C   UNL A   1      46.805  34.620  30.372  1.00  0.00     0.198 A 
ATOM    141  F   UNL A   1      46.569  32.367  31.004  1.00  0.00    -0.203 F 
ATOM    142  F   UNL A   1      46.190  36.262  27.201  1.00  0.00    -0.200 F 
ATOM    143  C   UNL A   1      46.711  35.615  29.411  1.00  0.00     0.200 A 
ATOM    144  F   UNL A   1      47.234  34.918  31.606  1.00  0.00    -0.200 F 
ATOM    145  F   UNL A   1      47.072  36.871  29.710  1.00  0.00    -0.200 F 
ENDBRANCH 111 135
ENDBRANCH  76  79
ENDBRANCH  66  69
ENDBRANCH  62  65
ENDBRANCH  59  62
ENDBRANCH  56  59
ENDBRANCH  53  56
ENDBRANCH  50  53
ENDBRANCH   1  50
TORSDOF 25
ENDMDL
MODEL 5
REMARK VINA RESULT:     -10.2      1.952      8.009
REMARK SMILES CC(C)C[C@H](NC(=O)CNC(=O)[C@@H]([NH3+])C(C)C)C(=O)NCCCCCCNC(=O)c1ccc(-c2c3nc(c(-c4c(F)c(F)c(F)c(F)c4F)c4ccc([nH]4)c(-c4c(F)c(F)c(F)c(F)c4F)c4nc(c(-c5c(F)c(F)c(F)c(F)c5F)c5ccc2[nH]5)C=C4)C=C3)cc1
REMARK SMILES IDX 21 1 20 4 18 5 19 6 5 8 4 10 2 13 1 15 3 19 6 23 7 24 8 26
REMARK SMILES IDX 9 27 10 30 11 31 12 33 13 34 14 36 15 40 16 42 17 46 22 50
REMARK SMILES IDX 23 53 24 56 25 59 26 62 27 65 28 66 29 68 30 69 31 70 92 71
REMARK SMILES IDX 32 72 91 74 33 76 34 79 35 80 85 81 36 82 90 83 84 84 86 85
REMARK SMILES IDX 37 86 89 87 83 89 82 91 38 93 70 96 50 97 69 98 51 99 54 100
REMARK SMILES IDX 68 101 87 102 52 103 53 105 67 107 88 108 55 111 39 113
REMARK SMILES IDX 40 114 48 115 41 116 42 117 46 118 49 119 43 120 44 121
REMARK SMILES IDX 47 122 45 123 71 124 72 125 80 126 73 127 74 128 78 129
REMARK SMILES IDX 81 130 75 131 76 132 79 133 77 134 56 135 57 136 65 137
REMARK SMILES IDX 58 138 59 139 63 140 66 141 60 142 61 143 64 144 62 145
REMARK H PARENT 21 2 21 3 20 7 5 9 4 11 4 12 2 14 1 16 1 17 1 18 3 20 3 21
REMARK H PARENT 3 22 6 25 9 28 9 29 10 32 13 35 14 37 14 38 14 39 15 41 16 43
REMARK H PARENT 16 44 16 45 17 47 17 48 17 49 22 51 22 52 23 54 23 55 24 57
REMARK H PARENT 24 58 25 60 25 61 26 63 26 64 27 67 31 73 92 75 32 77 91 78
REMARK H PARENT 90 88 84 90 86 92 89 94 83 95 51 104 54 106 87 109 52 110
REMARK H PARENT 88 112
REMARK Flexibility Score: inf
ROOT
ATOM      1  C   UNL A   1      36.664  23.626  25.614  1.00  0.00     0.017 C 
ATOM      2  H   UNL A   1      36.356  24.604  25.307  1.00  0.00     0.049 H 
ATOM      3  H   UNL A   1      36.689  22.961  24.777  1.00  0.00     0.049 H 
ENDROOT
BRANCH   1   4
ATOM      4  N   UNL A   1      35.719  23.114  26.581  1.00  0.00    -0.354 N 
ATOM      5  C   UNL A   1      34.365  23.226  26.632  1.00  0.00     0.242 C 
ATOM      6  O   UNL A   1      33.769  22.572  27.494  1.00  0.00    -0.273 OA
ATOM      7  H   UNL A   1      36.121  22.603  27.320  1.00  0.00     0.163 HD
BRANCH   5   8
ATOM      8  C   UNL A   1      33.586  24.031  25.577  1.00  0.00     0.108 C 
ATOM      9  H   UNL A   1      34.271  24.750  25.179  1.00  0.00     0.063 H 
BRANCH   8  10
ATOM     10  C   UNL A   1      32.434  24.843  26.188  1.00  0.00    -0.021 C 
ATOM     11  H   UNL A   1      32.503  24.773  27.253  1.00  0.00     0.030 H 
ATOM     12  H   UNL A   1      32.541  25.844  25.826  1.00  0.00     0.030 H 
BRANCH  10  13
ATOM     13  C   UNL A   1      31.021  24.370  25.763  1.00  0.00    -0.045 C 
ATOM     14  H   UNL A   1      31.134  23.884  24.816  1.00  0.00     0.030 H 
BRANCH  13  15
ATOM     15  C   UNL A   1      30.411  23.357  26.729  1.00  0.00    -0.063 C 
ATOM     16  H   UNL A   1      30.786  23.535  27.716  1.00  0.00     0.023 H 
ATOM     17  H   UNL A   1      30.674  22.367  26.421  1.00  0.00     0.023 H 
ATOM     18  H   UNL A   1      29.346  23.460  26.729  1.00  0.00     0.023 H 
ENDBRANCH  13  15
BRANCH  13  19
ATOM     19  C   UNL A   1      30.085  25.575  25.653  1.00  0.00    -0.063 C 
ATOM     20  H   UNL A   1      29.150  25.263  25.238  1.00  0.00     0.023 H 
ATOM     21  H   UNL A   1      30.529  26.314  25.019  1.00  0.00     0.023 H 
ATOM     22  H   UNL A   1      29.923  25.991  26.625  1.00  0.00     0.023 H 
ENDBRANCH  13  19
ENDBRANCH  10  13
ENDBRANCH   8  10
BRANCH   8  23
ATOM     23  N   UNL A   1      33.164  23.208  24.443  1.00  0.00    -0.343 N 
ATOM     24  C   UNL A   1      33.053  23.525  23.123  1.00  0.00     0.240 C 
ATOM     25  H   UNL A   1      32.923  22.281  24.669  1.00  0.00     0.164 HD
ATOM     26  O   UNL A   1      32.905  22.577  22.342  1.00  0.00    -0.273 OA
BRANCH  24  27
ATOM     27  C   UNL A   1      33.245  24.950  22.585  1.00  0.00     0.097 C 
ATOM     28  H   UNL A   1      33.844  24.891  21.701  1.00  0.00     0.059 H 
ATOM     29  H   UNL A   1      33.701  25.504  23.379  1.00  0.00     0.059 H 
BRANCH  27  30
ATOM     30  N   UNL A   1      32.026  25.663  22.251  1.00  0.00    -0.342 N 
ATOM     31  C   UNL A   1      31.701  26.976  22.404  1.00  0.00     0.278 C 
ATOM     32  H   UNL A   1      31.320  25.107  21.850  1.00  0.00     0.164 HD
ATOM     33  O   UNL A   1      30.600  27.325  21.965  1.00  0.00    -0.268 OA
BRANCH  31  34
ATOM     34  C   UNL A   1      32.658  28.025  23.033  1.00  0.00     0.166 C 
ATOM     35  H   UNL A   1      33.659  27.672  22.900  1.00  0.00     0.107 H 
BRANCH  34  36
ATOM     36  N   UNL A   1      32.595  29.329  22.342  1.00  0.00    -0.347 N 
ATOM     37  H   UNL A   1      32.295  30.049  22.999  1.00  0.00     0.345 HD
ATOM     38  H   UNL A   1      31.930  29.274  21.571  1.00  0.00     0.345 HD
ATOM     39  H   UNL A   1      33.518  29.566  21.977  1.00  0.00     0.345 HD
ENDBRANCH  34  36
BRANCH  34  40
ATOM     40  C   UNL A   1      32.405  28.153  24.551  1.00  0.00     0.015 C 
ATOM     41  H   UNL A   1      31.979  27.225  24.873  1.00  0.00     0.036 H 
BRANCH  40  42
ATOM     42  C   UNL A   1      33.721  28.420  25.293  1.00  0.00    -0.057 C 
ATOM     43  H   UNL A   1      33.510  28.706  26.303  1.00  0.00     0.024 H 
ATOM     44  H   UNL A   1      34.254  29.208  24.803  1.00  0.00     0.024 H 
ATOM     45  H   UNL A   1      34.318  27.532  25.292  1.00  0.00     0.024 H 
ENDBRANCH  40  42
BRANCH  40  46
ATOM     46  C   UNL A   1      31.421  29.284  24.875  1.00  0.00    -0.057 C 
ATOM     47  H   UNL A   1      30.558  28.878  25.359  1.00  0.00     0.024 H 
ATOM     48  H   UNL A   1      31.126  29.771  23.968  1.00  0.00     0.024 H 
ATOM     49  H   UNL A   1      31.892  29.994  25.523  1.00  0.00     0.024 H 
ENDBRANCH  40  46
ENDBRANCH  34  40
ENDBRANCH  31  34
ENDBRANCH  27  30
ENDBRANCH  24  27
ENDBRANCH   8  23
ENDBRANCH   5   8
ENDBRANCH   1   4
BRANCH   1  50
ATOM     50  C   UNL A   1      38.063  23.710  26.210  1.00  0.00    -0.036 C 
ATOM     51  H   UNL A   1      37.975  23.963  27.246  1.00  0.00     0.028 H 
ATOM     52  H   UNL A   1      38.596  24.453  25.653  1.00  0.00     0.028 H 
BRANCH  50  53
ATOM     53  C   UNL A   1      38.862  22.407  26.096  1.00  0.00    -0.052 C 
ATOM     54  H   UNL A   1      38.951  21.986  27.075  1.00  0.00     0.027 H 
ATOM     55  H   UNL A   1      39.803  22.669  25.660  1.00  0.00     0.027 H 
BRANCH  53  56
ATOM     56  C   UNL A   1      38.238  21.351  25.177  1.00  0.00    -0.052 C 
ATOM     57  H   UNL A   1      38.334  21.689  24.167  1.00  0.00     0.027 H 
ATOM     58  H   UNL A   1      37.221  21.242  25.492  1.00  0.00     0.027 H 
BRANCH  56  59
ATOM     59  C   UNL A   1      38.869  19.959  25.274  1.00  0.00    -0.036 C 
ATOM     60  H   UNL A   1      39.393  19.766  24.361  1.00  0.00     0.028 H 
ATOM     61  H   UNL A   1      38.068  19.272  25.447  1.00  0.00     0.028 H 
BRANCH  59  62
ATOM     62  C   UNL A   1      39.846  19.794  26.429  1.00  0.00     0.018 C 
ATOM     63  H   UNL A   1      39.328  19.375  27.265  1.00  0.00     0.049 H 
ATOM     64  H   UNL A   1      40.245  20.758  26.666  1.00  0.00     0.049 H 
BRANCH  62  65
ATOM     65  N   UNL A   1      40.956  18.922  26.080  1.00  0.00    -0.352 N 
ATOM     66  C   UNL A   1      42.278  19.236  25.908  1.00  0.00     0.251 C 
ATOM     67  H   UNL A   1      40.724  17.974  25.946  1.00  0.00     0.163 HD
ATOM     68  O   UNL A   1      43.051  18.422  25.410  1.00  0.00    -0.269 OA
BRANCH  66  69
ATOM     69  C   UNL A   1      42.764  20.571  26.306  1.00  0.00     0.039 A 
ATOM     70  C   UNL A   1      43.384  21.374  25.348  1.00  0.00    -0.049 A 
ATOM     71  C   UNL A   1      42.589  21.035  27.615  1.00  0.00    -0.049 A 
ATOM     72  C   UNL A   1      43.775  22.668  25.686  1.00  0.00    -0.053 A 
ATOM     73  H   UNL A   1      43.553  21.012  24.396  1.00  0.00     0.063 H 
ATOM     74  C   UNL A   1      42.906  22.352  27.927  1.00  0.00    -0.053 A 
ATOM     75  H   UNL A   1      42.226  20.401  28.344  1.00  0.00     0.063 H 
ATOM     76  C   UNL A   1      43.502  23.181  26.966  1.00  0.00    -0.014 A 
ATOM     77  H   UNL A   1      44.268  23.254  24.992  1.00  0.00     0.063 H 
ATOM     78  H   UNL A   1      42.702  22.721  28.869  1.00  0.00     0.063 H 
BRANCH  76  79
ATOM     79  C   UNL A   1      43.814  24.592  27.304  1.00  0.00     0.031 A 
ATOM     80  C   UNL A   1      45.238  25.059  27.379  1.00  0.00     0.074 A 
ATOM     81  C   UNL A   1      42.808  25.434  27.606  1.00  0.00     0.049 A 
ATOM     82  N   UNL A   1      45.705  26.238  27.705  1.00  0.00    -0.248 NA
ATOM     83  C   UNL A   1      46.276  24.064  27.075  1.00  0.00    -0.034 C 
ATOM     84  C   UNL A   1      41.388  25.078  27.625  1.00  0.00    -0.036 A 
ATOM     85  N   UNL A   1      42.825  26.757  27.970  1.00  0.00    -0.354 N 
ATOM     86  C   UNL A   1      47.088  26.124  27.647  1.00  0.00     0.074 A 
ATOM     87  C   UNL A   1      47.385  24.745  27.323  1.00  0.00    -0.034 C 
ATOM     88  H   UNL A   1      46.169  23.089  26.752  1.00  0.00     0.065 H 
ATOM     89  C   UNL A   1      40.670  26.160  27.961  1.00  0.00    -0.036 A 
ATOM     90  H   UNL A   1      41.002  24.145  27.411  1.00  0.00     0.065 H 
ATOM     91  C   UNL A   1      41.579  27.272  28.225  1.00  0.00     0.049 A 
ATOM     92  H   UNL A   1      43.653  27.286  28.041  1.00  0.00     0.167 HD
ATOM     93  C   UNL A   1      48.024  27.088  27.822  1.00  0.00     0.037 A 
ATOM     94  H   UNL A   1      48.334  24.344  27.289  1.00  0.00     0.065 H 
ATOM     95  H   UNL A   1      39.640  26.200  28.024  1.00  0.00     0.065 H 
ATOM     96  C   UNL A   1      41.209  28.499  28.639  1.00  0.00     0.037 A 
ATOM     97  C   UNL A   1      47.720  28.458  28.148  1.00  0.00     0.049 A 
ATOM     98  C   UNL A   1      42.264  29.547  28.854  1.00  0.00     0.074 A 
ATOM     99  C   UNL A   1      48.588  29.525  28.293  1.00  0.00    -0.036 A 
ATOM    100  N   UNL A   1      46.443  28.947  28.395  1.00  0.00    -0.354 N 
ATOM    101  N   UNL A   1      43.564  29.451  28.717  1.00  0.00    -0.248 NA
ATOM    102  C   UNL A   1      41.801  30.875  29.275  1.00  0.00    -0.034 C 
ATOM    103  C   UNL A   1      47.845  30.643  28.690  1.00  0.00    -0.036 A 
ATOM    104  H   UNL A   1      49.607  29.500  28.138  1.00  0.00     0.065 H 
ATOM    105  C   UNL A   1      46.505  30.291  28.728  1.00  0.00     0.049 A 
ATOM    106  H   UNL A   1      45.615  28.416  28.340  1.00  0.00     0.167 HD
ATOM    107  C   UNL A   1      44.075  30.706  29.019  1.00  0.00     0.074 A 
ATOM    108  C   UNL A   1      42.939  31.554  29.324  1.00  0.00    -0.034 C 
ATOM    109  H   UNL A   1      40.841  31.197  29.479  1.00  0.00     0.065 H 
ATOM    110  H   UNL A   1      48.231  31.574  28.914  1.00  0.00     0.065 H 
ATOM    111  C   UNL A   1      45.366  31.119  29.044  1.00  0.00     0.037 A 
ATOM    112  H   UNL A   1      43.008  32.558  29.551  1.00  0.00     0.065 H 
BRANCH  93 113
ATOM    113  C   UNL A   1      49.464  26.684  27.675  1.00  0.00     0.064 A 
ATOM    114  C   UNL A   1      50.267  26.391  28.790  1.00  0.00     0.173 A 
ATOM    115  C   UNL A   1      50.052  26.583  26.406  1.00  0.00     0.173 A 
ATOM    116  F   UNL A   1      49.759  26.481  30.030  1.00  0.00    -0.203 F 
ATOM    117  C   UNL A   1      51.611  26.061  28.643  1.00  0.00     0.198 A 
ATOM    118  C   UNL A   1      51.388  26.215  26.260  1.00  0.00     0.198 A 
ATOM    119  F   UNL A   1      49.333  26.842  25.303  1.00  0.00    -0.203 F 
ATOM    120  F   UNL A   1      52.372  25.856  29.727  1.00  0.00    -0.200 F 
ATOM    121  C   UNL A   1      52.169  25.968  27.378  1.00  0.00     0.200 A 
ATOM    122  F   UNL A   1      51.922  26.109  25.034  1.00  0.00    -0.200 F 
ATOM    123  F   UNL A   1      53.464  25.650  27.236  1.00  0.00    -0.200 F 
ENDBRANCH  93 113
BRANCH  96 124
ATOM    124  C   UNL A   1      39.770  28.790  28.866  1.00  0.00     0.064 A 
ATOM    125  C   UNL A   1      38.950  29.247  27.825  1.00  0.00     0.173 A 
ATOM    126  C   UNL A   1      39.178  28.587  30.122  1.00  0.00     0.173 A 
ATOM    127  F   UNL A   1      39.474  29.473  26.611  1.00  0.00    -0.203 F 
ATOM    128  C   UNL A   1      37.596  29.499  28.033  1.00  0.00     0.198 A 
ATOM    129  C   UNL A   1      37.817  28.810  30.322  1.00  0.00     0.198 A 
ATOM    130  F   UNL A   1      39.916  28.143  31.149  1.00  0.00    -0.203 F 
ATOM    131  F   UNL A   1      36.842  29.968  27.030  1.00  0.00    -0.200 F 
ATOM    132  C   UNL A   1      37.028  29.272  29.278  1.00  0.00     0.200 A 
ATOM    133  F   UNL A   1      37.270  28.570  31.521  1.00  0.00    -0.200 F 
ATOM    134  F   UNL A   1      35.722  29.499  29.474  1.00  0.00    -0.200 F 
ENDBRANCH  96 124
BRANCH 111 135
ATOM    135  C   UNL A   1      45.622  32.554  29.406  1.00  0.00     0.064 A 
ATOM    136  C   UNL A   1      45.624  33.569  28.437  1.00  0.00     0.173 A 
ATOM    137  C   UNL A   1      45.832  32.926  30.743  1.00  0.00     0.173 A 
ATOM    138  F   UNL A   1      45.446  33.266  27.142  1.00  0.00    -0.203 F 
ATOM    139  C   UNL A   1      45.852  34.897  28.789  1.00  0.00     0.198 A 
ATOM    140  C   UNL A   1      46.026  34.259  31.096  1.00  0.00     0.198 A 
ATOM    141  F   UNL A   1      45.834  31.997  31.711  1.00  0.00    -0.203 F 
ATOM    142  F   UNL A   1      45.902  35.841  27.839  1.00  0.00    -0.200 F 
ATOM    143  C   UNL A   1      46.043  35.241  30.118  1.00  0.00     0.200 A 
ATOM    144  F   UNL A   1      46.194  34.591  32.383  1.00  0.00    -0.200 F 
ATOM    145  F   UNL A   1      46.254  36.521  30.457  1.00  0.00    -0.200 F 
ENDBRANCH 111 135
ENDBRANCH  76  79
ENDBRANCH  66  69
ENDBRANCH  62  65
ENDBRANCH  59  62
ENDBRANCH  56  59
ENDBRANCH  53  56
ENDBRANCH  50  53
ENDBRANCH   1  50
TORSDOF 25
ENDMDL
MODEL 6
REMARK VINA RESULT:     -10.1      5.159     10.912
REMARK SMILES CC(C)C[C@H](NC(=O)CNC(=O)[C@@H]([NH3+])C(C)C)C(=O)NCCCCCCNC(=O)c1ccc(-c2c3nc(c(-c4c(F)c(F)c(F)c(F)c4F)c4ccc([nH]4)c(-c4c(F)c(F)c(F)c(F)c4F)c4nc(c(-c5c(F)c(F)c(F)c(F)c5F)c5ccc2[nH]5)C=C4)C=C3)cc1
REMARK SMILES IDX 21 1 20 4 18 5 19 6 5 8 4 10 2 13 1 15 3 19 6 23 7 24 8 26
REMARK SMILES IDX 9 27 10 30 11 31 12 33 13 34 14 36 15 40 16 42 17 46 22 50
REMARK SMILES IDX 23 53 24 56 25 59 26 62 27 65 28 66 29 68 30 69 31 70 92 71
REMARK SMILES IDX 32 72 91 74 33 76 34 79 35 80 85 81 36 82 90 83 84 84 86 85
REMARK SMILES IDX 37 86 89 87 83 89 82 91 38 93 70 96 50 97 69 98 51 99 54 100
REMARK SMILES IDX 68 101 87 102 52 103 53 105 67 107 88 108 55 111 39 113
REMARK SMILES IDX 40 114 48 115 41 116 42 117 46 118 49 119 43 120 44 121
REMARK SMILES IDX 47 122 45 123 71 124 72 125 80 126 73 127 74 128 78 129
REMARK SMILES IDX 81 130 75 131 76 132 79 133 77 134 56 135 57 136 65 137
REMARK SMILES IDX 58 138 59 139 63 140 66 141 60 142 61 143 64 144 62 145
REMARK H PARENT 21 2 21 3 20 7 5 9 4 11 4 12 2 14 1 16 1 17 1 18 3 20 3 21
REMARK H PARENT 3 22 6 25 9 28 9 29 10 32 13 35 14 37 14 38 14 39 15 41 16 43
REMARK H PARENT 16 44 16 45 17 47 17 48 17 49 22 51 22 52 23 54 23 55 24 57
REMARK H PARENT 24 58 25 60 25 61 26 63 26 64 27 67 31 73 92 75 32 77 91 78
REMARK H PARENT 90 88 84 90 86 92 89 94 83 95 51 104 54 106 87 109 52 110
REMARK H PARENT 88 112
REMARK Flexibility Score: inf
ROOT
ATOM      1  C   UNL A   1      31.042  27.073  26.287  1.00  0.00     0.017 C 
ATOM      2  H   UNL A   1      30.133  27.576  26.034  1.00  0.00     0.049 H 
ATOM      3  H   UNL A   1      31.638  26.913  25.413  1.00  0.00     0.049 H 
ENDROOT
BRANCH   1   4
ATOM      4  N   UNL A   1      30.727  25.789  26.871  1.00  0.00    -0.354 N 
ATOM      5  C   UNL A   1      30.983  24.531  26.420  1.00  0.00     0.242 C 
ATOM      6  O   UNL A   1      30.733  23.590  27.180  1.00  0.00    -0.273 OA
ATOM      7  H   UNL A   1      30.252  25.831  27.732  1.00  0.00     0.163 HD
BRANCH   5   8
ATOM      8  C   UNL A   1      31.679  24.289  25.070  1.00  0.00     0.108 C 
ATOM      9  H   UNL A   1      31.421  25.118  24.445  1.00  0.00     0.063 H 
BRANCH   8  10
ATOM     10  C   UNL A   1      31.148  23.040  24.349  1.00  0.00    -0.021 C 
ATOM     11  H   UNL A   1      30.406  22.585  24.970  1.00  0.00     0.030 H 
ATOM     12  H   UNL A   1      30.760  23.373  23.409  1.00  0.00     0.030 H 
BRANCH  10  13
ATOM     13  C   UNL A   1      32.229  21.977  24.028  1.00  0.00    -0.045 C 
ATOM     14  H   UNL A   1      33.176  22.439  24.215  1.00  0.00     0.030 H 
BRANCH  13  15
ATOM     15  C   UNL A   1      32.138  20.741  24.919  1.00  0.00    -0.063 C 
ATOM     16  H   UNL A   1      31.741  19.923  24.354  1.00  0.00     0.023 H 
ATOM     17  H   UNL A   1      31.495  20.945  25.749  1.00  0.00     0.023 H 
ATOM     18  H   UNL A   1      33.113  20.487  25.277  1.00  0.00     0.023 H 
ENDBRANCH  13  15
BRANCH  13  19
ATOM     19  C   UNL A   1      32.109  21.544  22.567  1.00  0.00    -0.063 C 
ATOM     20  H   UNL A   1      32.370  20.511  22.479  1.00  0.00     0.023 H 
ATOM     21  H   UNL A   1      32.772  22.132  21.965  1.00  0.00     0.023 H 
ATOM     22  H   UNL A   1      31.103  21.688  22.233  1.00  0.00     0.023 H 
ENDBRANCH  13  19
ENDBRANCH  10  13
ENDBRANCH   8  10
BRANCH   8  23
ATOM     23  N   UNL A   1      33.138  24.306  25.180  1.00  0.00    -0.343 N 
ATOM     24  C   UNL A   1      34.039  25.233  24.750  1.00  0.00     0.240 C 
ATOM     25  H   UNL A   1      33.530  23.527  25.635  1.00  0.00     0.164 HD
ATOM     26  O   UNL A   1      35.192  25.118  25.183  1.00  0.00    -0.273 OA
BRANCH  24  27
ATOM     27  C   UNL A   1      33.648  26.448  23.898  1.00  0.00     0.097 C 
ATOM     28  H   UNL A   1      34.547  26.932  23.581  1.00  0.00     0.059 H 
ATOM     29  H   UNL A   1      33.026  27.057  24.522  1.00  0.00     0.059 H 
BRANCH  27  30
ATOM     30  N   UNL A   1      32.858  26.155  22.715  1.00  0.00    -0.342 N 
ATOM     31  C   UNL A   1      31.830  26.844  22.147  1.00  0.00     0.278 C 
ATOM     32  H   UNL A   1      33.106  25.326  22.248  1.00  0.00     0.164 HD
ATOM     33  O   UNL A   1      31.380  26.388  21.090  1.00  0.00    -0.268 OA
BRANCH  31  34
ATOM     34  C   UNL A   1      31.263  28.167  22.730  1.00  0.00     0.166 C 
ATOM     35  H   UNL A   1      31.532  28.208  23.764  1.00  0.00     0.107 H 
BRANCH  34  36
ATOM     36  N   UNL A   1      31.871  29.361  22.107  1.00  0.00    -0.347 N 
ATOM     37  H   UNL A   1      31.184  30.113  22.069  1.00  0.00     0.345 HD
ATOM     38  H   UNL A   1      32.179  29.133  21.163  1.00  0.00     0.345 HD
ATOM     39  H   UNL A   1      32.673  29.663  22.662  1.00  0.00     0.345 HD
ENDBRANCH  34  36
BRANCH  34  40
ATOM     40  C   UNL A   1      29.721  28.184  22.647  1.00  0.00     0.015 C 
ATOM     41  H   UNL A   1      29.464  27.994  21.626  1.00  0.00     0.036 H 
BRANCH  40  42
ATOM     42  C   UNL A   1      29.124  27.101  23.556  1.00  0.00    -0.057 C 
ATOM     43  H   UNL A   1      28.056  27.158  23.526  1.00  0.00     0.024 H 
ATOM     44  H   UNL A   1      29.461  27.251  24.560  1.00  0.00     0.024 H 
ATOM     45  H   UNL A   1      29.438  26.136  23.215  1.00  0.00     0.024 H 
ENDBRANCH  40  42
BRANCH  40  46
ATOM     46  C   UNL A   1      29.140  29.542  23.057  1.00  0.00    -0.057 C 
ATOM     47  H   UNL A   1      29.632  29.890  23.941  1.00  0.00     0.024 H 
ATOM     48  H   UNL A   1      28.092  29.439  23.250  1.00  0.00     0.024 H 
ATOM     49  H   UNL A   1      29.288  30.248  22.266  1.00  0.00     0.024 H 
ENDBRANCH  40  46
ENDBRANCH  34  40
ENDBRANCH  31  34
ENDBRANCH  27  30
ENDBRANCH  24  27
ENDBRANCH   8  23
ENDBRANCH   5   8
ENDBRANCH   1   4
BRANCH   1  50
ATOM     50  C   UNL A   1      31.833  27.936  27.262  1.00  0.00    -0.036 C 
ATOM     51  H   UNL A   1      32.568  27.320  27.739  1.00  0.00     0.028 H 
ATOM     52  H   UNL A   1      31.131  28.346  27.956  1.00  0.00     0.028 H 
BRANCH  50  53
ATOM     53  C   UNL A   1      32.550  29.117  26.599  1.00  0.00    -0.052 C 
ATOM     54  H   UNL A   1      33.363  28.730  26.020  1.00  0.00     0.027 H 
ATOM     55  H   UNL A   1      32.866  29.761  27.392  1.00  0.00     0.027 H 
BRANCH  53  56
ATOM     56  C   UNL A   1      31.669  29.967  25.676  1.00  0.00    -0.052 C 
ATOM     57  H   UNL A   1      30.726  29.473  25.569  1.00  0.00     0.027 H 
ATOM     58  H   UNL A   1      32.204  30.061  24.754  1.00  0.00     0.027 H 
BRANCH  56  59
ATOM     59  C   UNL A   1      31.407  31.392  26.168  1.00  0.00    -0.036 C 
ATOM     60  H   UNL A   1      30.386  31.454  26.482  1.00  0.00     0.028 H 
ATOM     61  H   UNL A   1      31.632  32.044  25.351  1.00  0.00     0.028 H 
BRANCH  59  62
ATOM     62  C   UNL A   1      32.290  31.825  27.331  1.00  0.00     0.018 C 
ATOM     63  H   UNL A   1      33.243  31.349  27.239  1.00  0.00     0.049 H 
ATOM     64  H   UNL A   1      31.802  31.542  28.240  1.00  0.00     0.049 H 
BRANCH  62  65
ATOM     65  N   UNL A   1      32.485  33.265  27.356  1.00  0.00    -0.352 N 
ATOM     66  C   UNL A   1      33.463  33.992  27.980  1.00  0.00     0.251 C 
ATOM     67  H   UNL A   1      31.820  33.792  26.855  1.00  0.00     0.163 HD
ATOM     68  O   UNL A   1      33.367  35.213  28.077  1.00  0.00    -0.269 OA
BRANCH  66  69
ATOM     69  C   UNL A   1      34.628  33.294  28.558  1.00  0.00     0.039 A 
ATOM     70  C   UNL A   1      35.880  33.906  28.491  1.00  0.00    -0.049 A 
ATOM     71  C   UNL A   1      34.478  32.051  29.182  1.00  0.00    -0.049 A 
ATOM     72  C   UNL A   1      36.975  33.299  29.104  1.00  0.00    -0.053 A 
ATOM     73  H   UNL A   1      35.995  34.802  27.990  1.00  0.00     0.063 H 
ATOM     74  C   UNL A   1      35.553  31.487  29.862  1.00  0.00    -0.053 A 
ATOM     75  H   UNL A   1      33.574  31.556  29.139  1.00  0.00     0.063 H 
ATOM     76  C   UNL A   1      36.811  32.106  29.828  1.00  0.00    -0.014 A 
ATOM     77  H   UNL A   1      37.911  33.728  29.026  1.00  0.00     0.063 H 
ATOM     78  H   UNL A   1      35.424  30.612  30.391  1.00  0.00     0.063 H 
BRANCH  76  79
ATOM     79  C   UNL A   1      37.944  31.507  30.576  1.00  0.00     0.031 A 
ATOM     80  C   UNL A   1      38.827  30.481  29.928  1.00  0.00     0.074 A 
ATOM     81  C   UNL A   1      38.134  31.846  31.865  1.00  0.00     0.049 A 
ATOM     82  N   UNL A   1      39.831  29.814  30.437  1.00  0.00    -0.248 NA
ATOM     83  C   UNL A   1      38.523  30.138  28.530  1.00  0.00    -0.034 C 
ATOM     84  C   UNL A   1      37.305  32.787  32.620  1.00  0.00    -0.036 A 
ATOM     85  N   UNL A   1      39.074  31.427  32.773  1.00  0.00    -0.354 N 
ATOM     86  C   UNL A   1      40.276  28.974  29.425  1.00  0.00     0.074 A 
ATOM     87  C   UNL A   1      39.390  29.164  28.297  1.00  0.00    -0.034 C 
ATOM     88  H   UNL A   1      37.818  30.549  27.897  1.00  0.00     0.065 H 
ATOM     89  C   UNL A   1      37.785  32.890  33.868  1.00  0.00    -0.036 A 
ATOM     90  H   UNL A   1      36.485  33.292  32.250  1.00  0.00     0.065 H 
ATOM     91  C   UNL A   1      38.926  31.991  34.016  1.00  0.00     0.049 A 
ATOM     92  H   UNL A   1      39.788  30.785  32.553  1.00  0.00     0.167 HD
ATOM     93  C   UNL A   1      41.343  28.138  29.428  1.00  0.00     0.037 A 
ATOM     94  H   UNL A   1      39.427  28.615  27.425  1.00  0.00     0.065 H 
ATOM     95  H   UNL A   1      37.408  33.505  34.607  1.00  0.00     0.065 H 
ATOM     96  C   UNL A   1      39.621  31.794  35.152  1.00  0.00     0.037 A 
ATOM     97  C   UNL A   1      42.219  27.952  30.556  1.00  0.00     0.049 A 
ATOM     98  C   UNL A   1      40.785  30.843  35.142  1.00  0.00     0.074 A 
ATOM     99  C   UNL A   1      43.359  27.173  30.647  1.00  0.00    -0.036 A 
ATOM    100  N   UNL A   1      42.041  28.543  31.800  1.00  0.00    -0.354 N 
ATOM    101  N   UNL A   1      41.248  30.114  34.156  1.00  0.00    -0.248 NA
ATOM    102  C   UNL A   1      41.526  30.692  36.400  1.00  0.00    -0.034 C 
ATOM    103  C   UNL A   1      43.833  27.242  31.961  1.00  0.00    -0.036 A 
ATOM    104  H   UNL A   1      43.783  26.632  29.878  1.00  0.00     0.065 H 
ATOM    105  C   UNL A   1      43.029  28.117  32.675  1.00  0.00     0.049 A 
ATOM    106  H   UNL A   1      41.320  29.174  32.028  1.00  0.00     0.167 HD
ATOM    107  C   UNL A   1      42.342  29.429  34.667  1.00  0.00     0.074 A 
ATOM    108  C   UNL A   1      42.487  29.850  36.047  1.00  0.00    -0.034 C 
ATOM    109  H   UNL A   1      41.347  31.127  37.319  1.00  0.00     0.065 H 
ATOM    110  H   UNL A   1      44.647  26.730  32.336  1.00  0.00     0.065 H 
ATOM    111  C   UNL A   1      43.152  28.533  34.051  1.00  0.00     0.037 A 
ATOM    112  H   UNL A   1      43.243  29.533  36.674  1.00  0.00     0.065 H 
BRANCH  93 113
ATOM    113  C   UNL A   1      41.610  27.357  28.171  1.00  0.00     0.064 A 
ATOM    114  C   UNL A   1      42.499  27.820  27.188  1.00  0.00     0.173 A 
ATOM    115  C   UNL A   1      40.974  26.127  27.946  1.00  0.00     0.173 A 
ATOM    116  F   UNL A   1      43.129  28.995  27.347  1.00  0.00    -0.203 F 
ATOM    117  C   UNL A   1      42.704  27.108  26.009  1.00  0.00     0.198 A 
ATOM    118  C   UNL A   1      41.210  25.399  26.783  1.00  0.00     0.198 A 
ATOM    119  F   UNL A   1      40.119  25.630  28.853  1.00  0.00    -0.203 F 
ATOM    120  F   UNL A   1      43.504  27.608  25.058  1.00  0.00    -0.200 F 
ATOM    121  C   UNL A   1      42.063  25.896  25.810  1.00  0.00     0.200 A 
ATOM    122  F   UNL A   1      40.601  24.218  26.598  1.00  0.00    -0.200 F 
ATOM    123  F   UNL A   1      42.261  25.210  24.675  1.00  0.00    -0.200 F 
ENDBRANCH  93 113
BRANCH  96 124
ATOM    124  C   UNL A   1      39.229  32.526  36.384  1.00  0.00     0.064 A 
ATOM    125  C   UNL A   1      38.317  31.974  37.294  1.00  0.00     0.173 A 
ATOM    126  C   UNL A   1      39.784  33.777  36.693  1.00  0.00     0.173 A 
ATOM    127  F   UNL A   1      37.747  30.788  37.035  1.00  0.00    -0.203 F 
ATOM    128  C   UNL A   1      37.967  32.651  38.461  1.00  0.00     0.198 A 
ATOM    129  C   UNL A   1      39.456  34.439  37.874  1.00  0.00     0.198 A 
ATOM    130  F   UNL A   1      40.667  34.344  35.859  1.00  0.00    -0.203 F 
ATOM    131  F   UNL A   1      37.067  32.117  39.298  1.00  0.00    -0.200 F 
ATOM    132  C   UNL A   1      38.543  33.878  38.755  1.00  0.00     0.200 A 
ATOM    133  F   UNL A   1      40.030  35.615  38.162  1.00  0.00    -0.200 F 
ATOM    134  F   UNL A   1      38.218  34.521  39.885  1.00  0.00    -0.200 F 
ENDBRANCH  96 124
BRANCH 111 135
ATOM    135  C   UNL A   1      44.274  27.950  34.862  1.00  0.00     0.064 A 
ATOM    136  C   UNL A   1      45.518  28.591  34.964  1.00  0.00     0.173 A 
ATOM    137  C   UNL A   1      44.093  26.755  35.575  1.00  0.00     0.173 A 
ATOM    138  F   UNL A   1      45.750  29.727  34.289  1.00  0.00    -0.203 F 
ATOM    139  C   UNL A   1      46.546  28.043  35.729  1.00  0.00     0.198 A 
ATOM    140  C   UNL A   1      45.111  26.228  36.365  1.00  0.00     0.198 A 
ATOM    141  F   UNL A   1      42.921  26.104  35.517  1.00  0.00    -0.203 F 
ATOM    142  F   UNL A   1      47.742  28.646  35.769  1.00  0.00    -0.200 F 
ATOM    143  C   UNL A   1      46.338  26.868  36.435  1.00  0.00     0.200 A 
ATOM    144  F   UNL A   1      44.902  25.101  37.060  1.00  0.00    -0.200 F 
ATOM    145  F   UNL A   1      47.325  26.347  37.177  1.00  0.00    -0.200 F 
ENDBRANCH 111 135
ENDBRANCH  76  79
ENDBRANCH  66  69
ENDBRANCH  62  65
ENDBRANCH  59  62
ENDBRANCH  56  59
ENDBRANCH  53  56
ENDBRANCH  50  53
ENDBRANCH   1  50
TORSDOF 25
ENDMDL
MODEL 7
REMARK VINA RESULT:     -10.0      3.574      8.219
REMARK SMILES CC(C)C[C@H](NC(=O)CNC(=O)[C@@H]([NH3+])C(C)C)C(=O)NCCCCCCNC(=O)c1ccc(-c2c3nc(c(-c4c(F)c(F)c(F)c(F)c4F)c4ccc([nH]4)c(-c4c(F)c(F)c(F)c(F)c4F)c4nc(c(-c5c(F)c(F)c(F)c(F)c5F)c5ccc2[nH]5)C=C4)C=C3)cc1
REMARK SMILES IDX 21 1 20 4 18 5 19 6 5 8 4 10 2 13 1 15 3 19 6 23 7 24 8 26
REMARK SMILES IDX 9 27 10 30 11 31 12 33 13 34 14 36 15 40 16 42 17 46 22 50
REMARK SMILES IDX 23 53 24 56 25 59 26 62 27 65 28 66 29 68 30 69 31 70 92 71
REMARK SMILES IDX 32 72 91 74 33 76 34 79 35 80 85 81 36 82 90 83 84 84 86 85
REMARK SMILES IDX 37 86 89 87 83 89 82 91 38 93 70 96 50 97 69 98 51 99 54 100
REMARK SMILES IDX 68 101 87 102 52 103 53 105 67 107 88 108 55 111 39 113
REMARK SMILES IDX 40 114 48 115 41 116 42 117 46 118 49 119 43 120 44 121
REMARK SMILES IDX 47 122 45 123 71 124 72 125 80 126 73 127 74 128 78 129
REMARK SMILES IDX 81 130 75 131 76 132 79 133 77 134 56 135 57 136 65 137
REMARK SMILES IDX 58 138 59 139 63 140 66 141 60 142 61 143 64 144 62 145
REMARK H PARENT 21 2 21 3 20 7 5 9 4 11 4 12 2 14 1 16 1 17 1 18 3 20 3 21
REMARK H PARENT 3 22 6 25 9 28 9 29 10 32 13 35 14 37 14 38 14 39 15 41 16 43
REMARK H PARENT 16 44 16 45 17 47 17 48 17 49 22 51 22 52 23 54 23 55 24 57
REMARK H PARENT 24 58 25 60 25 61 26 63 26 64 27 67 31 73 92 75 32 77 91 78
REMARK H PARENT 90 88 84 90 86 92 89 94 83 95 51 104 54 106 87 109 52 110
REMARK H PARENT 88 112
REMARK Flexibility Score: inf
ROOT
ATOM      1  C   UNL A   1      31.145  25.340  26.140  1.00  0.00     0.017 C 
ATOM      2  H   UNL A   1      30.121  25.611  26.289  1.00  0.00     0.049 H 
ATOM      3  H   UNL A   1      31.285  24.927  25.162  1.00  0.00     0.049 H 
ENDROOT
BRANCH   1   4
ATOM      4  N   UNL A   1      31.519  24.343  27.118  1.00  0.00    -0.354 N 
ATOM      5  C   UNL A   1      32.218  23.186  26.971  1.00  0.00     0.242 C 
ATOM      6  O   UNL A   1      32.530  22.573  27.997  1.00  0.00    -0.273 OA
ATOM      7  H   UNL A   1      31.220  24.533  28.036  1.00  0.00     0.163 HD
BRANCH   5   8
ATOM      8  C   UNL A   1      32.720  22.721  25.593  1.00  0.00     0.108 C 
ATOM      9  H   UNL A   1      32.308  23.401  24.877  1.00  0.00     0.063 H 
BRANCH   8  10
ATOM     10  C   UNL A   1      32.185  21.333  25.209  1.00  0.00    -0.021 C 
ATOM     11  H   UNL A   1      32.422  20.652  25.999  1.00  0.00     0.030 H 
ATOM     12  H   UNL A   1      31.133  21.444  25.054  1.00  0.00     0.030 H 
BRANCH  10  13
ATOM     13  C   UNL A   1      32.767  20.764  23.890  1.00  0.00    -0.045 C 
ATOM     14  H   UNL A   1      33.825  20.919  23.932  1.00  0.00     0.030 H 
BRANCH  13  15
ATOM     15  C   UNL A   1      32.529  19.265  23.727  1.00  0.00    -0.063 C 
ATOM     16  H   UNL A   1      32.149  18.862  24.643  1.00  0.00     0.023 H 
ATOM     17  H   UNL A   1      33.451  18.781  23.481  1.00  0.00     0.023 H 
ATOM     18  H   UNL A   1      31.819  19.100  22.943  1.00  0.00     0.023 H 
ENDBRANCH  13  15
BRANCH  13  19
ATOM     19  C   UNL A   1      32.152  21.496  22.697  1.00  0.00    -0.063 C 
ATOM     20  H   UNL A   1      32.910  22.062  22.197  1.00  0.00     0.023 H 
ATOM     21  H   UNL A   1      31.383  22.156  23.041  1.00  0.00     0.023 H 
ATOM     22  H   UNL A   1      31.733  20.783  22.018  1.00  0.00     0.023 H 
ENDBRANCH  13  19
ENDBRANCH  10  13
ENDBRANCH   8  10
BRANCH   8  23
ATOM     23  N   UNL A   1      34.173  22.828  25.460  1.00  0.00    -0.343 N 
ATOM     24  C   UNL A   1      34.937  23.851  24.984  1.00  0.00     0.240 C 
ATOM     25  H   UNL A   1      34.678  22.039  25.760  1.00  0.00     0.164 HD
ATOM     26  O   UNL A   1      36.151  23.777  25.205  1.00  0.00    -0.273 OA
BRANCH  24  27
ATOM     27  C   UNL A   1      34.342  25.111  24.339  1.00  0.00     0.097 C 
ATOM     28  H   UNL A   1      35.044  25.907  24.461  1.00  0.00     0.059 H 
ATOM     29  H   UNL A   1      33.407  25.280  24.833  1.00  0.00     0.059 H 
BRANCH  27  30
ATOM     30  N   UNL A   1      34.030  25.002  22.925  1.00  0.00    -0.342 N 
ATOM     31  C   UNL A   1      33.327  25.835  22.109  1.00  0.00     0.278 C 
ATOM     32  H   UNL A   1      34.384  24.196  22.485  1.00  0.00     0.164 HD
ATOM     33  O   UNL A   1      33.275  25.521  20.915  1.00  0.00    -0.268 OA
BRANCH  31  34
ATOM     34  C   UNL A   1      32.665  27.152  22.599  1.00  0.00     0.166 C 
ATOM     35  H   UNL A   1      32.835  27.228  23.653  1.00  0.00     0.107 H 
BRANCH  34  36
ATOM     36  N   UNL A   1      33.288  28.351  22.002  1.00  0.00    -0.347 N 
ATOM     37  H   UNL A   1      33.468  29.040  22.731  1.00  0.00     0.345 HD
ATOM     38  H   UNL A   1      32.659  28.749  21.305  1.00  0.00     0.345 HD
ATOM     39  H   UNL A   1      34.168  28.091  21.556  1.00  0.00     0.345 HD
ENDBRANCH  34  36
BRANCH  34  40
ATOM     40  C   UNL A   1      31.137  27.110  22.374  1.00  0.00     0.015 C 
ATOM     41  H   UNL A   1      30.976  27.227  21.323  1.00  0.00     0.036 H 
BRANCH  40  42
ATOM     42  C   UNL A   1      30.561  25.772  22.856  1.00  0.00    -0.057 C 
ATOM     43  H   UNL A   1      29.512  25.880  23.039  1.00  0.00     0.024 H 
ATOM     44  H   UNL A   1      31.053  25.475  23.759  1.00  0.00     0.024 H 
ATOM     45  H   UNL A   1      30.716  25.025  22.104  1.00  0.00     0.024 H 
ENDBRANCH  40  42
BRANCH  40  46
ATOM     46  C   UNL A   1      30.418  28.247  23.112  1.00  0.00    -0.057 C 
ATOM     47  H   UNL A   1      30.174  27.930  24.104  1.00  0.00     0.024 H 
ATOM     48  H   UNL A   1      29.520  28.501  22.587  1.00  0.00     0.024 H 
ATOM     49  H   UNL A   1      31.058  29.104  23.159  1.00  0.00     0.024 H 
ENDBRANCH  40  46
ENDBRANCH  34  40
ENDBRANCH  31  34
ENDBRANCH  27  30
ENDBRANCH  24  27
ENDBRANCH   8  23
ENDBRANCH   5   8
ENDBRANCH   1   4
BRANCH   1  50
ATOM     50  C   UNL A   1      32.013  26.585  26.270  1.00  0.00    -0.036 C 
ATOM     51  H   UNL A   1      32.306  26.896  25.289  1.00  0.00     0.028 H 
ATOM     52  H   UNL A   1      32.850  26.319  26.881  1.00  0.00     0.028 H 
BRANCH  50  53
ATOM     53  C   UNL A   1      31.309  27.758  26.960  1.00  0.00    -0.052 C 
ATOM     54  H   UNL A   1      31.484  27.678  28.012  1.00  0.00     0.027 H 
ATOM     55  H   UNL A   1      30.275  27.685  26.697  1.00  0.00     0.027 H 
BRANCH  53  56
ATOM     56  C   UNL A   1      31.776  29.145  26.503  1.00  0.00    -0.052 C 
ATOM     57  H   UNL A   1      31.698  29.813  27.334  1.00  0.00     0.027 H 
ATOM     58  H   UNL A   1      31.146  29.417  25.681  1.00  0.00     0.027 H 
BRANCH  56  59
ATOM     59  C   UNL A   1      33.213  29.201  25.979  1.00  0.00    -0.036 C 
ATOM     60  H   UNL A   1      33.308  30.068  25.358  1.00  0.00     0.028 H 
ATOM     61  H   UNL A   1      33.381  28.289  25.448  1.00  0.00     0.028 H 
BRANCH  59  62
ATOM     62  C   UNL A   1      34.274  29.276  27.068  1.00  0.00     0.018 C 
ATOM     63  H   UNL A   1      35.241  29.230  26.614  1.00  0.00     0.049 H 
ATOM     64  H   UNL A   1      34.122  28.454  27.736  1.00  0.00     0.049 H 
BRANCH  62  65
ATOM     65  N   UNL A   1      34.175  30.505  27.837  1.00  0.00    -0.352 N 
ATOM     66  C   UNL A   1      35.034  31.004  28.781  1.00  0.00     0.251 C 
ATOM     67  H   UNL A   1      33.378  31.055  27.657  1.00  0.00     0.163 HD
ATOM     68  O   UNL A   1      34.701  31.950  29.489  1.00  0.00    -0.269 OA
BRANCH  66  69
ATOM     69  C   UNL A   1      36.359  30.378  28.957  1.00  0.00     0.039 A 
ATOM     70  C   UNL A   1      37.340  30.595  27.988  1.00  0.00    -0.049 A 
ATOM     71  C   UNL A   1      36.637  29.598  30.084  1.00  0.00    -0.049 A 
ATOM     72  C   UNL A   1      38.620  30.080  28.179  1.00  0.00    -0.053 A 
ATOM     73  H   UNL A   1      37.117  31.133  27.134  1.00  0.00     0.063 H 
ATOM     74  C   UNL A   1      37.935  29.154  30.312  1.00  0.00    -0.053 A 
ATOM     75  H   UNL A   1      35.882  29.354  30.744  1.00  0.00     0.063 H 
ATOM     76  C   UNL A   1      38.939  29.391  29.361  1.00  0.00    -0.014 A 
ATOM     77  H   UNL A   1      39.340  30.206  27.448  1.00  0.00     0.063 H 
ATOM     78  H   UNL A   1      38.161  28.649  31.183  1.00  0.00     0.063 H 
BRANCH  76  79
ATOM     79  C   UNL A   1      40.325  28.932  29.627  1.00  0.00     0.031 A 
ATOM     80  C   UNL A   1      41.288  29.811  30.369  1.00  0.00     0.074 A 
ATOM     81  C   UNL A   1      40.730  27.745  29.138  1.00  0.00     0.049 A 
ATOM     82  N   UNL A   1      42.549  29.602  30.652  1.00  0.00    -0.248 NA
ATOM     83  C   UNL A   1      40.775  31.109  30.831  1.00  0.00    -0.034 C 
ATOM     84  C   UNL A   1      39.901  26.831  28.350  1.00  0.00    -0.036 A 
ATOM     85  N   UNL A   1      41.944  27.110  29.217  1.00  0.00    -0.354 N 
ATOM     86  C   UNL A   1      42.978  30.740  31.322  1.00  0.00     0.074 A 
ATOM     87  C   UNL A   1      41.864  31.664  31.341  1.00  0.00    -0.034 C 
ATOM     88  H   UNL A   1      39.817  31.489  30.774  1.00  0.00     0.065 H 
ATOM     89  C   UNL A   1      40.624  25.745  28.037  1.00  0.00    -0.036 A 
ATOM     90  H   UNL A   1      38.919  26.995  28.081  1.00  0.00     0.065 H 
ATOM     91  C   UNL A   1      41.976  25.905  28.561  1.00  0.00     0.049 A 
ATOM     92  H   UNL A   1      42.717  27.483  29.700  1.00  0.00     0.167 HD
ATOM     93  C   UNL A   1      44.183  30.982  31.891  1.00  0.00     0.037 A 
ATOM     94  H   UNL A   1      41.911  32.628  31.705  1.00  0.00     0.065 H 
ATOM     95  H   UNL A   1      40.279  24.927  27.509  1.00  0.00     0.065 H 
ATOM     96  C   UNL A   1      42.987  25.032  28.389  1.00  0.00     0.037 A 
ATOM     97  C   UNL A   1      45.288  30.058  31.864  1.00  0.00     0.049 A 
ATOM     98  C   UNL A   1      44.325  25.330  29.006  1.00  0.00     0.074 A 
ATOM     99  C   UNL A   1      46.533  30.181  32.456  1.00  0.00    -0.036 A 
ATOM    100  N   UNL A   1      45.285  28.842  31.194  1.00  0.00    -0.354 N 
ATOM    101  N   UNL A   1      44.697  26.374  29.707  1.00  0.00    -0.248 NA
ATOM    102  C   UNL A   1      45.381  24.329  28.813  1.00  0.00    -0.034 C 
ATOM    103  C   UNL A   1      47.303  29.071  32.091  1.00  0.00    -0.036 A 
ATOM    104  H   UNL A   1      46.841  30.958  33.060  1.00  0.00     0.065 H 
ATOM    105  C   UNL A   1      46.518  28.222  31.326  1.00  0.00     0.049 A 
ATOM    106  H   UNL A   1      44.518  28.473  30.698  1.00  0.00     0.167 HD
ATOM    107  C   UNL A   1      46.023  26.149  30.053  1.00  0.00     0.074 A 
ATOM    108  C   UNL A   1      46.382  24.858  29.501  1.00  0.00    -0.034 C 
ATOM    109  H   UNL A   1      45.351  23.445  28.280  1.00  0.00     0.065 H 
ATOM    110  H   UNL A   1      48.289  28.910  32.350  1.00  0.00     0.065 H 
ATOM    111  C   UNL A   1      46.866  26.942  30.759  1.00  0.00     0.037 A 
ATOM    112  H   UNL A   1      47.302  24.407  29.630  1.00  0.00     0.065 H 
BRANCH  93 113
ATOM    113  C   UNL A   1      44.367  32.305  32.580  1.00  0.00     0.064 A 
ATOM    114  C   UNL A   1      44.868  33.428  31.901  1.00  0.00     0.173 A 
ATOM    115  C   UNL A   1      44.034  32.459  33.934  1.00  0.00     0.173 A 
ATOM    116  F   UNL A   1      45.212  33.337  30.607  1.00  0.00    -0.203 F 
ATOM    117  C   UNL A   1      45.074  34.637  32.562  1.00  0.00     0.198 A 
ATOM    118  C   UNL A   1      44.205  33.679  34.582  1.00  0.00     0.198 A 
ATOM    119  F   UNL A   1      43.543  31.424  34.633  1.00  0.00    -0.203 F 
ATOM    120  F   UNL A   1      45.619  35.671  31.908  1.00  0.00    -0.200 F 
ATOM    121  C   UNL A   1      44.738  34.762  33.901  1.00  0.00     0.200 A 
ATOM    122  F   UNL A   1      43.864  33.804  35.874  1.00  0.00    -0.200 F 
ATOM    123  F   UNL A   1      44.936  35.925  34.537  1.00  0.00    -0.200 F 
ENDBRANCH  93 113
BRANCH  96 124
ATOM    124  C   UNL A   1      42.756  23.793  27.603  1.00  0.00     0.064 A 
ATOM    125  C   UNL A   1      42.198  22.652  28.195  1.00  0.00     0.173 A 
ATOM    126  C   UNL A   1      43.059  23.736  26.234  1.00  0.00     0.173 A 
ATOM    127  F   UNL A   1      41.908  22.652  29.505  1.00  0.00    -0.203 F 
ATOM    128  C   UNL A   1      41.962  21.498  27.452  1.00  0.00     0.198 A 
ATOM    129  C   UNL A   1      42.794  22.591  25.484  1.00  0.00     0.198 A 
ATOM    130  F   UNL A   1      43.587  24.803  25.617  1.00  0.00    -0.203 F 
ATOM    131  F   UNL A   1      41.459  20.409  28.050  1.00  0.00    -0.200 F 
ATOM    132  C   UNL A   1      42.251  21.471  26.095  1.00  0.00     0.200 A 
ATOM    133  F   UNL A   1      43.058  22.578  24.171  1.00  0.00    -0.200 F 
ATOM    134  F   UNL A   1      42.008  20.366  25.377  1.00  0.00    -0.200 F 
ENDBRANCH  96 124
BRANCH 111 135
ATOM    135  C   UNL A   1      48.261  26.431  30.985  1.00  0.00     0.064 A 
ATOM    136  C   UNL A   1      48.570  25.585  32.061  1.00  0.00     0.173 A 
ATOM    137  C   UNL A   1      49.295  26.763  30.095  1.00  0.00     0.173 A 
ATOM    138  F   UNL A   1      47.623  25.250  32.950  1.00  0.00    -0.203 F 
ATOM    139  C   UNL A   1      49.866  25.111  32.251  1.00  0.00     0.198 A 
ATOM    140  C   UNL A   1      50.581  26.260  30.269  1.00  0.00     0.198 A 
ATOM    141  F   UNL A   1      49.054  27.564  29.046  1.00  0.00    -0.203 F 
ATOM    142  F   UNL A   1      50.148  24.346  33.314  1.00  0.00    -0.200 F 
ATOM    143  C   UNL A   1      50.867  25.441  31.351  1.00  0.00     0.200 A 
ATOM    144  F   UNL A   1      51.544  26.568  29.389  1.00  0.00    -0.200 F 
ATOM    145  F   UNL A   1      52.112  24.977  31.530  1.00  0.00    -0.200 F 
ENDBRANCH 111 135
ENDBRANCH  76  79
ENDBRANCH  66  69
ENDBRANCH  62  65
ENDBRANCH  59  62
ENDBRANCH  56  59
ENDBRANCH  53  56
ENDBRANCH  50  53
ENDBRANCH   1  50
TORSDOF 25
ENDMDL
MODEL 8
REMARK VINA RESULT:     -10.0      1.551      3.564
REMARK SMILES CC(C)C[C@H](NC(=O)CNC(=O)[C@@H]([NH3+])C(C)C)C(=O)NCCCCCCNC(=O)c1ccc(-c2c3nc(c(-c4c(F)c(F)c(F)c(F)c4F)c4ccc([nH]4)c(-c4c(F)c(F)c(F)c(F)c4F)c4nc(c(-c5c(F)c(F)c(F)c(F)c5F)c5ccc2[nH]5)C=C4)C=C3)cc1
REMARK SMILES IDX 21 1 20 4 18 5 19 6 5 8 4 10 2 13 1 15 3 19 6 23 7 24 8 26
REMARK SMILES IDX 9 27 10 30 11 31 12 33 13 34 14 36 15 40 16 42 17 46 22 50
REMARK SMILES IDX 23 53 24 56 25 59 26 62 27 65 28 66 29 68 30 69 31 70 92 71
REMARK SMILES IDX 32 72 91 74 33 76 34 79 35 80 85 81 36 82 90 83 84 84 86 85
REMARK SMILES IDX 37 86 89 87 83 89 82 91 38 93 70 96 50 97 69 98 51 99 54 100
REMARK SMILES IDX 68 101 87 102 52 103 53 105 67 107 88 108 55 111 39 113
REMARK SMILES IDX 40 114 48 115 41 116 42 117 46 118 49 119 43 120 44 121
REMARK SMILES IDX 47 122 45 123 71 124 72 125 80 126 73 127 74 128 78 129
REMARK SMILES IDX 81 130 75 131 76 132 79 133 77 134 56 135 57 136 65 137
REMARK SMILES IDX 58 138 59 139 63 140 66 141 60 142 61 143 64 144 62 145
REMARK H PARENT 21 2 21 3 20 7 5 9 4 11 4 12 2 14 1 16 1 17 1 18 3 20 3 21
REMARK H PARENT 3 22 6 25 9 28 9 29 10 32 13 35 14 37 14 38 14 39 15 41 16 43
REMARK H PARENT 16 44 16 45 17 47 17 48 17 49 22 51 22 52 23 54 23 55 24 57
REMARK H PARENT 24 58 25 60 25 61 26 63 26 64 27 67 31 73 92 75 32 77 91 78
REMARK H PARENT 90 88 84 90 86 92 89 94 83 95 51 104 54 106 87 109 52 110
REMARK H PARENT 88 112
REMARK Flexibility Score: inf
ROOT
ATOM      1  C   UNL A   1      35.275  22.232  24.455  1.00  0.00     0.017 C 
ATOM      2  H   UNL A   1      34.895  23.190  24.744  1.00  0.00     0.049 H 
ATOM      3  H   UNL A   1      35.879  22.318  23.576  1.00  0.00     0.049 H 
ENDROOT
BRANCH   1   4
ATOM      4  N   UNL A   1      34.166  21.350  24.167  1.00  0.00    -0.354 N 
ATOM      5  C   UNL A   1      32.878  21.636  23.836  1.00  0.00     0.242 C 
ATOM      6  O   UNL A   1      32.153  20.695  23.498  1.00  0.00    -0.273 OA
ATOM      7  H   UNL A   1      34.377  20.391  24.220  1.00  0.00     0.163 HD
BRANCH   5   8
ATOM      8  C   UNL A   1      32.374  23.088  23.755  1.00  0.00     0.108 C 
ATOM      9  H   UNL A   1      33.034  23.671  24.362  1.00  0.00     0.063 H 
BRANCH   8  10
ATOM     10  C   UNL A   1      30.977  23.261  24.369  1.00  0.00    -0.021 C 
ATOM     11  H   UNL A   1      30.390  23.859  23.704  1.00  0.00     0.030 H 
ATOM     12  H   UNL A   1      30.580  22.277  24.508  1.00  0.00     0.030 H 
BRANCH  10  13
ATOM     13  C   UNL A   1      30.968  23.939  25.762  1.00  0.00    -0.045 C 
ATOM     14  H   UNL A   1      30.307  24.777  25.689  1.00  0.00     0.030 H 
BRANCH  13  15
ATOM     15  C   UNL A   1      30.438  23.031  26.869  1.00  0.00    -0.063 C 
ATOM     16  H   UNL A   1      30.648  23.470  27.822  1.00  0.00     0.023 H 
ATOM     17  H   UNL A   1      30.913  22.075  26.805  1.00  0.00     0.023 H 
ATOM     18  H   UNL A   1      29.380  22.912  26.757  1.00  0.00     0.023 H 
ENDBRANCH  13  15
BRANCH  13  19
ATOM     19  C   UNL A   1      32.384  24.388  26.127  1.00  0.00    -0.063 C 
ATOM     20  H   UNL A   1      33.090  23.670  25.764  1.00  0.00     0.023 H 
ATOM     21  H   UNL A   1      32.470  24.467  27.191  1.00  0.00     0.023 H 
ATOM     22  H   UNL A   1      32.583  25.340  25.681  1.00  0.00     0.023 H 
ENDBRANCH  13  19
ENDBRANCH  10  13
ENDBRANCH   8  10
BRANCH   8  23
ATOM     23  N   UNL A   1      32.475  23.642  22.404  1.00  0.00    -0.343 N 
ATOM     24  C   UNL A   1      33.063  24.791  21.970  1.00  0.00     0.240 C 
ATOM     25  H   UNL A   1      32.052  23.100  21.700  1.00  0.00     0.164 HD
ATOM     26  O   UNL A   1      33.213  24.902  20.747  1.00  0.00    -0.273 OA
BRANCH  24  27
ATOM     27  C   UNL A   1      33.653  25.841  22.921  1.00  0.00     0.097 C 
ATOM     28  H   UNL A   1      34.697  25.638  23.031  1.00  0.00     0.059 H 
ATOM     29  H   UNL A   1      33.097  25.756  23.832  1.00  0.00     0.059 H 
BRANCH  27  30
ATOM     30  N   UNL A   1      33.509  27.222  22.496  1.00  0.00    -0.342 N 
ATOM     31  C   UNL A   1      32.593  28.165  22.851  1.00  0.00     0.278 C 
ATOM     32  H   UNL A   1      34.182  27.526  21.846  1.00  0.00     0.164 HD
ATOM     33  O   UNL A   1      32.752  29.294  22.375  1.00  0.00    -0.268 OA
BRANCH  31  34
ATOM     34  C   UNL A   1      31.431  27.895  23.846  1.00  0.00     0.166 C 
ATOM     35  H   UNL A   1      31.687  27.026  24.415  1.00  0.00     0.107 H 
BRANCH  34  36
ATOM     36  N   UNL A   1      31.267  28.986  24.828  1.00  0.00    -0.347 N 
ATOM     37  H   UNL A   1      32.160  29.460  24.963  1.00  0.00     0.345 HD
ATOM     38  H   UNL A   1      30.950  28.600  25.716  1.00  0.00     0.345 HD
ATOM     39  H   UNL A   1      30.577  29.654  24.483  1.00  0.00     0.345 HD
ENDBRANCH  34  36
BRANCH  34  40
ATOM     40  C   UNL A   1      30.122  27.587  23.086  1.00  0.00     0.015 C 
ATOM     41  H   UNL A   1      30.404  27.162  22.145  1.00  0.00     0.036 H 
BRANCH  40  42
ATOM     42  C   UNL A   1      29.261  26.597  23.881  1.00  0.00    -0.057 C 
ATOM     43  H   UNL A   1      28.316  26.475  23.394  1.00  0.00     0.024 H 
ATOM     44  H   UNL A   1      29.107  26.972  24.871  1.00  0.00     0.024 H 
ATOM     45  H   UNL A   1      29.760  25.651  23.932  1.00  0.00     0.024 H 
ENDBRANCH  40  42
BRANCH  40  46
ATOM     46  C   UNL A   1      29.299  28.855  22.827  1.00  0.00    -0.057 C 
ATOM     47  H   UNL A   1      28.367  28.589  22.373  1.00  0.00     0.024 H 
ATOM     48  H   UNL A   1      29.842  29.506  22.172  1.00  0.00     0.024 H 
ATOM     49  H   UNL A   1      29.113  29.356  23.754  1.00  0.00     0.024 H 
ENDBRANCH  40  46
ENDBRANCH  34  40
ENDBRANCH  31  34
ENDBRANCH  27  30
ENDBRANCH  24  27
ENDBRANCH   8  23
ENDBRANCH   5   8
ENDBRANCH   1   4
BRANCH   1  50
ATOM     50  C   UNL A   1      36.135  21.677  25.583  1.00  0.00    -0.036 C 
ATOM     51  H   UNL A   1      35.628  20.838  26.013  1.00  0.00     0.028 H 
ATOM     52  H   UNL A   1      36.279  22.471  26.285  1.00  0.00     0.028 H 
BRANCH  50  53
ATOM     53  C   UNL A   1      37.526  21.221  25.131  1.00  0.00    -0.052 C 
ATOM     54  H   UNL A   1      38.194  21.317  25.962  1.00  0.00     0.027 H 
ATOM     55  H   UNL A   1      37.792  21.842  24.302  1.00  0.00     0.027 H 
BRANCH  53  56
ATOM     56  C   UNL A   1      37.595  19.775  24.627  1.00  0.00    -0.052 C 
ATOM     57  H   UNL A   1      37.882  19.794  23.597  1.00  0.00     0.027 H 
ATOM     58  H   UNL A   1      36.624  19.354  24.789  1.00  0.00     0.027 H 
BRANCH  56  59
ATOM     59  C   UNL A   1      38.582  18.877  25.379  1.00  0.00    -0.036 C 
ATOM     60  H   UNL A   1      39.042  18.221  24.670  1.00  0.00     0.028 H 
ATOM     61  H   UNL A   1      38.017  18.357  26.123  1.00  0.00     0.028 H 
BRANCH  59  62
ATOM     62  C   UNL A   1      39.682  19.632  26.113  1.00  0.00     0.018 C 
ATOM     63  H   UNL A   1      39.375  19.796  27.124  1.00  0.00     0.049 H 
ATOM     64  H   UNL A   1      39.843  20.559  25.604  1.00  0.00     0.049 H 
BRANCH  62  65
ATOM     65  N   UNL A   1      40.935  18.897  26.115  1.00  0.00    -0.352 N 
ATOM     66  C   UNL A   1      42.217  19.377  26.149  1.00  0.00     0.251 C 
ATOM     67  H   UNL A   1      40.851  17.915  26.088  1.00  0.00     0.163 HD
ATOM     68  O   UNL A   1      43.168  18.630  25.935  1.00  0.00    -0.269 OA
BRANCH  66  69
ATOM     69  C   UNL A   1      42.447  20.809  26.421  1.00  0.00     0.039 A 
ATOM     70  C   UNL A   1      42.625  21.222  27.743  1.00  0.00    -0.049 A 
ATOM     71  C   UNL A   1      42.507  21.736  25.375  1.00  0.00    -0.049 A 
ATOM     72  C   UNL A   1      42.925  22.557  28.011  1.00  0.00    -0.053 A 
ATOM     73  H   UNL A   1      42.535  20.544  28.516  1.00  0.00     0.063 H 
ATOM     74  C   UNL A   1      42.886  23.048  25.637  1.00  0.00    -0.053 A 
ATOM     75  H   UNL A   1      42.273  21.445  24.413  1.00  0.00     0.063 H 
ATOM     76  C   UNL A   1      43.097  23.470  26.957  1.00  0.00    -0.014 A 
ATOM     77  H   UNL A   1      43.021  22.875  28.989  1.00  0.00     0.063 H 
ATOM     78  H   UNL A   1      43.010  23.712  24.858  1.00  0.00     0.063 H 
BRANCH  76  79
ATOM     79  C   UNL A   1      43.523  24.867  27.222  1.00  0.00     0.031 A 
ATOM     80  C   UNL A   1      42.551  25.867  27.775  1.00  0.00     0.074 A 
ATOM     81  C   UNL A   1      44.775  25.245  26.902  1.00  0.00     0.049 A 
ATOM     82  N   UNL A   1      42.726  27.140  28.025  1.00  0.00    -0.248 NA
ATOM     83  C   UNL A   1      41.193  25.380  28.057  1.00  0.00    -0.034 C 
ATOM     84  C   UNL A   1      45.791  24.377  26.304  1.00  0.00    -0.036 A 
ATOM     85  N   UNL A   1      45.402  26.460  27.018  1.00  0.00    -0.354 N 
ATOM     86  C   UNL A   1      41.504  27.604  28.491  1.00  0.00     0.074 A 
ATOM     87  C   UNL A   1      40.577  26.495  28.424  1.00  0.00    -0.034 C 
ATOM     88  H   UNL A   1      40.817  24.421  27.989  1.00  0.00     0.065 H 
ATOM     89  C   UNL A   1      46.919  25.081  26.125  1.00  0.00    -0.036 A 
ATOM     90  H   UNL A   1      45.660  23.383  26.061  1.00  0.00     0.065 H 
ATOM     91  C   UNL A   1      46.694  26.458  26.553  1.00  0.00     0.049 A 
ATOM     92  H   UNL A   1      44.967  27.257  27.400  1.00  0.00     0.167 HD
ATOM     93  C   UNL A   1      41.190  28.837  28.958  1.00  0.00     0.037 A 
ATOM     94  H   UNL A   1      39.570  26.561  28.633  1.00  0.00     0.065 H 
ATOM     95  H   UNL A   1      47.804  24.709  25.746  1.00  0.00     0.065 H 
ATOM     96  C   UNL A   1      47.592  27.457  26.468  1.00  0.00     0.037 A 
ATOM     97  C   UNL A   1      42.117  29.937  29.019  1.00  0.00     0.049 A 
ATOM     98  C   UNL A   1      47.216  28.824  26.966  1.00  0.00     0.074 A 
ATOM     99  C   UNL A   1      41.918  31.209  29.525  1.00  0.00    -0.036 A 
ATOM    100  N   UNL A   1      43.421  29.898  28.544  1.00  0.00    -0.354 N 
ATOM    101  N   UNL A   1      46.081  29.233  27.481  1.00  0.00    -0.248 NA
ATOM    102  C   UNL A   1      48.245  29.867  26.877  1.00  0.00    -0.034 C 
ATOM    103  C   UNL A   1      43.078  31.958  29.297  1.00  0.00    -0.036 A 
ATOM    104  H   UNL A   1      41.060  31.548  29.987  1.00  0.00     0.065 H 
ATOM    105  C   UNL A   1      44.026  31.135  28.710  1.00  0.00     0.049 A 
ATOM    106  H   UNL A   1      43.854  29.107  28.147  1.00  0.00     0.167 HD
ATOM    107  C   UNL A   1      46.263  30.574  27.793  1.00  0.00     0.074 A 
ATOM    108  C   UNL A   1      47.627  30.903  27.428  1.00  0.00    -0.034 C 
ATOM    109  H   UNL A   1      49.199  29.810  26.488  1.00  0.00     0.065 H 
ATOM    110  H   UNL A   1      43.206  32.955  29.529  1.00  0.00     0.065 H 
ATOM    111  C   UNL A   1      45.380  31.452  28.328  1.00  0.00     0.037 A 
ATOM    112  H   UNL A   1      48.061  31.826  27.579  1.00  0.00     0.065 H 
BRANCH  93 113
ATOM    113  C   UNL A   1      39.778  29.056  29.428  1.00  0.00     0.064 A 
ATOM    114  C   UNL A   1      39.405  28.852  30.766  1.00  0.00     0.173 A 
ATOM    115  C   UNL A   1      38.785  29.481  28.533  1.00  0.00     0.173 A 
ATOM    116  F   UNL A   1      40.313  28.436  31.664  1.00  0.00    -0.203 F 
ATOM    117  C   UNL A   1      38.086  29.017  31.179  1.00  0.00     0.198 A 
ATOM    118  C   UNL A   1      37.474  29.683  28.958  1.00  0.00     0.198 A 
ATOM    119  F   UNL A   1      39.084  29.701  27.244  1.00  0.00    -0.203 F 
ATOM    120  F   UNL A   1      37.743  28.747  32.446  1.00  0.00    -0.200 F 
ATOM    121  C   UNL A   1      37.122  29.437  30.276  1.00  0.00     0.200 A 
ATOM    122  F   UNL A   1      36.546  30.105  28.086  1.00  0.00    -0.200 F 
ATOM    123  F   UNL A   1      35.852  29.595  30.673  1.00  0.00    -0.200 F 
ENDBRANCH  93 113
BRANCH  96 124
ATOM    124  C   UNL A   1      48.934  27.186  25.892  1.00  0.00     0.064 A 
ATOM    125  C   UNL A   1      49.997  26.760  26.700  1.00  0.00     0.173 A 
ATOM    126  C   UNL A   1      49.172  27.315  24.515  1.00  0.00     0.173 A 
ATOM    127  F   UNL A   1      49.823  26.638  28.025  1.00  0.00    -0.203 F 
ATOM    128  C   UNL A   1      51.249  26.484  26.155  1.00  0.00     0.198 A 
ATOM    129  C   UNL A   1      50.417  27.010  23.967  1.00  0.00     0.198 A 
ATOM    130  F   UNL A   1      48.187  27.711  23.697  1.00  0.00    -0.203 F 
ATOM    131  F   UNL A   1      52.258  26.111  26.955  1.00  0.00    -0.200 F 
ATOM    132  C   UNL A   1      51.456  26.600  24.788  1.00  0.00     0.200 A 
ATOM    133  F   UNL A   1      50.605  27.105  22.644  1.00  0.00    -0.200 F 
ATOM    134  F   UNL A   1      52.656  26.319  24.263  1.00  0.00    -0.200 F 
ENDBRANCH  96 124
BRANCH 111 135
ATOM    135  C   UNL A   1      45.864  32.856  28.562  1.00  0.00     0.064 A 
ATOM    136  C   UNL A   1      46.501  33.225  29.756  1.00  0.00     0.173 A 
ATOM    137  C   UNL A   1      45.722  33.834  27.566  1.00  0.00     0.173 A 
ATOM    138  F   UNL A   1      46.647  32.333  30.748  1.00  0.00    -0.203 F 
ATOM    139  C   UNL A   1      46.953  34.528  29.954  1.00  0.00     0.198 A 
ATOM    140  C   UNL A   1      46.205  35.126  27.753  1.00  0.00     0.198 A 
ATOM    141  F   UNL A   1      45.125  33.533  26.402  1.00  0.00    -0.203 F 
ATOM    142  F   UNL A   1      47.511  34.871  31.123  1.00  0.00    -0.200 F 
ATOM    143  C   UNL A   1      46.813  35.473  28.950  1.00  0.00     0.200 A 
ATOM    144  F   UNL A   1      46.083  36.034  26.775  1.00  0.00    -0.200 F 
ATOM    145  F   UNL A   1      47.257  36.724  29.138  1.00  0.00    -0.200 F 
ENDBRANCH 111 135
ENDBRANCH  76  79
ENDBRANCH  66  69
ENDBRANCH  62  65
ENDBRANCH  59  62
ENDBRANCH  56  59
ENDBRANCH  53  56
ENDBRANCH  50  53
ENDBRANCH   1  50
TORSDOF 25
ENDMDL
MODEL 9
REMARK VINA RESULT:      -9.8      2.616      8.684
REMARK SMILES CC(C)C[C@H](NC(=O)CNC(=O)[C@@H]([NH3+])C(C)C)C(=O)NCCCCCCNC(=O)c1ccc(-c2c3nc(c(-c4c(F)c(F)c(F)c(F)c4F)c4ccc([nH]4)c(-c4c(F)c(F)c(F)c(F)c4F)c4nc(c(-c5c(F)c(F)c(F)c(F)c5F)c5ccc2[nH]5)C=C4)C=C3)cc1
REMARK SMILES IDX 21 1 20 4 18 5 19 6 5 8 4 10 2 13 1 15 3 19 6 23 7 24 8 26
REMARK SMILES IDX 9 27 10 30 11 31 12 33 13 34 14 36 15 40 16 42 17 46 22 50
REMARK SMILES IDX 23 53 24 56 25 59 26 62 27 65 28 66 29 68 30 69 31 70 92 71
REMARK SMILES IDX 32 72 91 74 33 76 34 79 35 80 85 81 36 82 90 83 84 84 86 85
REMARK SMILES IDX 37 86 89 87 83 89 82 91 38 93 70 96 50 97 69 98 51 99 54 100
REMARK SMILES IDX 68 101 87 102 52 103 53 105 67 107 88 108 55 111 39 113
REMARK SMILES IDX 40 114 48 115 41 116 42 117 46 118 49 119 43 120 44 121
REMARK SMILES IDX 47 122 45 123 71 124 72 125 80 126 73 127 74 128 78 129
REMARK SMILES IDX 81 130 75 131 76 132 79 133 77 134 56 135 57 136 65 137
REMARK SMILES IDX 58 138 59 139 63 140 66 141 60 142 61 143 64 144 62 145
REMARK H PARENT 21 2 21 3 20 7 5 9 4 11 4 12 2 14 1 16 1 17 1 18 3 20 3 21
REMARK H PARENT 3 22 6 25 9 28 9 29 10 32 13 35 14 37 14 38 14 39 15 41 16 43
REMARK H PARENT 16 44 16 45 17 47 17 48 17 49 22 51 22 52 23 54 23 55 24 57
REMARK H PARENT 24 58 25 60 25 61 26 63 26 64 27 67 31 73 92 75 32 77 91 78
REMARK H PARENT 90 88 84 90 86 92 89 94 83 95 51 104 54 106 87 109 52 110
REMARK H PARENT 88 112
REMARK Flexibility Score: inf
ROOT
ATOM      1  C   UNL A   1      32.044  22.089  24.570  1.00  0.00     0.017 C 
ATOM      2  H   UNL A   1      32.942  22.507  24.167  1.00  0.00     0.049 H 
ATOM      3  H   UNL A   1      31.226  22.239  23.898  1.00  0.00     0.049 H 
ENDROOT
BRANCH   1   4
ATOM      4  N   UNL A   1      31.737  22.742  25.823  1.00  0.00    -0.354 N 
ATOM      5  C   UNL A   1      31.776  24.059  26.159  1.00  0.00     0.242 C 
ATOM      6  O   UNL A   1      31.326  24.381  27.264  1.00  0.00    -0.273 OA
ATOM      7  H   UNL A   1      31.454  22.138  26.546  1.00  0.00     0.163 HD
BRANCH   5   8
ATOM      8  C   UNL A   1      32.240  25.131  25.157  1.00  0.00     0.108 C 
ATOM      9  H   UNL A   1      31.564  25.082  24.329  1.00  0.00     0.063 H 
BRANCH   8  10
ATOM     10  C   UNL A   1      33.632  24.835  24.579  1.00  0.00    -0.021 C 
ATOM     11  H   UNL A   1      34.325  25.531  25.001  1.00  0.00     0.030 H 
ATOM     12  H   UNL A   1      33.856  23.819  24.828  1.00  0.00     0.030 H 
BRANCH  10  13
ATOM     13  C   UNL A   1      33.722  24.939  23.036  1.00  0.00    -0.045 C 
ATOM     14  H   UNL A   1      34.482  24.253  22.728  1.00  0.00     0.030 H 
BRANCH  13  15
ATOM     15  C   UNL A   1      32.429  24.538  22.331  1.00  0.00    -0.063 C 
ATOM     16  H   UNL A   1      31.748  25.363  22.337  1.00  0.00     0.023 H 
ATOM     17  H   UNL A   1      31.985  23.708  22.841  1.00  0.00     0.023 H 
ATOM     18  H   UNL A   1      32.644  24.260  21.320  1.00  0.00     0.023 H 
ENDBRANCH  13  15
BRANCH  13  19
ATOM     19  C   UNL A   1      34.079  26.371  22.635  1.00  0.00    -0.063 C 
ATOM     20  H   UNL A   1      35.137  26.448  22.498  1.00  0.00     0.023 H 
ATOM     21  H   UNL A   1      33.770  27.045  23.407  1.00  0.00     0.023 H 
ATOM     22  H   UNL A   1      33.582  26.621  21.723  1.00  0.00     0.023 H 
ENDBRANCH  13  19
ENDBRANCH  10  13
ENDBRANCH   8  10
BRANCH   8  23
ATOM     23  N   UNL A   1      32.122  26.488  25.692  1.00  0.00    -0.343 N 
ATOM     24  C   UNL A   1      31.591  27.609  25.129  1.00  0.00     0.240 C 
ATOM     25  H   UNL A   1      32.483  26.610  26.599  1.00  0.00     0.164 HD
ATOM     26  O   UNL A   1      31.403  28.566  25.889  1.00  0.00    -0.273 OA
BRANCH  24  27
ATOM     27  C   UNL A   1      31.106  27.667  23.674  1.00  0.00     0.097 C 
ATOM     28  H   UNL A   1      31.520  26.829  23.155  1.00  0.00     0.059 H 
ATOM     29  H   UNL A   1      31.431  28.614  23.294  1.00  0.00     0.059 H 
BRANCH  27  30
ATOM     30  N   UNL A   1      29.666  27.638  23.493  1.00  0.00    -0.342 N 
ATOM     31  C   UNL A   1      28.809  28.610  23.075  1.00  0.00     0.278 C 
ATOM     32  H   UNL A   1      29.240  26.777  23.706  1.00  0.00     0.164 HD
ATOM     33  O   UNL A   1      27.624  28.282  22.949  1.00  0.00    -0.268 OA
BRANCH  31  34
ATOM     34  C   UNL A   1      29.264  30.049  22.705  1.00  0.00     0.166 C 
ATOM     35  H   UNL A   1      29.746  30.467  23.564  1.00  0.00     0.107 H 
BRANCH  34  36
ATOM     36  N   UNL A   1      30.276  30.059  21.629  1.00  0.00    -0.347 N 
ATOM     37  H   UNL A   1      31.154  30.429  21.990  1.00  0.00     0.345 HD
ATOM     38  H   UNL A   1      29.950  30.646  20.861  1.00  0.00     0.345 HD
ATOM     39  H   UNL A   1      30.422  29.108  21.290  1.00  0.00     0.345 HD
ENDBRANCH  34  36
BRANCH  34  40
ATOM     40  C   UNL A   1      28.045  30.938  22.375  1.00  0.00     0.015 C 
ATOM     41  H   UNL A   1      27.203  30.284  22.275  1.00  0.00     0.036 H 
BRANCH  40  42
ATOM     42  C   UNL A   1      27.801  31.953  23.499  1.00  0.00    -0.057 C 
ATOM     43  H   UNL A   1      28.637  32.618  23.567  1.00  0.00     0.024 H 
ATOM     44  H   UNL A   1      27.680  31.435  24.428  1.00  0.00     0.024 H 
ATOM     45  H   UNL A   1      26.916  32.515  23.287  1.00  0.00     0.024 H 
ENDBRANCH  40  42
BRANCH  40  46
ATOM     46  C   UNL A   1      28.234  31.701  21.058  1.00  0.00    -0.057 C 
ATOM     47  H   UNL A   1      29.270  31.703  20.791  1.00  0.00     0.024 H 
ATOM     48  H   UNL A   1      27.894  32.709  21.178  1.00  0.00     0.024 H 
ATOM     49  H   UNL A   1      27.668  31.224  20.284  1.00  0.00     0.024 H 
ENDBRANCH  40  46
ENDBRANCH  34  40
ENDBRANCH  31  34
ENDBRANCH  27  30
ENDBRANCH  24  27
ENDBRANCH   8  23
ENDBRANCH   5   8
ENDBRANCH   1   4
BRANCH   1  50
ATOM     50  C   UNL A   1      32.239  20.591  24.771  1.00  0.00    -0.036 C 
ATOM     51  H   UNL A   1      31.707  20.075  23.998  1.00  0.00     0.028 H 
ATOM     52  H   UNL A   1      31.870  20.356  25.747  1.00  0.00     0.028 H 
BRANCH  50  53
ATOM     53  C   UNL A   1      33.705  20.149  24.727  1.00  0.00    -0.052 C 
ATOM     54  H   UNL A   1      33.836  19.513  23.876  1.00  0.00     0.027 H 
ATOM     55  H   UNL A   1      33.898  19.655  25.656  1.00  0.00     0.027 H 
BRANCH  53  56
ATOM     56  C   UNL A   1      34.719  21.294  24.627  1.00  0.00    -0.052 C 
ATOM     57  H   UNL A   1      34.197  22.174  24.313  1.00  0.00     0.027 H 
ATOM     58  H   UNL A   1      35.465  20.974  23.930  1.00  0.00     0.027 H 
BRANCH  56  59
ATOM     59  C   UNL A   1      35.457  21.617  25.928  1.00  0.00    -0.036 C 
ATOM     60  H   UNL A   1      35.550  20.713  26.492  1.00  0.00     0.028 H 
ATOM     61  H   UNL A   1      34.879  22.363  26.431  1.00  0.00     0.028 H 
BRANCH  59  62
ATOM     62  C   UNL A   1      36.849  22.201  25.731  1.00  0.00     0.018 C 
ATOM     63  H   UNL A   1      36.999  22.989  26.437  1.00  0.00     0.049 H 
ATOM     64  H   UNL A   1      36.916  22.565  24.726  1.00  0.00     0.049 H 
BRANCH  62  65
ATOM     65  N   UNL A   1      37.887  21.201  25.916  1.00  0.00    -0.352 N 
ATOM     66  C   UNL A   1      39.208  21.377  26.234  1.00  0.00     0.251 C 
ATOM     67  H   UNL A   1      37.602  20.266  25.794  1.00  0.00     0.163 HD
ATOM     68  O   UNL A   1      40.000  20.442  26.149  1.00  0.00    -0.269 OA
BRANCH  66  69
ATOM     69  C   UNL A   1      39.679  22.709  26.661  1.00  0.00     0.039 A 
ATOM     70  C   UNL A   1      40.677  22.791  27.632  1.00  0.00    -0.049 A 
ATOM     71  C   UNL A   1      39.150  23.871  26.089  1.00  0.00    -0.049 A 
ATOM     72  C   UNL A   1      41.191  24.036  27.987  1.00  0.00    -0.053 A 
ATOM     73  H   UNL A   1      41.033  21.933  28.085  1.00  0.00     0.063 H 
ATOM     74  C   UNL A   1      39.720  25.105  26.384  1.00  0.00    -0.053 A 
ATOM     75  H   UNL A   1      38.342  23.812  25.449  1.00  0.00     0.063 H 
ATOM     76  C   UNL A   1      40.745  25.199  27.336  1.00  0.00    -0.014 A 
ATOM     77  H   UNL A   1      41.904  24.106  28.731  1.00  0.00     0.063 H 
ATOM     78  H   UNL A   1      39.386  25.954  25.902  1.00  0.00     0.063 H 
BRANCH  76  79
ATOM     79  C   UNL A   1      41.360  26.518  27.626  1.00  0.00     0.031 A 
ATOM     80  C   UNL A   1      42.774  26.806  27.214  1.00  0.00     0.074 A 
ATOM     81  C   UNL A   1      40.657  27.434  28.319  1.00  0.00     0.049 A 
ATOM     82  N   UNL A   1      43.494  27.879  27.423  1.00  0.00    -0.248 NA
ATOM     83  C   UNL A   1      43.483  25.735  26.498  1.00  0.00    -0.034 C 
ATOM     84  C   UNL A   1      39.295  27.246  28.823  1.00  0.00    -0.036 A 
ATOM     85  N   UNL A   1      40.995  28.698  28.733  1.00  0.00    -0.354 N 
ATOM     86  C   UNL A   1      44.737  27.611  26.867  1.00  0.00     0.074 A 
ATOM     87  C   UNL A   1      44.696  26.251  26.374  1.00  0.00    -0.034 C 
ATOM     88  H   UNL A   1      43.128  24.821  26.176  1.00  0.00     0.065 H 
ATOM     89  C   UNL A   1      38.907  28.361  29.461  1.00  0.00    -0.036 A 
ATOM     90  H   UNL A   1      38.726  26.394  28.706  1.00  0.00     0.065 H 
ATOM     91  C   UNL A   1      40.004  29.324  29.449  1.00  0.00     0.049 A 
ATOM     92  H   UNL A   1      41.864  29.116  28.535  1.00  0.00     0.167 HD
ATOM     93  C   UNL A   1      45.808  28.434  26.754  1.00  0.00     0.037 A 
ATOM     94  H   UNL A   1      45.505  25.749  25.978  1.00  0.00     0.065 H 
ATOM     95  H   UNL A   1      37.981  28.514  29.891  1.00  0.00     0.065 H 
ATOM     96  C   UNL A   1      39.987  30.532  30.042  1.00  0.00     0.037 A 
ATOM     97  C   UNL A   1      45.842  29.786  27.250  1.00  0.00     0.049 A 
ATOM     98  C   UNL A   1      41.194  31.420  29.929  1.00  0.00     0.074 A 
ATOM     99  C   UNL A   1      46.854  30.723  27.139  1.00  0.00    -0.036 A 
ATOM    100  N   UNL A   1      44.817  30.391  27.967  1.00  0.00    -0.354 N 
ATOM    101  N   UNL A   1      42.337  31.189  29.329  1.00  0.00    -0.248 NA
ATOM    102  C   UNL A   1      41.107  32.739  30.568  1.00  0.00    -0.034 C 
ATOM    103  C   UNL A   1      46.469  31.869  27.843  1.00  0.00    -0.036 A 
ATOM    104  H   UNL A   1      47.741  30.596  26.628  1.00  0.00     0.065 H 
ATOM    105  C   UNL A   1      45.189  31.674  28.337  1.00  0.00     0.049 A 
ATOM    106  H   UNL A   1      43.953  29.970  28.180  1.00  0.00     0.167 HD
ATOM    107  C   UNL A   1      43.100  32.335  29.504  1.00  0.00     0.074 A 
ATOM    108  C   UNL A   1      42.279  33.271  30.248  1.00  0.00    -0.034 C 
ATOM    109  H   UNL A   1      40.337  33.146  31.121  1.00  0.00     0.065 H 
ATOM    110  H   UNL A   1      47.041  32.718  27.971  1.00  0.00     0.065 H 
ATOM    111  C   UNL A   1      44.366  32.589  29.090  1.00  0.00     0.037 A 
ATOM    112  H   UNL A   1      42.570  34.229  30.495  1.00  0.00     0.065 H 
BRANCH  93 113
ATOM    113  C   UNL A   1      47.032  27.884  26.076  1.00  0.00     0.064 A 
ATOM    114  C   UNL A   1      47.137  27.827  24.676  1.00  0.00     0.173 A 
ATOM    115  C   UNL A   1      48.116  27.413  26.830  1.00  0.00     0.173 A 
ATOM    116  F   UNL A   1      46.126  28.256  23.904  1.00  0.00    -0.203 F 
ATOM    117  C   UNL A   1      48.258  27.275  24.061  1.00  0.00     0.198 A 
ATOM    118  C   UNL A   1      49.251  26.896  26.211  1.00  0.00     0.198 A 
ATOM    119  F   UNL A   1      48.076  27.450  28.171  1.00  0.00    -0.203 F 
ATOM    120  F   UNL A   1      48.302  27.167  22.726  1.00  0.00    -0.200 F 
ATOM    121  C   UNL A   1      49.316  26.814  24.829  1.00  0.00     0.200 A 
ATOM    122  F   UNL A   1      50.281  26.466  26.955  1.00  0.00    -0.200 F 
ATOM    123  F   UNL A   1      50.395  26.283  24.237  1.00  0.00    -0.200 F 
ENDBRANCH  93 113
BRANCH  96 124
ATOM    124  C   UNL A   1      38.776  30.963  30.787  1.00  0.00     0.064 A 
ATOM    125  C   UNL A   1      37.691  31.555  30.126  1.00  0.00     0.173 A 
ATOM    126  C   UNL A   1      38.665  30.761  32.171  1.00  0.00     0.173 A 
ATOM    127  F   UNL A   1      37.756  31.785  28.805  1.00  0.00    -0.203 F 
ATOM    128  C   UNL A   1      36.547  31.939  30.821  1.00  0.00     0.198 A 
ATOM    129  C   UNL A   1      37.508  31.118  32.861  1.00  0.00     0.198 A 
ATOM    130  F   UNL A   1      39.671  30.191  32.849  1.00  0.00    -0.203 F 
ATOM    131  F   UNL A   1      35.538  32.534  30.171  1.00  0.00    -0.200 F 
ATOM    132  C   UNL A   1      36.452  31.711  32.187  1.00  0.00     0.200 A 
ATOM    133  F   UNL A   1      37.415  30.878  34.176  1.00  0.00    -0.200 F 
ATOM    134  F   UNL A   1      35.344  32.066  32.853  1.00  0.00    -0.200 F 
ENDBRANCH  96 124
BRANCH 111 135
ATOM    135  C   UNL A   1      44.941  33.937  29.424  1.00  0.00     0.064 A 
ATOM    136  C   UNL A   1      44.770  35.041  28.574  1.00  0.00     0.173 A 
ATOM    137  C   UNL A   1      45.639  34.137  30.624  1.00  0.00     0.173 A 
ATOM    138  F   UNL A   1      44.124  34.900  27.406  1.00  0.00    -0.203 F 
ATOM    139  C   UNL A   1      45.300  36.287  28.902  1.00  0.00     0.198 A 
ATOM    140  C   UNL A   1      46.138  35.391  30.965  1.00  0.00     0.198 A 
ATOM    141  F   UNL A   1      45.826  33.117  31.476  1.00  0.00    -0.203 F 
ATOM    142  F   UNL A   1      45.169  37.312  28.051  1.00  0.00    -0.200 F 
ATOM    143  C   UNL A   1      45.974  36.462  30.100  1.00  0.00     0.200 A 
ATOM    144  F   UNL A   1      46.776  35.563  32.131  1.00  0.00    -0.200 F 
ATOM    145  F   UNL A   1      46.476  37.664  30.419  1.00  0.00    -0.200 F 
ENDBRANCH 111 135
ENDBRANCH  76  79
ENDBRANCH  66  69
ENDBRANCH  62  65
ENDBRANCH  59  62
ENDBRANCH  56  59
ENDBRANCH  53  56
ENDBRANCH  50  53
ENDBRANCH   1  50
TORSDOF 25
ENDMDL
MODEL 10
REMARK VINA RESULT:      -9.8      1.940      7.569
REMARK SMILES CC(C)C[C@H](NC(=O)CNC(=O)[C@@H]([NH3+])C(C)C)C(=O)NCCCCCCNC(=O)c1ccc(-c2c3nc(c(-c4c(F)c(F)c(F)c(F)c4F)c4ccc([nH]4)c(-c4c(F)c(F)c(F)c(F)c4F)c4nc(c(-c5c(F)c(F)c(F)c(F)c5F)c5ccc2[nH]5)C=C4)C=C3)cc1
REMARK SMILES IDX 21 1 20 4 18 5 19 6 5 8 4 10 2 13 1 15 3 19 6 23 7 24 8 26
REMARK SMILES IDX 9 27 10 30 11 31 12 33 13 34 14 36 15 40 16 42 17 46 22 50
REMARK SMILES IDX 23 53 24 56 25 59 26 62 27 65 28 66 29 68 30 69 31 70 92 71
REMARK SMILES IDX 32 72 91 74 33 76 34 79 35 80 85 81 36 82 90 83 84 84 86 85
REMARK SMILES IDX 37 86 89 87 83 89 82 91 38 93 70 96 50 97 69 98 51 99 54 100
REMARK SMILES IDX 68 101 87 102 52 103 53 105 67 107 88 108 55 111 39 113
REMARK SMILES IDX 40 114 48 115 41 116 42 117 46 118 49 119 43 120 44 121
REMARK SMILES IDX 47 122 45 123 71 124 72 125 80 126 73 127 74 128 78 129
REMARK SMILES IDX 81 130 75 131 76 132 79 133 77 134 56 135 57 136 65 137
REMARK SMILES IDX 58 138 59 139 63 140 66 141 60 142 61 143 64 144 62 145
REMARK H PARENT 21 2 21 3 20 7 5 9 4 11 4 12 2 14 1 16 1 17 1 18 3 20 3 21
REMARK H PARENT 3 22 6 25 9 28 9 29 10 32 13 35 14 37 14 38 14 39 15 41 16 43
REMARK H PARENT 16 44 16 45 17 47 17 48 17 49 22 51 22 52 23 54 23 55 24 57
REMARK H PARENT 24 58 25 60 25 61 26 63 26 64 27 67 31 73 92 75 32 77 91 78
REMARK H PARENT 90 88 84 90 86 92 89 94 83 95 51 104 54 106 87 109 52 110
REMARK H PARENT 88 112
REMARK Flexibility Score: inf
ROOT
ATOM      1  C   UNL A   1      33.393  25.178  23.271  1.00  0.00     0.017 C 
ATOM      2  H   UNL A   1      34.215  25.587  22.721  1.00  0.00     0.049 H 
ATOM      3  H   UNL A   1      32.464  25.531  22.875  1.00  0.00     0.049 H 
ENDROOT
BRANCH   1   4
ATOM      4  N   UNL A   1      33.494  25.594  24.651  1.00  0.00    -0.354 N 
ATOM      5  C   UNL A   1      32.520  25.823  25.573  1.00  0.00     0.242 C 
ATOM      6  O   UNL A   1      32.874  26.035  26.737  1.00  0.00    -0.273 OA
ATOM      7  H   UNL A   1      34.412  25.733  24.976  1.00  0.00     0.163 HD
BRANCH   5   8
ATOM      8  C   UNL A   1      31.029  25.693  25.215  1.00  0.00     0.108 C 
ATOM      9  H   UNL A   1      30.983  25.107  24.321  1.00  0.00     0.063 H 
BRANCH   8  10
ATOM     10  C   UNL A   1      30.388  27.044  24.864  1.00  0.00    -0.021 C 
ATOM     11  H   UNL A   1      29.459  27.121  25.389  1.00  0.00     0.030 H 
ATOM     12  H   UNL A   1      31.092  27.799  25.147  1.00  0.00     0.030 H 
BRANCH  10  13
ATOM     13  C   UNL A   1      30.107  27.248  23.354  1.00  0.00    -0.045 C 
ATOM     14  H   UNL A   1      30.012  26.271  22.928  1.00  0.00     0.030 H 
BRANCH  13  15
ATOM     15  C   UNL A   1      28.805  27.996  23.081  1.00  0.00    -0.063 C 
ATOM     16  H   UNL A   1      28.665  28.095  22.024  1.00  0.00     0.023 H 
ATOM     17  H   UNL A   1      28.852  28.969  23.525  1.00  0.00     0.023 H 
ATOM     18  H   UNL A   1      27.985  27.452  23.500  1.00  0.00     0.023 H 
ENDBRANCH  13  15
BRANCH  13  19
ATOM     19  C   UNL A   1      31.264  28.016  22.713  1.00  0.00    -0.063 C 
ATOM     20  H   UNL A   1      31.888  28.425  23.479  1.00  0.00     0.023 H 
ATOM     21  H   UNL A   1      30.873  28.809  22.110  1.00  0.00     0.023 H 
ATOM     22  H   UNL A   1      31.838  27.352  22.102  1.00  0.00     0.023 H 
ENDBRANCH  13  19
ENDBRANCH  10  13
ENDBRANCH   8  10
BRANCH   8  23
ATOM     23  N   UNL A   1      30.273  24.949  26.223  1.00  0.00    -0.343 N 
ATOM     24  C   UNL A   1      30.266  23.616  26.506  1.00  0.00     0.240 C 
ATOM     25  H   UNL A   1      29.678  25.495  26.784  1.00  0.00     0.164 HD
ATOM     26  O   UNL A   1      29.717  23.284  27.564  1.00  0.00    -0.273 OA
BRANCH  24  27
ATOM     27  C   UNL A   1      31.014  22.576  25.661  1.00  0.00     0.097 C 
ATOM     28  H   UNL A   1      31.187  23.000  24.694  1.00  0.00     0.059 H 
ATOM     29  H   UNL A   1      30.389  21.707  25.645  1.00  0.00     0.059 H 
BRANCH  27  30
ATOM     30  N   UNL A   1      32.292  22.138  26.193  1.00  0.00    -0.342 N 
ATOM     31  C   UNL A   1      33.000  20.998  25.963  1.00  0.00     0.278 C 
ATOM     32  H   UNL A   1      32.714  22.767  26.821  1.00  0.00     0.164 HD
ATOM     33  O   UNL A   1      34.105  20.918  26.509  1.00  0.00    -0.268 OA
BRANCH  31  34
ATOM     34  C   UNL A   1      32.510  19.863  25.022  1.00  0.00     0.166 C 
ATOM     35  H   UNL A   1      31.476  19.689  25.235  1.00  0.00     0.107 H 
BRANCH  34  36
ATOM     36  N   UNL A   1      32.569  20.249  23.597  1.00  0.00    -0.347 N 
ATOM     37  H   UNL A   1      32.563  19.411  23.017  1.00  0.00     0.345 HD
ATOM     38  H   UNL A   1      33.423  20.778  23.423  1.00  0.00     0.345 HD
ATOM     39  H   UNL A   1      31.760  20.827  23.367  1.00  0.00     0.345 HD
ENDBRANCH  34  36
BRANCH  34  40
ATOM     40  C   UNL A   1      33.273  18.552  25.308  1.00  0.00     0.015 C 
ATOM     41  H   UNL A   1      33.692  18.644  26.288  1.00  0.00     0.036 H 
BRANCH  40  42
ATOM     42  C   UNL A   1      32.318  17.352  25.248  1.00  0.00    -0.057 C 
ATOM     43  H   UNL A   1      32.807  16.529  24.771  1.00  0.00     0.024 H 
ATOM     44  H   UNL A   1      31.443  17.619  24.693  1.00  0.00     0.024 H 
ATOM     45  H   UNL A   1      32.036  17.071  26.242  1.00  0.00     0.024 H 
ENDBRANCH  40  42
BRANCH  40  46
ATOM     46  C   UNL A   1      34.411  18.321  24.306  1.00  0.00    -0.057 C 
ATOM     47  H   UNL A   1      34.006  17.975  23.378  1.00  0.00     0.024 H 
ATOM     48  H   UNL A   1      35.087  17.588  24.695  1.00  0.00     0.024 H 
ATOM     49  H   UNL A   1      34.937  19.240  24.144  1.00  0.00     0.024 H 
ENDBRANCH  40  46
ENDBRANCH  34  40
ENDBRANCH  31  34
ENDBRANCH  27  30
ENDBRANCH  24  27
ENDBRANCH   8  23
ENDBRANCH   5   8
ENDBRANCH   1   4
BRANCH   1  50
ATOM     50  C   UNL A   1      33.425  23.659  23.155  1.00  0.00    -0.036 C 
ATOM     51  H   UNL A   1      32.717  23.363  22.408  1.00  0.00     0.028 H 
ATOM     52  H   UNL A   1      33.186  23.267  24.122  1.00  0.00     0.028 H 
BRANCH  50  53
ATOM     53  C   UNL A   1      34.797  23.098  22.770  1.00  0.00    -0.052 C 
ATOM     54  H   UNL A   1      35.091  23.544  21.843  1.00  0.00     0.027 H 
ATOM     55  H   UNL A   1      34.682  22.036  22.711  1.00  0.00     0.027 H 
BRANCH  53  56
ATOM     56  C   UNL A   1      35.907  23.356  23.796  1.00  0.00    -0.052 C 
ATOM     57  H   UNL A   1      35.471  23.844  24.642  1.00  0.00     0.027 H 
ATOM     58  H   UNL A   1      36.644  23.951  23.297  1.00  0.00     0.027 H 
BRANCH  56  59
ATOM     59  C   UNL A   1      36.631  22.101  24.291  1.00  0.00    -0.036 C 
ATOM     60  H   UNL A   1      37.462  21.918  23.642  1.00  0.00     0.028 H 
ATOM     61  H   UNL A   1      35.913  21.309  24.281  1.00  0.00     0.028 H 
BRANCH  59  62
ATOM     62  C   UNL A   1      37.154  22.201  25.717  1.00  0.00     0.018 C 
ATOM     63  H   UNL A   1      36.339  22.061  26.396  1.00  0.00     0.049 H 
ATOM     64  H   UNL A   1      37.597  23.168  25.841  1.00  0.00     0.049 H 
BRANCH  62  65
ATOM     65  N   UNL A   1      38.172  21.202  25.993  1.00  0.00    -0.352 N 
ATOM     66  C   UNL A   1      39.474  21.380  26.377  1.00  0.00     0.251 C 
ATOM     67  H   UNL A   1      37.885  20.265  25.887  1.00  0.00     0.163 HD
ATOM     68  O   UNL A   1      40.261  20.437  26.367  1.00  0.00    -0.269 OA
BRANCH  66  69
ATOM     69  C   UNL A   1      39.933  22.723  26.783  1.00  0.00     0.039 A 
ATOM     70  C   UNL A   1      40.799  22.837  27.871  1.00  0.00    -0.049 A 
ATOM     71  C   UNL A   1      39.525  23.860  26.078  1.00  0.00    -0.049 A 
ATOM     72  C   UNL A   1      41.306  24.088  28.217  1.00  0.00    -0.053 A 
ATOM     73  H   UNL A   1      41.062  22.001  28.417  1.00  0.00     0.063 H 
ATOM     74  C   UNL A   1      40.095  25.094  26.373  1.00  0.00    -0.053 A 
ATOM     75  H   UNL A   1      38.806  23.783  25.343  1.00  0.00     0.063 H 
ATOM     76  C   UNL A   1      40.990  25.220  27.446  1.00  0.00    -0.014 A 
ATOM     77  H   UNL A   1      41.918  24.185  29.043  1.00  0.00     0.063 H 
ATOM     78  H   UNL A   1      39.857  25.920  25.802  1.00  0.00     0.063 H 
BRANCH  76  79
ATOM     79  C   UNL A   1      41.608  26.537  27.736  1.00  0.00     0.031 A 
ATOM     80  C   UNL A   1      43.013  26.831  27.298  1.00  0.00     0.074 A 
ATOM     81  C   UNL A   1      40.919  27.444  28.453  1.00  0.00     0.049 A 
ATOM     82  N   UNL A   1      43.735  27.904  27.502  1.00  0.00    -0.248 NA
ATOM     83  C   UNL A   1      43.708  25.770  26.555  1.00  0.00    -0.034 C 
ATOM     84  C   UNL A   1      39.569  27.248  28.985  1.00  0.00    -0.036 A 
ATOM     85  N   UNL A   1      41.263  28.704  28.873  1.00  0.00    -0.354 N 
ATOM     86  C   UNL A   1      44.967  27.645  26.917  1.00  0.00     0.074 A 
ATOM     87  C   UNL A   1      44.918  26.290  26.411  1.00  0.00    -0.034 C 
ATOM     88  H   UNL A   1      43.348  24.858  26.231  1.00  0.00     0.065 H 
ATOM     89  C   UNL A   1      39.192  28.355  29.642  1.00  0.00    -0.036 A 
ATOM     90  H   UNL A   1      38.998  26.396  28.871  1.00  0.00     0.065 H 
ATOM     91  C   UNL A   1      40.287  29.320  29.617  1.00  0.00     0.049 A 
ATOM     92  H   UNL A   1      42.127  29.126  28.661  1.00  0.00     0.167 HD
ATOM     93  C   UNL A   1      46.033  28.471  26.789  1.00  0.00     0.037 A 
ATOM     94  H   UNL A   1      45.719  25.793  25.992  1.00  0.00     0.065 H 
ATOM     95  H   UNL A   1      38.275  28.502  30.093  1.00  0.00     0.065 H 
ATOM     96  C   UNL A   1      40.280  30.523  30.223  1.00  0.00     0.037 A 
ATOM     97  C   UNL A   1      46.075  29.818  27.299  1.00  0.00     0.049 A 
ATOM     98  C   UNL A   1      41.482  31.414  30.093  1.00  0.00     0.074 A 
ATOM     99  C   UNL A   1      47.083  30.758  27.177  1.00  0.00    -0.036 A 
ATOM    100  N   UNL A   1      45.065  30.413  28.044  1.00  0.00    -0.354 N 
ATOM    101  N   UNL A   1      42.613  31.192  29.467  1.00  0.00    -0.248 NA
ATOM    102  C   UNL A   1      41.407  32.726  30.747  1.00  0.00    -0.034 C 
ATOM    103  C   UNL A   1      46.711  31.896  27.901  1.00  0.00    -0.036 A 
ATOM    104  H   UNL A   1      47.959  30.638  26.646  1.00  0.00     0.065 H 
ATOM    105  C   UNL A   1      45.442  31.693  28.420  1.00  0.00     0.049 A 
ATOM    106  H   UNL A   1      44.206  29.988  28.271  1.00  0.00     0.167 HD
ATOM    107  C   UNL A   1      43.377  32.338  29.638  1.00  0.00     0.074 A 
ATOM    108  C   UNL A   1      42.570  33.264  30.408  1.00  0.00    -0.034 C 
ATOM    109  H   UNL A   1      40.647  33.126  31.322  1.00  0.00     0.065 H 
ATOM    110  H   UNL A   1      47.285  32.745  28.025  1.00  0.00     0.065 H 
ATOM    111  C   UNL A   1      44.634  32.598  29.200  1.00  0.00     0.037 A 
ATOM    112  H   UNL A   1      42.865  34.220  30.660  1.00  0.00     0.065 H 
BRANCH  93 113
ATOM    113  C   UNL A   1      47.243  27.931  26.080  1.00  0.00     0.064 A 
ATOM    114  C   UNL A   1      48.372  27.480  26.784  1.00  0.00     0.173 A 
ATOM    115  C   UNL A   1      47.277  27.855  24.680  1.00  0.00     0.173 A 
ATOM    116  F   UNL A   1      48.399  27.537  28.125  1.00  0.00    -0.203 F 
ATOM    117  C   UNL A   1      49.503  27.022  26.114  1.00  0.00     0.198 A 
ATOM    118  C   UNL A   1      48.395  27.361  24.013  1.00  0.00     0.198 A 
ATOM    119  F   UNL A   1      46.225  28.263  23.954  1.00  0.00    -0.203 F 
ATOM    120  F   UNL A   1      50.592  26.665  26.808  1.00  0.00    -0.200 F 
ATOM    121  C   UNL A   1      49.512  26.958  24.729  1.00  0.00     0.200 A 
ATOM    122  F   UNL A   1      48.396  27.285  22.674  1.00  0.00    -0.200 F 
ATOM    123  F   UNL A   1      50.601  26.518  24.084  1.00  0.00    -0.200 F 
ENDBRANCH  93 113
BRANCH  96 124
ATOM    124  C   UNL A   1      39.084  30.943  30.997  1.00  0.00     0.064 A 
ATOM    125  C   UNL A   1      37.997  31.566  30.370  1.00  0.00     0.173 A 
ATOM    126  C   UNL A   1      38.991  30.700  32.376  1.00  0.00     0.173 A 
ATOM    127  F   UNL A   1      38.046  31.835  29.057  1.00  0.00    -0.203 F 
ATOM    128  C   UNL A   1      36.866  31.941  31.094  1.00  0.00     0.198 A 
ATOM    129  C   UNL A   1      37.847  31.047  33.094  1.00  0.00     0.198 A 
ATOM    130  F   UNL A   1      40.000  30.100  33.022  1.00  0.00    -0.203 F 
ATOM    131  F   UNL A   1      35.855  32.566  30.476  1.00  0.00    -0.200 F 
ATOM    132  C   UNL A   1      36.788  31.672  32.453  1.00  0.00     0.200 A 
ATOM    133  F   UNL A   1      37.770  30.769  34.401  1.00  0.00    -0.200 F 
ATOM    134  F   UNL A   1      35.694  32.018  33.145  1.00  0.00    -0.200 F 
ENDBRANCH  96 124
BRANCH 111 135
ATOM    135  C   UNL A   1      45.213  33.944  29.535  1.00  0.00     0.064 A 
ATOM    136  C   UNL A   1      45.962  34.152  30.703  1.00  0.00     0.173 A 
ATOM    137  C   UNL A   1      45.049  35.029  28.660  1.00  0.00     0.173 A 
ATOM    138  F   UNL A   1      46.135  33.153  31.581  1.00  0.00    -0.203 F 
ATOM    139  C   UNL A   1      46.502  35.403  30.995  1.00  0.00     0.198 A 
ATOM    140  C   UNL A   1      45.618  36.268  28.938  1.00  0.00     0.198 A 
ATOM    141  F   UNL A   1      44.346  34.883  27.526  1.00  0.00    -0.203 F 
ATOM    142  F   UNL A   1      47.169  35.591  32.141  1.00  0.00    -0.200 F 
ATOM    143  C   UNL A   1      46.337  36.456  30.108  1.00  0.00     0.200 A 
ATOM    144  F   UNL A   1      45.472  37.280  28.072  1.00  0.00    -0.200 F 
ATOM    145  F   UNL A   1      46.865  37.656  30.386  1.00  0.00    -0.200 F 
ENDBRANCH 111 135
ENDBRANCH  76  79
ENDBRANCH  66  69
ENDBRANCH  62  65
ENDBRANCH  59  62
ENDBRANCH  56  59
ENDBRANCH  53  56
ENDBRANCH  50  53
ENDBRANCH   1  50
TORSDOF 25
ENDMDL
