MODEL 1
REMARK VINA RESULT:     -11.3      0.000      0.000
REMARK SMILES C[C@@H](C(=O)NCCCCCCNC(=O)c1ccc(-c2c3nc(c(-c4c(F)c(F)c(F)c(F)c4F)c4ccc([nH]4)c(-c4c(F)c(F)c(F)c(F)c4F)c4nc(c(-c5c(F)c(F)c(F)c(F)c5F)c5ccc2[nH]5)C=C4)C=C3)cc1)c1cccn(C(F)F)c1=O
REMARK SMILES IDX 8 1 7 4 6 7 5 10 3 11 4 12 2 14 1 16 78 20 79 21 86 22 80 23
REMARK SMILES IDX 82 25 87 26 81 27 83 30 84 31 85 32 9 34 10 37 11 40 12 43
REMARK SMILES IDX 13 44 14 46 15 47 16 48 77 49 17 50 76 52 18 54 19 57 20 58
REMARK SMILES IDX 70 59 21 60 75 61 69 62 71 63 22 64 74 65 68 67 67 69 23 71
REMARK SMILES IDX 55 74 35 75 54 76 36 77 39 78 53 79 72 80 37 81 38 83 52 85
REMARK SMILES IDX 73 86 40 89 24 91 25 92 33 93 26 94 27 95 31 96 34 97 28 98
REMARK SMILES IDX 29 99 32 100 30 101 56 102 57 103 65 104 58 105 59 106
REMARK SMILES IDX 63 107 66 108 60 109 61 110 64 111 62 112 41 113 42 114
REMARK SMILES IDX 50 115 43 116 44 117 48 118 51 119 45 120 46 121 49 122
REMARK SMILES IDX 47 123
REMARK H PARENT 8 2 8 3 7 5 7 6 6 8 6 9 5 13 2 15 1 17 1 18 1 19 79 24 80 28
REMARK H PARENT 81 29 83 33 9 35 9 36 10 38 10 39 11 41 11 42 12 45 16 51
REMARK H PARENT 77 53 17 55 76 56 75 66 69 68 71 70 74 72 68 73 36 82 39 84
REMARK H PARENT 72 87 37 88 73 90
REMARK Flexibility Score: inf
ROOT
ATOM      1  C   UNL A   1      32.766  29.726  27.045  1.00  0.00    -0.052 C 
ATOM      2  H   UNL A   1      33.722  30.207  27.026  1.00  0.00     0.027 H 
ATOM      3  H   UNL A   1      32.332  29.689  28.023  1.00  0.00     0.027 H 
ENDROOT
BRANCH   1   4
ATOM      4  C   UNL A   1      32.955  28.268  26.599  1.00  0.00    -0.036 C 
ATOM      5  H   UNL A   1      33.624  28.253  25.764  1.00  0.00     0.028 H 
ATOM      6  H   UNL A   1      33.344  27.729  27.438  1.00  0.00     0.028 H 
BRANCH   4   7
ATOM      7  C   UNL A   1      31.648  27.585  26.187  1.00  0.00     0.017 C 
ATOM      8  H   UNL A   1      30.821  28.211  26.453  1.00  0.00     0.049 H 
ATOM      9  H   UNL A   1      31.650  27.423  25.130  1.00  0.00     0.049 H 
BRANCH   7  10
ATOM     10  N   UNL A   1      31.527  26.313  26.868  1.00  0.00    -0.356 N 
ATOM     11  C   UNL A   1      31.423  25.054  26.351  1.00  0.00     0.227 C 
ATOM     12  O   UNL A   1      31.057  24.168  27.127  1.00  0.00    -0.274 OA
ATOM     13  H   UNL A   1      31.516  26.365  27.851  1.00  0.00     0.163 HD
BRANCH  11  14
ATOM     14  C   UNL A   1      31.845  24.783  24.895  1.00  0.00     0.066 C 
ATOM     15  H   UNL A   1      32.238  25.667  24.439  1.00  0.00     0.045 H 
BRANCH  14  16
ATOM     16  C   UNL A   1      30.649  24.458  23.996  1.00  0.00    -0.049 C 
ATOM     17  H   UNL A   1      30.015  25.318  23.924  1.00  0.00     0.024 H 
ATOM     18  H   UNL A   1      30.097  23.643  24.416  1.00  0.00     0.024 H 
ATOM     19  H   UNL A   1      30.997  24.189  23.021  1.00  0.00     0.024 H 
ENDBRANCH  14  16
BRANCH  14  20
ATOM     20  C   UNL A   1      32.979  23.761  24.902  1.00  0.00     0.030 A 
ATOM     21  C   UNL A   1      32.757  22.470  24.573  1.00  0.00    -0.051 A 
ATOM     22  C   UNL A   1      34.390  24.155  25.263  1.00  0.00     0.258 A 
ATOM     23  C   UNL A   1      33.814  21.495  24.545  1.00  0.00    -0.045 A 
ATOM     24  H   UNL A   1      31.799  22.174  24.334  1.00  0.00     0.063 H 
ATOM     25  N   UNL A   1      35.320  23.131  25.325  1.00  0.00    -0.258 N 
ATOM     26  O   UNL A   1      34.686  25.318  25.521  1.00  0.00    -0.269 OA
ATOM     27  C   UNL A   1      35.044  21.838  24.935  1.00  0.00     0.013 A 
ATOM     28  H   UNL A   1      33.622  20.532  24.224  1.00  0.00     0.064 H 
ATOM     29  H   UNL A   1      35.793  21.129  24.946  1.00  0.00     0.082 H 
BRANCH  25  30
ATOM     30  C   UNL A   1      36.643  23.464  25.791  1.00  0.00     0.321 C 
ATOM     31  F   UNL A   1      37.300  22.323  26.136  1.00  0.00    -0.185 F 
ATOM     32  F   UNL A   1      37.360  24.021  24.780  1.00  0.00    -0.185 F 
ATOM     33  H   UNL A   1      36.548  24.137  26.618  1.00  0.00     0.131 H 
ENDBRANCH  25  30
ENDBRANCH  14  20
ENDBRANCH  11  14
ENDBRANCH   7  10
ENDBRANCH   4   7
ENDBRANCH   1   4
BRANCH   1  34
ATOM     34  C   UNL A   1      31.804  30.542  26.175  1.00  0.00    -0.052 C 
ATOM     35  H   UNL A   1      30.880  30.006  26.104  1.00  0.00     0.027 H 
ATOM     36  H   UNL A   1      32.286  30.674  25.229  1.00  0.00     0.027 H 
BRANCH  34  37
ATOM     37  C   UNL A   1      31.501  31.942  26.709  1.00  0.00    -0.036 C 
ATOM     38  H   UNL A   1      30.727  31.864  27.443  1.00  0.00     0.028 H 
ATOM     39  H   UNL A   1      31.212  32.539  25.870  1.00  0.00     0.028 H 
BRANCH  37  40
ATOM     40  C   UNL A   1      32.700  32.632  27.349  1.00  0.00     0.018 C 
ATOM     41  H   UNL A   1      33.538  32.555  26.687  1.00  0.00     0.049 H 
ATOM     42  H   UNL A   1      32.902  32.149  28.283  1.00  0.00     0.049 H 
BRANCH  40  43
ATOM     43  N   UNL A   1      32.436  34.038  27.615  1.00  0.00    -0.352 N 
ATOM     44  C   UNL A   1      33.002  34.856  28.560  1.00  0.00     0.251 C 
ATOM     45  H   UNL A   1      31.761  34.461  27.037  1.00  0.00     0.163 HD
ATOM     46  O   UNL A   1      32.523  35.959  28.805  1.00  0.00    -0.269 OA
BRANCH  44  47
ATOM     47  C   UNL A   1      34.189  34.385  29.299  1.00  0.00     0.039 A 
ATOM     48  C   UNL A   1      34.017  33.705  30.506  1.00  0.00    -0.049 A 
ATOM     49  C   UNL A   1      35.470  34.596  28.779  1.00  0.00    -0.049 A 
ATOM     50  C   UNL A   1      35.130  33.176  31.163  1.00  0.00    -0.053 A 
ATOM     51  H   UNL A   1      33.074  33.594  30.911  1.00  0.00     0.063 H 
ATOM     52  C   UNL A   1      36.565  34.001  29.392  1.00  0.00    -0.053 A 
ATOM     53  H   UNL A   1      35.599  35.189  27.945  1.00  0.00     0.063 H 
ATOM     54  C   UNL A   1      36.408  33.290  30.591  1.00  0.00    -0.014 A 
ATOM     55  H   UNL A   1      35.014  32.702  32.072  1.00  0.00     0.063 H 
ATOM     56  H   UNL A   1      37.500  34.083  28.962  1.00  0.00     0.063 H 
BRANCH  54  57
ATOM     57  C   UNL A   1      37.602  32.680  31.225  1.00  0.00     0.031 A 
ATOM     58  C   UNL A   1      38.290  31.523  30.560  1.00  0.00     0.074 A 
ATOM     59  C   UNL A   1      38.003  33.097  32.441  1.00  0.00     0.049 A 
ATOM     60  N   UNL A   1      39.258  30.763  31.007  1.00  0.00    -0.248 NA
ATOM     61  C   UNL A   1      37.796  31.147  29.227  1.00  0.00    -0.034 C 
ATOM     62  C   UNL A   1      37.384  34.179  33.208  1.00  0.00    -0.036 A 
ATOM     63  N   UNL A   1      39.006  32.639  33.259  1.00  0.00    -0.354 N 
ATOM     64  C   UNL A   1      39.470  29.808  30.023  1.00  0.00     0.074 A 
ATOM     65  C   UNL A   1      38.495  30.048  28.982  1.00  0.00    -0.034 C 
ATOM     66  H   UNL A   1      37.092  31.615  28.637  1.00  0.00     0.065 H 
ATOM     67  C   UNL A   1      38.022  34.303  34.382  1.00  0.00    -0.036 A 
ATOM     68  H   UNL A   1      36.587  34.754  32.895  1.00  0.00     0.065 H 
ATOM     69  C   UNL A   1      39.061  33.281  34.471  1.00  0.00     0.049 A 
ATOM     70  H   UNL A   1      39.627  31.920  33.000  1.00  0.00     0.167 HD
ATOM     71  C   UNL A   1      40.407  28.831  29.983  1.00  0.00     0.037 A 
ATOM     72  H   UNL A   1      38.360  29.442  28.157  1.00  0.00     0.065 H 
ATOM     73  H   UNL A   1      37.811  35.008  35.106  1.00  0.00     0.065 H 
ATOM     74  C   UNL A   1      39.842  33.054  35.545  1.00  0.00     0.037 A 
ATOM     75  C   UNL A   1      41.385  28.612  31.016  1.00  0.00     0.049 A 
ATOM     76  C   UNL A   1      40.871  31.959  35.488  1.00  0.00     0.074 A 
ATOM     77  C   UNL A   1      42.425  27.700  31.042  1.00  0.00    -0.036 A 
ATOM     78  N   UNL A   1      41.433  29.307  32.217  1.00  0.00    -0.354 N 
ATOM     79  N   UNL A   1      41.119  31.110  34.519  1.00  0.00    -0.248 NA
ATOM     80  C   UNL A   1      41.734  31.793  36.664  1.00  0.00    -0.034 C 
ATOM     81  C   UNL A   1      43.060  27.797  32.283  1.00  0.00    -0.036 A 
ATOM     82  H   UNL A   1      42.686  27.060  30.276  1.00  0.00     0.065 H 
ATOM     83  C   UNL A   1      42.462  28.819  33.005  1.00  0.00     0.049 A 
ATOM     84  H   UNL A   1      40.825  30.039  32.471  1.00  0.00     0.167 HD
ATOM     85  C   UNL A   1      42.180  30.328  34.957  1.00  0.00     0.074 A 
ATOM     86  C   UNL A   1      42.534  30.809  36.276  1.00  0.00    -0.034 C 
ATOM     87  H   UNL A   1      41.722  32.307  37.559  1.00  0.00     0.065 H 
ATOM     88  H   UNL A   1      43.842  27.208  32.608  1.00  0.00     0.065 H 
ATOM     89  C   UNL A   1      42.807  29.310  34.318  1.00  0.00     0.037 A 
ATOM     90  H   UNL A   1      43.310  30.432  36.843  1.00  0.00     0.065 H 
BRANCH  71  91
ATOM     91  C   UNL A   1      40.402  27.915  28.791  1.00  0.00     0.064 A 
ATOM     92  C   UNL A   1      39.693  26.703  28.789  1.00  0.00     0.173 A 
ATOM     93  C   UNL A   1      41.117  28.254  27.633  1.00  0.00     0.173 A 
ATOM     94  F   UNL A   1      38.997  26.324  29.873  1.00  0.00    -0.203 F 
ATOM     95  C   UNL A   1      39.743  25.844  27.694  1.00  0.00     0.198 A 
ATOM     96  C   UNL A   1      41.133  27.411  26.525  1.00  0.00     0.198 A 
ATOM     97  F   UNL A   1      41.805  29.404  27.575  1.00  0.00    -0.203 F 
ATOM     98  F   UNL A   1      39.119  24.659  27.746  1.00  0.00    -0.200 F 
ATOM     99  C   UNL A   1      40.459  26.200  26.562  1.00  0.00     0.200 A 
ATOM    100  F   UNL A   1      41.812  27.765  25.425  1.00  0.00    -0.200 F 
ATOM    101  F   UNL A   1      40.509  25.372  25.510  1.00  0.00    -0.200 F 
ENDBRANCH  71  91
BRANCH  74 102
ATOM    102  C   UNL A   1      39.671  33.893  36.760  1.00  0.00     0.064 A 
ATOM    103  C   UNL A   1      40.290  35.146  36.868  1.00  0.00     0.173 A 
ATOM    104  C   UNL A   1      38.854  33.475  37.822  1.00  0.00     0.173 A 
ATOM    105  F   UNL A   1      41.094  35.581  35.888  1.00  0.00    -0.203 F 
ATOM    106  C   UNL A   1      40.104  35.945  37.994  1.00  0.00     0.198 A 
ATOM    107  C   UNL A   1      38.646  34.287  38.934  1.00  0.00     0.198 A 
ATOM    108  F   UNL A   1      38.233  32.288  37.764  1.00  0.00    -0.203 F 
ATOM    109  F   UNL A   1      40.731  37.126  38.086  1.00  0.00    -0.200 F 
ATOM    110  C   UNL A   1      39.275  35.520  39.021  1.00  0.00     0.200 A 
ATOM    111  F   UNL A   1      37.829  33.880  39.915  1.00  0.00    -0.200 F 
ATOM    112  F   UNL A   1      39.083  36.296  40.096  1.00  0.00    -0.200 F 
ENDBRANCH  74 102
BRANCH  89 113
ATOM    113  C   UNL A   1      43.969  28.660  35.012  1.00  0.00     0.064 A 
ATOM    114  C   UNL A   1      43.808  27.522  35.816  1.00  0.00     0.173 A 
ATOM    115  C   UNL A   1      45.273  29.136  34.801  1.00  0.00     0.173 A 
ATOM    116  F   UNL A   1      42.583  27.036  36.061  1.00  0.00    -0.203 F 
ATOM    117  C   UNL A   1      44.909  26.892  36.390  1.00  0.00     0.198 A 
ATOM    118  C   UNL A   1      46.373  28.486  35.351  1.00  0.00     0.198 A 
ATOM    119  F   UNL A   1      45.481  30.219  34.036  1.00  0.00    -0.203 F 
ATOM    120  F   UNL A   1      44.730  25.824  37.181  1.00  0.00    -0.200 F 
ATOM    121  C   UNL A   1      46.190  27.366  36.147  1.00  0.00     0.200 A 
ATOM    122  F   UNL A   1      47.610  28.936  35.101  1.00  0.00    -0.200 F 
ATOM    123  F   UNL A   1      47.249  26.743  36.683  1.00  0.00    -0.200 F 
ENDBRANCH  89 113
ENDBRANCH  54  57
ENDBRANCH  44  47
ENDBRANCH  40  43
ENDBRANCH  37  40
ENDBRANCH  34  37
ENDBRANCH   1  34
TORSDOF 16
ENDMDL
MODEL 2
REMARK VINA RESULT:     -11.3      3.060      8.604
REMARK SMILES C[C@@H](C(=O)NCCCCCCNC(=O)c1ccc(-c2c3nc(c(-c4c(F)c(F)c(F)c(F)c4F)c4ccc([nH]4)c(-c4c(F)c(F)c(F)c(F)c4F)c4nc(c(-c5c(F)c(F)c(F)c(F)c5F)c5ccc2[nH]5)C=C4)C=C3)cc1)c1cccn(C(F)F)c1=O
REMARK SMILES IDX 8 1 7 4 6 7 5 10 3 11 4 12 2 14 1 16 78 20 79 21 86 22 80 23
REMARK SMILES IDX 82 25 87 26 81 27 83 30 84 31 85 32 9 34 10 37 11 40 12 43
REMARK SMILES IDX 13 44 14 46 15 47 16 48 77 49 17 50 76 52 18 54 19 57 20 58
REMARK SMILES IDX 70 59 21 60 75 61 69 62 71 63 22 64 74 65 68 67 67 69 23 71
REMARK SMILES IDX 55 74 35 75 54 76 36 77 39 78 53 79 72 80 37 81 38 83 52 85
REMARK SMILES IDX 73 86 40 89 24 91 25 92 33 93 26 94 27 95 31 96 34 97 28 98
REMARK SMILES IDX 29 99 32 100 30 101 56 102 57 103 65 104 58 105 59 106
REMARK SMILES IDX 63 107 66 108 60 109 61 110 64 111 62 112 41 113 42 114
REMARK SMILES IDX 50 115 43 116 44 117 48 118 51 119 45 120 46 121 49 122
REMARK SMILES IDX 47 123
REMARK H PARENT 8 2 8 3 7 5 7 6 6 8 6 9 5 13 2 15 1 17 1 18 1 19 79 24 80 28
REMARK H PARENT 81 29 83 33 9 35 9 36 10 38 10 39 11 41 11 42 12 45 16 51
REMARK H PARENT 77 53 17 55 76 56 75 66 69 68 71 70 74 72 68 73 36 82 39 84
REMARK H PARENT 72 87 37 88 73 90
REMARK Flexibility Score: inf
ROOT
ATOM      1  C   UNL A   1      32.449  30.070  25.758  1.00  0.00    -0.052 C 
ATOM      2  H   UNL A   1      32.150  30.338  24.765  1.00  0.00     0.027 H 
ATOM      3  H   UNL A   1      33.418  30.440  26.021  1.00  0.00     0.027 H 
ENDROOT
BRANCH   1   4
ATOM      4  C   UNL A   1      32.535  28.538  25.833  1.00  0.00    -0.036 C 
ATOM      5  H   UNL A   1      33.394  28.219  25.280  1.00  0.00     0.028 H 
ATOM      6  H   UNL A   1      32.601  28.276  26.869  1.00  0.00     0.028 H 
BRANCH   4   7
ATOM      7  C   UNL A   1      31.301  27.833  25.265  1.00  0.00     0.017 C 
ATOM      8  H   UNL A   1      31.337  26.793  25.518  1.00  0.00     0.049 H 
ATOM      9  H   UNL A   1      30.418  28.272  25.679  1.00  0.00     0.049 H 
BRANCH   7  10
ATOM     10  N   UNL A   1      31.277  27.976  23.824  1.00  0.00    -0.356 N 
ATOM     11  C   UNL A   1      30.229  28.242  22.991  1.00  0.00     0.227 C 
ATOM     12  O   UNL A   1      30.416  28.044  21.789  1.00  0.00    -0.274 OA
ATOM     13  H   UNL A   1      32.148  27.864  23.379  1.00  0.00     0.163 HD
BRANCH  11  14
ATOM     14  C   UNL A   1      28.931  28.849  23.558  1.00  0.00     0.066 C 
ATOM     15  H   UNL A   1      28.939  28.839  24.627  1.00  0.00     0.045 H 
BRANCH  14  16
ATOM     16  C   UNL A   1      27.703  27.995  23.233  1.00  0.00    -0.049 C 
ATOM     17  H   UNL A   1      28.012  27.110  22.716  1.00  0.00     0.024 H 
ATOM     18  H   UNL A   1      27.033  28.554  22.614  1.00  0.00     0.024 H 
ATOM     19  H   UNL A   1      27.207  27.723  24.141  1.00  0.00     0.024 H 
ENDBRANCH  14  16
BRANCH  14  20
ATOM     20  C   UNL A   1      28.861  30.315  23.141  1.00  0.00     0.030 A 
ATOM     21  C   UNL A   1      29.261  31.298  23.976  1.00  0.00    -0.051 A 
ATOM     22  C   UNL A   1      28.355  30.723  21.779  1.00  0.00     0.258 A 
ATOM     23  C   UNL A   1      29.231  32.686  23.596  1.00  0.00    -0.045 A 
ATOM     24  H   UNL A   1      29.600  31.046  24.916  1.00  0.00     0.063 H 
ATOM     25  N   UNL A   1      28.249  32.083  21.540  1.00  0.00    -0.258 N 
ATOM     26  O   UNL A   1      28.024  29.888  20.941  1.00  0.00    -0.269 OA
ATOM     27  C   UNL A   1      28.715  33.039  22.416  1.00  0.00     0.013 A 
ATOM     28  H   UNL A   1      29.608  33.406  24.233  1.00  0.00     0.064 H 
ATOM     29  H   UNL A   1      28.665  34.037  22.159  1.00  0.00     0.082 H 
BRANCH  25  30
ATOM     30  C   UNL A   1      27.650  32.493  20.295  1.00  0.00     0.321 C 
ATOM     31  F   UNL A   1      27.142  33.749  20.431  1.00  0.00    -0.185 F 
ATOM     32  F   UNL A   1      28.603  32.574  19.330  1.00  0.00    -0.185 F 
ATOM     33  H   UNL A   1      26.893  31.781  20.037  1.00  0.00     0.131 H 
ENDBRANCH  25  30
ENDBRANCH  14  20
ENDBRANCH  11  14
ENDBRANCH   7  10
ENDBRANCH   4   7
ENDBRANCH   1   4
BRANCH   1  34
ATOM     34  C   UNL A   1      31.461  30.705  26.742  1.00  0.00    -0.052 C 
ATOM     35  H   UNL A   1      31.717  30.381  27.730  1.00  0.00     0.027 H 
ATOM     36  H   UNL A   1      30.484  30.391  26.439  1.00  0.00     0.027 H 
BRANCH  34  37
ATOM     37  C   UNL A   1      31.450  32.234  26.730  1.00  0.00    -0.036 C 
ATOM     38  H   UNL A   1      30.654  32.571  27.360  1.00  0.00     0.028 H 
ATOM     39  H   UNL A   1      31.323  32.536  25.712  1.00  0.00     0.028 H 
BRANCH  37  40
ATOM     40  C   UNL A   1      32.748  32.864  27.220  1.00  0.00     0.018 C 
ATOM     41  H   UNL A   1      33.464  32.846  26.424  1.00  0.00     0.049 H 
ATOM     42  H   UNL A   1      33.095  32.301  28.061  1.00  0.00     0.049 H 
BRANCH  40  43
ATOM     43  N   UNL A   1      32.553  34.242  27.647  1.00  0.00    -0.352 N 
ATOM     44  C   UNL A   1      33.108  34.898  28.716  1.00  0.00     0.251 C 
ATOM     45  H   UNL A   1      31.939  34.776  27.093  1.00  0.00     0.163 HD
ATOM     46  O   UNL A   1      32.681  35.992  29.073  1.00  0.00    -0.269 OA
BRANCH  44  47
ATOM     47  C   UNL A   1      34.219  34.262  29.450  1.00  0.00     0.039 A 
ATOM     48  C   UNL A   1      33.934  33.448  30.549  1.00  0.00    -0.049 A 
ATOM     49  C   UNL A   1      35.539  34.453  29.031  1.00  0.00    -0.049 A 
ATOM     50  C   UNL A   1      34.973  32.771  31.191  1.00  0.00    -0.053 A 
ATOM     51  H   UNL A   1      32.964  33.349  30.885  1.00  0.00     0.063 H 
ATOM     52  C   UNL A   1      36.559  33.716  29.620  1.00  0.00    -0.053 A 
ATOM     53  H   UNL A   1      35.753  35.136  28.289  1.00  0.00     0.063 H 
ATOM     54  C   UNL A   1      36.288  32.872  30.708  1.00  0.00    -0.014 A 
ATOM     55  H   UNL A   1      34.774  32.195  32.024  1.00  0.00     0.063 H 
ATOM     56  H   UNL A   1      37.522  33.791  29.254  1.00  0.00     0.063 H 
BRANCH  54  57
ATOM     57  C   UNL A   1      37.404  32.112  31.321  1.00  0.00     0.031 A 
ATOM     58  C   UNL A   1      37.913  32.501  32.679  1.00  0.00     0.074 A 
ATOM     59  C   UNL A   1      38.024  31.145  30.618  1.00  0.00     0.049 A 
ATOM     60  N   UNL A   1      38.959  32.061  33.332  1.00  0.00    -0.248 NA
ATOM     61  C   UNL A   1      37.165  33.556  33.381  1.00  0.00    -0.034 C 
ATOM     62  C   UNL A   1      37.651  30.712  29.271  1.00  0.00    -0.036 A 
ATOM     63  N   UNL A   1      39.116  30.374  30.927  1.00  0.00    -0.354 N 
ATOM     64  C   UNL A   1      39.006  32.800  34.506  1.00  0.00     0.074 A 
ATOM     65  C   UNL A   1      37.921  33.754  34.450  1.00  0.00    -0.034 C 
ATOM     66  H   UNL A   1      36.284  34.019  33.112  1.00  0.00     0.065 H 
ATOM     67  C   UNL A   1      38.498  29.752  28.870  1.00  0.00    -0.036 A 
ATOM     68  H   UNL A   1      36.862  31.084  28.718  1.00  0.00     0.065 H 
ATOM     69  C   UNL A   1      39.501  29.536  29.910  1.00  0.00     0.049 A 
ATOM     70  H   UNL A   1      39.579  30.418  31.795  1.00  0.00     0.167 HD
ATOM     71  C   UNL A   1      39.868  32.679  35.544  1.00  0.00     0.037 A 
ATOM     72  H   UNL A   1      37.756  34.493  35.152  1.00  0.00     0.065 H 
ATOM     73  H   UNL A   1      38.450  29.247  27.970  1.00  0.00     0.065 H 
ATOM     74  C   UNL A   1      40.557  28.706  29.814  1.00  0.00     0.037 A 
ATOM     75  C   UNL A   1      40.934  31.714  35.597  1.00  0.00     0.049 A 
ATOM     76  C   UNL A   1      41.509  28.591  30.973  1.00  0.00     0.074 A 
ATOM     77  C   UNL A   1      41.815  31.457  36.631  1.00  0.00    -0.036 A 
ATOM     78  N   UNL A   1      41.272  30.854  34.560  1.00  0.00    -0.354 N 
ATOM     79  N   UNL A   1      41.501  29.237  32.114  1.00  0.00    -0.248 NA
ATOM     80  C   UNL A   1      42.611  27.629  30.838  1.00  0.00    -0.034 C 
ATOM     81  C   UNL A   1      42.727  30.490  36.197  1.00  0.00    -0.036 A 
ATOM     82  H   UNL A   1      41.802  31.902  37.562  1.00  0.00     0.065 H 
ATOM     83  C   UNL A   1      42.372  30.091  34.918  1.00  0.00     0.049 A 
ATOM     84  H   UNL A   1      40.799  30.795  33.698  1.00  0.00     0.167 HD
ATOM     85  C   UNL A   1      42.576  28.743  32.842  1.00  0.00     0.074 A 
ATOM     86  C   UNL A   1      43.211  27.738  32.016  1.00  0.00    -0.034 C 
ATOM     87  H   UNL A   1      42.855  27.026  30.037  1.00  0.00     0.065 H 
ATOM     88  H   UNL A   1      43.530  30.133  36.738  1.00  0.00     0.065 H 
ATOM     89  C   UNL A   1      42.992  29.089  34.085  1.00  0.00     0.037 A 
ATOM     90  H   UNL A   1      44.028  27.178  32.306  1.00  0.00     0.065 H 
BRANCH  71  91
ATOM     91  C   UNL A   1      39.700  33.630  36.696  1.00  0.00     0.064 A 
ATOM     92  C   UNL A   1      38.910  33.314  37.812  1.00  0.00     0.173 A 
ATOM     93  C   UNL A   1      40.339  34.879  36.683  1.00  0.00     0.173 A 
ATOM     94  F   UNL A   1      38.269  32.136  37.875  1.00  0.00    -0.203 F 
ATOM     95  C   UNL A   1      38.725  34.229  38.844  1.00  0.00     0.198 A 
ATOM     96  C   UNL A   1      40.185  35.777  37.736  1.00  0.00     0.198 A 
ATOM     97  F   UNL A   1      41.114  35.232  35.647  1.00  0.00    -0.203 F 
ATOM     98  F   UNL A   1      37.907  33.931  39.863  1.00  0.00    -0.200 F 
ATOM     99  C   UNL A   1      39.366  35.458  38.808  1.00  0.00     0.200 A 
ATOM    100  F   UNL A   1      40.818  36.958  37.706  1.00  0.00    -0.200 F 
ATOM    101  F   UNL A   1      39.186  36.340  39.801  1.00  0.00    -0.200 F 
ENDBRANCH  71  91
BRANCH  74 102
ATOM    102  C   UNL A   1      40.757  27.921  28.568  1.00  0.00     0.064 A 
ATOM    103  C   UNL A   1      40.165  26.662  28.403  1.00  0.00     0.173 A 
ATOM    104  C   UNL A   1      41.513  28.432  27.502  1.00  0.00     0.173 A 
ATOM    105  F   UNL A   1      39.448  26.123  29.400  1.00  0.00    -0.203 F 
ATOM    106  C   UNL A   1      40.326  25.940  27.222  1.00  0.00     0.198 A 
ATOM    107  C   UNL A   1      41.649  27.722  26.310  1.00  0.00     0.198 A 
ATOM    108  F   UNL A   1      42.093  29.635  27.606  1.00  0.00    -0.203 F 
ATOM    109  F   UNL A   1      39.774  24.725  27.101  1.00  0.00    -0.200 F 
ATOM    110  C   UNL A   1      41.060  26.475  26.174  1.00  0.00     0.200 A 
ATOM    111  F   UNL A   1      42.343  28.251  25.294  1.00  0.00    -0.200 F 
ATOM    112  F   UNL A   1      41.201  25.788  25.032  1.00  0.00    -0.200 F 
ENDBRANCH  74 102
BRANCH  89 113
ATOM    113  C   UNL A   1      44.171  28.354  34.657  1.00  0.00     0.064 A 
ATOM    114  C   UNL A   1      45.476  28.857  34.555  1.00  0.00     0.173 A 
ATOM    115  C   UNL A   1      43.978  27.171  35.387  1.00  0.00     0.173 A 
ATOM    116  F   UNL A   1      45.716  29.976  33.856  1.00  0.00    -0.203 F 
ATOM    117  C   UNL A   1      46.544  28.197  35.157  1.00  0.00     0.198 A 
ATOM    118  C   UNL A   1      45.043  26.531  36.013  1.00  0.00     0.198 A 
ATOM    119  F   UNL A   1      42.747  26.651  35.518  1.00  0.00    -0.203 F 
ATOM    120  F   UNL A   1      47.788  28.678  35.021  1.00  0.00    -0.200 F 
ATOM    121  C   UNL A   1      46.326  27.042  35.895  1.00  0.00     0.200 A 
ATOM    122  F   UNL A   1      44.826  25.426  36.739  1.00  0.00    -0.200 F 
ATOM    123  F   UNL A   1      47.353  26.422  36.491  1.00  0.00    -0.200 F 
ENDBRANCH  89 113
ENDBRANCH  54  57
ENDBRANCH  44  47
ENDBRANCH  40  43
ENDBRANCH  37  40
ENDBRANCH  34  37
ENDBRANCH   1  34
TORSDOF 16
ENDMDL
MODEL 3
REMARK VINA RESULT:     -11.2      6.465     11.150
REMARK SMILES C[C@@H](C(=O)NCCCCCCNC(=O)c1ccc(-c2c3nc(c(-c4c(F)c(F)c(F)c(F)c4F)c4ccc([nH]4)c(-c4c(F)c(F)c(F)c(F)c4F)c4nc(c(-c5c(F)c(F)c(F)c(F)c5F)c5ccc2[nH]5)C=C4)C=C3)cc1)c1cccn(C(F)F)c1=O
REMARK SMILES IDX 8 1 7 4 6 7 5 10 3 11 4 12 2 14 1 16 78 20 79 21 86 22 80 23
REMARK SMILES IDX 82 25 87 26 81 27 83 30 84 31 85 32 9 34 10 37 11 40 12 43
REMARK SMILES IDX 13 44 14 46 15 47 16 48 77 49 17 50 76 52 18 54 19 57 20 58
REMARK SMILES IDX 70 59 21 60 75 61 69 62 71 63 22 64 74 65 68 67 67 69 23 71
REMARK SMILES IDX 55 74 35 75 54 76 36 77 39 78 53 79 72 80 37 81 38 83 52 85
REMARK SMILES IDX 73 86 40 89 24 91 25 92 33 93 26 94 27 95 31 96 34 97 28 98
REMARK SMILES IDX 29 99 32 100 30 101 56 102 57 103 65 104 58 105 59 106
REMARK SMILES IDX 63 107 66 108 60 109 61 110 64 111 62 112 41 113 42 114
REMARK SMILES IDX 50 115 43 116 44 117 48 118 51 119 45 120 46 121 49 122
REMARK SMILES IDX 47 123
REMARK H PARENT 8 2 8 3 7 5 7 6 6 8 6 9 5 13 2 15 1 17 1 18 1 19 79 24 80 28
REMARK H PARENT 81 29 83 33 9 35 9 36 10 38 10 39 11 41 11 42 12 45 16 51
REMARK H PARENT 77 53 17 55 76 56 75 66 69 68 71 70 74 72 68 73 36 82 39 84
REMARK H PARENT 72 87 37 88 73 90
REMARK Flexibility Score: inf
ROOT
ATOM      1  C   UNL A   1      41.490  21.660  26.177  1.00  0.00    -0.052 C 
ATOM      2  H   UNL A   1      42.304  22.280  26.496  1.00  0.00     0.027 H 
ATOM      3  H   UNL A   1      41.461  21.516  25.117  1.00  0.00     0.027 H 
ENDROOT
BRANCH   1   4
ATOM      4  C   UNL A   1      40.178  22.363  26.556  1.00  0.00    -0.036 C 
ATOM      5  H   UNL A   1      40.087  22.361  27.622  1.00  0.00     0.028 H 
ATOM      6  H   UNL A   1      40.224  23.354  26.156  1.00  0.00     0.028 H 
BRANCH   4   7
ATOM      7  C   UNL A   1      38.937  21.691  25.962  1.00  0.00     0.017 C 
ATOM      8  H   UNL A   1      38.998  21.712  24.894  1.00  0.00     0.049 H 
ATOM      9  H   UNL A   1      38.887  20.677  26.299  1.00  0.00     0.049 H 
BRANCH   7  10
ATOM     10  N   UNL A   1      37.747  22.397  26.390  1.00  0.00    -0.356 N 
ATOM     11  C   UNL A   1      36.632  22.736  25.680  1.00  0.00     0.227 C 
ATOM     12  O   UNL A   1      35.883  23.569  26.195  1.00  0.00    -0.274 OA
ATOM     13  H   UNL A   1      37.743  22.674  27.334  1.00  0.00     0.163 HD
BRANCH  11  14
ATOM     14  C   UNL A   1      36.316  22.018  24.355  1.00  0.00     0.066 C 
ATOM     15  H   UNL A   1      36.979  21.194  24.198  1.00  0.00     0.045 H 
BRANCH  14  16
ATOM     16  C   UNL A   1      36.600  22.901  23.136  1.00  0.00    -0.049 C 
ATOM     17  H   UNL A   1      36.310  23.909  23.352  1.00  0.00     0.024 H 
ATOM     18  H   UNL A   1      36.043  22.541  22.297  1.00  0.00     0.024 H 
ATOM     19  H   UNL A   1      37.645  22.871  22.911  1.00  0.00     0.024 H 
ENDBRANCH  14  16
BRANCH  14  20
ATOM     20  C   UNL A   1      34.911  21.430  24.446  1.00  0.00     0.030 A 
ATOM     21  C   UNL A   1      33.817  22.207  24.294  1.00  0.00    -0.051 A 
ATOM     22  C   UNL A   1      34.689  19.959  24.698  1.00  0.00     0.258 A 
ATOM     23  C   UNL A   1      32.483  21.671  24.348  1.00  0.00    -0.045 A 
ATOM     24  H   UNL A   1      33.942  23.218  24.132  1.00  0.00     0.063 H 
ATOM     25  N   UNL A   1      33.375  19.549  24.854  1.00  0.00    -0.258 N 
ATOM     26  O   UNL A   1      35.629  19.175  24.795  1.00  0.00    -0.269 OA
ATOM     27  C   UNL A   1      32.297  20.382  24.642  1.00  0.00     0.013 A 
ATOM     28  H   UNL A   1      31.671  22.281  24.159  1.00  0.00     0.064 H 
ATOM     29  H   UNL A   1      31.339  20.007  24.713  1.00  0.00     0.082 H 
BRANCH  25  30
ATOM     30  C   UNL A   1      33.148  18.174  25.220  1.00  0.00     0.321 C 
ATOM     31  F   UNL A   1      32.429  18.129  26.376  1.00  0.00    -0.185 F 
ATOM     32  F   UNL A   1      32.383  17.566  24.276  1.00  0.00    -0.185 F 
ATOM     33  H   UNL A   1      34.098  17.693  25.321  1.00  0.00     0.131 H 
ENDBRANCH  25  30
ENDBRANCH  14  20
ENDBRANCH  11  14
ENDBRANCH   7  10
ENDBRANCH   4   7
ENDBRANCH   1   4
BRANCH   1  34
ATOM     34  C   UNL A   1      41.677  20.272  26.799  1.00  0.00    -0.052 C 
ATOM     35  H   UNL A   1      40.742  19.967  27.222  1.00  0.00     0.027 H 
ATOM     36  H   UNL A   1      42.455  20.366  27.527  1.00  0.00     0.027 H 
BRANCH  34  37
ATOM     37  C   UNL A   1      42.128  19.193  25.815  1.00  0.00    -0.036 C 
ATOM     38  H   UNL A   1      42.112  19.607  24.828  1.00  0.00     0.028 H 
ATOM     39  H   UNL A   1      41.455  18.370  25.925  1.00  0.00     0.028 H 
BRANCH  37  40
ATOM     40  C   UNL A   1      43.529  18.657  26.087  1.00  0.00     0.018 C 
ATOM     41  H   UNL A   1      43.448  17.696  26.550  1.00  0.00     0.049 H 
ATOM     42  H   UNL A   1      44.032  19.351  26.727  1.00  0.00     0.049 H 
BRANCH  40  43
ATOM     43  N   UNL A   1      44.305  18.527  24.862  1.00  0.00    -0.352 N 
ATOM     44  C   UNL A   1      44.839  19.514  24.074  1.00  0.00     0.251 C 
ATOM     45  H   UNL A   1      44.470  17.605  24.559  1.00  0.00     0.163 HD
ATOM     46  O   UNL A   1      45.282  19.257  22.958  1.00  0.00    -0.269 OA
BRANCH  44  47
ATOM     47  C   UNL A   1      44.856  20.902  24.574  1.00  0.00     0.039 A 
ATOM     48  C   UNL A   1      45.397  21.168  25.834  1.00  0.00    -0.049 A 
ATOM     49  C   UNL A   1      44.362  21.941  23.780  1.00  0.00    -0.049 A 
ATOM     50  C   UNL A   1      45.501  22.489  26.273  1.00  0.00    -0.053 A 
ATOM     51  H   UNL A   1      45.716  20.393  26.436  1.00  0.00     0.063 H 
ATOM     52  C   UNL A   1      44.540  23.258  24.185  1.00  0.00    -0.053 A 
ATOM     53  H   UNL A   1      43.868  21.730  22.899  1.00  0.00     0.063 H 
ATOM     54  C   UNL A   1      45.106  23.545  25.436  1.00  0.00    -0.014 A 
ATOM     55  H   UNL A   1      45.867  22.690  27.217  1.00  0.00     0.063 H 
ATOM     56  H   UNL A   1      44.253  24.029  23.561  1.00  0.00     0.063 H 
BRANCH  54  57
ATOM     57  C   UNL A   1      45.267  24.963  25.842  1.00  0.00     0.031 A 
ATOM     58  C   UNL A   1      46.627  25.600  25.799  1.00  0.00     0.074 A 
ATOM     59  C   UNL A   1      44.218  25.641  26.344  1.00  0.00     0.049 A 
ATOM     60  N   UNL A   1      47.008  26.774  26.236  1.00  0.00    -0.248 NA
ATOM     61  C   UNL A   1      47.710  24.792  25.220  1.00  0.00    -0.034 C 
ATOM     62  C   UNL A   1      42.860  25.113  26.481  1.00  0.00    -0.036 A 
ATOM     63  N   UNL A   1      44.136  26.910  26.860  1.00  0.00    -0.354 N 
ATOM     64  C   UNL A   1      48.375  26.833  26.006  1.00  0.00     0.074 A 
ATOM     65  C   UNL A   1      48.766  25.559  25.445  1.00  0.00    -0.034 C 
ATOM     66  H   UNL A   1      47.661  23.871  24.759  1.00  0.00     0.065 H 
ATOM     67  C   UNL A   1      42.081  26.050  27.042  1.00  0.00    -0.036 A 
ATOM     68  H   UNL A   1      42.552  24.171  26.192  1.00  0.00     0.065 H 
ATOM     69  C   UNL A   1      42.892  27.225  27.347  1.00  0.00     0.049 A 
ATOM     70  H   UNL A   1      44.897  27.534  26.879  1.00  0.00     0.167 HD
ATOM     71  C   UNL A   1      49.224  27.865  26.226  1.00  0.00     0.037 A 
ATOM     72  H   UNL A   1      49.741  25.282  25.247  1.00  0.00     0.065 H 
ATOM     73  H   UNL A   1      41.070  25.954  27.229  1.00  0.00     0.065 H 
ATOM     74  C   UNL A   1      42.459  28.325  27.992  1.00  0.00     0.037 A 
ATOM     75  C   UNL A   1      48.821  29.136  26.768  1.00  0.00     0.049 A 
ATOM     76  C   UNL A   1      43.417  29.459  28.237  1.00  0.00     0.074 A 
ATOM     77  C   UNL A   1      49.584  30.274  26.962  1.00  0.00    -0.036 A 
ATOM     78  N   UNL A   1      47.541  29.432  27.218  1.00  0.00    -0.354 N 
ATOM     79  N   UNL A   1      44.693  29.538  27.944  1.00  0.00    -0.248 NA
ATOM     80  C   UNL A   1      42.878  30.658  28.892  1.00  0.00    -0.034 C 
ATOM     81  C   UNL A   1      48.784  31.234  27.589  1.00  0.00    -0.036 A 
ATOM     82  H   UNL A   1      50.572  30.392  26.690  1.00  0.00     0.065 H 
ATOM     83  C   UNL A   1      47.503  30.722  27.722  1.00  0.00     0.049 A 
ATOM     84  H   UNL A   1      46.774  28.816  27.184  1.00  0.00     0.167 HD
ATOM     85  C   UNL A   1      45.103  30.800  28.354  1.00  0.00     0.074 A 
ATOM     86  C   UNL A   1      43.937  31.455  28.911  1.00  0.00    -0.034 C 
ATOM     87  H   UNL A   1      41.925  30.834  29.246  1.00  0.00     0.065 H 
ATOM     88  H   UNL A   1      49.096  32.167  27.900  1.00  0.00     0.065 H 
ATOM     89  C   UNL A   1      46.332  31.364  28.270  1.00  0.00     0.037 A 
ATOM     90  H   UNL A   1      43.932  32.420  29.276  1.00  0.00     0.065 H 
BRANCH  71  91
ATOM     91  C   UNL A   1      50.675  27.650  25.898  1.00  0.00     0.064 A 
ATOM     92  C   UNL A   1      51.179  27.834  24.601  1.00  0.00     0.173 A 
ATOM     93  C   UNL A   1      51.576  27.253  26.897  1.00  0.00     0.173 A 
ATOM     94  F   UNL A   1      50.360  28.205  23.604  1.00  0.00    -0.203 F 
ATOM     95  C   UNL A   1      52.515  27.579  24.307  1.00  0.00     0.198 A 
ATOM     96  C   UNL A   1      52.921  27.038  26.608  1.00  0.00     0.198 A 
ATOM     97  F   UNL A   1      51.154  27.072  28.157  1.00  0.00    -0.203 F 
ATOM     98  F   UNL A   1      52.955  27.690  23.045  1.00  0.00    -0.200 F 
ATOM     99  C   UNL A   1      53.387  27.185  25.311  1.00  0.00     0.200 A 
ATOM    100  F   UNL A   1      53.765  26.673  27.584  1.00  0.00    -0.200 F 
ATOM    101  F   UNL A   1      54.672  26.938  25.026  1.00  0.00    -0.200 F 
ENDBRANCH  71  91
BRANCH  74 102
ATOM    102  C   UNL A   1      41.045  28.396  28.444  1.00  0.00     0.064 A 
ATOM    103  C   UNL A   1      40.671  27.967  29.725  1.00  0.00     0.173 A 
ATOM    104  C   UNL A   1      40.045  28.931  27.617  1.00  0.00     0.173 A 
ATOM    105  F   UNL A   1      41.587  27.433  30.545  1.00  0.00    -0.203 F 
ATOM    106  C   UNL A   1      39.351  28.064  30.159  1.00  0.00     0.198 A 
ATOM    107  C   UNL A   1      38.731  29.054  28.062  1.00  0.00     0.198 A 
ATOM    108  F   UNL A   1      40.352  29.363  26.386  1.00  0.00    -0.203 F 
ATOM    109  F   UNL A   1      39.015  27.619  31.377  1.00  0.00    -0.200 F 
ATOM    110  C   UNL A   1      38.384  28.615  29.331  1.00  0.00     0.200 A 
ATOM    111  F   UNL A   1      37.804  29.605  27.267  1.00  0.00    -0.200 F 
ATOM    112  F   UNL A   1      37.117  28.723  29.755  1.00  0.00    -0.200 F 
ENDBRANCH  74 102
BRANCH  89 113
ATOM    113  C   UNL A   1      46.487  32.778  28.755  1.00  0.00     0.064 A 
ATOM    114  C   UNL A   1      46.268  33.876  27.911  1.00  0.00     0.173 A 
ATOM    115  C   UNL A   1      46.780  33.033  30.103  1.00  0.00     0.173 A 
ATOM    116  F   UNL A   1      46.000  33.687  26.611  1.00  0.00    -0.203 F 
ATOM    117  C   UNL A   1      46.345  35.178  28.400  1.00  0.00     0.198 A 
ATOM    118  C   UNL A   1      46.826  34.334  30.595  1.00  0.00     0.198 A 
ATOM    119  F   UNL A   1      46.994  32.016  30.953  1.00  0.00    -0.203 F 
ATOM    120  F   UNL A   1      46.163  36.215  27.570  1.00  0.00    -0.200 F 
ATOM    121  C   UNL A   1      46.611  35.405  29.743  1.00  0.00     0.200 A 
ATOM    122  F   UNL A   1      47.066  34.549  31.896  1.00  0.00    -0.200 F 
ATOM    123  F   UNL A   1      46.662  36.659  30.214  1.00  0.00    -0.200 F 
ENDBRANCH  89 113
ENDBRANCH  54  57
ENDBRANCH  44  47
ENDBRANCH  40  43
ENDBRANCH  37  40
ENDBRANCH  34  37
ENDBRANCH   1  34
TORSDOF 16
ENDMDL
MODEL 4
REMARK VINA RESULT:     -11.1      0.598      1.733
REMARK SMILES C[C@@H](C(=O)NCCCCCCNC(=O)c1ccc(-c2c3nc(c(-c4c(F)c(F)c(F)c(F)c4F)c4ccc([nH]4)c(-c4c(F)c(F)c(F)c(F)c4F)c4nc(c(-c5c(F)c(F)c(F)c(F)c5F)c5ccc2[nH]5)C=C4)C=C3)cc1)c1cccn(C(F)F)c1=O
REMARK SMILES IDX 8 1 7 4 6 7 5 10 3 11 4 12 2 14 1 16 78 20 79 21 86 22 80 23
REMARK SMILES IDX 82 25 87 26 81 27 83 30 84 31 85 32 9 34 10 37 11 40 12 43
REMARK SMILES IDX 13 44 14 46 15 47 16 48 77 49 17 50 76 52 18 54 19 57 20 58
REMARK SMILES IDX 70 59 21 60 75 61 69 62 71 63 22 64 74 65 68 67 67 69 23 71
REMARK SMILES IDX 55 74 35 75 54 76 36 77 39 78 53 79 72 80 37 81 38 83 52 85
REMARK SMILES IDX 73 86 40 89 24 91 25 92 33 93 26 94 27 95 31 96 34 97 28 98
REMARK SMILES IDX 29 99 32 100 30 101 56 102 57 103 65 104 58 105 59 106
REMARK SMILES IDX 63 107 66 108 60 109 61 110 64 111 62 112 41 113 42 114
REMARK SMILES IDX 50 115 43 116 44 117 48 118 51 119 45 120 46 121 49 122
REMARK SMILES IDX 47 123
REMARK H PARENT 8 2 8 3 7 5 7 6 6 8 6 9 5 13 2 15 1 17 1 18 1 19 79 24 80 28
REMARK H PARENT 81 29 83 33 9 35 9 36 10 38 10 39 11 41 11 42 12 45 16 51
REMARK H PARENT 77 53 17 55 76 56 75 66 69 68 71 70 74 72 68 73 36 82 39 84
REMARK H PARENT 72 87 37 88 73 90
REMARK Flexibility Score: inf
ROOT
ATOM      1  C   UNL A   1      31.733  29.386  27.248  1.00  0.00    -0.052 C 
ATOM      2  H   UNL A   1      32.011  29.838  28.179  1.00  0.00     0.027 H 
ATOM      3  H   UNL A   1      30.738  28.991  27.252  1.00  0.00     0.027 H 
ENDROOT
BRANCH   1   4
ATOM      4  C   UNL A   1      32.671  28.196  26.997  1.00  0.00    -0.036 C 
ATOM      5  H   UNL A   1      33.574  28.563  26.555  1.00  0.00     0.028 H 
ATOM      6  H   UNL A   1      32.846  27.726  27.942  1.00  0.00     0.028 H 
BRANCH   4   7
ATOM      7  C   UNL A   1      32.071  27.137  26.068  1.00  0.00     0.017 C 
ATOM      8  H   UNL A   1      31.142  27.495  25.674  1.00  0.00     0.049 H 
ATOM      9  H   UNL A   1      32.751  26.943  25.265  1.00  0.00     0.049 H 
BRANCH   7  10
ATOM     10  N   UNL A   1      31.840  25.913  26.807  1.00  0.00    -0.356 N 
ATOM     11  C   UNL A   1      31.540  24.662  26.351  1.00  0.00     0.227 C 
ATOM     12  O   UNL A   1      31.124  23.857  27.186  1.00  0.00    -0.274 OA
ATOM     13  H   UNL A   1      31.910  25.998  27.785  1.00  0.00     0.163 HD
BRANCH  11  14
ATOM     14  C   UNL A   1      31.816  24.293  24.881  1.00  0.00     0.066 C 
ATOM     15  H   UNL A   1      32.459  25.012  24.419  1.00  0.00     0.045 H 
BRANCH  14  16
ATOM     16  C   UNL A   1      30.555  24.381  24.016  1.00  0.00    -0.049 C 
ATOM     17  H   UNL A   1      30.331  23.415  23.614  1.00  0.00     0.024 H 
ATOM     18  H   UNL A   1      30.719  25.072  23.215  1.00  0.00     0.024 H 
ATOM     19  H   UNL A   1      29.735  24.717  24.615  1.00  0.00     0.024 H 
ENDBRANCH  14  16
BRANCH  14  20
ATOM     20  C   UNL A   1      32.563  22.963  24.849  1.00  0.00     0.030 A 
ATOM     21  C   UNL A   1      31.897  21.788  24.831  1.00  0.00    -0.051 A 
ATOM     22  C   UNL A   1      34.070  22.908  24.822  1.00  0.00     0.258 A 
ATOM     23  C   UNL A   1      32.577  20.522  24.773  1.00  0.00    -0.045 A 
ATOM     24  H   UNL A   1      30.866  21.799  24.860  1.00  0.00     0.063 H 
ATOM     25  N   UNL A   1      34.645  21.649  24.886  1.00  0.00    -0.258 N 
ATOM     26  O   UNL A   1      34.749  23.930  24.781  1.00  0.00    -0.269 OA
ATOM     27  C   UNL A   1      33.911  20.483  24.822  1.00  0.00     0.013 A 
ATOM     28  H   UNL A   1      32.037  19.646  24.692  1.00  0.00     0.064 H 
ATOM     29  H   UNL A   1      34.397  19.574  24.812  1.00  0.00     0.082 H 
BRANCH  25  30
ATOM     30  C   UNL A   1      36.080  21.580  24.989  1.00  0.00     0.321 C 
ATOM     31  F   UNL A   1      36.449  20.306  25.298  1.00  0.00    -0.185 F 
ATOM     32  F   UNL A   1      36.643  21.853  23.783  1.00  0.00    -0.185 F 
ATOM     33  H   UNL A   1      36.397  22.279  25.735  1.00  0.00     0.131 H 
ENDBRANCH  25  30
ENDBRANCH  14  20
ENDBRANCH  11  14
ENDBRANCH   7  10
ENDBRANCH   4   7
ENDBRANCH   1   4
BRANCH   1  34
ATOM     34  C   UNL A   1      31.765  30.468  26.164  1.00  0.00    -0.052 C 
ATOM     35  H   UNL A   1      31.038  30.217  25.419  1.00  0.00     0.027 H 
ATOM     36  H   UNL A   1      32.765  30.489  25.783  1.00  0.00     0.027 H 
BRANCH  34  37
ATOM     37  C   UNL A   1      31.462  31.879  26.669  1.00  0.00    -0.036 C 
ATOM     38  H   UNL A   1      30.686  31.817  27.402  1.00  0.00     0.028 H 
ATOM     39  H   UNL A   1      31.175  32.459  25.817  1.00  0.00     0.028 H 
BRANCH  37  40
ATOM     40  C   UNL A   1      32.660  32.581  27.297  1.00  0.00     0.018 C 
ATOM     41  H   UNL A   1      33.497  32.495  26.636  1.00  0.00     0.049 H 
ATOM     42  H   UNL A   1      32.864  32.113  28.238  1.00  0.00     0.049 H 
BRANCH  40  43
ATOM     43  N   UNL A   1      32.394  33.991  27.542  1.00  0.00    -0.352 N 
ATOM     44  C   UNL A   1      32.956  34.823  28.476  1.00  0.00     0.251 C 
ATOM     45  H   UNL A   1      31.719  34.404  26.956  1.00  0.00     0.163 HD
ATOM     46  O   UNL A   1      32.475  35.929  28.704  1.00  0.00    -0.269 OA
BRANCH  44  47
ATOM     47  C   UNL A   1      34.142  34.364  29.225  1.00  0.00     0.039 A 
ATOM     48  C   UNL A   1      33.967  33.659  30.417  1.00  0.00    -0.049 A 
ATOM     49  C   UNL A   1      35.425  34.612  28.728  1.00  0.00    -0.049 A 
ATOM     50  C   UNL A   1      35.082  33.143  31.081  1.00  0.00    -0.053 A 
ATOM     51  H   UNL A   1      33.021  33.521  30.805  1.00  0.00     0.063 H 
ATOM     52  C   UNL A   1      36.524  34.030  29.347  1.00  0.00    -0.053 A 
ATOM     53  H   UNL A   1      35.554  35.223  27.907  1.00  0.00     0.063 H 
ATOM     54  C   UNL A   1      36.365  33.294  30.531  1.00  0.00    -0.014 A 
ATOM     55  H   UNL A   1      34.962  32.651  31.980  1.00  0.00     0.063 H 
ATOM     56  H   UNL A   1      37.464  34.140  28.932  1.00  0.00     0.063 H 
BRANCH  54  57
ATOM     57  C   UNL A   1      37.563  32.699  31.173  1.00  0.00     0.031 A 
ATOM     58  C   UNL A   1      38.262  31.543  30.517  1.00  0.00     0.074 A 
ATOM     59  C   UNL A   1      37.956  33.128  32.387  1.00  0.00     0.049 A 
ATOM     60  N   UNL A   1      39.235  30.795  30.972  1.00  0.00    -0.248 NA
ATOM     61  C   UNL A   1      37.774  31.153  29.185  1.00  0.00    -0.034 C 
ATOM     62  C   UNL A   1      37.327  34.210  33.144  1.00  0.00    -0.036 A 
ATOM     63  N   UNL A   1      38.962  32.685  33.210  1.00  0.00    -0.354 N 
ATOM     64  C   UNL A   1      39.457  29.834  29.995  1.00  0.00     0.074 A 
ATOM     65  C   UNL A   1      38.483  30.059  28.950  1.00  0.00    -0.034 C 
ATOM     66  H   UNL A   1      37.068  31.612  28.590  1.00  0.00     0.065 H 
ATOM     67  C   UNL A   1      37.960  34.348  34.319  1.00  0.00    -0.036 A 
ATOM     68  H   UNL A   1      36.525  34.777  32.825  1.00  0.00     0.065 H 
ATOM     69  C   UNL A   1      39.008  33.335  34.418  1.00  0.00     0.049 A 
ATOM     70  H   UNL A   1      39.589  31.969  32.957  1.00  0.00     0.167 HD
ATOM     71  C   UNL A   1      40.403  28.865  29.965  1.00  0.00     0.037 A 
ATOM     72  H   UNL A   1      38.355  29.446  28.129  1.00  0.00     0.065 H 
ATOM     73  H   UNL A   1      37.742  35.057  35.037  1.00  0.00     0.065 H 
ATOM     74  C   UNL A   1      39.788  33.123  35.495  1.00  0.00     0.037 A 
ATOM     75  C   UNL A   1      41.380  28.662  31.002  1.00  0.00     0.049 A 
ATOM     76  C   UNL A   1      40.827  32.036  35.448  1.00  0.00     0.074 A 
ATOM     77  C   UNL A   1      42.427  27.759  31.036  1.00  0.00    -0.036 A 
ATOM     78  N   UNL A   1      41.419  29.366  32.198  1.00  0.00    -0.354 N 
ATOM     79  N   UNL A   1      41.084  31.183  34.486  1.00  0.00    -0.248 NA
ATOM     80  C   UNL A   1      41.688  31.886  36.628  1.00  0.00    -0.034 C 
ATOM     81  C   UNL A   1      43.059  27.870  32.279  1.00  0.00    -0.036 A 
ATOM     82  H   UNL A   1      42.696  27.115  30.276  1.00  0.00     0.065 H 
ATOM     83  C   UNL A   1      42.451  28.892  32.992  1.00  0.00     0.049 A 
ATOM     84  H   UNL A   1      40.804  30.094  32.445  1.00  0.00     0.167 HD
ATOM     85  C   UNL A   1      42.151  30.413  34.932  1.00  0.00     0.074 A 
ATOM     86  C   UNL A   1      42.497  30.906  36.249  1.00  0.00    -0.034 C 
ATOM     87  H   UNL A   1      41.670  32.406  37.519  1.00  0.00     0.065 H 
ATOM     88  H   UNL A   1      43.845  27.290  32.609  1.00  0.00     0.065 H 
ATOM     89  C   UNL A   1      42.787  29.395  34.302  1.00  0.00     0.037 A 
ATOM     90  H   UNL A   1      43.274  30.540  36.820  1.00  0.00     0.065 H 
BRANCH  71  91
ATOM     91  C   UNL A   1      40.408  27.941  28.780  1.00  0.00     0.064 A 
ATOM     92  C   UNL A   1      39.719  26.717  28.788  1.00  0.00     0.173 A 
ATOM     93  C   UNL A   1      41.115  28.282  27.617  1.00  0.00     0.173 A 
ATOM     94  F   UNL A   1      39.032  26.336  29.877  1.00  0.00    -0.203 F 
ATOM     95  C   UNL A   1      39.779  25.852  27.700  1.00  0.00     0.198 A 
ATOM     96  C   UNL A   1      41.140  27.432  26.515  1.00  0.00     0.198 A 
ATOM     97  F   UNL A   1      41.785  29.442  27.548  1.00  0.00    -0.203 F 
ATOM     98  F   UNL A   1      39.173  24.658  27.761  1.00  0.00    -0.200 F 
ATOM     99  C   UNL A   1      40.486  26.211  26.562  1.00  0.00     0.200 A 
ATOM    100  F   UNL A   1      41.811  27.789  25.410  1.00  0.00    -0.200 F 
ATOM    101  F   UNL A   1      40.545  25.376  25.516  1.00  0.00    -0.200 F 
ENDBRANCH  71  91
BRANCH  74 102
ATOM    102  C   UNL A   1      39.607  33.969  36.704  1.00  0.00     0.064 A 
ATOM    103  C   UNL A   1      38.811  33.541  37.774  1.00  0.00     0.173 A 
ATOM    104  C   UNL A   1      40.260  35.205  36.828  1.00  0.00     0.173 A 
ATOM    105  F   UNL A   1      38.153  32.376  37.695  1.00  0.00    -0.203 F 
ATOM    106  C   UNL A   1      38.667  34.321  38.921  1.00  0.00     0.198 A 
ATOM    107  C   UNL A   1      40.139  35.970  37.986  1.00  0.00     0.198 A 
ATOM    108  F   UNL A   1      41.040  35.655  35.836  1.00  0.00    -0.203 F 
ATOM    109  F   UNL A   1      37.875  33.903  39.917  1.00  0.00    -0.200 F 
ATOM    110  C   UNL A   1      39.339  35.529  39.030  1.00  0.00     0.200 A 
ATOM    111  F   UNL A   1      40.805  37.127  38.095  1.00  0.00    -0.200 F 
ATOM    112  F   UNL A   1      39.214  36.271  40.138  1.00  0.00    -0.200 F 
ENDBRANCH  74 102
BRANCH  89 113
ATOM    113  C   UNL A   1      43.954  28.760  35.004  1.00  0.00     0.064 A 
ATOM    114  C   UNL A   1      45.255  29.269  34.885  1.00  0.00     0.173 A 
ATOM    115  C   UNL A   1      43.749  27.676  35.871  1.00  0.00     0.173 A 
ATOM    116  F   UNL A   1      45.506  30.294  34.058  1.00  0.00    -0.203 F 
ATOM    117  C   UNL A   1      46.309  28.710  35.603  1.00  0.00     0.198 A 
ATOM    118  C   UNL A   1      44.799  27.138  36.610  1.00  0.00     0.198 A 
ATOM    119  F   UNL A   1      42.522  27.154  36.024  1.00  0.00    -0.203 F 
ATOM    120  F   UNL A   1      47.550  29.191  35.450  1.00  0.00    -0.200 F 
ATOM    121  C   UNL A   1      46.078  27.654  36.473  1.00  0.00     0.200 A 
ATOM    122  F   UNL A   1      44.570  26.130  37.463  1.00  0.00    -0.200 F 
ATOM    123  F   UNL A   1      47.091  27.133  37.179  1.00  0.00    -0.200 F 
ENDBRANCH  89 113
ENDBRANCH  54  57
ENDBRANCH  44  47
ENDBRANCH  40  43
ENDBRANCH  37  40
ENDBRANCH  34  37
ENDBRANCH   1  34
TORSDOF 16
ENDMDL
MODEL 5
REMARK VINA RESULT:     -11.1      5.353     10.720
REMARK SMILES C[C@@H](C(=O)NCCCCCCNC(=O)c1ccc(-c2c3nc(c(-c4c(F)c(F)c(F)c(F)c4F)c4ccc([nH]4)c(-c4c(F)c(F)c(F)c(F)c4F)c4nc(c(-c5c(F)c(F)c(F)c(F)c5F)c5ccc2[nH]5)C=C4)C=C3)cc1)c1cccn(C(F)F)c1=O
REMARK SMILES IDX 8 1 7 4 6 7 5 10 3 11 4 12 2 14 1 16 78 20 79 21 86 22 80 23
REMARK SMILES IDX 82 25 87 26 81 27 83 30 84 31 85 32 9 34 10 37 11 40 12 43
REMARK SMILES IDX 13 44 14 46 15 47 16 48 77 49 17 50 76 52 18 54 19 57 20 58
REMARK SMILES IDX 70 59 21 60 75 61 69 62 71 63 22 64 74 65 68 67 67 69 23 71
REMARK SMILES IDX 55 74 35 75 54 76 36 77 39 78 53 79 72 80 37 81 38 83 52 85
REMARK SMILES IDX 73 86 40 89 24 91 25 92 33 93 26 94 27 95 31 96 34 97 28 98
REMARK SMILES IDX 29 99 32 100 30 101 56 102 57 103 65 104 58 105 59 106
REMARK SMILES IDX 63 107 66 108 60 109 61 110 64 111 62 112 41 113 42 114
REMARK SMILES IDX 50 115 43 116 44 117 48 118 51 119 45 120 46 121 49 122
REMARK SMILES IDX 47 123
REMARK H PARENT 8 2 8 3 7 5 7 6 6 8 6 9 5 13 2 15 1 17 1 18 1 19 79 24 80 28
REMARK H PARENT 81 29 83 33 9 35 9 36 10 38 10 39 11 41 11 42 12 45 16 51
REMARK H PARENT 77 53 17 55 76 56 75 66 69 68 71 70 74 72 68 73 36 82 39 84
REMARK H PARENT 72 87 37 88 73 90
REMARK Flexibility Score: inf
ROOT
ATOM      1  C   UNL A   1      37.388  22.471  25.449  1.00  0.00    -0.052 C 
ATOM      2  H   UNL A   1      37.391  22.228  26.492  1.00  0.00     0.027 H 
ATOM      3  H   UNL A   1      38.331  22.837  25.099  1.00  0.00     0.027 H 
ENDROOT
BRANCH   1   4
ATOM      4  C   UNL A   1      36.374  23.603  25.225  1.00  0.00    -0.036 C 
ATOM      5  H   UNL A   1      36.130  24.033  26.174  1.00  0.00     0.028 H 
ATOM      6  H   UNL A   1      36.831  24.312  24.567  1.00  0.00     0.028 H 
BRANCH   4   7
ATOM      7  C   UNL A   1      35.079  23.133  24.557  1.00  0.00     0.017 C 
ATOM      8  H   UNL A   1      35.195  22.122  24.228  1.00  0.00     0.049 H 
ATOM      9  H   UNL A   1      34.275  23.192  25.260  1.00  0.00     0.049 H 
BRANCH   7  10
ATOM     10  N   UNL A   1      34.782  23.979  23.419  1.00  0.00    -0.356 N 
ATOM     11  C   UNL A   1      33.588  24.488  22.999  1.00  0.00     0.227 C 
ATOM     12  O   UNL A   1      33.556  24.949  21.856  1.00  0.00    -0.274 OA
ATOM     13  H   UNL A   1      35.559  24.221  22.866  1.00  0.00     0.163 HD
BRANCH  11  14
ATOM     14  C   UNL A   1      32.394  24.552  23.971  1.00  0.00     0.066 C 
ATOM     15  H   UNL A   1      32.606  24.017  24.873  1.00  0.00     0.045 H 
BRANCH  14  16
ATOM     16  C   UNL A   1      31.169  23.808  23.432  1.00  0.00    -0.049 C 
ATOM     17  H   UNL A   1      30.474  23.643  24.229  1.00  0.00     0.024 H 
ATOM     18  H   UNL A   1      31.473  22.866  23.024  1.00  0.00     0.024 H 
ATOM     19  H   UNL A   1      30.703  24.394  22.668  1.00  0.00     0.024 H 
ENDBRANCH  14  16
BRANCH  14  20
ATOM     20  C   UNL A   1      32.175  26.007  24.373  1.00  0.00     0.030 A 
ATOM     21  C   UNL A   1      31.109  26.703  23.921  1.00  0.00    -0.051 A 
ATOM     22  C   UNL A   1      33.130  26.720  25.298  1.00  0.00     0.258 A 
ATOM     23  C   UNL A   1      30.865  28.067  24.308  1.00  0.00    -0.045 A 
ATOM     24  H   UNL A   1      30.448  26.242  23.278  1.00  0.00     0.063 H 
ATOM     25  N   UNL A   1      32.885  28.064  25.523  1.00  0.00    -0.258 N 
ATOM     26  O   UNL A   1      34.093  26.143  25.796  1.00  0.00    -0.269 OA
ATOM     27  C   UNL A   1      31.754  28.710  25.069  1.00  0.00     0.013 A 
ATOM     28  H   UNL A   1      30.006  28.548  23.999  1.00  0.00     0.064 H 
ATOM     29  H   UNL A   1      31.595  29.698  25.319  1.00  0.00     0.082 H 
BRANCH  25  30
ATOM     30  C   UNL A   1      33.855  28.794  26.301  1.00  0.00     0.321 C 
ATOM     31  F   UNL A   1      33.585  30.126  26.222  1.00  0.00    -0.185 F 
ATOM     32  F   UNL A   1      33.737  28.462  27.613  1.00  0.00    -0.185 F 
ATOM     33  H   UNL A   1      34.829  28.561  25.926  1.00  0.00     0.131 H 
ENDBRANCH  25  30
ENDBRANCH  14  20
ENDBRANCH  11  14
ENDBRANCH   7  10
ENDBRANCH   4   7
ENDBRANCH   1   4
BRANCH   1  34
ATOM     34  C   UNL A   1      37.101  21.189  24.660  1.00  0.00    -0.052 C 
ATOM     35  H   UNL A   1      37.242  21.398  23.620  1.00  0.00     0.027 H 
ATOM     36  H   UNL A   1      36.098  20.903  24.898  1.00  0.00     0.027 H 
BRANCH  34  37
ATOM     37  C   UNL A   1      37.992  20.004  25.033  1.00  0.00    -0.036 C 
ATOM     38  H   UNL A   1      38.317  19.528  24.131  1.00  0.00     0.028 H 
ATOM     39  H   UNL A   1      37.407  19.356  25.651  1.00  0.00     0.028 H 
BRANCH  37  40
ATOM     40  C   UNL A   1      39.226  20.390  25.841  1.00  0.00     0.018 C 
ATOM     41  H   UNL A   1      38.922  20.641  26.836  1.00  0.00     0.049 H 
ATOM     42  H   UNL A   1      39.693  21.223  25.359  1.00  0.00     0.049 H 
BRANCH  40  43
ATOM     43  N   UNL A   1      40.192  19.303  25.904  1.00  0.00    -0.352 N 
ATOM     44  C   UNL A   1      41.547  19.368  26.108  1.00  0.00     0.251 C 
ATOM     45  H   UNL A   1      39.823  18.398  25.784  1.00  0.00     0.163 HD
ATOM     46  O   UNL A   1      42.259  18.386  25.919  1.00  0.00    -0.269 OA
BRANCH  44  47
ATOM     47  C   UNL A   1      42.148  20.644  26.539  1.00  0.00     0.039 A 
ATOM     48  C   UNL A   1      42.651  21.523  25.578  1.00  0.00    -0.049 A 
ATOM     49  C   UNL A   1      42.187  20.979  27.896  1.00  0.00    -0.049 A 
ATOM     50  C   UNL A   1      43.136  22.771  25.973  1.00  0.00    -0.053 A 
ATOM     51  H   UNL A   1      42.665  21.252  24.582  1.00  0.00     0.063 H 
ATOM     52  C   UNL A   1      42.595  22.250  28.278  1.00  0.00    -0.053 A 
ATOM     53  H   UNL A   1      41.913  20.285  28.609  1.00  0.00     0.063 H 
ATOM     54  C   UNL A   1      43.078  23.157  27.322  1.00  0.00    -0.014 A 
ATOM     55  H   UNL A   1      43.541  23.411  25.272  1.00  0.00     0.063 H 
ATOM     56  H   UNL A   1      42.543  22.529  29.271  1.00  0.00     0.063 H 
BRANCH  54  57
ATOM     57  C   UNL A   1      43.519  24.501  27.768  1.00  0.00     0.031 A 
ATOM     58  C   UNL A   1      42.496  25.547  28.108  1.00  0.00     0.074 A 
ATOM     59  C   UNL A   1      44.829  24.812  27.766  1.00  0.00     0.049 A 
ATOM     60  N   UNL A   1      42.664  26.815  28.384  1.00  0.00    -0.248 NA
ATOM     61  C   UNL A   1      41.090  25.114  28.099  1.00  0.00    -0.034 C 
ATOM     62  C   UNL A   1      45.913  23.897  27.409  1.00  0.00    -0.036 A 
ATOM     63  N   UNL A   1      45.469  25.994  28.047  1.00  0.00    -0.354 N 
ATOM     64  C   UNL A   1      41.388  27.334  28.557  1.00  0.00     0.074 A 
ATOM     65  C   UNL A   1      40.456  26.259  28.299  1.00  0.00    -0.034 C 
ATOM     66  H   UNL A   1      40.701  24.167  27.971  1.00  0.00     0.065 H 
ATOM     67  C   UNL A   1      47.083  24.549  27.492  1.00  0.00    -0.036 A 
ATOM     68  H   UNL A   1      45.796  22.908  27.137  1.00  0.00     0.065 H 
ATOM     69  C   UNL A   1      46.828  25.939  27.863  1.00  0.00     0.049 A 
ATOM     70  H   UNL A   1      44.998  26.803  28.350  1.00  0.00     0.167 HD
ATOM     71  C   UNL A   1      41.030  28.589  28.917  1.00  0.00     0.037 A 
ATOM     72  H   UNL A   1      39.429  26.369  28.274  1.00  0.00     0.065 H 
ATOM     73  H   UNL A   1      48.013  24.135  27.322  1.00  0.00     0.065 H 
ATOM     74  C   UNL A   1      47.763  26.904  27.955  1.00  0.00     0.037 A 
ATOM     75  C   UNL A   1      41.967  29.647  29.188  1.00  0.00     0.049 A 
ATOM     76  C   UNL A   1      47.346  28.295  28.347  1.00  0.00     0.074 A 
ATOM     77  C   UNL A   1      41.714  30.932  29.632  1.00  0.00    -0.036 A 
ATOM     78  N   UNL A   1      43.343  29.543  29.026  1.00  0.00    -0.354 N 
ATOM     79  N   UNL A   1      46.143  28.759  28.587  1.00  0.00    -0.248 NA
ATOM     80  C   UNL A   1      48.412  29.296  28.489  1.00  0.00    -0.034 C 
ATOM     81  C   UNL A   1      42.927  31.626  29.675  1.00  0.00    -0.036 A 
ATOM     82  H   UNL A   1      40.789  31.312  29.887  1.00  0.00     0.065 H 
ATOM     83  C   UNL A   1      43.947  30.753  29.327  1.00  0.00     0.049 A 
ATOM     84  H   UNL A   1      43.818  28.730  28.740  1.00  0.00     0.167 HD
ATOM     85  C   UNL A   1      46.308  30.094  28.934  1.00  0.00     0.074 A 
ATOM     86  C   UNL A   1      47.730  30.364  28.879  1.00  0.00    -0.034 C 
ATOM     87  H   UNL A   1      49.426  29.194  28.328  1.00  0.00     0.065 H 
ATOM     88  H   UNL A   1      43.044  32.620  29.923  1.00  0.00     0.065 H 
ATOM     89  C   UNL A   1      45.366  31.008  29.272  1.00  0.00     0.037 A 
ATOM     90  H   UNL A   1      48.158  31.274  29.112  1.00  0.00     0.065 H 
BRANCH  71  91
ATOM     91  C   UNL A   1      39.560  28.887  29.016  1.00  0.00     0.064 A 
ATOM     92  C   UNL A   1      38.809  29.303  27.905  1.00  0.00     0.173 A 
ATOM     93  C   UNL A   1      38.891  28.756  30.242  1.00  0.00     0.173 A 
ATOM     94  F   UNL A   1      39.399  29.452  26.708  1.00  0.00    -0.203 F 
ATOM     95  C   UNL A   1      37.460  29.624  28.029  1.00  0.00     0.198 A 
ATOM     96  C   UNL A   1      37.533  29.040  30.354  1.00  0.00     0.198 A 
ATOM     97  F   UNL A   1      39.555  28.354  31.336  1.00  0.00    -0.203 F 
ATOM     98  F   UNL A   1      36.784  30.089  26.969  1.00  0.00    -0.200 F 
ATOM     99  C   UNL A   1      36.822  29.488  29.252  1.00  0.00     0.200 A 
ATOM    100  F   UNL A   1      36.914  28.892  31.534  1.00  0.00    -0.200 F 
ATOM    101  F   UNL A   1      35.524  29.800  29.371  1.00  0.00    -0.200 F 
ENDBRANCH  71  91
BRANCH  74 102
ATOM    102  C   UNL A   1      49.183  26.573  27.672  1.00  0.00     0.064 A 
ATOM    103  C   UNL A   1      50.092  26.334  28.711  1.00  0.00     0.173 A 
ATOM    104  C   UNL A   1      49.651  26.452  26.354  1.00  0.00     0.173 A 
ATOM    105  F   UNL A   1      49.698  26.454  29.986  1.00  0.00    -0.203 F 
ATOM    106  C   UNL A   1      51.417  25.992  28.444  1.00  0.00     0.198 A 
ATOM    107  C   UNL A   1      50.968  26.082  26.088  1.00  0.00     0.198 A 
ATOM    108  F   UNL A   1      48.820  26.663  25.324  1.00  0.00    -0.203 F 
ATOM    109  F   UNL A   1      52.273  25.798  29.456  1.00  0.00    -0.200 F 
ATOM    110  C   UNL A   1      51.851  25.857  27.133  1.00  0.00     0.200 A 
ATOM    111  F   UNL A   1      51.377  25.935  24.821  1.00  0.00    -0.200 F 
ATOM    112  F   UNL A   1      53.120  25.513  26.877  1.00  0.00    -0.200 F 
ENDBRANCH  74 102
BRANCH  89 113
ATOM    113  C   UNL A   1      45.832  32.385  29.650  1.00  0.00     0.064 A 
ATOM    114  C   UNL A   1      45.892  33.428  28.714  1.00  0.00     0.173 A 
ATOM    115  C   UNL A   1      46.145  32.681  30.985  1.00  0.00     0.173 A 
ATOM    116  F   UNL A   1      45.618  33.193  27.423  1.00  0.00    -0.203 F 
ATOM    117  C   UNL A   1      46.256  34.714  29.102  1.00  0.00     0.198 A 
ATOM    118  C   UNL A   1      46.479  33.975  31.375  1.00  0.00     0.198 A 
ATOM    119  F   UNL A   1      46.098  31.720  31.920  1.00  0.00    -0.203 F 
ATOM    120  F   UNL A   1      46.338  35.690  28.186  1.00  0.00    -0.200 F 
ATOM    121  C   UNL A   1      46.537  34.990  30.433  1.00  0.00     0.200 A 
ATOM    122  F   UNL A   1      46.732  34.241  32.664  1.00  0.00    -0.200 F 
ATOM    123  F   UNL A   1      46.865  36.234  30.806  1.00  0.00    -0.200 F 
ENDBRANCH  89 113
ENDBRANCH  54  57
ENDBRANCH  44  47
ENDBRANCH  40  43
ENDBRANCH  37  40
ENDBRANCH  34  37
ENDBRANCH   1  34
TORSDOF 16
ENDMDL
MODEL 6
REMARK VINA RESULT:     -11.1      5.606     11.017
REMARK SMILES C[C@@H](C(=O)NCCCCCCNC(=O)c1ccc(-c2c3nc(c(-c4c(F)c(F)c(F)c(F)c4F)c4ccc([nH]4)c(-c4c(F)c(F)c(F)c(F)c4F)c4nc(c(-c5c(F)c(F)c(F)c(F)c5F)c5ccc2[nH]5)C=C4)C=C3)cc1)c1cccn(C(F)F)c1=O
REMARK SMILES IDX 8 1 7 4 6 7 5 10 3 11 4 12 2 14 1 16 78 20 79 21 86 22 80 23
REMARK SMILES IDX 82 25 87 26 81 27 83 30 84 31 85 32 9 34 10 37 11 40 12 43
REMARK SMILES IDX 13 44 14 46 15 47 16 48 77 49 17 50 76 52 18 54 19 57 20 58
REMARK SMILES IDX 70 59 21 60 75 61 69 62 71 63 22 64 74 65 68 67 67 69 23 71
REMARK SMILES IDX 55 74 35 75 54 76 36 77 39 78 53 79 72 80 37 81 38 83 52 85
REMARK SMILES IDX 73 86 40 89 24 91 25 92 33 93 26 94 27 95 31 96 34 97 28 98
REMARK SMILES IDX 29 99 32 100 30 101 56 102 57 103 65 104 58 105 59 106
REMARK SMILES IDX 63 107 66 108 60 109 61 110 64 111 62 112 41 113 42 114
REMARK SMILES IDX 50 115 43 116 44 117 48 118 51 119 45 120 46 121 49 122
REMARK SMILES IDX 47 123
REMARK H PARENT 8 2 8 3 7 5 7 6 6 8 6 9 5 13 2 15 1 17 1 18 1 19 79 24 80 28
REMARK H PARENT 81 29 83 33 9 35 9 36 10 38 10 39 11 41 11 42 12 45 16 51
REMARK H PARENT 77 53 17 55 76 56 75 66 69 68 71 70 74 72 68 73 36 82 39 84
REMARK H PARENT 72 87 37 88 73 90
REMARK Flexibility Score: inf
ROOT
ATOM      1  C   UNL A   1      37.312  22.332  24.697  1.00  0.00    -0.052 C 
ATOM      2  H   UNL A   1      38.099  22.635  25.357  1.00  0.00     0.027 H 
ATOM      3  H   UNL A   1      37.606  22.321  23.668  1.00  0.00     0.027 H 
ENDROOT
BRANCH   1   4
ATOM      4  C   UNL A   1      36.173  23.356  24.812  1.00  0.00    -0.036 C 
ATOM      5  H   UNL A   1      36.121  23.694  25.826  1.00  0.00     0.028 H 
ATOM      6  H   UNL A   1      36.393  24.151  24.132  1.00  0.00     0.028 H 
BRANCH   4   7
ATOM      7  C   UNL A   1      34.806  22.788  24.419  1.00  0.00     0.017 C 
ATOM      8  H   UNL A   1      34.826  21.721  24.505  1.00  0.00     0.049 H 
ATOM      9  H   UNL A   1      34.056  23.186  25.070  1.00  0.00     0.049 H 
BRANCH   7  10
ATOM     10  N   UNL A   1      34.499  23.155  23.052  1.00  0.00    -0.356 N 
ATOM     11  C   UNL A   1      33.384  23.752  22.539  1.00  0.00     0.227 C 
ATOM     12  O   UNL A   1      33.251  23.710  21.314  1.00  0.00    -0.274 OA
ATOM     13  H   UNL A   1      35.200  22.941  22.395  1.00  0.00     0.163 HD
BRANCH  11  14
ATOM     14  C   UNL A   1      32.421  24.512  23.470  1.00  0.00     0.066 C 
ATOM     15  H   UNL A   1      32.438  24.101  24.457  1.00  0.00     0.045 H 
BRANCH  14  16
ATOM     16  C   UNL A   1      30.956  24.323  23.065  1.00  0.00    -0.049 C 
ATOM     17  H   UNL A   1      30.344  24.301  23.943  1.00  0.00     0.024 H 
ATOM     18  H   UNL A   1      30.849  23.402  22.532  1.00  0.00     0.024 H 
ATOM     19  H   UNL A   1      30.651  25.136  22.440  1.00  0.00     0.024 H 
ENDBRANCH  14  16
BRANCH  14  20
ATOM     20  C   UNL A   1      32.904  25.954  23.594  1.00  0.00     0.030 A 
ATOM     21  C   UNL A   1      33.340  26.640  22.516  1.00  0.00    -0.051 A 
ATOM     22  C   UNL A   1      32.905  26.672  24.921  1.00  0.00     0.258 A 
ATOM     23  C   UNL A   1      33.774  28.008  22.602  1.00  0.00    -0.045 A 
ATOM     24  H   UNL A   1      33.360  26.167  21.599  1.00  0.00     0.063 H 
ATOM     25  N   UNL A   1      33.449  27.945  24.936  1.00  0.00    -0.258 N 
ATOM     26  O   UNL A   1      32.474  26.138  25.940  1.00  0.00    -0.269 OA
ATOM     27  C   UNL A   1      33.837  28.610  23.792  1.00  0.00     0.013 A 
ATOM     28  H   UNL A   1      34.036  28.524  21.747  1.00  0.00     0.064 H 
ATOM     29  H   UNL A   1      34.180  29.581  23.857  1.00  0.00     0.082 H 
BRANCH  25  30
ATOM     30  C   UNL A   1      33.575  28.598  26.214  1.00  0.00     0.321 C 
ATOM     31  F   UNL A   1      34.678  28.123  26.856  1.00  0.00    -0.185 F 
ATOM     32  F   UNL A   1      33.788  29.928  26.033  1.00  0.00    -0.185 F 
ATOM     33  H   UNL A   1      32.680  28.419  26.772  1.00  0.00     0.131 H 
ENDBRANCH  25  30
ENDBRANCH  14  20
ENDBRANCH  11  14
ENDBRANCH   7  10
ENDBRANCH   4   7
ENDBRANCH   1   4
BRANCH   1  34
ATOM     34  C   UNL A   1      36.920  20.894  25.051  1.00  0.00    -0.052 C 
ATOM     35  H   UNL A   1      36.160  20.576  24.366  1.00  0.00     0.027 H 
ATOM     36  H   UNL A   1      36.587  20.910  26.067  1.00  0.00     0.027 H 
BRANCH  34  37
ATOM     37  C   UNL A   1      38.070  19.889  24.985  1.00  0.00    -0.036 C 
ATOM     38  H   UNL A   1      38.344  19.755  23.959  1.00  0.00     0.028 H 
ATOM     39  H   UNL A   1      37.720  18.985  25.437  1.00  0.00     0.028 H 
BRANCH  37  40
ATOM     40  C   UNL A   1      39.310  20.319  25.760  1.00  0.00     0.018 C 
ATOM     41  H   UNL A   1      39.010  20.664  26.728  1.00  0.00     0.049 H 
ATOM     42  H   UNL A   1      39.795  21.096  25.208  1.00  0.00     0.049 H 
BRANCH  40  43
ATOM     43  N   UNL A   1      40.253  19.222  25.923  1.00  0.00    -0.352 N 
ATOM     44  C   UNL A   1      41.607  19.276  26.130  1.00  0.00     0.251 C 
ATOM     45  H   UNL A   1      39.866  18.318  25.878  1.00  0.00     0.163 HD
ATOM     46  O   UNL A   1      42.300  18.267  26.031  1.00  0.00    -0.269 OA
BRANCH  44  47
ATOM     47  C   UNL A   1      42.233  20.572  26.457  1.00  0.00     0.039 A 
ATOM     48  C   UNL A   1      42.732  21.369  25.424  1.00  0.00    -0.049 A 
ATOM     49  C   UNL A   1      42.298  21.006  27.784  1.00  0.00    -0.049 A 
ATOM     50  C   UNL A   1      43.241  22.636  25.718  1.00  0.00    -0.053 A 
ATOM     51  H   UNL A   1      42.726  21.024  24.452  1.00  0.00     0.063 H 
ATOM     52  C   UNL A   1      42.730  22.296  28.063  1.00  0.00    -0.053 A 
ATOM     53  H   UNL A   1      42.027  20.372  28.550  1.00  0.00     0.063 H 
ATOM     54  C   UNL A   1      43.210  23.122  27.035  1.00  0.00    -0.014 A 
ATOM     55  H   UNL A   1      43.643  23.216  24.965  1.00  0.00     0.063 H 
ATOM     56  H   UNL A   1      42.697  22.649  29.033  1.00  0.00     0.063 H 
BRANCH  54  57
ATOM     57  C   UNL A   1      43.676  24.489  27.372  1.00  0.00     0.031 A 
ATOM     58  C   UNL A   1      42.684  25.529  27.806  1.00  0.00     0.074 A 
ATOM     59  C   UNL A   1      44.968  24.822  27.188  1.00  0.00     0.049 A 
ATOM     60  N   UNL A   1      42.860  26.810  28.014  1.00  0.00    -0.248 NA
ATOM     61  C   UNL A   1      41.298  25.073  27.997  1.00  0.00    -0.034 C 
ATOM     62  C   UNL A   1      46.015  23.911  26.724  1.00  0.00    -0.036 A 
ATOM     63  N   UNL A   1      45.614  26.024  27.341  1.00  0.00    -0.354 N 
ATOM     64  C   UNL A   1      41.606  27.313  28.334  1.00  0.00     0.074 A 
ATOM     65  C   UNL A   1      40.671  26.214  28.238  1.00  0.00    -0.034 C 
ATOM     66  H   UNL A   1      40.916  24.116  27.954  1.00  0.00     0.065 H 
ATOM     67  C   UNL A   1      47.172  24.586  26.631  1.00  0.00    -0.036 A 
ATOM     68  H   UNL A   1      45.885  22.911  26.504  1.00  0.00     0.065 H 
ATOM     69  C   UNL A   1      46.938  25.984  26.983  1.00  0.00     0.049 A 
ATOM     70  H   UNL A   1      45.168  26.835  27.676  1.00  0.00     0.167 HD
ATOM     71  C   UNL A   1      41.271  28.575  28.694  1.00  0.00     0.037 A 
ATOM     72  H   UNL A   1      39.648  26.307  28.344  1.00  0.00     0.065 H 
ATOM     73  H   UNL A   1      48.080  24.181  26.355  1.00  0.00     0.065 H 
ATOM     74  C   UNL A   1      47.856  26.968  26.919  1.00  0.00     0.037 A 
ATOM     75  C   UNL A   1      42.213  29.657  28.804  1.00  0.00     0.049 A 
ATOM     76  C   UNL A   1      47.464  28.365  27.313  1.00  0.00     0.074 A 
ATOM     77  C   UNL A   1      41.992  30.954  29.232  1.00  0.00    -0.036 A 
ATOM     78  N   UNL A   1      43.558  29.571  28.467  1.00  0.00    -0.354 N 
ATOM     79  N   UNL A   1      46.293  28.818  27.693  1.00  0.00    -0.248 NA
ATOM     80  C   UNL A   1      48.518  29.388  27.280  1.00  0.00    -0.034 C 
ATOM     81  C   UNL A   1      43.186  31.669  29.091  1.00  0.00    -0.036 A 
ATOM     82  H   UNL A   1      41.101  31.328  29.593  1.00  0.00     0.065 H 
ATOM     83  C   UNL A   1      44.169  30.801  28.643  1.00  0.00     0.049 A 
ATOM     84  H   UNL A   1      44.009  28.755  28.149  1.00  0.00     0.167 HD
ATOM     85  C   UNL A   1      46.473  30.167  27.968  1.00  0.00     0.074 A 
ATOM     86  C   UNL A   1      47.870  30.459  27.718  1.00  0.00    -0.034 C 
ATOM     87  H   UNL A   1      49.504  29.297  26.991  1.00  0.00     0.065 H 
ATOM     88  H   UNL A   1      43.313  32.674  29.288  1.00  0.00     0.065 H 
ATOM     89  C   UNL A   1      45.564  31.077  28.394  1.00  0.00     0.037 A 
ATOM     90  H   UNL A   1      48.305  31.383  27.862  1.00  0.00     0.065 H 
BRANCH  71  91
ATOM     91  C   UNL A   1      39.820  28.852  28.974  1.00  0.00     0.064 A 
ATOM     92  C   UNL A   1      39.256  28.647  30.244  1.00  0.00     0.173 A 
ATOM     93  C   UNL A   1      38.980  29.329  27.957  1.00  0.00     0.173 A 
ATOM     94  F   UNL A   1      40.012  28.185  31.252  1.00  0.00    -0.203 F 
ATOM     95  C   UNL A   1      37.900  28.860  30.470  1.00  0.00     0.198 A 
ATOM     96  C   UNL A   1      37.632  29.579  28.197  1.00  0.00     0.198 A 
ATOM     97  F   UNL A   1      39.465  29.552  26.727  1.00  0.00    -0.203 F 
ATOM     98  F   UNL A   1      37.371  28.586  31.671  1.00  0.00    -0.200 F 
ATOM     99  C   UNL A   1      37.088  29.329  29.448  1.00  0.00     0.200 A 
ATOM    100  F   UNL A   1      36.853  30.048  27.212  1.00  0.00    -0.200 F 
ATOM    101  F   UNL A   1      35.782  29.532  29.666  1.00  0.00    -0.200 F 
ENDBRANCH  71  91
BRANCH  74 102
ATOM    102  C   UNL A   1      49.234  26.650  26.464  1.00  0.00     0.064 A 
ATOM    103  C   UNL A   1      49.618  26.839  25.129  1.00  0.00     0.173 A 
ATOM    104  C   UNL A   1      50.207  26.188  27.363  1.00  0.00     0.173 A 
ATOM    105  F   UNL A   1      48.719  27.262  24.228  1.00  0.00    -0.203 F 
ATOM    106  C   UNL A   1      50.919  26.571  24.709  1.00  0.00     0.198 A 
ATOM    107  C   UNL A   1      51.516  25.948  26.949  1.00  0.00     0.198 A 
ATOM    108  F   UNL A   1      49.893  25.998  28.652  1.00  0.00    -0.203 F 
ATOM    109  F   UNL A   1      51.252  26.731  23.422  1.00  0.00    -0.200 F 
ATOM    110  C   UNL A   1      51.869  26.135  25.621  1.00  0.00     0.200 A 
ATOM    111  F   UNL A   1      52.434  25.545  27.837  1.00  0.00    -0.200 F 
ATOM    112  F   UNL A   1      53.125  25.893  25.221  1.00  0.00    -0.200 F 
ENDBRANCH  74 102
BRANCH  89 113
ATOM    113  C   UNL A   1      46.046  32.475  28.660  1.00  0.00     0.064 A 
ATOM    114  C   UNL A   1      46.571  32.851  29.904  1.00  0.00     0.173 A 
ATOM    115  C   UNL A   1      46.057  33.425  27.627  1.00  0.00     0.173 A 
ATOM    116  F   UNL A   1      46.570  31.985  30.928  1.00  0.00    -0.203 F 
ATOM    117  C   UNL A   1      47.081  34.131  30.106  1.00  0.00     0.198 A 
ATOM    118  C   UNL A   1      46.595  34.693  27.823  1.00  0.00     0.198 A 
ATOM    119  F   UNL A   1      45.571  33.113  26.416  1.00  0.00    -0.203 F 
ATOM    120  F   UNL A   1      47.548  34.482  31.313  1.00  0.00    -0.200 F 
ATOM    121  C   UNL A   1      47.103  35.047  29.063  1.00  0.00     0.200 A 
ATOM    122  F   UNL A   1      46.632  35.569  26.809  1.00  0.00    -0.200 F 
ATOM    123  F   UNL A   1      47.616  36.270  29.255  1.00  0.00    -0.200 F 
ENDBRANCH  89 113
ENDBRANCH  54  57
ENDBRANCH  44  47
ENDBRANCH  40  43
ENDBRANCH  37  40
ENDBRANCH  34  37
ENDBRANCH   1  34
TORSDOF 16
ENDMDL
MODEL 7
REMARK VINA RESULT:     -11.1      2.765      3.961
REMARK SMILES C[C@@H](C(=O)NCCCCCCNC(=O)c1ccc(-c2c3nc(c(-c4c(F)c(F)c(F)c(F)c4F)c4ccc([nH]4)c(-c4c(F)c(F)c(F)c(F)c4F)c4nc(c(-c5c(F)c(F)c(F)c(F)c5F)c5ccc2[nH]5)C=C4)C=C3)cc1)c1cccn(C(F)F)c1=O
REMARK SMILES IDX 8 1 7 4 6 7 5 10 3 11 4 12 2 14 1 16 78 20 79 21 86 22 80 23
REMARK SMILES IDX 82 25 87 26 81 27 83 30 84 31 85 32 9 34 10 37 11 40 12 43
REMARK SMILES IDX 13 44 14 46 15 47 16 48 77 49 17 50 76 52 18 54 19 57 20 58
REMARK SMILES IDX 70 59 21 60 75 61 69 62 71 63 22 64 74 65 68 67 67 69 23 71
REMARK SMILES IDX 55 74 35 75 54 76 36 77 39 78 53 79 72 80 37 81 38 83 52 85
REMARK SMILES IDX 73 86 40 89 24 91 25 92 33 93 26 94 27 95 31 96 34 97 28 98
REMARK SMILES IDX 29 99 32 100 30 101 56 102 57 103 65 104 58 105 59 106
REMARK SMILES IDX 63 107 66 108 60 109 61 110 64 111 62 112 41 113 42 114
REMARK SMILES IDX 50 115 43 116 44 117 48 118 51 119 45 120 46 121 49 122
REMARK SMILES IDX 47 123
REMARK H PARENT 8 2 8 3 7 5 7 6 6 8 6 9 5 13 2 15 1 17 1 18 1 19 79 24 80 28
REMARK H PARENT 81 29 83 33 9 35 9 36 10 38 10 39 11 41 11 42 12 45 16 51
REMARK H PARENT 77 53 17 55 76 56 75 66 69 68 71 70 74 72 68 73 36 82 39 84
REMARK H PARENT 72 87 37 88 73 90
REMARK Flexibility Score: inf
ROOT
ATOM      1  C   UNL A   1      33.026  29.312  25.726  1.00  0.00    -0.052 C 
ATOM      2  H   UNL A   1      33.745  29.843  26.315  1.00  0.00     0.027 H 
ATOM      3  H   UNL A   1      32.723  28.384  26.165  1.00  0.00     0.027 H 
ENDROOT
BRANCH   1   4
ATOM      4  C   UNL A   1      33.677  28.962  24.379  1.00  0.00    -0.036 C 
ATOM      5  H   UNL A   1      33.185  29.519  23.609  1.00  0.00     0.028 H 
ATOM      6  H   UNL A   1      34.715  29.210  24.456  1.00  0.00     0.028 H 
BRANCH   4   7
ATOM      7  C   UNL A   1      33.590  27.473  24.033  1.00  0.00     0.017 C 
ATOM      8  H   UNL A   1      34.578  27.078  23.912  1.00  0.00     0.049 H 
ATOM      9  H   UNL A   1      33.089  26.953  24.822  1.00  0.00     0.049 H 
BRANCH   7  10
ATOM     10  N   UNL A   1      32.850  27.301  22.800  1.00  0.00    -0.356 N 
ATOM     11  C   UNL A   1      31.542  26.963  22.607  1.00  0.00     0.227 C 
ATOM     12  O   UNL A   1      31.224  26.614  21.468  1.00  0.00    -0.274 OA
ATOM     13  H   UNL A   1      33.370  27.449  21.977  1.00  0.00     0.163 HD
BRANCH  11  14
ATOM     14  C   UNL A   1      30.530  27.117  23.759  1.00  0.00     0.066 C 
ATOM     15  H   UNL A   1      30.980  27.600  24.601  1.00  0.00     0.045 H 
BRANCH  14  16
ATOM     16  C   UNL A   1      30.108  25.767  24.344  1.00  0.00    -0.049 C 
ATOM     17  H   UNL A   1      30.809  25.472  25.098  1.00  0.00     0.024 H 
ATOM     18  H   UNL A   1      30.089  25.032  23.567  1.00  0.00     0.024 H 
ATOM     19  H   UNL A   1      29.134  25.854  24.777  1.00  0.00     0.024 H 
ENDBRANCH  14  16
BRANCH  14  20
ATOM     20  C   UNL A   1      29.401  28.031  23.291  1.00  0.00     0.030 A 
ATOM     21  C   UNL A   1      28.109  27.724  23.534  1.00  0.00    -0.051 A 
ATOM     22  C   UNL A   1      29.684  29.316  22.552  1.00  0.00     0.258 A 
ATOM     23  C   UNL A   1      27.028  28.583  23.128  1.00  0.00    -0.045 A 
ATOM     24  H   UNL A   1      27.889  26.846  24.027  1.00  0.00     0.063 H 
ATOM     25  N   UNL A   1      28.583  30.021  22.095  1.00  0.00    -0.258 N 
ATOM     26  O   UNL A   1      30.832  29.695  22.339  1.00  0.00    -0.269 OA
ATOM     27  C   UNL A   1      27.286  29.680  22.413  1.00  0.00     0.013 A 
ATOM     28  H   UNL A   1      26.056  28.352  23.389  1.00  0.00     0.064 H 
ATOM     29  H   UNL A   1      26.508  30.278  22.094  1.00  0.00     0.082 H 
BRANCH  25  30
ATOM     30  C   UNL A   1      28.832  31.183  21.279  1.00  0.00     0.321 C 
ATOM     31  F   UNL A   1      27.741  31.430  20.502  1.00  0.00    -0.185 F 
ATOM     32  F   UNL A   1      28.987  32.277  22.069  1.00  0.00    -0.185 F 
ATOM     33  H   UNL A   1      29.708  30.998  20.691  1.00  0.00     0.131 H 
ENDBRANCH  25  30
ENDBRANCH  14  20
ENDBRANCH  11  14
ENDBRANCH   7  10
ENDBRANCH   4   7
ENDBRANCH   1   4
BRANCH   1  34
ATOM     34  C   UNL A   1      31.763  30.174  25.622  1.00  0.00    -0.052 C 
ATOM     35  H   UNL A   1      30.911  29.527  25.671  1.00  0.00     0.027 H 
ATOM     36  H   UNL A   1      31.832  30.706  24.697  1.00  0.00     0.027 H 
BRANCH  34  37
ATOM     37  C   UNL A   1      31.624  31.227  26.722  1.00  0.00    -0.036 C 
ATOM     38  H   UNL A   1      31.387  30.729  27.639  1.00  0.00     0.028 H 
ATOM     39  H   UNL A   1      30.854  31.901  26.410  1.00  0.00     0.028 H 
BRANCH  37  40
ATOM     40  C   UNL A   1      32.880  32.062  26.940  1.00  0.00     0.018 C 
ATOM     41  H   UNL A   1      33.474  32.032  26.050  1.00  0.00     0.049 H 
ATOM     42  H   UNL A   1      33.413  31.650  27.771  1.00  0.00     0.049 H 
BRANCH  40  43
ATOM     43  N   UNL A   1      32.561  33.448  27.248  1.00  0.00    -0.352 N 
ATOM     44  C   UNL A   1      33.056  34.241  28.252  1.00  0.00     0.251 C 
ATOM     45  H   UNL A   1      31.902  33.875  26.655  1.00  0.00     0.163 HD
ATOM     46  O   UNL A   1      32.532  35.319  28.517  1.00  0.00    -0.269 OA
BRANCH  44  47
ATOM     47  C   UNL A   1      34.219  33.774  29.029  1.00  0.00     0.039 A 
ATOM     48  C   UNL A   1      34.028  32.841  30.052  1.00  0.00    -0.049 A 
ATOM     49  C   UNL A   1      35.501  34.241  28.725  1.00  0.00    -0.049 A 
ATOM     50  C   UNL A   1      35.136  32.327  30.729  1.00  0.00    -0.053 A 
ATOM     51  H   UNL A   1      33.076  32.536  30.305  1.00  0.00     0.063 H 
ATOM     52  C   UNL A   1      36.605  33.669  29.344  1.00  0.00    -0.053 A 
ATOM     53  H   UNL A   1      35.626  35.006  28.044  1.00  0.00     0.063 H 
ATOM     54  C   UNL A   1      36.434  32.710  30.355  1.00  0.00    -0.014 A 
ATOM     55  H   UNL A   1      35.000  31.663  31.508  1.00  0.00     0.063 H 
ATOM     56  H   UNL A   1      37.557  33.951  29.059  1.00  0.00     0.063 H 
BRANCH  54  57
ATOM     57  C   UNL A   1      37.635  32.131  31.004  1.00  0.00     0.031 A 
ATOM     58  C   UNL A   1      38.417  31.057  30.302  1.00  0.00     0.074 A 
ATOM     59  C   UNL A   1      37.960  32.493  32.259  1.00  0.00     0.049 A 
ATOM     60  N   UNL A   1      39.409  30.327  30.747  1.00  0.00    -0.248 NA
ATOM     61  C   UNL A   1      38.002  30.737  28.928  1.00  0.00    -0.034 C 
ATOM     62  C   UNL A   1      37.248  33.489  33.060  1.00  0.00    -0.036 A 
ATOM     63  N   UNL A   1      38.954  32.044  33.092  1.00  0.00    -0.354 N 
ATOM     64  C   UNL A   1      39.717  29.449  29.717  1.00  0.00     0.074 A 
ATOM     65  C   UNL A   1      38.773  29.697  28.651  1.00  0.00    -0.034 C 
ATOM     66  H   UNL A   1      37.296  31.201  28.336  1.00  0.00     0.065 H 
ATOM     67  C   UNL A   1      37.828  33.577  34.267  1.00  0.00    -0.036 A 
ATOM     68  H   UNL A   1      36.431  34.037  32.747  1.00  0.00     0.065 H 
ATOM     69  C   UNL A   1      38.921  32.611  34.342  1.00  0.00     0.049 A 
ATOM     70  H   UNL A   1      39.626  31.378  32.819  1.00  0.00     0.167 HD
ATOM     71  C   UNL A   1      40.712  28.530  29.662  1.00  0.00     0.037 A 
ATOM     72  H   UNL A   1      38.708  29.137  27.785  1.00  0.00     0.065 H 
ATOM     73  H   UNL A   1      37.546  34.222  35.022  1.00  0.00     0.065 H 
ATOM     74  C   UNL A   1      39.669  32.363  35.434  1.00  0.00     0.037 A 
ATOM     75  C   UNL A   1      41.657  28.304  30.723  1.00  0.00     0.049 A 
ATOM     76  C   UNL A   1      40.763  31.333  35.358  1.00  0.00     0.074 A 
ATOM     77  C   UNL A   1      42.747  27.452  30.741  1.00  0.00    -0.036 A 
ATOM     78  N   UNL A   1      41.615  28.925  31.964  1.00  0.00    -0.354 N 
ATOM     79  N   UNL A   1      41.100  30.561  34.353  1.00  0.00    -0.248 NA
ATOM     80  C   UNL A   1      41.585  31.144  36.560  1.00  0.00    -0.034 C 
ATOM     81  C   UNL A   1      43.324  27.508  32.013  1.00  0.00    -0.036 A 
ATOM     82  H   UNL A   1      43.077  26.876  29.950  1.00  0.00     0.065 H 
ATOM     83  C   UNL A   1      42.638  28.448  32.767  1.00  0.00     0.049 A 
ATOM     84  H   UNL A   1      40.955  29.604  32.234  1.00  0.00     0.167 HD
ATOM     85  C   UNL A   1      42.187  29.815  34.790  1.00  0.00     0.074 A 
ATOM     86  C   UNL A   1      42.457  30.232  36.150  1.00  0.00    -0.034 C 
ATOM     87  H   UNL A   1      41.506  31.600  37.482  1.00  0.00     0.065 H 
ATOM     88  H   UNL A   1      44.125  26.945  32.336  1.00  0.00     0.065 H 
ATOM     89  C   UNL A   1      42.898  28.875  34.121  1.00  0.00     0.037 A 
ATOM     90  H   UNL A   1      43.229  29.866  36.728  1.00  0.00     0.065 H 
BRANCH  71  91
ATOM     91  C   UNL A   1      40.809  27.691  28.419  1.00  0.00     0.064 A 
ATOM     92  C   UNL A   1      40.156  26.453  28.304  1.00  0.00     0.173 A 
ATOM     93  C   UNL A   1      41.569  28.131  27.324  1.00  0.00     0.173 A 
ATOM     94  F   UNL A   1      39.422  25.980  29.323  1.00  0.00    -0.203 F 
ATOM     95  C   UNL A   1      40.302  25.667  27.165  1.00  0.00     0.198 A 
ATOM     96  C   UNL A   1      41.680  27.360  26.170  1.00  0.00     0.198 A 
ATOM     97  F   UNL A   1      42.208  29.309  27.373  1.00  0.00    -0.203 F 
ATOM     98  F   UNL A   1      39.729  24.457  27.110  1.00  0.00    -0.200 F 
ATOM     99  C   UNL A   1      41.060  26.123  26.097  1.00  0.00     0.200 A 
ATOM    100  F   UNL A   1      42.400  27.810  25.133  1.00  0.00    -0.200 F 
ATOM    101  F   UNL A   1      41.201  25.364  25.001  1.00  0.00    -0.200 F 
ENDBRANCH  71  91
BRANCH  74 102
ATOM    102  C   UNL A   1      39.399  33.114  36.688  1.00  0.00     0.064 A 
ATOM    103  C   UNL A   1      38.471  32.645  37.628  1.00  0.00     0.173 A 
ATOM    104  C   UNL A   1      40.094  34.296  36.990  1.00  0.00     0.173 A 
ATOM    105  F   UNL A   1      37.771  31.530  37.377  1.00  0.00    -0.203 F 
ATOM    106  C   UNL A   1      38.242  33.333  38.818  1.00  0.00     0.198 A 
ATOM    107  C   UNL A   1      39.885  34.967  38.193  1.00  0.00     0.198 A 
ATOM    108  F   UNL A   1      40.997  34.782  36.128  1.00  0.00    -0.203 F 
ATOM    109  F   UNL A   1      37.328  32.879  39.685  1.00  0.00    -0.200 F 
ATOM    110  C   UNL A   1      38.956  34.487  39.103  1.00  0.00     0.200 A 
ATOM    111  F   UNL A   1      40.590  36.071  38.472  1.00  0.00    -0.200 F 
ATOM    112  F   UNL A   1      38.747  35.139  40.255  1.00  0.00    -0.200 F 
ENDBRANCH  74 102
BRANCH  89 113
ATOM    113  C   UNL A   1      44.067  28.250  34.826  1.00  0.00     0.064 A 
ATOM    114  C   UNL A   1      45.334  28.853  34.835  1.00  0.00     0.173 A 
ATOM    115  C   UNL A   1      43.895  27.073  35.571  1.00  0.00     0.173 A 
ATOM    116  F   UNL A   1      45.555  29.970  34.128  1.00  0.00    -0.203 F 
ATOM    117  C   UNL A   1      46.385  28.294  35.558  1.00  0.00     0.198 A 
ATOM    118  C   UNL A   1      44.939  26.534  36.316  1.00  0.00     0.198 A 
ATOM    119  F   UNL A   1      42.701  26.460  35.598  1.00  0.00    -0.203 F 
ATOM    120  F   UNL A   1      47.596  28.869  35.527  1.00  0.00    -0.200 F 
ATOM    121  C   UNL A   1      46.184  27.143  36.306  1.00  0.00     0.200 A 
ATOM    122  F   UNL A   1      44.737  25.432  37.051  1.00  0.00    -0.200 F 
ATOM    123  F   UNL A   1      47.192  26.621  37.018  1.00  0.00    -0.200 F 
ENDBRANCH  89 113
ENDBRANCH  54  57
ENDBRANCH  44  47
ENDBRANCH  40  43
ENDBRANCH  37  40
ENDBRANCH  34  37
ENDBRANCH   1  34
TORSDOF 16
ENDMDL
MODEL 8
REMARK VINA RESULT:     -11.0      2.381      3.537
REMARK SMILES C[C@@H](C(=O)NCCCCCCNC(=O)c1ccc(-c2c3nc(c(-c4c(F)c(F)c(F)c(F)c4F)c4ccc([nH]4)c(-c4c(F)c(F)c(F)c(F)c4F)c4nc(c(-c5c(F)c(F)c(F)c(F)c5F)c5ccc2[nH]5)C=C4)C=C3)cc1)c1cccn(C(F)F)c1=O
REMARK SMILES IDX 8 1 7 4 6 7 5 10 3 11 4 12 2 14 1 16 78 20 79 21 86 22 80 23
REMARK SMILES IDX 82 25 87 26 81 27 83 30 84 31 85 32 9 34 10 37 11 40 12 43
REMARK SMILES IDX 13 44 14 46 15 47 16 48 77 49 17 50 76 52 18 54 19 57 20 58
REMARK SMILES IDX 70 59 21 60 75 61 69 62 71 63 22 64 74 65 68 67 67 69 23 71
REMARK SMILES IDX 55 74 35 75 54 76 36 77 39 78 53 79 72 80 37 81 38 83 52 85
REMARK SMILES IDX 73 86 40 89 24 91 25 92 33 93 26 94 27 95 31 96 34 97 28 98
REMARK SMILES IDX 29 99 32 100 30 101 56 102 57 103 65 104 58 105 59 106
REMARK SMILES IDX 63 107 66 108 60 109 61 110 64 111 62 112 41 113 42 114
REMARK SMILES IDX 50 115 43 116 44 117 48 118 51 119 45 120 46 121 49 122
REMARK SMILES IDX 47 123
REMARK H PARENT 8 2 8 3 7 5 7 6 6 8 6 9 5 13 2 15 1 17 1 18 1 19 79 24 80 28
REMARK H PARENT 81 29 83 33 9 35 9 36 10 38 10 39 11 41 11 42 12 45 16 51
REMARK H PARENT 77 53 17 55 76 56 75 66 69 68 71 70 74 72 68 73 36 82 39 84
REMARK H PARENT 72 87 37 88 73 90
REMARK Flexibility Score: inf
ROOT
ATOM      1  C   UNL A   1      32.029  29.642  25.652  1.00  0.00    -0.052 C 
ATOM      2  H   UNL A   1      31.295  29.926  24.926  1.00  0.00     0.027 H 
ATOM      3  H   UNL A   1      33.031  29.864  25.348  1.00  0.00     0.027 H 
ENDROOT
BRANCH   1   4
ATOM      4  C   UNL A   1      31.958  28.118  25.833  1.00  0.00    -0.036 C 
ATOM      5  H   UNL A   1      31.957  27.900  26.880  1.00  0.00     0.028 H 
ATOM      6  H   UNL A   1      31.063  27.785  25.350  1.00  0.00     0.028 H 
BRANCH   4   7
ATOM      7  C   UNL A   1      33.129  27.376  25.183  1.00  0.00     0.017 C 
ATOM      8  H   UNL A   1      33.968  27.386  25.846  1.00  0.00     0.049 H 
ATOM      9  H   UNL A   1      32.841  26.365  24.983  1.00  0.00     0.049 H 
BRANCH   7  10
ATOM     10  N   UNL A   1      33.490  28.026  23.940  1.00  0.00    -0.356 N 
ATOM     11  C   UNL A   1      33.360  27.585  22.655  1.00  0.00     0.227 C 
ATOM     12  O   UNL A   1      33.989  28.203  21.794  1.00  0.00    -0.274 OA
ATOM     13  H   UNL A   1      33.889  28.921  24.038  1.00  0.00     0.163 HD
BRANCH  11  14
ATOM     14  C   UNL A   1      32.392  26.432  22.332  1.00  0.00     0.066 C 
ATOM     15  H   UNL A   1      32.643  25.553  22.888  1.00  0.00     0.045 H 
BRANCH  14  16
ATOM     16  C   UNL A   1      32.528  25.950  20.885  1.00  0.00    -0.049 C 
ATOM     17  H   UNL A   1      31.651  26.224  20.335  1.00  0.00     0.024 H 
ATOM     18  H   UNL A   1      32.639  24.886  20.872  1.00  0.00     0.024 H 
ATOM     19  H   UNL A   1      33.386  26.404  20.437  1.00  0.00     0.024 H 
ENDBRANCH  14  16
BRANCH  14  20
ATOM     20  C   UNL A   1      30.990  26.838  22.777  1.00  0.00     0.030 A 
ATOM     21  C   UNL A   1      30.182  25.969  23.421  1.00  0.00    -0.051 A 
ATOM     22  C   UNL A   1      30.457  28.227  22.526  1.00  0.00     0.258 A 
ATOM     23  C   UNL A   1      28.868  26.336  23.876  1.00  0.00    -0.045 A 
ATOM     24  H   UNL A   1      30.520  25.010  23.595  1.00  0.00     0.063 H 
ATOM     25  N   UNL A   1      29.141  28.460  22.890  1.00  0.00    -0.258 N 
ATOM     26  O   UNL A   1      31.146  29.093  21.995  1.00  0.00    -0.269 OA
ATOM     27  C   UNL A   1      28.380  27.544  23.586  1.00  0.00     0.013 A 
ATOM     28  H   UNL A   1      28.304  25.669  24.426  1.00  0.00     0.064 H 
ATOM     29  H   UNL A   1      27.425  27.796  23.884  1.00  0.00     0.082 H 
BRANCH  25  30
ATOM     30  C   UNL A   1      28.573  29.738  22.544  1.00  0.00     0.321 C 
ATOM     31  F   UNL A   1      28.137  29.704  21.255  1.00  0.00    -0.185 F 
ATOM     32  F   UNL A   1      27.475  29.976  23.308  1.00  0.00    -0.185 F 
ATOM     33  H   UNL A   1      29.321  30.489  22.693  1.00  0.00     0.131 H 
ENDBRANCH  25  30
ENDBRANCH  14  20
ENDBRANCH  11  14
ENDBRANCH   7  10
ENDBRANCH   4   7
ENDBRANCH   1   4
BRANCH   1  34
ATOM     34  C   UNL A   1      31.775  30.451  26.929  1.00  0.00    -0.052 C 
ATOM     35  H   UNL A   1      32.566  30.244  27.619  1.00  0.00     0.027 H 
ATOM     36  H   UNL A   1      30.814  30.153  27.292  1.00  0.00     0.027 H 
BRANCH  34  37
ATOM     37  C   UNL A   1      31.711  31.964  26.718  1.00  0.00    -0.036 C 
ATOM     38  H   UNL A   1      30.829  32.335  27.195  1.00  0.00     0.028 H 
ATOM     39  H   UNL A   1      31.707  32.131  25.661  1.00  0.00     0.028 H 
BRANCH  37  40
ATOM     40  C   UNL A   1      32.913  32.716  27.278  1.00  0.00     0.018 C 
ATOM     41  H   UNL A   1      33.690  32.722  26.543  1.00  0.00     0.049 H 
ATOM     42  H   UNL A   1      33.230  32.218  28.170  1.00  0.00     0.049 H 
BRANCH  40  43
ATOM     43  N   UNL A   1      32.577  34.090  27.622  1.00  0.00    -0.352 N 
ATOM     44  C   UNL A   1      33.063  34.864  28.645  1.00  0.00     0.251 C 
ATOM     45  H   UNL A   1      31.912  34.524  27.040  1.00  0.00     0.163 HD
ATOM     46  O   UNL A   1      32.526  35.929  28.937  1.00  0.00    -0.269 OA
BRANCH  44  47
ATOM     47  C   UNL A   1      34.232  34.391  29.410  1.00  0.00     0.039 A 
ATOM     48  C   UNL A   1      34.033  33.728  30.623  1.00  0.00    -0.049 A 
ATOM     49  C   UNL A   1      35.523  34.583  28.909  1.00  0.00    -0.049 A 
ATOM     50  C   UNL A   1      35.130  33.198  31.305  1.00  0.00    -0.053 A 
ATOM     51  H   UNL A   1      33.083  33.632  31.013  1.00  0.00     0.063 H 
ATOM     52  C   UNL A   1      36.603  33.985  29.547  1.00  0.00    -0.053 A 
ATOM     53  H   UNL A   1      35.673  35.164  28.070  1.00  0.00     0.063 H 
ATOM     54  C   UNL A   1      36.419  33.292  30.753  1.00  0.00    -0.014 A 
ATOM     55  H   UNL A   1      34.994  32.737  32.218  1.00  0.00     0.063 H 
ATOM     56  H   UNL A   1      37.546  34.053  29.132  1.00  0.00     0.063 H 
BRANCH  54  57
ATOM     57  C   UNL A   1      37.596  32.679  31.415  1.00  0.00     0.031 A 
ATOM     58  C   UNL A   1      38.294  31.517  30.767  1.00  0.00     0.074 A 
ATOM     59  C   UNL A   1      37.971  33.096  32.639  1.00  0.00     0.049 A 
ATOM     60  N   UNL A   1      39.249  30.754  31.238  1.00  0.00    -0.248 NA
ATOM     61  C   UNL A   1      37.828  31.140  29.424  1.00  0.00    -0.034 C 
ATOM     62  C   UNL A   1      37.340  34.182  33.389  1.00  0.00    -0.036 A 
ATOM     63  N   UNL A   1      38.954  32.637  33.479  1.00  0.00    -0.354 N 
ATOM     64  C   UNL A   1      39.479  29.797  30.260  1.00  0.00     0.074 A 
ATOM     65  C   UNL A   1      38.528  30.038  29.197  1.00  0.00    -0.034 C 
ATOM     66  H   UNL A   1      37.139  31.610  28.818  1.00  0.00     0.065 H 
ATOM     67  C   UNL A   1      37.951  34.307  34.577  1.00  0.00    -0.036 A 
ATOM     68  H   UNL A   1      36.551  34.760  33.058  1.00  0.00     0.065 H 
ATOM     69  C   UNL A   1      38.985  33.280  34.691  1.00  0.00     0.049 A 
ATOM     70  H   UNL A   1      39.577  31.915  33.235  1.00  0.00     0.167 HD
ATOM     71  C   UNL A   1      40.413  28.816  30.243  1.00  0.00     0.037 A 
ATOM     72  H   UNL A   1      38.409  29.432  28.370  1.00  0.00     0.065 H 
ATOM     73  H   UNL A   1      37.727  35.014  35.295  1.00  0.00     0.065 H 
ATOM     74  C   UNL A   1      39.740  33.053  35.783  1.00  0.00     0.037 A 
ATOM     75  C   UNL A   1      41.366  28.596  31.298  1.00  0.00     0.049 A 
ATOM     76  C   UNL A   1      40.767  31.954  35.750  1.00  0.00     0.074 A 
ATOM     77  C   UNL A   1      42.402  27.680  31.349  1.00  0.00    -0.036 A 
ATOM     78  N   UNL A   1      41.391  29.293  32.499  1.00  0.00    -0.354 N 
ATOM     79  N   UNL A   1      41.033  31.102  34.789  1.00  0.00    -0.248 NA
ATOM     80  C   UNL A   1      41.603  31.787  36.946  1.00  0.00    -0.034 C 
ATOM     81  C   UNL A   1      43.010  27.777  32.604  1.00  0.00    -0.036 A 
ATOM     82  H   UNL A   1      42.678  27.036  30.590  1.00  0.00     0.065 H 
ATOM     83  C   UNL A   1      42.400  28.802  33.311  1.00  0.00     0.049 A 
ATOM     84  H   UNL A   1      40.780  30.027  32.737  1.00  0.00     0.167 HD
ATOM     85  C   UNL A   1      42.081  30.317  35.252  1.00  0.00     0.074 A 
ATOM     86  C   UNL A   1      42.407  30.799  36.578  1.00  0.00    -0.034 C 
ATOM     87  H   UNL A   1      41.573  32.303  37.839  1.00  0.00     0.065 H 
ATOM     88  H   UNL A   1      43.782  27.185  32.947  1.00  0.00     0.065 H 
ATOM     89  C   UNL A   1      42.717  29.295  34.629  1.00  0.00     0.037 A 
ATOM     90  H   UNL A   1      43.168  30.421  37.163  1.00  0.00     0.065 H 
BRANCH  71  91
ATOM     91  C   UNL A   1      40.430  27.898  29.053  1.00  0.00     0.064 A 
ATOM     92  C   UNL A   1      41.207  28.170  27.916  1.00  0.00     0.173 A 
ATOM     93  C   UNL A   1      39.658  26.727  29.050  1.00  0.00     0.173 A 
ATOM     94  F   UNL A   1      41.959  29.280  27.861  1.00  0.00    -0.203 F 
ATOM     95  C   UNL A   1      41.169  27.334  26.803  1.00  0.00     0.198 A 
ATOM     96  C   UNL A   1      39.653  25.872  27.951  1.00  0.00     0.198 A 
ATOM     97  F   UNL A   1      38.903  26.410  30.113  1.00  0.00    -0.203 F 
ATOM     98  F   UNL A   1      41.862  27.655  25.702  1.00  0.00    -0.200 F 
ATOM     99  C   UNL A   1      40.396  26.183  26.823  1.00  0.00     0.200 A 
ATOM    100  F   UNL A   1      38.917  24.751  27.979  1.00  0.00    -0.200 F 
ATOM    101  F   UNL A   1      40.358  25.380  25.751  1.00  0.00    -0.200 F 
ENDBRANCH  71  91
BRANCH  74 102
ATOM    102  C   UNL A   1      39.546  33.895  36.992  1.00  0.00     0.064 A 
ATOM    103  C   UNL A   1      40.110  35.175  37.082  1.00  0.00     0.173 A 
ATOM    104  C   UNL A   1      38.759  33.451  38.066  1.00  0.00     0.173 A 
ATOM    105  F   UNL A   1      40.884  35.636  36.089  1.00  0.00    -0.203 F 
ATOM    106  C   UNL A   1      39.901  35.976  38.202  1.00  0.00     0.198 A 
ATOM    107  C   UNL A   1      38.528  34.265  39.174  1.00  0.00     0.198 A 
ATOM    108  F   UNL A   1      38.191  32.238  38.026  1.00  0.00    -0.203 F 
ATOM    109  F   UNL A   1      40.477  37.184  38.276  1.00  0.00    -0.200 F 
ATOM    110  C   UNL A   1      39.103  35.524  39.243  1.00  0.00     0.200 A 
ATOM    111  F   UNL A   1      37.740  33.832  40.167  1.00  0.00    -0.200 F 
ATOM    112  F   UNL A   1      38.888  36.302  40.313  1.00  0.00    -0.200 F 
ENDBRANCH  74 102
BRANCH  89 113
ATOM    113  C   UNL A   1      43.862  28.642  35.351  1.00  0.00     0.064 A 
ATOM    114  C   UNL A   1      45.181  29.095  35.207  1.00  0.00     0.173 A 
ATOM    115  C   UNL A   1      43.620  27.600  36.260  1.00  0.00     0.173 A 
ATOM    116  F   UNL A   1      45.467  30.077  34.341  1.00  0.00    -0.203 F 
ATOM    117  C   UNL A   1      46.216  28.523  35.942  1.00  0.00     0.198 A 
ATOM    118  C   UNL A   1      44.652  27.051  37.015  1.00  0.00     0.198 A 
ATOM    119  F   UNL A   1      42.374  27.134  36.437  1.00  0.00    -0.203 F 
ATOM    120  F   UNL A   1      47.475  28.949  35.766  1.00  0.00    -0.200 F 
ATOM    121  C   UNL A   1      45.949  27.511  36.853  1.00  0.00     0.200 A 
ATOM    122  F   UNL A   1      44.388  26.086  37.907  1.00  0.00    -0.200 F 
ATOM    123  F   UNL A   1      46.945  26.978  37.575  1.00  0.00    -0.200 F 
ENDBRANCH  89 113
ENDBRANCH  54  57
ENDBRANCH  44  47
ENDBRANCH  40  43
ENDBRANCH  37  40
ENDBRANCH  34  37
ENDBRANCH   1  34
TORSDOF 16
ENDMDL
MODEL 9
REMARK VINA RESULT:     -10.8      3.800      8.868
REMARK SMILES C[C@@H](C(=O)NCCCCCCNC(=O)c1ccc(-c2c3nc(c(-c4c(F)c(F)c(F)c(F)c4F)c4ccc([nH]4)c(-c4c(F)c(F)c(F)c(F)c4F)c4nc(c(-c5c(F)c(F)c(F)c(F)c5F)c5ccc2[nH]5)C=C4)C=C3)cc1)c1cccn(C(F)F)c1=O
REMARK SMILES IDX 8 1 7 4 6 7 5 10 3 11 4 12 2 14 1 16 78 20 79 21 86 22 80 23
REMARK SMILES IDX 82 25 87 26 81 27 83 30 84 31 85 32 9 34 10 37 11 40 12 43
REMARK SMILES IDX 13 44 14 46 15 47 16 48 77 49 17 50 76 52 18 54 19 57 20 58
REMARK SMILES IDX 70 59 21 60 75 61 69 62 71 63 22 64 74 65 68 67 67 69 23 71
REMARK SMILES IDX 55 74 35 75 54 76 36 77 39 78 53 79 72 80 37 81 38 83 52 85
REMARK SMILES IDX 73 86 40 89 24 91 25 92 33 93 26 94 27 95 31 96 34 97 28 98
REMARK SMILES IDX 29 99 32 100 30 101 56 102 57 103 65 104 58 105 59 106
REMARK SMILES IDX 63 107 66 108 60 109 61 110 64 111 62 112 41 113 42 114
REMARK SMILES IDX 50 115 43 116 44 117 48 118 51 119 45 120 46 121 49 122
REMARK SMILES IDX 47 123
REMARK H PARENT 8 2 8 3 7 5 7 6 6 8 6 9 5 13 2 15 1 17 1 18 1 19 79 24 80 28
REMARK H PARENT 81 29 83 33 9 35 9 36 10 38 10 39 11 41 11 42 12 45 16 51
REMARK H PARENT 77 53 17 55 76 56 75 66 69 68 71 70 74 72 68 73 36 82 39 84
REMARK H PARENT 72 87 37 88 73 90
REMARK Flexibility Score: inf
ROOT
ATOM      1  C   UNL A   1      31.743  26.475  26.250  1.00  0.00    -0.052 C 
ATOM      2  H   UNL A   1      32.339  25.589  26.170  1.00  0.00     0.027 H 
ATOM      3  H   UNL A   1      31.732  26.889  27.237  1.00  0.00     0.027 H 
ENDROOT
BRANCH   1   4
ATOM      4  C   UNL A   1      30.290  26.105  25.918  1.00  0.00    -0.036 C 
ATOM      5  H   UNL A   1      29.641  26.797  26.413  1.00  0.00     0.028 H 
ATOM      6  H   UNL A   1      30.188  26.149  24.853  1.00  0.00     0.028 H 
BRANCH   4   7
ATOM      7  C   UNL A   1      29.911  24.687  26.352  1.00  0.00     0.017 C 
ATOM      8  H   UNL A   1      29.033  24.725  26.964  1.00  0.00     0.049 H 
ATOM      9  H   UNL A   1      29.719  24.089  25.486  1.00  0.00     0.049 H 
BRANCH   7  10
ATOM     10  N   UNL A   1      30.999  24.101  27.108  1.00  0.00    -0.356 N 
ATOM     11  C   UNL A   1      31.743  22.987  26.845  1.00  0.00     0.227 C 
ATOM     12  O   UNL A   1      32.422  22.546  27.774  1.00  0.00    -0.274 OA
ATOM     13  H   UNL A   1      31.236  24.577  27.936  1.00  0.00     0.163 HD
BRANCH  11  14
ATOM     14  C   UNL A   1      31.777  22.404  25.419  1.00  0.00     0.066 C 
ATOM     15  H   UNL A   1      30.789  22.306  25.022  1.00  0.00     0.045 H 
BRANCH  14  16
ATOM     16  C   UNL A   1      32.282  20.959  25.397  1.00  0.00    -0.049 C 
ATOM     17  H   UNL A   1      33.241  20.925  24.921  1.00  0.00     0.024 H 
ATOM     18  H   UNL A   1      31.592  20.348  24.854  1.00  0.00     0.024 H 
ATOM     19  H   UNL A   1      32.369  20.596  26.399  1.00  0.00     0.024 H 
ENDBRANCH  14  16
BRANCH  14  20
ATOM     20  C   UNL A   1      32.511  23.388  24.512  1.00  0.00     0.030 A 
ATOM     21  C   UNL A   1      33.810  23.692  24.717  1.00  0.00    -0.051 A 
ATOM     22  C   UNL A   1      31.818  24.049  23.346  1.00  0.00     0.258 A 
ATOM     23  C   UNL A   1      34.532  24.594  23.860  1.00  0.00    -0.045 A 
ATOM     24  H   UNL A   1      34.303  23.261  25.515  1.00  0.00     0.063 H 
ATOM     25  N   UNL A   1      32.552  24.993  22.645  1.00  0.00    -0.258 N 
ATOM     26  O   UNL A   1      30.654  23.787  23.058  1.00  0.00    -0.269 OA
ATOM     27  C   UNL A   1      33.890  25.227  22.875  1.00  0.00     0.013 A 
ATOM     28  H   UNL A   1      35.542  24.751  24.005  1.00  0.00     0.064 H 
ATOM     29  H   UNL A   1      34.401  25.899  22.281  1.00  0.00     0.082 H 
BRANCH  25  30
ATOM     30  C   UNL A   1      31.870  25.726  21.609  1.00  0.00     0.321 C 
ATOM     31  F   UNL A   1      31.557  26.969  22.069  1.00  0.00    -0.185 F 
ATOM     32  F   UNL A   1      32.703  25.914  20.553  1.00  0.00    -0.185 F 
ATOM     33  H   UNL A   1      30.998  25.174  21.325  1.00  0.00     0.131 H 
ENDBRANCH  25  30
ENDBRANCH  14  20
ENDBRANCH  11  14
ENDBRANCH   7  10
ENDBRANCH   4   7
ENDBRANCH   1   4
BRANCH   1  34
ATOM     34  C   UNL A   1      32.356  27.545  25.340  1.00  0.00    -0.052 C 
ATOM     35  H   UNL A   1      31.676  28.371  25.289  1.00  0.00     0.027 H 
ATOM     36  H   UNL A   1      32.521  27.080  24.390  1.00  0.00     0.027 H 
BRANCH  34  37
ATOM     37  C   UNL A   1      33.712  28.073  25.808  1.00  0.00    -0.036 C 
ATOM     38  H   UNL A   1      33.934  28.966  25.262  1.00  0.00     0.028 H 
ATOM     39  H   UNL A   1      34.426  27.296  25.631  1.00  0.00     0.028 H 
BRANCH  37  40
ATOM     40  C   UNL A   1      33.769  28.395  27.297  1.00  0.00     0.018 C 
ATOM     41  H   UNL A   1      34.683  28.010  27.699  1.00  0.00     0.049 H 
ATOM     42  H   UNL A   1      32.921  27.943  27.767  1.00  0.00     0.049 H 
BRANCH  40  43
ATOM     43  N   UNL A   1      33.712  29.829  27.542  1.00  0.00    -0.352 N 
ATOM     44  C   UNL A   1      34.638  30.634  28.153  1.00  0.00     0.251 C 
ATOM     45  H   UNL A   1      32.898  30.283  27.224  1.00  0.00     0.163 HD
ATOM     46  O   UNL A   1      34.355  31.783  28.480  1.00  0.00    -0.269 OA
BRANCH  44  47
ATOM     47  C   UNL A   1      35.982  30.096  28.437  1.00  0.00     0.039 A 
ATOM     48  C   UNL A   1      36.963  30.148  27.443  1.00  0.00    -0.049 A 
ATOM     49  C   UNL A   1      36.275  29.564  29.696  1.00  0.00    -0.049 A 
ATOM     50  C   UNL A   1      38.261  29.725  27.736  1.00  0.00    -0.053 A 
ATOM     51  H   UNL A   1      36.730  30.496  26.501  1.00  0.00     0.063 H 
ATOM     52  C   UNL A   1      37.584  29.220  30.008  1.00  0.00    -0.053 A 
ATOM     53  H   UNL A   1      35.523  29.430  30.389  1.00  0.00     0.063 H 
ATOM     54  C   UNL A   1      38.589  29.292  29.031  1.00  0.00    -0.014 A 
ATOM     55  H   UNL A   1      38.982  29.729  26.997  1.00  0.00     0.063 H 
ATOM     56  H   UNL A   1      37.818  28.909  30.965  1.00  0.00     0.063 H 
BRANCH  54  57
ATOM     57  C   UNL A   1      39.973  28.903  29.396  1.00  0.00     0.031 A 
ATOM     58  C   UNL A   1      40.852  29.875  30.129  1.00  0.00     0.074 A 
ATOM     59  C   UNL A   1      40.470  27.723  28.979  1.00  0.00     0.049 A 
ATOM     60  N   UNL A   1      42.125  29.788  30.421  1.00  0.00    -0.248 NA
ATOM     61  C   UNL A   1      40.220  31.132  30.560  1.00  0.00    -0.034 C 
ATOM     62  C   UNL A   1      39.728  26.718  28.218  1.00  0.00    -0.036 A 
ATOM     63  N   UNL A   1      41.726  27.184  29.111  1.00  0.00    -0.354 N 
ATOM     64  C   UNL A   1      42.450  30.984  31.045  1.00  0.00     0.074 A 
ATOM     65  C   UNL A   1      41.257  31.802  31.040  1.00  0.00    -0.034 C 
ATOM     66  H   UNL A   1      39.230  31.416  30.505  1.00  0.00     0.065 H 
ATOM     67  C   UNL A   1      40.541  25.683  27.951  1.00  0.00    -0.036 A 
ATOM     68  H   UNL A   1      38.739  26.791  27.932  1.00  0.00     0.065 H 
ATOM     69  C   UNL A   1      41.871  25.973  28.480  1.00  0.00     0.049 A 
ATOM     70  H   UNL A   1      42.451  27.624  29.609  1.00  0.00     0.167 HD
ATOM     71  C   UNL A   1      43.632  31.358  31.590  1.00  0.00     0.037 A 
ATOM     72  H   UNL A   1      41.219  32.781  31.366  1.00  0.00     0.065 H 
ATOM     73  H   UNL A   1      40.269  24.821  27.452  1.00  0.00     0.065 H 
ATOM     74  C   UNL A   1      42.960  25.196  28.322  1.00  0.00     0.037 A 
ATOM     75  C   UNL A   1      44.808  30.528  31.605  1.00  0.00     0.049 A 
ATOM     76  C   UNL A   1      44.267  25.630  28.926  1.00  0.00     0.074 A 
ATOM     77  C   UNL A   1      46.034  30.778  32.196  1.00  0.00    -0.036 A 
ATOM     78  N   UNL A   1      44.908  29.288  30.987  1.00  0.00    -0.354 N 
ATOM     79  N   UNL A   1      44.547  26.728  29.585  1.00  0.00    -0.248 NA
ATOM     80  C   UNL A   1      45.408  24.717  28.773  1.00  0.00    -0.034 C 
ATOM     81  C   UNL A   1      46.895  29.723  31.879  1.00  0.00    -0.036 A 
ATOM     82  H   UNL A   1      46.270  31.602  32.771  1.00  0.00     0.065 H 
ATOM     83  C   UNL A   1      46.186  28.780  31.151  1.00  0.00     0.049 A 
ATOM     84  H   UNL A   1      44.178  28.838  30.503  1.00  0.00     0.167 HD
ATOM     85  C   UNL A   1      45.884  26.629  29.948  1.00  0.00     0.074 A 
ATOM     86  C   UNL A   1      46.358  25.358  29.441  1.00  0.00    -0.034 C 
ATOM     87  H   UNL A   1      45.457  23.814  28.276  1.00  0.00     0.065 H 
ATOM     88  H   UNL A   1      47.890  29.658  32.143  1.00  0.00     0.065 H 
ATOM     89  C   UNL A   1      46.644  27.509  30.643  1.00  0.00     0.037 A 
ATOM     90  H   UNL A   1      47.314  24.997  29.580  1.00  0.00     0.065 H 
BRANCH  71  91
ATOM     91  C   UNL A   1      43.712  32.731  32.194  1.00  0.00     0.064 A 
ATOM     92  C   UNL A   1      44.114  33.850  31.447  1.00  0.00     0.173 A 
ATOM     93  C   UNL A   1      43.383  32.933  33.543  1.00  0.00     0.173 A 
ATOM     94  F   UNL A   1      44.448  33.714  30.154  1.00  0.00    -0.203 F 
ATOM     95  C   UNL A   1      44.232  35.104  32.038  1.00  0.00     0.198 A 
ATOM     96  C   UNL A   1      43.464  34.196  34.121  1.00  0.00     0.198 A 
ATOM     97  F   UNL A   1      42.984  31.903  34.304  1.00  0.00    -0.203 F 
ATOM     98  F   UNL A   1      44.688  36.141  31.321  1.00  0.00    -0.200 F 
ATOM     99  C   UNL A   1      43.903  35.278  33.374  1.00  0.00     0.200 A 
ATOM    100  F   UNL A   1      43.129  34.365  35.409  1.00  0.00    -0.200 F 
ATOM    101  F   UNL A   1      44.018  36.486  33.943  1.00  0.00    -0.200 F 
ENDBRANCH  71  91
BRANCH  74 102
ATOM    102  C   UNL A   1      42.844  23.926  27.559  1.00  0.00     0.064 A 
ATOM    103  C   UNL A   1      42.416  22.745  28.179  1.00  0.00     0.173 A 
ATOM    104  C   UNL A   1      43.122  23.878  26.184  1.00  0.00     0.173 A 
ATOM    105  F   UNL A   1      42.155  22.736  29.494  1.00  0.00    -0.203 F 
ATOM    106  C   UNL A   1      42.277  21.562  27.455  1.00  0.00     0.198 A 
ATOM    107  C   UNL A   1      42.955  22.702  25.455  1.00  0.00     0.198 A 
ATOM    108  F   UNL A   1      43.526  24.983  25.542  1.00  0.00    -0.203 F 
ATOM    109  F   UNL A   1      41.895  20.439  28.078  1.00  0.00    -0.200 F 
ATOM    110  C   UNL A   1      42.537  21.544  26.093  1.00  0.00     0.200 A 
ATOM    111  F   UNL A   1      43.188  22.695  24.137  1.00  0.00    -0.200 F 
ATOM    112  F   UNL A   1      42.387  20.411  25.394  1.00  0.00    -0.200 F 
ENDBRANCH  74 102
BRANCH  89 113
ATOM    113  C   UNL A   1      48.066  27.123  30.938  1.00  0.00     0.064 A 
ATOM    114  C   UNL A   1      48.396  26.278  32.008  1.00  0.00     0.173 A 
ATOM    115  C   UNL A   1      49.101  27.541  30.088  1.00  0.00     0.173 A 
ATOM    116  F   UNL A   1      47.446  25.863  32.858  1.00  0.00    -0.203 F 
ATOM    117  C   UNL A   1      49.711  25.874  32.218  1.00  0.00     0.198 A 
ATOM    118  C   UNL A   1      50.410  27.110  30.283  1.00  0.00     0.198 A 
ATOM    119  F   UNL A   1      48.837  28.347  29.047  1.00  0.00    -0.203 F 
ATOM    120  F   UNL A   1      50.010  25.091  33.265  1.00  0.00    -0.200 F 
ATOM    121  C   UNL A   1      50.714  26.280  31.350  1.00  0.00     0.200 A 
ATOM    122  F   UNL A   1      51.373  27.490  29.433  1.00  0.00    -0.200 F 
ATOM    123  F   UNL A   1      51.976  25.870  31.542  1.00  0.00    -0.200 F 
ENDBRANCH  89 113
ENDBRANCH  54  57
ENDBRANCH  44  47
ENDBRANCH  40  43
ENDBRANCH  37  40
ENDBRANCH  34  37
ENDBRANCH   1  34
TORSDOF 16
ENDMDL
MODEL 10
REMARK VINA RESULT:     -10.8      4.002     10.284
REMARK SMILES C[C@@H](C(=O)NCCCCCCNC(=O)c1ccc(-c2c3nc(c(-c4c(F)c(F)c(F)c(F)c4F)c4ccc([nH]4)c(-c4c(F)c(F)c(F)c(F)c4F)c4nc(c(-c5c(F)c(F)c(F)c(F)c5F)c5ccc2[nH]5)C=C4)C=C3)cc1)c1cccn(C(F)F)c1=O
REMARK SMILES IDX 8 1 7 4 6 7 5 10 3 11 4 12 2 14 1 16 78 20 79 21 86 22 80 23
REMARK SMILES IDX 82 25 87 26 81 27 83 30 84 31 85 32 9 34 10 37 11 40 12 43
REMARK SMILES IDX 13 44 14 46 15 47 16 48 77 49 17 50 76 52 18 54 19 57 20 58
REMARK SMILES IDX 70 59 21 60 75 61 69 62 71 63 22 64 74 65 68 67 67 69 23 71
REMARK SMILES IDX 55 74 35 75 54 76 36 77 39 78 53 79 72 80 37 81 38 83 52 85
REMARK SMILES IDX 73 86 40 89 24 91 25 92 33 93 26 94 27 95 31 96 34 97 28 98
REMARK SMILES IDX 29 99 32 100 30 101 56 102 57 103 65 104 58 105 59 106
REMARK SMILES IDX 63 107 66 108 60 109 61 110 64 111 62 112 41 113 42 114
REMARK SMILES IDX 50 115 43 116 44 117 48 118 51 119 45 120 46 121 49 122
REMARK SMILES IDX 47 123
REMARK H PARENT 8 2 8 3 7 5 7 6 6 8 6 9 5 13 2 15 1 17 1 18 1 19 79 24 80 28
REMARK H PARENT 81 29 83 33 9 35 9 36 10 38 10 39 11 41 11 42 12 45 16 51
REMARK H PARENT 77 53 17 55 76 56 75 66 69 68 71 70 74 72 68 73 36 82 39 84
REMARK H PARENT 72 87 37 88 73 90
REMARK Flexibility Score: inf
ROOT
ATOM      1  C   UNL A   1      32.856  35.209  29.618  1.00  0.00    -0.052 C 
ATOM      2  H   UNL A   1      32.326  36.059  29.240  1.00  0.00     0.027 H 
ATOM      3  H   UNL A   1      32.242  34.556  30.202  1.00  0.00     0.027 H 
ENDROOT
BRANCH   1   4
ATOM      4  C   UNL A   1      33.964  35.715  30.555  1.00  0.00    -0.036 C 
ATOM      5  H   UNL A   1      34.912  35.503  30.104  1.00  0.00     0.028 H 
ATOM      6  H   UNL A   1      33.807  36.764  30.691  1.00  0.00     0.028 H 
BRANCH   4   7
ATOM      7  C   UNL A   1      33.929  35.066  31.941  1.00  0.00     0.017 C 
ATOM      8  H   UNL A   1      34.739  35.443  32.530  1.00  0.00     0.049 H 
ATOM      9  H   UNL A   1      33.000  35.298  32.418  1.00  0.00     0.049 H 
BRANCH   7  10
ATOM     10  N   UNL A   1      34.056  33.629  31.811  1.00  0.00    -0.356 N 
ATOM     11  C   UNL A   1      35.169  32.867  31.602  1.00  0.00     0.227 C 
ATOM     12  O   UNL A   1      34.980  31.699  31.257  1.00  0.00    -0.274 OA
ATOM     13  H   UNL A   1      33.212  33.127  31.885  1.00  0.00     0.163 HD
BRANCH  11  14
ATOM     14  C   UNL A   1      36.566  33.451  31.887  1.00  0.00     0.066 C 
ATOM     15  H   UNL A   1      36.513  34.506  32.057  1.00  0.00     0.045 H 
BRANCH  14  16
ATOM     16  C   UNL A   1      37.490  33.364  30.670  1.00  0.00    -0.049 C 
ATOM     17  H   UNL A   1      37.464  34.292  30.137  1.00  0.00     0.024 H 
ATOM     18  H   UNL A   1      37.160  32.574  30.028  1.00  0.00     0.024 H 
ATOM     19  H   UNL A   1      38.490  33.167  30.994  1.00  0.00     0.024 H 
ENDBRANCH  14  16
BRANCH  14  20
ATOM     20  C   UNL A   1      37.093  32.833  33.179  1.00  0.00     0.030 A 
ATOM     21  C   UNL A   1      37.660  31.607  33.185  1.00  0.00    -0.051 A 
ATOM     22  C   UNL A   1      37.013  33.568  34.494  1.00  0.00     0.258 A 
ATOM     23  C   UNL A   1      38.190  31.014  34.384  1.00  0.00    -0.045 A 
ATOM     24  H   UNL A   1      37.717  31.079  32.301  1.00  0.00     0.063 H 
ATOM     25  N   UNL A   1      37.438  32.877  35.616  1.00  0.00    -0.258 N 
ATOM     26  O   UNL A   1      36.561  34.708  34.565  1.00  0.00    -0.269 OA
ATOM     27  C   UNL A   1      38.050  31.643  35.553  1.00  0.00     0.013 A 
ATOM     28  H   UNL A   1      38.679  30.106  34.341  1.00  0.00     0.064 H 
ATOM     29  H   UNL A   1      38.401  31.203  36.417  1.00  0.00     0.082 H 
BRANCH  25  30
ATOM     30  C   UNL A   1      37.252  33.513  36.896  1.00  0.00     0.321 C 
ATOM     31  F   UNL A   1      37.162  32.559  37.864  1.00  0.00    -0.185 F 
ATOM     32  F   UNL A   1      38.345  34.260  37.203  1.00  0.00    -0.185 F 
ATOM     33  H   UNL A   1      36.370  34.116  36.846  1.00  0.00     0.131 H 
ENDBRANCH  25  30
ENDBRANCH  14  20
ENDBRANCH  11  14
ENDBRANCH   7  10
ENDBRANCH   4   7
ENDBRANCH   1   4
BRANCH   1  34
ATOM     34  C   UNL A   1      33.352  34.386  28.425  1.00  0.00    -0.052 C 
ATOM     35  H   UNL A   1      32.877  34.760  27.540  1.00  0.00     0.027 H 
ATOM     36  H   UNL A   1      33.105  33.366  28.634  1.00  0.00     0.027 H 
BRANCH  34  37
ATOM     37  C   UNL A   1      34.865  34.432  28.209  1.00  0.00    -0.036 C 
ATOM     38  H   UNL A   1      35.314  34.899  29.060  1.00  0.00     0.028 H 
ATOM     39  H   UNL A   1      35.033  34.979  27.304  1.00  0.00     0.028 H 
BRANCH  37  40
ATOM     40  C   UNL A   1      35.503  33.061  28.021  1.00  0.00     0.018 C 
ATOM     41  H   UNL A   1      36.133  32.855  28.862  1.00  0.00     0.049 H 
ATOM     42  H   UNL A   1      36.068  33.078  27.113  1.00  0.00     0.049 H 
BRANCH  40  43
ATOM     43  N   UNL A   1      34.503  32.010  27.912  1.00  0.00    -0.352 N 
ATOM     44  C   UNL A   1      34.684  30.650  27.879  1.00  0.00     0.251 C 
ATOM     45  H   UNL A   1      33.569  32.315  27.855  1.00  0.00     0.163 HD
ATOM     46  O   UNL A   1      33.763  29.901  27.566  1.00  0.00    -0.269 OA
BRANCH  44  47
ATOM     47  C   UNL A   1      36.011  30.094  28.205  1.00  0.00     0.039 A 
ATOM     48  C   UNL A   1      37.033  30.162  27.256  1.00  0.00    -0.049 A 
ATOM     49  C   UNL A   1      36.246  29.531  29.462  1.00  0.00    -0.049 A 
ATOM     50  C   UNL A   1      38.314  29.722  27.592  1.00  0.00    -0.053 A 
ATOM     51  H   UNL A   1      36.842  30.534  26.313  1.00  0.00     0.063 H 
ATOM     52  C   UNL A   1      37.538  29.168  29.821  1.00  0.00    -0.053 A 
ATOM     53  H   UNL A   1      35.465  29.386  30.120  1.00  0.00     0.063 H 
ATOM     54  C   UNL A   1      38.584  29.256  28.889  1.00  0.00    -0.014 A 
ATOM     55  H   UNL A   1      39.066  29.738  26.884  1.00  0.00     0.063 H 
ATOM     56  H   UNL A   1      37.730  28.833  30.778  1.00  0.00     0.063 H 
BRANCH  54  57
ATOM     57  C   UNL A   1      39.948  28.846  29.301  1.00  0.00     0.031 A 
ATOM     58  C   UNL A   1      40.802  29.792  30.096  1.00  0.00     0.074 A 
ATOM     59  C   UNL A   1      40.455  27.674  28.876  1.00  0.00     0.049 A 
ATOM     60  N   UNL A   1      42.061  29.687  30.439  1.00  0.00    -0.248 NA
ATOM     61  C   UNL A   1      40.161  31.042  30.533  1.00  0.00    -0.034 C 
ATOM     62  C   UNL A   1      39.740  26.693  28.058  1.00  0.00    -0.036 A 
ATOM     63  N   UNL A   1      41.700  27.121  29.047  1.00  0.00    -0.354 N 
ATOM     64  C   UNL A   1      42.367  30.865  31.107  1.00  0.00     0.074 A 
ATOM     65  C   UNL A   1      41.181  31.692  31.073  1.00  0.00    -0.034 C 
ATOM     66  H   UNL A   1      39.177  31.336  30.443  1.00  0.00     0.065 H 
ATOM     67  C   UNL A   1      40.556  25.660  27.800  1.00  0.00    -0.036 A 
ATOM     68  H   UNL A   1      38.764  26.782  27.733  1.00  0.00     0.065 H 
ATOM     69  C   UNL A   1      41.864  25.926  28.392  1.00  0.00     0.049 A 
ATOM     70  H   UNL A   1      42.407  27.543  29.587  1.00  0.00     0.167 HD
ATOM     71  C   UNL A   1      43.528  31.215  31.711  1.00  0.00     0.037 A 
ATOM     72  H   UNL A   1      41.136  32.663  31.422  1.00  0.00     0.065 H 
ATOM     73  H   UNL A   1      40.300  24.813  27.267  1.00  0.00     0.065 H 
ATOM     74  C   UNL A   1      42.953  25.144  28.260  1.00  0.00     0.037 A 
ATOM     75  C   UNL A   1      44.696  30.376  31.755  1.00  0.00     0.049 A 
ATOM     76  C   UNL A   1      44.237  25.552  28.930  1.00  0.00     0.074 A 
ATOM     77  C   UNL A   1      45.897  30.602  32.403  1.00  0.00    -0.036 A 
ATOM     78  N   UNL A   1      44.814  29.152  31.110  1.00  0.00    -0.354 N 
ATOM     79  N   UNL A   1      44.495  26.631  29.629  1.00  0.00    -0.248 NA
ATOM     80  C   UNL A   1      45.376  24.635  28.802  1.00  0.00    -0.034 C 
ATOM     81  C   UNL A   1      46.764  29.548  32.096  1.00  0.00    -0.036 A 
ATOM     82  H   UNL A   1      46.115  31.409  33.009  1.00  0.00     0.065 H 
ATOM     83  C   UNL A   1      46.080  28.629  31.315  1.00  0.00     0.049 A 
ATOM     84  H   UNL A   1      44.102  28.720  30.584  1.00  0.00     0.167 HD
ATOM     85  C   UNL A   1      45.815  26.512  30.045  1.00  0.00     0.074 A 
ATOM     86  C   UNL A   1      46.302  25.251  29.526  1.00  0.00    -0.034 C 
ATOM     87  H   UNL A   1      45.441  23.744  28.284  1.00  0.00     0.065 H 
ATOM     88  H   UNL A   1      47.746  29.468  32.400  1.00  0.00     0.065 H 
ATOM     89  C   UNL A   1      46.551  27.368  30.794  1.00  0.00     0.037 A 
ATOM     90  H   UNL A   1      47.249  24.879  29.696  1.00  0.00     0.065 H 
BRANCH  71  91
ATOM     91  C   UNL A   1      43.591  32.572  32.354  1.00  0.00     0.064 A 
ATOM     92  C   UNL A   1      43.207  32.782  33.688  1.00  0.00     0.173 A 
ATOM     93  C   UNL A   1      44.043  33.682  31.624  1.00  0.00     0.173 A 
ATOM     94  F   UNL A   1      42.759  31.757  34.431  1.00  0.00    -0.203 F 
ATOM     95  C   UNL A   1      43.223  34.056  34.248  1.00  0.00     0.198 A 
ATOM     96  C   UNL A   1      44.096  34.948  32.200  1.00  0.00     0.198 A 
ATOM     97  F   UNL A   1      44.432  33.540  30.348  1.00  0.00    -0.203 F 
ATOM     98  F   UNL A   1      42.781  34.241  35.500  1.00  0.00    -0.200 F 
ATOM     99  C   UNL A   1      43.672  35.137  33.506  1.00  0.00     0.200 A 
ATOM    100  F   UNL A   1      44.546  35.990  31.486  1.00  0.00    -0.200 F 
ATOM    101  F   UNL A   1      43.686  36.363  34.046  1.00  0.00    -0.200 F 
ENDBRANCH  71  91
BRANCH  74 102
ATOM    102  C   UNL A   1      42.861  23.895  27.460  1.00  0.00     0.064 A 
ATOM    103  C   UNL A   1      43.183  23.884  26.096  1.00  0.00     0.173 A 
ATOM    104  C   UNL A   1      42.487  22.679  28.053  1.00  0.00     0.173 A 
ATOM    105  F   UNL A   1      43.529  25.024  25.481  1.00  0.00    -0.203 F 
ATOM    106  C   UNL A   1      43.127  22.706  25.353  1.00  0.00     0.198 A 
ATOM    107  C   UNL A   1      42.459  21.497  27.316  1.00  0.00     0.198 A 
ATOM    108  F   UNL A   1      42.177  22.635  29.356  1.00  0.00    -0.203 F 
ATOM    109  F   UNL A   1      43.410  22.728  24.044  1.00  0.00    -0.200 F 
ATOM    110  C   UNL A   1      42.775  21.512  25.966  1.00  0.00     0.200 A 
ATOM    111  F   UNL A   1      42.138  20.344  27.916  1.00  0.00    -0.200 F 
ATOM    112  F   UNL A   1      42.737  20.377  25.256  1.00  0.00    -0.200 F 
ENDBRANCH  74 102
BRANCH  89 113
ATOM    113  C   UNL A   1      47.956  26.964  31.139  1.00  0.00     0.064 A 
ATOM    114  C   UNL A   1      48.237  26.112  32.217  1.00  0.00     0.173 A 
ATOM    115  C   UNL A   1      49.026  27.371  30.328  1.00  0.00     0.173 A 
ATOM    116  F   UNL A   1      47.252  25.706  33.031  1.00  0.00    -0.203 F 
ATOM    117  C   UNL A   1      49.539  25.690  32.474  1.00  0.00     0.198 A 
ATOM    118  C   UNL A   1      50.322  26.923  30.569  1.00  0.00     0.198 A 
ATOM    119  F   UNL A   1      48.810  28.183  29.281  1.00  0.00    -0.203 F 
ATOM    120  F   UNL A   1      49.790  24.901  33.528  1.00  0.00    -0.200 F 
ATOM    121  C   UNL A   1      50.577  26.086  31.643  1.00  0.00     0.200 A 
ATOM    122  F   UNL A   1      51.320  27.293  29.755  1.00  0.00    -0.200 F 
ATOM    123  F   UNL A   1      51.826  25.660  31.880  1.00  0.00    -0.200 F 
ENDBRANCH  89 113
ENDBRANCH  54  57
ENDBRANCH  44  47
ENDBRANCH  40  43
ENDBRANCH  37  40
ENDBRANCH  34  37
ENDBRANCH   1  34
TORSDOF 16
ENDMDL
