MODEL 1
REMARK VINA RESULT:     -12.5      0.000      0.000
REMARK SMILES Cc1cc2cc(-c3ccc([C@@H](C)C(=O)NCCCCCCNC(=O)c4ccc(-c5c6nc(c(-c7c(F)c(F)c(F)c(F)c7F)c7ccc([nH]7)c(-c7c(F)c(F)c(F)c(F)c7F)c7nc(c(-c8c(F)c(F)c(F)c(F)c8F)c8ccc5[nH]8)C=C7)C=C6)cc4)cc3)ccc2[nH]1
REMARK SMILES IDX 18 1 17 4 16 7 15 10 13 11 14 12 11 14 10 16 7 17 8 18 89 19
REMARK SMILES IDX 9 20 88 22 6 26 2 27 3 28 93 29 4 30 92 32 5 34 91 35 90 37
REMARK SMILES IDX 1 40 12 44 19 48 20 51 21 54 22 57 23 58 24 60 25 61 26 62
REMARK SMILES IDX 87 63 27 64 86 66 28 68 29 71 30 72 80 73 31 74 85 75 79 76
REMARK SMILES IDX 81 77 32 78 84 79 78 81 77 83 33 85 65 88 45 89 64 90 46 91
REMARK SMILES IDX 49 92 63 93 82 94 47 95 48 97 62 99 83 100 50 103 34 105
REMARK SMILES IDX 35 106 43 107 36 108 37 109 41 110 44 111 38 112 39 113
REMARK SMILES IDX 42 114 40 115 66 116 67 117 75 118 68 119 69 120 73 121
REMARK SMILES IDX 76 122 70 123 71 124 74 125 72 126 51 127 52 128 60 129
REMARK SMILES IDX 53 130 54 131 58 132 61 133 55 134 56 135 59 136 57 137
REMARK H PARENT 18 2 18 3 17 5 17 6 16 8 16 9 15 13 11 15 8 21 89 23 9 24
REMARK H PARENT 88 25 3 31 93 33 5 36 91 38 90 39 1 41 1 42 1 43 12 45 12 46
REMARK H PARENT 12 47 19 49 19 50 20 52 20 53 21 55 21 56 22 59 26 65 87 67
REMARK H PARENT 27 69 86 70 85 80 79 82 81 84 84 86 78 87 46 96 49 98 82 101
REMARK H PARENT 47 102 83 104
REMARK Flexibility Score: inf
ROOT
ATOM      1  C   UNL A   1      33.656  26.138  25.452  1.00  0.00    -0.052 C 
ATOM      2  H   UNL A   1      33.858  26.961  26.105  1.00  0.00     0.027 H 
ATOM      3  H   UNL A   1      32.876  25.495  25.802  1.00  0.00     0.027 H 
ENDROOT
BRANCH   1   4
ATOM      4  C   UNL A   1      34.917  25.271  25.378  1.00  0.00    -0.036 C 
ATOM      5  H   UNL A   1      35.435  25.505  24.469  1.00  0.00     0.028 H 
ATOM      6  H   UNL A   1      35.497  25.491  26.249  1.00  0.00     0.028 H 
BRANCH   4   7
ATOM      7  C   UNL A   1      34.640  23.766  25.398  1.00  0.00     0.017 C 
ATOM      8  H   UNL A   1      33.930  23.535  24.630  1.00  0.00     0.049 H 
ATOM      9  H   UNL A   1      35.565  23.255  25.234  1.00  0.00     0.049 H 
BRANCH   7  10
ATOM     10  N   UNL A   1      34.107  23.332  26.673  1.00  0.00    -0.356 N 
ATOM     11  C   UNL A   1      32.924  22.752  27.011  1.00  0.00     0.227 C 
ATOM     12  O   UNL A   1      32.727  22.573  28.220  1.00  0.00    -0.274 OA
ATOM     13  H   UNL A   1      34.713  23.485  27.434  1.00  0.00     0.163 HD
BRANCH  11  14
ATOM     14  C   UNL A   1      31.865  22.308  25.990  1.00  0.00     0.060 C 
ATOM     15  H   UNL A   1      31.127  21.774  26.552  1.00  0.00     0.045 H 
BRANCH  14  16
ATOM     16  C   UNL A   1      31.078  23.463  25.392  1.00  0.00    -0.036 A 
ATOM     17  C   UNL A   1      29.673  25.718  24.338  1.00  0.00    -0.018 A 
ATOM     18  C   UNL A   1      30.278  24.765  23.503  1.00  0.00    -0.054 A 
ATOM     19  C   UNL A   1      29.776  25.508  25.720  1.00  0.00    -0.054 A 
ATOM     20  C   UNL A   1      30.934  23.644  24.017  1.00  0.00    -0.058 A 
ATOM     21  H   UNL A   1      30.238  24.896  22.480  1.00  0.00     0.063 H 
ATOM     22  C   UNL A   1      30.481  24.412  26.238  1.00  0.00    -0.058 A 
ATOM     23  H   UNL A   1      29.326  26.173  26.367  1.00  0.00     0.063 H 
ATOM     24  H   UNL A   1      31.318  22.938  23.369  1.00  0.00     0.063 H 
ATOM     25  H   UNL A   1      30.562  24.300  27.261  1.00  0.00     0.063 H 
BRANCH  17  26
ATOM     26  C   UNL A   1      28.964  26.878  23.752  1.00  0.00    -0.018 A 
ATOM     27  C   UNL A   1      28.429  31.001  21.663  1.00  0.00     0.013 A 
ATOM     28  C   UNL A   1      29.512  30.173  21.871  1.00  0.00    -0.034 A 
ATOM     29  N   UNL A   1      27.327  30.371  22.189  1.00  0.00    -0.359 N 
ATOM     30  C   UNL A   1      29.053  29.019  22.556  1.00  0.00     0.000 A 
ATOM     31  H   UNL A   1      30.485  30.360  21.579  1.00  0.00     0.065 H 
ATOM     32  C   UNL A   1      27.684  29.166  22.752  1.00  0.00     0.046 A 
ATOM     33  H   UNL A   1      26.410  30.730  22.167  1.00  0.00     0.166 HD
ATOM     34  C   UNL A   1      29.685  27.860  23.040  1.00  0.00    -0.045 A 
ATOM     35  C   UNL A   1      26.916  28.202  23.414  1.00  0.00    -0.037 A 
ATOM     36  H   UNL A   1      30.695  27.724  22.870  1.00  0.00     0.064 H 
ATOM     37  C   UNL A   1      27.582  27.071  23.914  1.00  0.00    -0.052 A 
ATOM     38  H   UNL A   1      25.898  28.319  23.530  1.00  0.00     0.065 H 
ATOM     39  H   UNL A   1      27.036  26.355  24.418  1.00  0.00     0.063 H 
BRANCH  27  40
ATOM     40  C   UNL A   1      28.344  32.328  21.009  1.00  0.00    -0.024 C 
ATOM     41  H   UNL A   1      27.396  32.426  20.522  1.00  0.00     0.029 H 
ATOM     42  H   UNL A   1      29.127  32.420  20.285  1.00  0.00     0.029 H 
ATOM     43  H   UNL A   1      28.448  33.096  21.746  1.00  0.00     0.029 H 
ENDBRANCH  27  40
ENDBRANCH  17  26
ENDBRANCH  14  16
BRANCH  14  44
ATOM     44  C   UNL A   1      32.362  21.253  25.000  1.00  0.00    -0.049 C 
ATOM     45  H   UNL A   1      33.397  21.422  24.789  1.00  0.00     0.024 H 
ATOM     46  H   UNL A   1      31.797  21.322  24.093  1.00  0.00     0.024 H 
ATOM     47  H   UNL A   1      32.237  20.279  25.425  1.00  0.00     0.024 H 
ENDBRANCH  14  44
ENDBRANCH  11  14
ENDBRANCH   7  10
ENDBRANCH   4   7
ENDBRANCH   1   4
BRANCH   1  48
ATOM     48  C   UNL A   1      33.172  26.705  24.111  1.00  0.00    -0.052 C 
ATOM     49  H   UNL A   1      32.306  26.153  23.814  1.00  0.00     0.027 H 
ATOM     50  H   UNL A   1      33.999  26.611  23.438  1.00  0.00     0.027 H 
BRANCH  48  51
ATOM     51  C   UNL A   1      32.804  28.192  24.115  1.00  0.00    -0.036 C 
ATOM     52  H   UNL A   1      31.826  28.292  24.537  1.00  0.00     0.028 H 
ATOM     53  H   UNL A   1      32.862  28.518  23.098  1.00  0.00     0.028 H 
BRANCH  51  54
ATOM     54  C   UNL A   1      33.755  29.088  24.906  1.00  0.00     0.018 C 
ATOM     55  H   UNL A   1      34.513  29.455  24.247  1.00  0.00     0.049 H 
ATOM     56  H   UNL A   1      34.178  28.503  25.696  1.00  0.00     0.049 H 
BRANCH  54  57
ATOM     57  N   UNL A   1      33.065  30.219  25.504  1.00  0.00    -0.352 N 
ATOM     58  C   UNL A   1      33.291  30.858  26.697  1.00  0.00     0.251 C 
ATOM     59  H   UNL A   1      32.320  30.583  24.971  1.00  0.00     0.163 HD
ATOM     60  O   UNL A   1      32.468  31.656  27.133  1.00  0.00    -0.269 OA
BRANCH  58  61
ATOM     61  C   UNL A   1      34.521  30.583  27.470  1.00  0.00     0.039 A 
ATOM     62  C   UNL A   1      35.463  31.605  27.626  1.00  0.00    -0.049 A 
ATOM     63  C   UNL A   1      34.770  29.315  28.002  1.00  0.00    -0.049 A 
ATOM     64  C   UNL A   1      36.630  31.369  28.358  1.00  0.00    -0.053 A 
ATOM     65  H   UNL A   1      35.297  32.531  27.201  1.00  0.00     0.063 H 
ATOM     66  C   UNL A   1      35.902  29.099  28.784  1.00  0.00    -0.053 A 
ATOM     67  H   UNL A   1      34.115  28.539  27.815  1.00  0.00     0.063 H 
ATOM     68  C   UNL A   1      36.845  30.122  28.964  1.00  0.00    -0.014 A 
ATOM     69  H   UNL A   1      37.335  32.116  28.454  1.00  0.00     0.063 H 
ATOM     70  H   UNL A   1      36.048  28.181  29.233  1.00  0.00     0.063 H 
BRANCH  68  71
ATOM     71  C   UNL A   1      38.059  29.863  29.780  1.00  0.00     0.031 A 
ATOM     72  C   UNL A   1      39.133  28.946  29.264  1.00  0.00     0.074 A 
ATOM     73  C   UNL A   1      38.165  30.405  31.008  1.00  0.00     0.049 A 
ATOM     74  N   UNL A   1      40.225  28.534  29.856  1.00  0.00    -0.248 NA
ATOM     75  C   UNL A   1      38.942  28.403  27.910  1.00  0.00    -0.034 C 
ATOM     76  C   UNL A   1      37.174  31.280  31.634  1.00  0.00    -0.036 A 
ATOM     77  N   UNL A   1      39.152  30.288  31.955  1.00  0.00    -0.354 N 
ATOM     78  C   UNL A   1      40.841  27.675  28.956  1.00  0.00     0.074 A 
ATOM     79  C   UNL A   1      39.979  27.586  27.797  1.00  0.00    -0.034 C 
ATOM     80  H   UNL A   1      38.195  28.606  27.227  1.00  0.00     0.065 H 
ATOM     81  C   UNL A   1      37.610  31.636  32.853  1.00  0.00    -0.036 A 
ATOM     82  H   UNL A   1      36.282  31.576  31.207  1.00  0.00     0.065 H 
ATOM     83  C   UNL A   1      38.893  30.988  33.108  1.00  0.00     0.049 A 
ATOM     84  H   UNL A   1      39.968  29.755  31.820  1.00  0.00     0.167 HD
ATOM     85  C   UNL A   1      42.029  27.035  29.074  1.00  0.00     0.037 A 
ATOM     86  H   UNL A   1      40.148  26.968  26.988  1.00  0.00     0.065 H 
ATOM     87  H   UNL A   1      37.118  32.267  33.505  1.00  0.00     0.065 H 
ATOM     88  C   UNL A   1      39.607  31.087  34.245  1.00  0.00     0.037 A 
ATOM     89  C   UNL A   1      42.897  27.144  30.217  1.00  0.00     0.049 A 
ATOM     90  C   UNL A   1      40.920  30.360  34.354  1.00  0.00     0.074 A 
ATOM     91  C   UNL A   1      44.143  26.572  30.415  1.00  0.00    -0.036 A 
ATOM     92  N   UNL A   1      42.609  27.877  31.359  1.00  0.00    -0.354 N 
ATOM     93  N   UNL A   1      41.518  29.593  33.475  1.00  0.00    -0.248 NA
ATOM     94  C   UNL A   1      41.660  30.517  35.615  1.00  0.00    -0.034 C 
ATOM     95  C   UNL A   1      44.592  26.930  31.691  1.00  0.00    -0.036 A 
ATOM     96  H   UNL A   1      44.652  25.984  29.738  1.00  0.00     0.065 H 
ATOM     97  C   UNL A   1      43.646  27.760  32.271  1.00  0.00     0.049 A 
ATOM     98  H   UNL A   1      41.789  28.403  31.501  1.00  0.00     0.167 HD
ATOM     99  C   UNL A   1      42.714  29.203  34.060  1.00  0.00     0.074 A 
ATOM    100  C   UNL A   1      42.763  29.826  35.367  1.00  0.00    -0.034 C 
ATOM    101  H   UNL A   1      41.391  31.031  36.469  1.00  0.00     0.065 H 
ATOM    102  H   UNL A   1      45.478  26.627  32.125  1.00  0.00     0.065 H 
ATOM    103  C   UNL A   1      43.684  28.399  33.562  1.00  0.00     0.037 A 
ATOM    104  H   UNL A   1      43.556  29.742  36.022  1.00  0.00     0.065 H 
BRANCH  85 105
ATOM    105  C   UNL A   1      42.465  26.164  27.932  1.00  0.00     0.064 A 
ATOM    106  C   UNL A   1      43.352  26.632  26.950  1.00  0.00     0.173 A 
ATOM    107  C   UNL A   1      42.020  24.838  27.835  1.00  0.00     0.173 A 
ATOM    108  F   UNL A   1      43.798  27.896  26.992  1.00  0.00    -0.203 F 
ATOM    109  C   UNL A   1      43.754  25.813  25.898  1.00  0.00     0.198 A 
ATOM    110  C   UNL A   1      42.445  24.012  26.797  1.00  0.00     0.198 A 
ATOM    111  F   UNL A   1      41.176  24.338  28.751  1.00  0.00    -0.203 F 
ATOM    112  F   UNL A   1      44.564  26.297  24.947  1.00  0.00    -0.200 F 
ATOM    113  C   UNL A   1      43.306  24.503  25.826  1.00  0.00     0.200 A 
ATOM    114  F   UNL A   1      42.022  22.742  26.736  1.00  0.00    -0.200 F 
ATOM    115  F   UNL A   1      43.698  23.714  24.816  1.00  0.00    -0.200 F 
ENDBRANCH  85 105
BRANCH  88 116
ATOM    116  C   UNL A   1      39.110  31.930  35.363  1.00  0.00     0.064 A 
ATOM    117  C   UNL A   1      39.392  33.303  35.407  1.00  0.00     0.173 A 
ATOM    118  C   UNL A   1      38.354  31.385  36.411  1.00  0.00     0.173 A 
ATOM    119  F   UNL A   1      40.130  33.864  34.438  1.00  0.00    -0.203 F 
ATOM    120  C   UNL A   1      38.954  34.094  36.465  1.00  0.00     0.198 A 
ATOM    121  C   UNL A   1      37.894  32.183  37.456  1.00  0.00     0.198 A 
ATOM    122  F   UNL A   1      38.054  30.078  36.414  1.00  0.00    -0.203 F 
ATOM    123  F   UNL A   1      39.276  35.394  36.504  1.00  0.00    -0.200 F 
ATOM    124  C   UNL A   1      38.201  33.536  37.487  1.00  0.00     0.200 A 
ATOM    125  F   UNL A   1      37.155  31.642  38.434  1.00  0.00    -0.200 F 
ATOM    126  F   UNL A   1      37.778  34.297  38.504  1.00  0.00    -0.200 F 
ENDBRANCH  88 116
BRANCH 103 127
ATOM    127  C   UNL A   1      44.900  28.180  34.413  1.00  0.00     0.064 A 
ATOM    128  C   UNL A   1      46.007  29.037  34.347  1.00  0.00     0.173 A 
ATOM    129  C   UNL A   1      44.940  27.121  35.331  1.00  0.00     0.173 A 
ATOM    130  F   UNL A   1      46.023  30.054  33.472  1.00  0.00    -0.203 F 
ATOM    131  C   UNL A   1      47.122  28.828  35.154  1.00  0.00     0.198 A 
ATOM    132  C   UNL A   1      46.045  26.931  36.157  1.00  0.00     0.198 A 
ATOM    133  F   UNL A   1      43.904  26.277  35.437  1.00  0.00    -0.203 F 
ATOM    134  F   UNL A   1      48.188  29.633  35.043  1.00  0.00    -0.200 F 
ATOM    135  C   UNL A   1      47.137  27.780  36.063  1.00  0.00     0.200 A 
ATOM    136  F   UNL A   1      46.053  25.925  37.043  1.00  0.00    -0.200 F 
ATOM    137  F   UNL A   1      48.209  27.584  36.844  1.00  0.00    -0.200 F 
ENDBRANCH 103 127
ENDBRANCH  68  71
ENDBRANCH  58  61
ENDBRANCH  54  57
ENDBRANCH  51  54
ENDBRANCH  48  51
ENDBRANCH   1  48
TORSDOF 17
ENDMDL
MODEL 2
REMARK VINA RESULT:     -12.4      2.631      7.471
REMARK SMILES Cc1cc2cc(-c3ccc([C@@H](C)C(=O)NCCCCCCNC(=O)c4ccc(-c5c6nc(c(-c7c(F)c(F)c(F)c(F)c7F)c7ccc([nH]7)c(-c7c(F)c(F)c(F)c(F)c7F)c7nc(c(-c8c(F)c(F)c(F)c(F)c8F)c8ccc5[nH]8)C=C7)C=C6)cc4)cc3)ccc2[nH]1
REMARK SMILES IDX 18 1 17 4 16 7 15 10 13 11 14 12 11 14 10 16 7 17 8 18 89 19
REMARK SMILES IDX 9 20 88 22 6 26 2 27 3 28 93 29 4 30 92 32 5 34 91 35 90 37
REMARK SMILES IDX 1 40 12 44 19 48 20 51 21 54 22 57 23 58 24 60 25 61 26 62
REMARK SMILES IDX 87 63 27 64 86 66 28 68 29 71 30 72 80 73 31 74 85 75 79 76
REMARK SMILES IDX 81 77 32 78 84 79 78 81 77 83 33 85 65 88 45 89 64 90 46 91
REMARK SMILES IDX 49 92 63 93 82 94 47 95 48 97 62 99 83 100 50 103 34 105
REMARK SMILES IDX 35 106 43 107 36 108 37 109 41 110 44 111 38 112 39 113
REMARK SMILES IDX 42 114 40 115 66 116 67 117 75 118 68 119 69 120 73 121
REMARK SMILES IDX 76 122 70 123 71 124 74 125 72 126 51 127 52 128 60 129
REMARK SMILES IDX 53 130 54 131 58 132 61 133 55 134 56 135 59 136 57 137
REMARK H PARENT 18 2 18 3 17 5 17 6 16 8 16 9 15 13 11 15 8 21 89 23 9 24
REMARK H PARENT 88 25 3 31 93 33 5 36 91 38 90 39 1 41 1 42 1 43 12 45 12 46
REMARK H PARENT 12 47 19 49 19 50 20 52 20 53 21 55 21 56 22 59 26 65 87 67
REMARK H PARENT 27 69 86 70 85 80 79 82 81 84 84 86 78 87 46 96 49 98 82 101
REMARK H PARENT 47 102 83 104
REMARK Flexibility Score: inf
ROOT
ATOM      1  C   UNL A   1      33.782  25.830  24.290  1.00  0.00    -0.052 C 
ATOM      2  H   UNL A   1      32.830  25.343  24.338  1.00  0.00     0.027 H 
ATOM      3  H   UNL A   1      34.278  25.708  23.350  1.00  0.00     0.027 H 
ENDROOT
BRANCH   1   4
ATOM      4  C   UNL A   1      34.697  25.190  25.339  1.00  0.00    -0.036 C 
ATOM      5  H   UNL A   1      35.707  25.472  25.122  1.00  0.00     0.028 H 
ATOM      6  H   UNL A   1      34.368  25.542  26.294  1.00  0.00     0.028 H 
BRANCH   4   7
ATOM      7  C   UNL A   1      34.622  23.662  25.379  1.00  0.00     0.017 C 
ATOM      8  H   UNL A   1      33.948  23.329  24.617  1.00  0.00     0.049 H 
ATOM      9  H   UNL A   1      35.607  23.276  25.218  1.00  0.00     0.049 H 
BRANCH   7  10
ATOM     10  N   UNL A   1      34.154  23.178  26.661  1.00  0.00    -0.356 N 
ATOM     11  C   UNL A   1      32.973  22.623  27.045  1.00  0.00     0.227 C 
ATOM     12  O   UNL A   1      32.846  22.384  28.253  1.00  0.00    -0.274 OA
ATOM     13  H   UNL A   1      34.813  23.266  27.388  1.00  0.00     0.163 HD
BRANCH  11  14
ATOM     14  C   UNL A   1      31.834  22.276  26.074  1.00  0.00     0.060 C 
ATOM     15  H   UNL A   1      31.065  21.836  26.674  1.00  0.00     0.045 H 
BRANCH  14  16
ATOM     16  C   UNL A   1      31.152  23.497  25.477  1.00  0.00    -0.036 A 
ATOM     17  C   UNL A   1      29.784  25.709  24.292  1.00  0.00    -0.018 A 
ATOM     18  C   UNL A   1      29.967  25.608  25.680  1.00  0.00    -0.054 A 
ATOM     19  C   UNL A   1      30.316  24.679  23.504  1.00  0.00    -0.054 A 
ATOM     20  C   UNL A   1      30.666  24.545  26.257  1.00  0.00    -0.058 A 
ATOM     21  H   UNL A   1      29.573  26.339  26.292  1.00  0.00     0.063 H 
ATOM     22  C   UNL A   1      30.972  23.584  24.087  1.00  0.00    -0.058 A 
ATOM     23  H   UNL A   1      30.223  24.727  22.478  1.00  0.00     0.063 H 
ATOM     24  H   UNL A   1      30.826  24.536  27.277  1.00  0.00     0.063 H 
ATOM     25  H   UNL A   1      31.328  22.827  23.482  1.00  0.00     0.063 H 
BRANCH  17  26
ATOM     26  C   UNL A   1      29.059  26.866  23.718  1.00  0.00    -0.018 A 
ATOM     27  C   UNL A   1      28.470  30.999  21.664  1.00  0.00     0.013 A 
ATOM     28  C   UNL A   1      29.564  30.182  21.861  1.00  0.00    -0.034 A 
ATOM     29  N   UNL A   1      27.377  30.352  22.189  1.00  0.00    -0.359 N 
ATOM     30  C   UNL A   1      29.120  29.017  22.539  1.00  0.00     0.000 A 
ATOM     31  H   UNL A   1      30.532  30.382  21.568  1.00  0.00     0.065 H 
ATOM     32  C   UNL A   1      27.750  29.147  22.741  1.00  0.00     0.046 A 
ATOM     33  H   UNL A   1      26.457  30.701  22.173  1.00  0.00     0.166 HD
ATOM     34  C   UNL A   1      29.766  27.861  23.011  1.00  0.00    -0.045 A 
ATOM     35  C   UNL A   1      26.996  28.169  23.398  1.00  0.00    -0.037 A 
ATOM     36  H   UNL A   1      30.777  27.739  22.837  1.00  0.00     0.064 H 
ATOM     37  C   UNL A   1      27.675  27.042  23.887  1.00  0.00    -0.052 A 
ATOM     38  H   UNL A   1      25.976  28.274  23.519  1.00  0.00     0.065 H 
ATOM     39  H   UNL A   1      27.140  26.316  24.387  1.00  0.00     0.063 H 
BRANCH  27  40
ATOM     40  C   UNL A   1      28.368  32.330  21.021  1.00  0.00    -0.024 C 
ATOM     41  H   UNL A   1      28.279  32.209  19.962  1.00  0.00     0.029 H 
ATOM     42  H   UNL A   1      29.246  32.901  21.242  1.00  0.00     0.029 H 
ATOM     43  H   UNL A   1      27.507  32.842  21.396  1.00  0.00     0.029 H 
ENDBRANCH  27  40
ENDBRANCH  17  26
ENDBRANCH  14  16
BRANCH  14  44
ATOM     44  C   UNL A   1      32.177  21.155  25.091  1.00  0.00    -0.049 C 
ATOM     45  H   UNL A   1      31.691  20.252  25.396  1.00  0.00     0.024 H 
ATOM     46  H   UNL A   1      33.236  21.004  25.077  1.00  0.00     0.024 H 
ATOM     47  H   UNL A   1      31.842  21.427  24.111  1.00  0.00     0.024 H 
ENDBRANCH  14  44
ENDBRANCH  11  14
ENDBRANCH   7  10
ENDBRANCH   4   7
ENDBRANCH   1   4
BRANCH   1  48
ATOM     48  C   UNL A   1      33.550  27.338  24.456  1.00  0.00    -0.052 C 
ATOM     49  H   UNL A   1      32.945  27.670  23.640  1.00  0.00     0.027 H 
ATOM     50  H   UNL A   1      34.524  27.782  24.483  1.00  0.00     0.027 H 
BRANCH  48  51
ATOM     51  C   UNL A   1      32.861  27.763  25.757  1.00  0.00    -0.036 C 
ATOM     52  H   UNL A   1      32.304  26.927  26.127  1.00  0.00     0.028 H 
ATOM     53  H   UNL A   1      32.248  28.604  25.511  1.00  0.00     0.028 H 
BRANCH  51  54
ATOM     54  C   UNL A   1      33.805  28.230  26.863  1.00  0.00     0.018 C 
ATOM     55  H   UNL A   1      34.814  28.045  26.556  1.00  0.00     0.049 H 
ATOM     56  H   UNL A   1      33.566  27.687  27.752  1.00  0.00     0.049 H 
BRANCH  54  57
ATOM     57  N   UNL A   1      33.652  29.647  27.145  1.00  0.00    -0.352 N 
ATOM     58  C   UNL A   1      34.476  30.502  27.833  1.00  0.00     0.251 C 
ATOM     59  H   UNL A   1      32.830  30.058  26.789  1.00  0.00     0.163 HD
ATOM     60  O   UNL A   1      34.076  31.616  28.155  1.00  0.00    -0.269 OA
BRANCH  58  61
ATOM     61  C   UNL A   1      35.847  30.086  28.198  1.00  0.00     0.039 A 
ATOM     62  C   UNL A   1      36.857  30.167  27.235  1.00  0.00    -0.049 A 
ATOM     63  C   UNL A   1      36.130  29.575  29.468  1.00  0.00    -0.049 A 
ATOM     64  C   UNL A   1      38.161  29.785  27.561  1.00  0.00    -0.053 A 
ATOM     65  H   UNL A   1      36.640  30.509  26.286  1.00  0.00     0.063 H 
ATOM     66  C   UNL A   1      37.441  29.253  29.811  1.00  0.00    -0.053 A 
ATOM     67  H   UNL A   1      35.368  29.436  30.150  1.00  0.00     0.063 H 
ATOM     68  C   UNL A   1      38.468  29.349  28.860  1.00  0.00    -0.014 A 
ATOM     69  H   UNL A   1      38.901  29.824  26.843  1.00  0.00     0.063 H 
ATOM     70  H   UNL A   1      37.659  28.942  30.771  1.00  0.00     0.063 H 
BRANCH  68  71
ATOM     71  C   UNL A   1      39.854  28.977  29.238  1.00  0.00     0.031 A 
ATOM     72  C   UNL A   1      40.686  29.913  30.070  1.00  0.00     0.074 A 
ATOM     73  C   UNL A   1      40.383  27.825  28.783  1.00  0.00     0.049 A 
ATOM     74  N   UNL A   1      41.939  29.805  30.436  1.00  0.00    -0.248 NA
ATOM     75  C   UNL A   1      40.029  31.145  30.531  1.00  0.00    -0.034 C 
ATOM     76  C   UNL A   1      39.689  26.852  27.940  1.00  0.00    -0.036 A 
ATOM     77  N   UNL A   1      41.632  27.284  28.958  1.00  0.00    -0.354 N 
ATOM     78  C   UNL A   1      42.221  30.958  31.156  1.00  0.00     0.074 A 
ATOM     79  C   UNL A   1      41.027  31.775  31.134  1.00  0.00    -0.034 C 
ATOM     80  H   UNL A   1      39.048  31.443  30.415  1.00  0.00     0.065 H 
ATOM     81  C   UNL A   1      40.515  25.824  27.684  1.00  0.00    -0.036 A 
ATOM     82  H   UNL A   1      38.720  26.941  27.596  1.00  0.00     0.065 H 
ATOM     83  C   UNL A   1      41.805  26.082  28.316  1.00  0.00     0.049 A 
ATOM     84  H   UNL A   1      42.337  27.716  29.493  1.00  0.00     0.167 HD
ATOM     85  C   UNL A   1      43.366  31.295  31.797  1.00  0.00     0.037 A 
ATOM     86  H   UNL A   1      40.961  32.723  31.536  1.00  0.00     0.065 H 
ATOM     87  H   UNL A   1      40.276  24.986  27.130  1.00  0.00     0.065 H 
ATOM     88  C   UNL A   1      42.887  25.283  28.241  1.00  0.00     0.037 A 
ATOM     89  C   UNL A   1      44.545  30.470  31.838  1.00  0.00     0.049 A 
ATOM     90  C   UNL A   1      44.149  25.685  28.954  1.00  0.00     0.074 A 
ATOM     91  C   UNL A   1      45.741  30.702  32.497  1.00  0.00    -0.036 A 
ATOM     92  N   UNL A   1      44.677  29.251  31.190  1.00  0.00    -0.354 N 
ATOM     93  N   UNL A   1      44.388  26.753  29.677  1.00  0.00    -0.248 NA
ATOM     94  C   UNL A   1      45.292  24.767  28.846  1.00  0.00    -0.034 C 
ATOM     95  C   UNL A   1      46.607  29.639  32.220  1.00  0.00    -0.036 A 
ATOM     96  H   UNL A   1      45.955  31.518  33.092  1.00  0.00     0.065 H 
ATOM     97  C   UNL A   1      45.938  28.725  31.423  1.00  0.00     0.049 A 
ATOM     98  H   UNL A   1      43.977  28.822  30.646  1.00  0.00     0.167 HD
ATOM     99  C   UNL A   1      45.692  26.620  30.133  1.00  0.00     0.074 A 
ATOM    100  C   UNL A   1      46.190  25.363  29.615  1.00  0.00    -0.034 C 
ATOM    101  H   UNL A   1      45.372  23.888  28.310  1.00  0.00     0.065 H 
ATOM    102  H   UNL A   1      47.580  29.552  32.553  1.00  0.00     0.065 H 
ATOM    103  C   UNL A   1      46.412  27.465  30.910  1.00  0.00     0.037 A 
ATOM    104  H   UNL A   1      47.127  24.981  29.819  1.00  0.00     0.065 H 
BRANCH  85 105
ATOM    105  C   UNL A   1      43.397  32.613  32.513  1.00  0.00     0.064 A 
ATOM    106  C   UNL A   1      43.776  33.796  31.858  1.00  0.00     0.173 A 
ATOM    107  C   UNL A   1      43.010  32.705  33.859  1.00  0.00     0.173 A 
ATOM    108  F   UNL A   1      44.165  33.760  30.575  1.00  0.00    -0.203 F 
ATOM    109  C   UNL A   1      43.795  35.014  32.531  1.00  0.00     0.198 A 
ATOM    110  C   UNL A   1      43.003  33.930  34.522  1.00  0.00     0.198 A 
ATOM    111  F   UNL A   1      42.633  31.607  34.530  1.00  0.00    -0.203 F 
ATOM    112  F   UNL A   1      44.207  36.121  31.898  1.00  0.00    -0.200 F 
ATOM    113  C   UNL A   1      43.403  35.082  33.860  1.00  0.00     0.200 A 
ATOM    114  F   UNL A   1      42.612  33.995  35.802  1.00  0.00    -0.200 F 
ATOM    115  F   UNL A   1      43.416  36.256  34.505  1.00  0.00    -0.200 F 
ENDBRANCH  85 105
BRANCH  88 116
ATOM    116  C   UNL A   1      42.817  24.008  27.482  1.00  0.00     0.064 A 
ATOM    117  C   UNL A   1      43.187  23.956  26.131  1.00  0.00     0.173 A 
ATOM    118  C   UNL A   1      42.373  22.822  28.084  1.00  0.00     0.173 A 
ATOM    119  F   UNL A   1      43.597  25.070  25.507  1.00  0.00    -0.203 F 
ATOM    120  C   UNL A   1      43.098  22.771  25.405  1.00  0.00     0.198 A 
ATOM    121  C   UNL A   1      42.310  21.630  27.364  1.00  0.00     0.198 A 
ATOM    122  F   UNL A   1      42.011  22.817  29.374  1.00  0.00    -0.203 F 
ATOM    123  F   UNL A   1      43.416  22.760  24.103  1.00  0.00    -0.200 F 
ATOM    124  C   UNL A   1      42.664  21.608  26.022  1.00  0.00     0.200 A 
ATOM    125  F   UNL A   1      41.902  20.506  27.967  1.00  0.00    -0.200 F 
ATOM    126  F   UNL A   1      42.581  20.467  25.325  1.00  0.00    -0.200 F 
ENDBRANCH  88 116
BRANCH 103 127
ATOM    127  C   UNL A   1      47.802  27.040  31.282  1.00  0.00     0.064 A 
ATOM    128  C   UNL A   1      48.042  26.173  32.357  1.00  0.00     0.173 A 
ATOM    129  C   UNL A   1      48.902  27.476  30.529  1.00  0.00     0.173 A 
ATOM    130  F   UNL A   1      47.024  25.741  33.117  1.00  0.00    -0.203 F 
ATOM    131  C   UNL A   1      49.337  25.776  32.680  1.00  0.00     0.198 A 
ATOM    132  C   UNL A   1      50.193  27.056  30.838  1.00  0.00     0.198 A 
ATOM    133  F   UNL A   1      48.724  28.302  29.488  1.00  0.00    -0.203 F 
ATOM    134  F   UNL A   1      49.548  24.982  33.739  1.00  0.00    -0.200 F 
ATOM    135  C   UNL A   1      50.409  26.212  31.916  1.00  0.00     0.200 A 
ATOM    136  F   UNL A   1      51.227  27.469  30.091  1.00  0.00    -0.200 F 
ATOM    137  F   UNL A   1      51.655  25.825  32.225  1.00  0.00    -0.200 F 
ENDBRANCH 103 127
ENDBRANCH  68  71
ENDBRANCH  58  61
ENDBRANCH  54  57
ENDBRANCH  51  54
ENDBRANCH  48  51
ENDBRANCH   1  48
TORSDOF 17
ENDMDL
MODEL 3
REMARK VINA RESULT:     -12.4      1.896      7.507
REMARK SMILES Cc1cc2cc(-c3ccc([C@@H](C)C(=O)NCCCCCCNC(=O)c4ccc(-c5c6nc(c(-c7c(F)c(F)c(F)c(F)c7F)c7ccc([nH]7)c(-c7c(F)c(F)c(F)c(F)c7F)c7nc(c(-c8c(F)c(F)c(F)c(F)c8F)c8ccc5[nH]8)C=C7)C=C6)cc4)cc3)ccc2[nH]1
REMARK SMILES IDX 18 1 17 4 16 7 15 10 13 11 14 12 11 14 10 16 7 17 8 18 89 19
REMARK SMILES IDX 9 20 88 22 6 26 2 27 3 28 93 29 4 30 92 32 5 34 91 35 90 37
REMARK SMILES IDX 1 40 12 44 19 48 20 51 21 54 22 57 23 58 24 60 25 61 26 62
REMARK SMILES IDX 87 63 27 64 86 66 28 68 29 71 30 72 80 73 31 74 85 75 79 76
REMARK SMILES IDX 81 77 32 78 84 79 78 81 77 83 33 85 65 88 45 89 64 90 46 91
REMARK SMILES IDX 49 92 63 93 82 94 47 95 48 97 62 99 83 100 50 103 34 105
REMARK SMILES IDX 35 106 43 107 36 108 37 109 41 110 44 111 38 112 39 113
REMARK SMILES IDX 42 114 40 115 66 116 67 117 75 118 68 119 69 120 73 121
REMARK SMILES IDX 76 122 70 123 71 124 74 125 72 126 51 127 52 128 60 129
REMARK SMILES IDX 53 130 54 131 58 132 61 133 55 134 56 135 59 136 57 137
REMARK H PARENT 18 2 18 3 17 5 17 6 16 8 16 9 15 13 11 15 8 21 89 23 9 24
REMARK H PARENT 88 25 3 31 93 33 5 36 91 38 90 39 1 41 1 42 1 43 12 45 12 46
REMARK H PARENT 12 47 19 49 19 50 20 52 20 53 21 55 21 56 22 59 26 65 87 67
REMARK H PARENT 27 69 86 70 85 80 79 82 81 84 84 86 78 87 46 96 49 98 82 101
REMARK H PARENT 47 102 83 104
REMARK Flexibility Score: inf
ROOT
ATOM      1  C   UNL A   1      34.041  25.625  25.526  1.00  0.00    -0.052 C 
ATOM      2  H   UNL A   1      34.434  26.210  26.331  1.00  0.00     0.027 H 
ATOM      3  H   UNL A   1      33.211  25.012  25.809  1.00  0.00     0.027 H 
ENDROOT
BRANCH   1   4
ATOM      4  C   UNL A   1      35.138  24.662  25.060  1.00  0.00    -0.036 C 
ATOM      5  H   UNL A   1      35.300  24.818  24.012  1.00  0.00     0.028 H 
ATOM      6  H   UNL A   1      36.007  24.875  25.645  1.00  0.00     0.028 H 
BRANCH   4   7
ATOM      7  C   UNL A   1      34.805  23.185  25.280  1.00  0.00     0.017 C 
ATOM      8  H   UNL A   1      34.080  22.882  24.553  1.00  0.00     0.049 H 
ATOM      9  H   UNL A   1      35.709  22.622  25.181  1.00  0.00     0.049 H 
BRANCH   7  10
ATOM     10  N   UNL A   1      34.269  22.944  26.604  1.00  0.00    -0.356 N 
ATOM     11  C   UNL A   1      33.026  22.589  27.028  1.00  0.00     0.227 C 
ATOM     12  O   UNL A   1      32.859  22.540  28.254  1.00  0.00    -0.274 OA
ATOM     13  H   UNL A   1      34.926  23.058  27.329  1.00  0.00     0.163 HD
BRANCH  11  14
ATOM     14  C   UNL A   1      31.866  22.242  26.084  1.00  0.00     0.060 C 
ATOM     15  H   UNL A   1      31.106  21.812  26.703  1.00  0.00     0.045 H 
BRANCH  14  16
ATOM     16  C   UNL A   1      31.180  23.462  25.490  1.00  0.00    -0.036 A 
ATOM     17  C   UNL A   1      29.809  25.673  24.306  1.00  0.00    -0.018 A 
ATOM     18  C   UNL A   1      29.950  25.547  25.697  1.00  0.00    -0.054 A 
ATOM     19  C   UNL A   1      30.385  24.669  23.515  1.00  0.00    -0.054 A 
ATOM     20  C   UNL A   1      30.651  24.485  26.275  1.00  0.00    -0.058 A 
ATOM     21  H   UNL A   1      29.524  26.258  26.311  1.00  0.00     0.063 H 
ATOM     22  C   UNL A   1      31.042  23.574  24.096  1.00  0.00    -0.058 A 
ATOM     23  H   UNL A   1      30.323  24.736  22.488  1.00  0.00     0.063 H 
ATOM     24  H   UNL A   1      30.779  24.459  27.298  1.00  0.00     0.063 H 
ATOM     25  H   UNL A   1      31.432  22.837  23.488  1.00  0.00     0.063 H 
BRANCH  17  26
ATOM     26  C   UNL A   1      29.082  26.829  23.733  1.00  0.00    -0.018 A 
ATOM     27  C   UNL A   1      28.482  30.958  21.676  1.00  0.00     0.013 A 
ATOM     28  C   UNL A   1      29.577  30.144  21.872  1.00  0.00    -0.034 A 
ATOM     29  N   UNL A   1      27.391  30.311  22.204  1.00  0.00    -0.359 N 
ATOM     30  C   UNL A   1      29.136  28.978  22.552  1.00  0.00     0.000 A 
ATOM     31  H   UNL A   1      30.545  30.345  21.577  1.00  0.00     0.065 H 
ATOM     32  C   UNL A   1      27.767  29.107  22.756  1.00  0.00     0.046 A 
ATOM     33  H   UNL A   1      26.470  30.658  22.190  1.00  0.00     0.166 HD
ATOM     34  C   UNL A   1      29.786  27.824  23.023  1.00  0.00    -0.045 A 
ATOM     35  C   UNL A   1      27.015  28.128  23.416  1.00  0.00    -0.037 A 
ATOM     36  H   UNL A   1      30.796  27.703  22.847  1.00  0.00     0.064 H 
ATOM     37  C   UNL A   1      27.698  27.002  23.904  1.00  0.00    -0.052 A 
ATOM     38  H   UNL A   1      25.996  28.231  23.539  1.00  0.00     0.065 H 
ATOM     39  H   UNL A   1      27.165  26.276  24.406  1.00  0.00     0.063 H 
BRANCH  27  40
ATOM     40  C   UNL A   1      28.376  32.289  21.033  1.00  0.00    -0.024 C 
ATOM     41  H   UNL A   1      27.695  32.234  20.210  1.00  0.00     0.029 H 
ATOM     42  H   UNL A   1      29.340  32.591  20.678  1.00  0.00     0.029 H 
ATOM     43  H   UNL A   1      28.019  33.003  21.745  1.00  0.00     0.029 H 
ENDBRANCH  27  40
ENDBRANCH  17  26
ENDBRANCH  14  16
BRANCH  14  44
ATOM     44  C   UNL A   1      32.180  21.110  25.104  1.00  0.00    -0.049 C 
ATOM     45  H   UNL A   1      31.271  20.626  24.815  1.00  0.00     0.024 H 
ATOM     46  H   UNL A   1      32.829  20.401  25.575  1.00  0.00     0.024 H 
ATOM     47  H   UNL A   1      32.662  21.513  24.237  1.00  0.00     0.024 H 
ENDBRANCH  14  44
ENDBRANCH  11  14
ENDBRANCH   7  10
ENDBRANCH   4   7
ENDBRANCH   1   4
BRANCH   1  48
ATOM     48  C   UNL A   1      33.514  26.586  24.453  1.00  0.00    -0.052 C 
ATOM     49  H   UNL A   1      32.588  26.196  24.088  1.00  0.00     0.027 H 
ATOM     50  H   UNL A   1      34.282  26.646  23.710  1.00  0.00     0.027 H 
BRANCH  48  51
ATOM     51  C   UNL A   1      33.269  28.026  24.916  1.00  0.00    -0.036 C 
ATOM     52  H   UNL A   1      32.221  28.141  25.106  1.00  0.00     0.028 H 
ATOM     53  H   UNL A   1      33.629  28.659  24.132  1.00  0.00     0.028 H 
BRANCH  51  54
ATOM     54  C   UNL A   1      34.026  28.433  26.178  1.00  0.00     0.018 C 
ATOM     55  H   UNL A   1      35.074  28.299  26.010  1.00  0.00     0.049 H 
ATOM     56  H   UNL A   1      33.681  27.819  26.983  1.00  0.00     0.049 H 
BRANCH  54  57
ATOM     57  N   UNL A   1      33.781  29.821  26.534  1.00  0.00    -0.352 N 
ATOM     58  C   UNL A   1      34.435  30.628  27.431  1.00  0.00     0.251 C 
ATOM     59  H   UNL A   1      33.031  30.249  26.059  1.00  0.00     0.163 HD
ATOM     60  O   UNL A   1      33.949  31.707  27.755  1.00  0.00    -0.269 OA
BRANCH  58  61
ATOM     61  C   UNL A   1      35.722  30.202  28.020  1.00  0.00     0.039 A 
ATOM     62  C   UNL A   1      35.733  29.693  29.322  1.00  0.00    -0.049 A 
ATOM     63  C   UNL A   1      36.919  30.342  27.313  1.00  0.00    -0.049 A 
ATOM     64  C   UNL A   1      36.938  29.277  29.896  1.00  0.00    -0.053 A 
ATOM     65  H   UNL A   1      34.854  29.624  29.858  1.00  0.00     0.063 H 
ATOM     66  C   UNL A   1      38.110  29.871  27.862  1.00  0.00    -0.053 A 
ATOM     67  H   UNL A   1      36.922  30.796  26.386  1.00  0.00     0.063 H 
ATOM     68  C   UNL A   1      38.131  29.339  29.160  1.00  0.00    -0.014 A 
ATOM     69  H   UNL A   1      36.949  28.923  30.865  1.00  0.00     0.063 H 
ATOM     70  H   UNL A   1      38.981  29.912  27.310  1.00  0.00     0.063 H 
BRANCH  68  71
ATOM     71  C   UNL A   1      39.415  28.866  29.736  1.00  0.00     0.031 A 
ATOM     72  C   UNL A   1      40.052  29.614  30.874  1.00  0.00     0.074 A 
ATOM     73  C   UNL A   1      40.036  27.800  29.196  1.00  0.00     0.049 A 
ATOM     74  N   UNL A   1      41.205  29.406  31.460  1.00  0.00    -0.248 NA
ATOM     75  C   UNL A   1      39.304  30.761  31.410  1.00  0.00    -0.034 C 
ATOM     76  C   UNL A   1      39.538  27.014  28.068  1.00  0.00    -0.036 A 
ATOM     77  N   UNL A   1      41.228  27.202  29.518  1.00  0.00    -0.354 N 
ATOM     78  C   UNL A   1      41.324  30.403  32.419  1.00  0.00     0.074 A 
ATOM     79  C   UNL A   1      40.152  31.244  32.306  1.00  0.00    -0.034 C 
ATOM     80  H   UNL A   1      38.364  31.102  31.154  1.00  0.00     0.065 H 
ATOM     81  C   UNL A   1      40.407  26.026  27.802  1.00  0.00    -0.036 A 
ATOM     82  H   UNL A   1      38.658  27.191  27.557  1.00  0.00     0.065 H 
ATOM     83  C   UNL A   1      41.540  26.130  28.717  1.00  0.00     0.049 A 
ATOM     84  H   UNL A   1      41.806  27.510  30.253  1.00  0.00     0.167 HD
ATOM     85  C   UNL A   1      42.312  30.588  33.328  1.00  0.00     0.037 A 
ATOM     86  H   UNL A   1      39.997  32.106  32.851  1.00  0.00     0.065 H 
ATOM     87  H   UNL A   1      40.294  25.309  27.068  1.00  0.00     0.065 H 
ATOM     88  C   UNL A   1      42.621  25.328  28.717  1.00  0.00     0.037 A 
ATOM     89  C   UNL A   1      43.465  29.736  33.456  1.00  0.00     0.049 A 
ATOM     90  C   UNL A   1      43.707  25.559  29.732  1.00  0.00     0.074 A 
ATOM     91  C   UNL A   1      44.499  29.812  34.374  1.00  0.00    -0.036 A 
ATOM     92  N   UNL A   1      43.737  28.649  32.637  1.00  0.00    -0.354 N 
ATOM     93  N   UNL A   1      43.785  26.472  30.669  1.00  0.00    -0.248 NA
ATOM     94  C   UNL A   1      44.857  24.643  29.691  1.00  0.00    -0.034 C 
ATOM     95  C   UNL A   1      45.414  28.792  34.089  1.00  0.00    -0.036 A 
ATOM     96  H   UNL A   1      44.580  30.501  35.137  1.00  0.00     0.065 H 
ATOM     97  C   UNL A   1      44.929  28.055  33.021  1.00  0.00     0.049 A 
ATOM     98  H   UNL A   1      43.167  28.344  31.895  1.00  0.00     0.167 HD
ATOM     99  C   UNL A   1      44.970  26.224  31.348  1.00  0.00     0.074 A 
ATOM    100  C   UNL A   1      45.575  25.066  30.722  1.00  0.00    -0.034 C 
ATOM    101  H   UNL A   1      45.053  23.873  29.033  1.00  0.00     0.065 H 
ATOM    102  H   UNL A   1      46.299  28.619  34.590  1.00  0.00     0.065 H 
ATOM    103  C   UNL A   1      45.509  26.894  32.395  1.00  0.00     0.037 A 
ATOM    104  H   UNL A   1      46.454  24.627  31.038  1.00  0.00     0.065 H 
BRANCH  85 105
ATOM    105  C   UNL A   1      42.184  31.754  34.264  1.00  0.00     0.064 A 
ATOM    106  C   UNL A   1      41.530  31.634  35.500  1.00  0.00     0.173 A 
ATOM    107  C   UNL A   1      42.750  32.996  33.939  1.00  0.00     0.173 A 
ATOM    108  F   UNL A   1      40.962  30.471  35.852  1.00  0.00    -0.203 F 
ATOM    109  C   UNL A   1      41.422  32.722  36.363  1.00  0.00     0.198 A 
ATOM    110  C   UNL A   1      42.665  34.075  34.817  1.00  0.00     0.198 A 
ATOM    111  F   UNL A   1      43.392  33.163  32.773  1.00  0.00    -0.203 F 
ATOM    112  F   UNL A   1      40.752  32.596  37.515  1.00  0.00    -0.200 F 
ATOM    113  C   UNL A   1      41.995  33.939  36.024  1.00  0.00     0.200 A 
ATOM    114  F   UNL A   1      43.229  35.246  34.493  1.00  0.00    -0.200 F 
ATOM    115  F   UNL A   1      41.895  34.983  36.857  1.00  0.00    -0.200 F 
ENDBRANCH  85 105
BRANCH  88 116
ATOM    116  C   UNL A   1      42.718  24.212  27.742  1.00  0.00     0.064 A 
ATOM    117  C   UNL A   1      42.331  22.912  28.097  1.00  0.00     0.173 A 
ATOM    118  C   UNL A   1      43.205  24.416  26.443  1.00  0.00     0.173 A 
ATOM    119  F   UNL A   1      41.880  22.665  29.336  1.00  0.00    -0.203 F 
ATOM    120  C   UNL A   1      42.445  21.855  27.198  1.00  0.00     0.198 A 
ATOM    121  C   UNL A   1      43.294  23.363  25.535  1.00  0.00     0.198 A 
ATOM    122  F   UNL A   1      43.585  25.640  26.052  1.00  0.00    -0.203 F 
ATOM    123  F   UNL A   1      42.110  20.615  27.579  1.00  0.00    -0.200 F 
ATOM    124  C   UNL A   1      42.922  22.081  25.915  1.00  0.00     0.200 A 
ATOM    125  F   UNL A   1      43.743  23.588  24.293  1.00  0.00    -0.200 F 
ATOM    126  F   UNL A   1      43.030  21.065  25.050  1.00  0.00    -0.200 F 
ENDBRANCH  88 116
BRANCH 103 127
ATOM    127  C   UNL A   1      46.798  26.370  32.956  1.00  0.00     0.064 A 
ATOM    128  C   UNL A   1      46.819  25.361  33.929  1.00  0.00     0.173 A 
ATOM    129  C   UNL A   1      48.026  26.858  32.485  1.00  0.00     0.173 A 
ATOM    130  F   UNL A   1      45.670  24.874  34.422  1.00  0.00    -0.203 F 
ATOM    131  C   UNL A   1      48.024  24.876  34.429  1.00  0.00     0.198 A 
ATOM    132  C   UNL A   1      49.229  26.351  32.967  1.00  0.00     0.198 A 
ATOM    133  F   UNL A   1      48.059  27.819  31.551  1.00  0.00    -0.203 F 
ATOM    134  F   UNL A   1      48.021  23.943  35.391  1.00  0.00    -0.200 F 
ATOM    135  C   UNL A   1      49.227  25.366  33.943  1.00  0.00     0.200 A 
ATOM    136  F   UNL A   1      50.391  26.818  32.488  1.00  0.00    -0.200 F 
ATOM    137  F   UNL A   1      50.387  24.893  34.421  1.00  0.00    -0.200 F 
ENDBRANCH 103 127
ENDBRANCH  68  71
ENDBRANCH  58  61
ENDBRANCH  54  57
ENDBRANCH  51  54
ENDBRANCH  48  51
ENDBRANCH   1  48
TORSDOF 17
ENDMDL
MODEL 4
REMARK VINA RESULT:     -12.2      2.769      9.124
REMARK SMILES Cc1cc2cc(-c3ccc([C@@H](C)C(=O)NCCCCCCNC(=O)c4ccc(-c5c6nc(c(-c7c(F)c(F)c(F)c(F)c7F)c7ccc([nH]7)c(-c7c(F)c(F)c(F)c(F)c7F)c7nc(c(-c8c(F)c(F)c(F)c(F)c8F)c8ccc5[nH]8)C=C7)C=C6)cc4)cc3)ccc2[nH]1
REMARK SMILES IDX 18 1 17 4 16 7 15 10 13 11 14 12 11 14 10 16 7 17 8 18 89 19
REMARK SMILES IDX 9 20 88 22 6 26 2 27 3 28 93 29 4 30 92 32 5 34 91 35 90 37
REMARK SMILES IDX 1 40 12 44 19 48 20 51 21 54 22 57 23 58 24 60 25 61 26 62
REMARK SMILES IDX 87 63 27 64 86 66 28 68 29 71 30 72 80 73 31 74 85 75 79 76
REMARK SMILES IDX 81 77 32 78 84 79 78 81 77 83 33 85 65 88 45 89 64 90 46 91
REMARK SMILES IDX 49 92 63 93 82 94 47 95 48 97 62 99 83 100 50 103 34 105
REMARK SMILES IDX 35 106 43 107 36 108 37 109 41 110 44 111 38 112 39 113
REMARK SMILES IDX 42 114 40 115 66 116 67 117 75 118 68 119 69 120 73 121
REMARK SMILES IDX 76 122 70 123 71 124 74 125 72 126 51 127 52 128 60 129
REMARK SMILES IDX 53 130 54 131 58 132 61 133 55 134 56 135 59 136 57 137
REMARK H PARENT 18 2 18 3 17 5 17 6 16 8 16 9 15 13 11 15 8 21 89 23 9 24
REMARK H PARENT 88 25 3 31 93 33 5 36 91 38 90 39 1 41 1 42 1 43 12 45 12 46
REMARK H PARENT 12 47 19 49 19 50 20 52 20 53 21 55 21 56 22 59 26 65 87 67
REMARK H PARENT 27 69 86 70 85 80 79 82 81 84 84 86 78 87 46 96 49 98 82 101
REMARK H PARENT 47 102 83 104
REMARK Flexibility Score: inf
ROOT
ATOM      1  C   UNL A   1      34.418  32.350  29.087  1.00  0.00    -0.052 C 
ATOM      2  H   UNL A   1      35.140  32.335  29.877  1.00  0.00     0.027 H 
ATOM      3  H   UNL A   1      33.420  32.155  29.417  1.00  0.00     0.027 H 
ENDROOT
BRANCH   1   4
ATOM      4  C   UNL A   1      34.767  31.227  28.105  1.00  0.00    -0.036 C 
ATOM      5  H   UNL A   1      35.593  31.549  27.504  1.00  0.00     0.028 H 
ATOM      6  H   UNL A   1      34.999  30.363  28.691  1.00  0.00     0.028 H 
BRANCH   4   7
ATOM      7  C   UNL A   1      33.618  30.837  27.173  1.00  0.00     0.017 C 
ATOM      8  H   UNL A   1      33.007  31.698  26.999  1.00  0.00     0.049 H 
ATOM      9  H   UNL A   1      34.040  30.473  26.260  1.00  0.00     0.049 H 
BRANCH   7  10
ATOM     10  N   UNL A   1      32.797  29.786  27.738  1.00  0.00    -0.356 N 
ATOM     11  C   UNL A   1      32.167  28.723  27.170  1.00  0.00     0.227 C 
ATOM     12  O   UNL A   1      31.459  28.039  27.921  1.00  0.00    -0.274 OA
ATOM     13  H   UNL A   1      32.671  29.855  28.713  1.00  0.00     0.163 HD
BRANCH  11  14
ATOM     14  C   UNL A   1      32.305  28.337  25.689  1.00  0.00     0.060 C 
ATOM     15  H   UNL A   1      33.141  28.895  25.321  1.00  0.00     0.045 H 
BRANCH  14  16
ATOM     16  C   UNL A   1      32.730  26.893  25.475  1.00  0.00    -0.036 A 
ATOM     17  C   UNL A   1      33.592  24.183  25.191  1.00  0.00    -0.018 A 
ATOM     18  C   UNL A   1      32.239  24.544  25.097  1.00  0.00    -0.054 A 
ATOM     19  C   UNL A   1      34.511  25.216  25.417  1.00  0.00    -0.054 A 
ATOM     20  C   UNL A   1      31.820  25.873  25.200  1.00  0.00    -0.058 A 
ATOM     21  H   UNL A   1      31.532  23.807  24.948  1.00  0.00     0.063 H 
ATOM     22  C   UNL A   1      34.087  26.544  25.575  1.00  0.00    -0.058 A 
ATOM     23  H   UNL A   1      35.517  24.996  25.470  1.00  0.00     0.063 H 
ATOM     24  H   UNL A   1      30.823  26.103  25.071  1.00  0.00     0.063 H 
ATOM     25  H   UNL A   1      34.786  27.279  25.768  1.00  0.00     0.063 H 
BRANCH  17  26
ATOM     26  C   UNL A   1      33.996  22.765  25.048  1.00  0.00    -0.018 A 
ATOM     27  C   UNL A   1      33.559  18.228  24.119  1.00  0.00     0.013 A 
ATOM     28  C   UNL A   1      32.754  19.325  23.900  1.00  0.00    -0.034 A 
ATOM     29  N   UNL A   1      34.716  18.680  24.706  1.00  0.00    -0.359 N 
ATOM     30  C   UNL A   1      33.438  20.471  24.383  1.00  0.00     0.000 A 
ATOM     31  H   UNL A   1      31.820  19.316  23.461  1.00  0.00     0.065 H 
ATOM     32  C   UNL A   1      34.661  20.044  24.890  1.00  0.00     0.046 A 
ATOM     33  H   UNL A   1      35.478  18.111  24.960  1.00  0.00     0.166 HD
ATOM     34  C   UNL A   1      33.120  21.839  24.445  1.00  0.00    -0.045 A 
ATOM     35  C   UNL A   1      35.583  20.928  25.460  1.00  0.00    -0.037 A 
ATOM     36  H   UNL A   1      32.230  22.171  24.041  1.00  0.00     0.064 H 
ATOM     37  C   UNL A   1      35.223  22.284  25.537  1.00  0.00    -0.052 A 
ATOM     38  H   UNL A   1      36.494  20.596  25.811  1.00  0.00     0.065 H 
ATOM     39  H   UNL A   1      35.882  22.950  25.966  1.00  0.00     0.063 H 
BRANCH  27  40
ATOM     40  C   UNL A   1      33.333  16.794  23.819  1.00  0.00    -0.024 C 
ATOM     41  H   UNL A   1      32.338  16.522  24.103  1.00  0.00     0.029 H 
ATOM     42  H   UNL A   1      34.035  16.201  24.368  1.00  0.00     0.029 H 
ATOM     43  H   UNL A   1      33.465  16.623  22.772  1.00  0.00     0.029 H 
ENDBRANCH  27  40
ENDBRANCH  17  26
ENDBRANCH  14  16
BRANCH  14  44
ATOM     44  C   UNL A   1      31.156  28.833  24.809  1.00  0.00    -0.049 C 
ATOM     45  H   UNL A   1      30.526  28.009  24.548  1.00  0.00     0.024 H 
ATOM     46  H   UNL A   1      31.554  29.274  23.919  1.00  0.00     0.024 H 
ATOM     47  H   UNL A   1      30.587  29.563  25.345  1.00  0.00     0.024 H 
ENDBRANCH  14  44
ENDBRANCH  11  14
ENDBRANCH   7  10
ENDBRANCH   4   7
ENDBRANCH   1   4
BRANCH   1  48
ATOM     48  C   UNL A   1      34.402  33.762  28.487  1.00  0.00    -0.052 C 
ATOM     49  H   UNL A   1      34.511  33.670  27.427  1.00  0.00     0.027 H 
ATOM     50  H   UNL A   1      35.202  34.291  28.961  1.00  0.00     0.027 H 
BRANCH  48  51
ATOM     51  C   UNL A   1      33.138  34.583  28.762  1.00  0.00    -0.036 C 
ATOM     52  H   UNL A   1      32.539  34.046  29.468  1.00  0.00     0.028 H 
ATOM     53  H   UNL A   1      32.657  34.719  27.815  1.00  0.00     0.028 H 
BRANCH  51  54
ATOM     54  C   UNL A   1      33.388  35.983  29.319  1.00  0.00     0.018 C 
ATOM     55  H   UNL A   1      33.154  36.703  28.564  1.00  0.00     0.049 H 
ATOM     56  H   UNL A   1      34.417  36.044  29.607  1.00  0.00     0.049 H 
BRANCH  54  57
ATOM     57  N   UNL A   1      32.576  36.253  30.494  1.00  0.00    -0.352 N 
ATOM     58  C   UNL A   1      32.687  35.766  31.772  1.00  0.00     0.251 C 
ATOM     59  H   UNL A   1      31.832  36.883  30.351  1.00  0.00     0.163 HD
ATOM     60  O   UNL A   1      31.778  35.941  32.578  1.00  0.00    -0.269 OA
BRANCH  58  61
ATOM     61  C   UNL A   1      33.894  35.019  32.185  1.00  0.00     0.039 A 
ATOM     62  C   UNL A   1      33.755  33.698  32.621  1.00  0.00    -0.049 A 
ATOM     63  C   UNL A   1      35.152  35.629  32.188  1.00  0.00    -0.049 A 
ATOM     64  C   UNL A   1      34.884  32.972  33.010  1.00  0.00    -0.053 A 
ATOM     65  H   UNL A   1      32.821  33.261  32.655  1.00  0.00     0.063 H 
ATOM     66  C   UNL A   1      36.284  34.886  32.516  1.00  0.00    -0.053 A 
ATOM     67  H   UNL A   1      35.242  36.628  31.947  1.00  0.00     0.063 H 
ATOM     68  C   UNL A   1      36.160  33.553  32.935  1.00  0.00    -0.014 A 
ATOM     69  H   UNL A   1      34.779  32.005  33.352  1.00  0.00     0.063 H 
ATOM     70  H   UNL A   1      37.219  35.318  32.449  1.00  0.00     0.063 H 
BRANCH  68  71
ATOM     71  C   UNL A   1      37.376  32.786  33.305  1.00  0.00     0.031 A 
ATOM     72  C   UNL A   1      38.091  33.082  34.594  1.00  0.00     0.074 A 
ATOM     73  C   UNL A   1      37.870  31.867  32.454  1.00  0.00     0.049 A 
ATOM     74  N   UNL A   1      39.208  32.579  35.057  1.00  0.00    -0.248 NA
ATOM     75  C   UNL A   1      37.481  34.094  35.469  1.00  0.00    -0.034 C 
ATOM     76  C   UNL A   1      37.288  31.515  31.159  1.00  0.00    -0.036 A 
ATOM     77  N   UNL A   1      38.982  31.067  32.547  1.00  0.00    -0.354 N 
ATOM     78  C   UNL A   1      39.440  33.223  36.264  1.00  0.00     0.074 A 
ATOM     79  C   UNL A   1      38.376  34.187  36.442  1.00  0.00    -0.034 C 
ATOM     80  H   UNL A   1      36.589  34.601  35.355  1.00  0.00     0.065 H 
ATOM     81  C   UNL A   1      38.036  30.560  30.585  1.00  0.00    -0.036 A 
ATOM     82  H   UNL A   1      36.438  31.936  30.751  1.00  0.00     0.065 H 
ATOM     83  C   UNL A   1      39.168  30.256  31.455  1.00  0.00     0.049 A 
ATOM     84  H   UNL A   1      39.588  31.075  33.323  1.00  0.00     0.167 HD
ATOM     85  C   UNL A   1      40.438  33.014  37.157  1.00  0.00     0.037 A 
ATOM     86  H   UNL A   1      38.320  34.859  37.223  1.00  0.00     0.065 H 
ATOM     87  H   UNL A   1      37.843  30.112  29.675  1.00  0.00     0.065 H 
ATOM     88  C   UNL A   1      40.148  29.372  31.183  1.00  0.00     0.037 A 
ATOM     89  C   UNL A   1      41.483  32.038  36.990  1.00  0.00     0.049 A 
ATOM     90  C   UNL A   1      41.249  29.165  32.187  1.00  0.00     0.074 A 
ATOM     91  C   UNL A   1      42.513  31.717  37.856  1.00  0.00    -0.036 A 
ATOM     92  N   UNL A   1      41.628  31.222  35.878  1.00  0.00    -0.354 N 
ATOM     93  N   UNL A   1      41.429  29.741  33.351  1.00  0.00    -0.248 NA
ATOM     94  C   UNL A   1      42.283  28.178  31.841  1.00  0.00    -0.034 C 
ATOM     95  C   UNL A   1      43.303  30.732  37.254  1.00  0.00    -0.036 A 
ATOM     96  H   UNL A   1      42.672  32.133  38.787  1.00  0.00     0.065 H 
ATOM     97  C   UNL A   1      42.739  30.408  36.030  1.00  0.00     0.049 A 
ATOM     98  H   UNL A   1      41.030  31.219  35.096  1.00  0.00     0.167 HD
ATOM     99  C   UNL A   1      42.573  29.168  33.888  1.00  0.00     0.074 A 
ATOM    100  C   UNL A   1      43.040  28.189  32.928  1.00  0.00    -0.034 C 
ATOM    101  H   UNL A   1      42.390  27.622  30.978  1.00  0.00     0.065 H 
ATOM    102  H   UNL A   1      44.159  30.317  37.653  1.00  0.00     0.065 H 
ATOM    103  C   UNL A   1      43.182  29.429  35.070  1.00  0.00     0.037 A 
ATOM    104  H   UNL A   1      43.860  27.579  33.072  1.00  0.00     0.065 H 
BRANCH  85 105
ATOM    105  C   UNL A   1      40.444  33.855  38.399  1.00  0.00     0.064 A 
ATOM    106  C   UNL A   1      39.719  33.480  39.542  1.00  0.00     0.173 A 
ATOM    107  C   UNL A   1      41.208  35.029  38.465  1.00  0.00     0.173 A 
ATOM    108  F   UNL A   1      38.963  32.371  39.527  1.00  0.00    -0.203 F 
ATOM    109  C   UNL A   1      39.736  34.264  40.692  1.00  0.00     0.198 A 
ATOM    110  C   UNL A   1      41.246  35.797  39.626  1.00  0.00     0.198 A 
ATOM    111  F   UNL A   1      41.925  35.430  37.404  1.00  0.00    -0.203 F 
ATOM    112  F   UNL A   1      38.998  33.911  41.752  1.00  0.00    -0.200 F 
ATOM    113  C   UNL A   1      40.504  35.418  40.736  1.00  0.00     0.200 A 
ATOM    114  F   UNL A   1      41.998  36.905  39.671  1.00  0.00    -0.200 F 
ATOM    115  F   UNL A   1      40.524  36.169  41.845  1.00  0.00    -0.200 F 
ENDBRANCH  85 105
BRANCH  88 116
ATOM    116  C   UNL A   1      40.118  28.595  29.917  1.00  0.00     0.064 A 
ATOM    117  C   UNL A   1      39.477  27.350  29.855  1.00  0.00     0.173 A 
ATOM    118  C   UNL A   1      40.732  29.073  28.751  1.00  0.00     0.173 A 
ATOM    119  F   UNL A   1      38.895  26.843  30.952  1.00  0.00    -0.203 F 
ATOM    120  C   UNL A   1      39.468  26.603  28.681  1.00  0.00     0.198 A 
ATOM    121  C   UNL A   1      40.700  28.336  27.569  1.00  0.00     0.198 A 
ATOM    122  F   UNL A   1      41.355  30.260  28.757  1.00  0.00    -0.203 F 
ATOM    123  F   UNL A   1      38.887  25.395  28.662  1.00  0.00    -0.200 F 
ATOM    124  C   UNL A   1      40.075  27.098  27.536  1.00  0.00     0.200 A 
ATOM    125  F   UNL A   1      41.276  28.824  26.462  1.00  0.00    -0.200 F 
ATOM    126  F   UNL A   1      40.065  26.380  26.406  1.00  0.00    -0.200 F 
ENDBRANCH  88 116
BRANCH 103 127
ATOM    127  C   UNL A   1      44.398  28.618  35.410  1.00  0.00     0.064 A 
ATOM    128  C   UNL A   1      44.300  27.405  36.105  1.00  0.00     0.173 A 
ATOM    129  C   UNL A   1      45.670  29.044  35.002  1.00  0.00     0.173 A 
ATOM    130  F   UNL A   1      43.106  26.964  36.531  1.00  0.00    -0.203 F 
ATOM    131  C   UNL A   1      45.437  26.657  36.401  1.00  0.00     0.198 A 
ATOM    132  C   UNL A   1      46.802  28.280  35.275  1.00  0.00     0.198 A 
ATOM    133  F   UNL A   1      45.816  30.195  34.330  1.00  0.00    -0.203 F 
ATOM    134  F   UNL A   1      45.325  25.522  37.105  1.00  0.00    -0.200 F 
ATOM    135  C   UNL A   1      46.684  27.091  35.979  1.00  0.00     0.200 A 
ATOM    136  F   UNL A   1      48.006  28.695  34.857  1.00  0.00    -0.200 F 
ATOM    137  F   UNL A   1      47.778  26.367  36.259  1.00  0.00    -0.200 F 
ENDBRANCH 103 127
ENDBRANCH  68  71
ENDBRANCH  58  61
ENDBRANCH  54  57
ENDBRANCH  51  54
ENDBRANCH  48  51
ENDBRANCH   1  48
TORSDOF 17
ENDMDL
MODEL 5
REMARK VINA RESULT:     -12.1      0.559      7.171
REMARK SMILES Cc1cc2cc(-c3ccc([C@@H](C)C(=O)NCCCCCCNC(=O)c4ccc(-c5c6nc(c(-c7c(F)c(F)c(F)c(F)c7F)c7ccc([nH]7)c(-c7c(F)c(F)c(F)c(F)c7F)c7nc(c(-c8c(F)c(F)c(F)c(F)c8F)c8ccc5[nH]8)C=C7)C=C6)cc4)cc3)ccc2[nH]1
REMARK SMILES IDX 18 1 17 4 16 7 15 10 13 11 14 12 11 14 10 16 7 17 8 18 89 19
REMARK SMILES IDX 9 20 88 22 6 26 2 27 3 28 93 29 4 30 92 32 5 34 91 35 90 37
REMARK SMILES IDX 1 40 12 44 19 48 20 51 21 54 22 57 23 58 24 60 25 61 26 62
REMARK SMILES IDX 87 63 27 64 86 66 28 68 29 71 30 72 80 73 31 74 85 75 79 76
REMARK SMILES IDX 81 77 32 78 84 79 78 81 77 83 33 85 65 88 45 89 64 90 46 91
REMARK SMILES IDX 49 92 63 93 82 94 47 95 48 97 62 99 83 100 50 103 34 105
REMARK SMILES IDX 35 106 43 107 36 108 37 109 41 110 44 111 38 112 39 113
REMARK SMILES IDX 42 114 40 115 66 116 67 117 75 118 68 119 69 120 73 121
REMARK SMILES IDX 76 122 70 123 71 124 74 125 72 126 51 127 52 128 60 129
REMARK SMILES IDX 53 130 54 131 58 132 61 133 55 134 56 135 59 136 57 137
REMARK H PARENT 18 2 18 3 17 5 17 6 16 8 16 9 15 13 11 15 8 21 89 23 9 24
REMARK H PARENT 88 25 3 31 93 33 5 36 91 38 90 39 1 41 1 42 1 43 12 45 12 46
REMARK H PARENT 12 47 19 49 19 50 20 52 20 53 21 55 21 56 22 59 26 65 87 67
REMARK H PARENT 27 69 86 70 85 80 79 82 81 84 84 86 78 87 46 96 49 98 82 101
REMARK H PARENT 47 102 83 104
REMARK Flexibility Score: inf
ROOT
ATOM      1  C   UNL A   1      33.490  26.254  25.557  1.00  0.00    -0.052 C 
ATOM      2  H   UNL A   1      33.473  26.623  26.562  1.00  0.00     0.027 H 
ATOM      3  H   UNL A   1      32.686  25.586  25.334  1.00  0.00     0.027 H 
ENDROOT
BRANCH   1   4
ATOM      4  C   UNL A   1      34.778  25.444  25.373  1.00  0.00    -0.036 C 
ATOM      5  H   UNL A   1      35.224  25.729  24.441  1.00  0.00     0.028 H 
ATOM      6  H   UNL A   1      35.404  25.661  26.212  1.00  0.00     0.028 H 
BRANCH   4   7
ATOM      7  C   UNL A   1      34.563  23.929  25.359  1.00  0.00     0.017 C 
ATOM      8  H   UNL A   1      33.830  23.690  24.617  1.00  0.00     0.049 H 
ATOM      9  H   UNL A   1      35.500  23.462  25.139  1.00  0.00     0.049 H 
BRANCH   7  10
ATOM     10  N   UNL A   1      34.107  23.437  26.643  1.00  0.00    -0.356 N 
ATOM     11  C   UNL A   1      32.963  22.801  27.016  1.00  0.00     0.227 C 
ATOM     12  O   UNL A   1      32.829  22.578  28.226  1.00  0.00    -0.274 OA
ATOM     13  H   UNL A   1      34.741  23.591  27.380  1.00  0.00     0.163 HD
BRANCH  11  14
ATOM     14  C   UNL A   1      31.875  22.348  26.031  1.00  0.00     0.060 C 
ATOM     15  H   UNL A   1      31.144  21.837  26.622  1.00  0.00     0.045 H 
BRANCH  14  16
ATOM     16  C   UNL A   1      31.089  23.498  25.423  1.00  0.00    -0.036 A 
ATOM     17  C   UNL A   1      29.683  25.746  24.355  1.00  0.00    -0.018 A 
ATOM     18  C   UNL A   1      30.323  24.810  23.527  1.00  0.00    -0.054 A 
ATOM     19  C   UNL A   1      29.751  25.523  25.737  1.00  0.00    -0.054 A 
ATOM     20  C   UNL A   1      30.979  23.692  24.047  1.00  0.00    -0.058 A 
ATOM     21  H   UNL A   1      30.308  24.951  22.505  1.00  0.00     0.063 H 
ATOM     22  C   UNL A   1      30.457  24.430  26.262  1.00  0.00    -0.058 A 
ATOM     23  H   UNL A   1      29.275  26.175  26.379  1.00  0.00     0.063 H 
ATOM     24  H   UNL A   1      31.390  22.998  23.402  1.00  0.00     0.063 H 
ATOM     25  H   UNL A   1      30.512  24.309  27.286  1.00  0.00     0.063 H 
BRANCH  17  26
ATOM     26  C   UNL A   1      28.974  26.903  23.762  1.00  0.00    -0.018 A 
ATOM     27  C   UNL A   1      28.440  31.038  21.697  1.00  0.00     0.013 A 
ATOM     28  C   UNL A   1      29.528  30.222  21.924  1.00  0.00    -0.034 A 
ATOM     29  N   UNL A   1      27.333  30.390  22.190  1.00  0.00    -0.359 N 
ATOM     30  C   UNL A   1      29.066  29.055  22.587  1.00  0.00     0.000 A 
ATOM     31  H   UNL A   1      30.505  30.422  21.658  1.00  0.00     0.065 H 
ATOM     32  C   UNL A   1      27.691  29.184  22.751  1.00  0.00     0.046 A 
ATOM     33  H   UNL A   1      26.413  30.738  22.149  1.00  0.00     0.166 HD
ATOM     34  C   UNL A   1      29.700  27.899  23.076  1.00  0.00    -0.045 A 
ATOM     35  C   UNL A   1      26.919  28.206  23.386  1.00  0.00    -0.037 A 
ATOM     36  H   UNL A   1      30.715  27.778  22.930  1.00  0.00     0.064 H 
ATOM     37  C   UNL A   1      27.586  27.077  23.892  1.00  0.00    -0.052 A 
ATOM     38  H   UNL A   1      25.897  28.309  23.478  1.00  0.00     0.065 H 
ATOM     39  H   UNL A   1      27.037  26.351  24.376  1.00  0.00     0.063 H 
BRANCH  27  40
ATOM     40  C   UNL A   1      28.355  32.370  21.053  1.00  0.00    -0.024 C 
ATOM     41  H   UNL A   1      27.337  32.700  21.049  1.00  0.00     0.029 H 
ATOM     42  H   UNL A   1      28.712  32.302  20.046  1.00  0.00     0.029 H 
ATOM     43  H   UNL A   1      28.954  33.068  21.597  1.00  0.00     0.029 H 
ENDBRANCH  27  40
ENDBRANCH  17  26
ENDBRANCH  14  16
BRANCH  14  44
ATOM     44  C   UNL A   1      32.335  21.264  25.054  1.00  0.00    -0.049 C 
ATOM     45  H   UNL A   1      31.644  20.447  25.077  1.00  0.00     0.024 H 
ATOM     46  H   UNL A   1      33.307  20.917  25.338  1.00  0.00     0.024 H 
ATOM     47  H   UNL A   1      32.375  21.669  24.065  1.00  0.00     0.024 H 
ENDBRANCH  14  44
ENDBRANCH  11  14
ENDBRANCH   7  10
ENDBRANCH   4   7
ENDBRANCH   1   4
BRANCH   1  48
ATOM     48  C   UNL A   1      33.327  27.450  24.610  1.00  0.00    -0.052 C 
ATOM     49  H   UNL A   1      32.956  27.082  23.677  1.00  0.00     0.027 H 
ATOM     50  H   UNL A   1      34.294  27.903  24.542  1.00  0.00     0.027 H 
BRANCH  48  51
ATOM     51  C   UNL A   1      32.381  28.553  25.092  1.00  0.00    -0.036 C 
ATOM     52  H   UNL A   1      31.388  28.153  25.117  1.00  0.00     0.028 H 
ATOM     53  H   UNL A   1      32.492  29.366  24.405  1.00  0.00     0.028 H 
BRANCH  51  54
ATOM     54  C   UNL A   1      32.700  29.115  26.476  1.00  0.00     0.018 C 
ATOM     55  H   UNL A   1      33.681  28.798  26.759  1.00  0.00     0.049 H 
ATOM     56  H   UNL A   1      31.962  28.749  27.159  1.00  0.00     0.049 H 
BRANCH  54  57
ATOM     57  N   UNL A   1      32.651  30.568  26.497  1.00  0.00    -0.352 N 
ATOM     58  C   UNL A   1      33.421  31.464  27.194  1.00  0.00     0.251 C 
ATOM     59  H   UNL A   1      31.960  30.971  25.922  1.00  0.00     0.163 HD
ATOM     60  O   UNL A   1      33.091  32.644  27.251  1.00  0.00    -0.269 OA
BRANCH  58  61
ATOM     61  C   UNL A   1      34.647  31.015  27.889  1.00  0.00     0.039 A 
ATOM     62  C   UNL A   1      35.714  31.908  28.021  1.00  0.00    -0.049 A 
ATOM     63  C   UNL A   1      34.763  29.708  28.370  1.00  0.00    -0.049 A 
ATOM     64  C   UNL A   1      36.879  31.506  28.680  1.00  0.00    -0.053 A 
ATOM     65  H   UNL A   1      35.642  32.861  27.632  1.00  0.00     0.063 H 
ATOM     66  C   UNL A   1      35.900  29.328  29.081  1.00  0.00    -0.053 A 
ATOM     67  H   UNL A   1      34.009  29.025  28.198  1.00  0.00     0.063 H 
ATOM     68  C   UNL A   1      36.970  30.222  29.237  1.00  0.00    -0.014 A 
ATOM     69  H   UNL A   1      37.675  32.158  28.757  1.00  0.00     0.063 H 
ATOM     70  H   UNL A   1      35.954  28.385  29.495  1.00  0.00     0.063 H 
BRANCH  68  71
ATOM     71  C   UNL A   1      38.183  29.789  29.976  1.00  0.00     0.031 A 
ATOM     72  C   UNL A   1      38.451  30.314  31.359  1.00  0.00     0.074 A 
ATOM     73  C   UNL A   1      39.072  28.972  29.380  1.00  0.00     0.049 A 
ATOM     74  N   UNL A   1      39.488  30.118  32.134  1.00  0.00    -0.248 NA
ATOM     75  C   UNL A   1      37.426  31.194  31.940  1.00  0.00    -0.034 C 
ATOM     76  C   UNL A   1      38.942  28.425  28.029  1.00  0.00    -0.036 A 
ATOM     77  N   UNL A   1      40.266  28.469  29.830  1.00  0.00    -0.354 N 
ATOM     78  C   UNL A   1      39.247  30.860  33.282  1.00  0.00     0.074 A 
ATOM     79  C   UNL A   1      37.990  31.549  33.085  1.00  0.00    -0.034 C 
ATOM     80  H   UNL A   1      36.507  31.466  31.556  1.00  0.00     0.065 H 
ATOM     81  C   UNL A   1      40.006  27.648  27.766  1.00  0.00    -0.036 A 
ATOM     82  H   UNL A   1      38.159  28.608  27.382  1.00  0.00     0.065 H 
ATOM     83  C   UNL A   1      40.906  27.670  28.914  1.00  0.00     0.049 A 
ATOM     84  H   UNL A   1      40.630  28.661  30.724  1.00  0.00     0.167 HD
ATOM     85  C   UNL A   1      39.996  30.943  34.408  1.00  0.00     0.037 A 
ATOM     86  H   UNL A   1      37.585  32.227  33.750  1.00  0.00     0.065 H 
ATOM     87  H   UNL A   1      40.161  27.121  26.892  1.00  0.00     0.065 H 
ATOM     88  C   UNL A   1      42.091  27.034  28.990  1.00  0.00     0.037 A 
ATOM     89  C   UNL A   1      41.234  30.238  34.611  1.00  0.00     0.049 A 
ATOM     90  C   UNL A   1      42.907  27.149  30.249  1.00  0.00     0.074 A 
ATOM     91  C   UNL A   1      42.045  30.220  35.734  1.00  0.00    -0.036 A 
ATOM     92  N   UNL A   1      41.842  29.424  33.667  1.00  0.00    -0.354 N 
ATOM     93  N   UNL A   1      42.644  27.811  31.349  1.00  0.00    -0.248 NA
ATOM     94  C   UNL A   1      44.185  26.423  30.278  1.00  0.00    -0.034 C 
ATOM     95  C   UNL A   1      43.160  29.422  35.456  1.00  0.00    -0.036 A 
ATOM     96  H   UNL A   1      41.857  30.708  36.623  1.00  0.00     0.065 H 
ATOM     97  C   UNL A   1      43.024  28.910  34.176  1.00  0.00     0.049 A 
ATOM     98  H   UNL A   1      41.486  29.238  32.768  1.00  0.00     0.167 HD
ATOM     99  C   UNL A   1      43.702  27.557  32.210  1.00  0.00     0.074 A 
ATOM    100  C   UNL A   1      44.608  26.671  31.509  1.00  0.00    -0.034 C 
ATOM    101  H   UNL A   1      44.634  25.865  29.534  1.00  0.00     0.065 H 
ATOM    102  H   UNL A   1      43.950  29.246  36.096  1.00  0.00     0.065 H 
ATOM    103  C   UNL A   1      43.907  28.018  33.468  1.00  0.00     0.037 A 
ATOM    104  H   UNL A   1      45.473  26.283  31.916  1.00  0.00     0.065 H 
BRANCH  85 105
ATOM    105  C   UNL A   1      39.490  31.823  35.513  1.00  0.00     0.064 A 
ATOM    106  C   UNL A   1      38.604  31.340  36.488  1.00  0.00     0.173 A 
ATOM    107  C   UNL A   1      39.921  33.154  35.622  1.00  0.00     0.173 A 
ATOM    108  F   UNL A   1      38.153  30.078  36.424  1.00  0.00    -0.203 F 
ATOM    109  C   UNL A   1      38.145  32.164  37.513  1.00  0.00     0.198 A 
ATOM    110  C   UNL A   1      39.483  33.968  36.663  1.00  0.00     0.198 A 
ATOM    111  F   UNL A   1      40.773  33.664  34.720  1.00  0.00    -0.203 F 
ATOM    112  F   UNL A   1      37.263  31.694  38.404  1.00  0.00    -0.200 F 
ATOM    113  C   UNL A   1      38.590  33.474  37.604  1.00  0.00     0.200 A 
ATOM    114  F   UNL A   1      39.924  35.230  36.756  1.00  0.00    -0.200 F 
ATOM    115  F   UNL A   1      38.153  34.265  38.594  1.00  0.00    -0.200 F 
ENDBRANCH  85 105
BRANCH  88 116
ATOM    116  C   UNL A   1      42.566  26.209  27.850  1.00  0.00     0.064 A 
ATOM    117  C   UNL A   1      43.474  26.729  26.917  1.00  0.00     0.173 A 
ATOM    118  C   UNL A   1      42.120  24.892  27.664  1.00  0.00     0.173 A 
ATOM    119  F   UNL A   1      43.911  27.990  27.042  1.00  0.00    -0.203 F 
ATOM    120  C   UNL A   1      43.903  25.971  25.830  1.00  0.00     0.198 A 
ATOM    121  C   UNL A   1      42.570  24.126  26.591  1.00  0.00     0.198 A 
ATOM    122  F   UNL A   1      41.254  24.347  28.530  1.00  0.00    -0.203 F 
ATOM    123  F   UNL A   1      44.736  26.509  24.929  1.00  0.00    -0.200 F 
ATOM    124  C   UNL A   1      43.455  24.669  25.670  1.00  0.00     0.200 A 
ATOM    125  F   UNL A   1      42.145  22.864  26.447  1.00  0.00    -0.200 F 
ATOM    126  F   UNL A   1      43.869  23.939  24.626  1.00  0.00    -0.200 F 
ENDBRANCH  88 116
BRANCH 103 127
ATOM    127  C   UNL A   1      45.136  27.540  34.183  1.00  0.00     0.064 A 
ATOM    128  C   UNL A   1      46.342  28.253  34.127  1.00  0.00     0.173 A 
ATOM    129  C   UNL A   1      45.094  26.376  34.964  1.00  0.00     0.173 A 
ATOM    130  F   UNL A   1      46.436  29.364  33.381  1.00  0.00    -0.203 F 
ATOM    131  C   UNL A   1      47.470  27.803  34.809  1.00  0.00     0.198 A 
ATOM    132  C   UNL A   1      46.216  25.944  35.666  1.00  0.00     0.198 A 
ATOM    133  F   UNL A   1      43.963  25.662  35.054  1.00  0.00    -0.203 F 
ATOM    134  F   UNL A   1      48.625  28.476  34.706  1.00  0.00    -0.200 F 
ATOM    135  C   UNL A   1      47.404  26.655  35.582  1.00  0.00     0.200 A 
ATOM    136  F   UNL A   1      46.147  24.840  36.422  1.00  0.00    -0.200 F 
ATOM    137  F   UNL A   1      48.489  26.226  36.243  1.00  0.00    -0.200 F 
ENDBRANCH 103 127
ENDBRANCH  68  71
ENDBRANCH  58  61
ENDBRANCH  54  57
ENDBRANCH  51  54
ENDBRANCH  48  51
ENDBRANCH   1  48
TORSDOF 17
ENDMDL
MODEL 6
REMARK VINA RESULT:     -12.1      0.610      7.257
REMARK SMILES Cc1cc2cc(-c3ccc([C@@H](C)C(=O)NCCCCCCNC(=O)c4ccc(-c5c6nc(c(-c7c(F)c(F)c(F)c(F)c7F)c7ccc([nH]7)c(-c7c(F)c(F)c(F)c(F)c7F)c7nc(c(-c8c(F)c(F)c(F)c(F)c8F)c8ccc5[nH]8)C=C7)C=C6)cc4)cc3)ccc2[nH]1
REMARK SMILES IDX 18 1 17 4 16 7 15 10 13 11 14 12 11 14 10 16 7 17 8 18 89 19
REMARK SMILES IDX 9 20 88 22 6 26 2 27 3 28 93 29 4 30 92 32 5 34 91 35 90 37
REMARK SMILES IDX 1 40 12 44 19 48 20 51 21 54 22 57 23 58 24 60 25 61 26 62
REMARK SMILES IDX 87 63 27 64 86 66 28 68 29 71 30 72 80 73 31 74 85 75 79 76
REMARK SMILES IDX 81 77 32 78 84 79 78 81 77 83 33 85 65 88 45 89 64 90 46 91
REMARK SMILES IDX 49 92 63 93 82 94 47 95 48 97 62 99 83 100 50 103 34 105
REMARK SMILES IDX 35 106 43 107 36 108 37 109 41 110 44 111 38 112 39 113
REMARK SMILES IDX 42 114 40 115 66 116 67 117 75 118 68 119 69 120 73 121
REMARK SMILES IDX 76 122 70 123 71 124 74 125 72 126 51 127 52 128 60 129
REMARK SMILES IDX 53 130 54 131 58 132 61 133 55 134 56 135 59 136 57 137
REMARK H PARENT 18 2 18 3 17 5 17 6 16 8 16 9 15 13 11 15 8 21 89 23 9 24
REMARK H PARENT 88 25 3 31 93 33 5 36 91 38 90 39 1 41 1 42 1 43 12 45 12 46
REMARK H PARENT 12 47 19 49 19 50 20 52 20 53 21 55 21 56 22 59 26 65 87 67
REMARK H PARENT 27 69 86 70 85 80 79 82 81 84 84 86 78 87 46 96 49 98 82 101
REMARK H PARENT 47 102 83 104
REMARK Flexibility Score: inf
ROOT
ATOM      1  C   UNL A   1      33.477  26.255  25.429  1.00  0.00    -0.052 C 
ATOM      2  H   UNL A   1      33.413  26.512  26.466  1.00  0.00     0.027 H 
ATOM      3  H   UNL A   1      32.672  25.638  25.091  1.00  0.00     0.027 H 
ENDROOT
BRANCH   1   4
ATOM      4  C   UNL A   1      34.756  25.436  25.223  1.00  0.00    -0.036 C 
ATOM      5  H   UNL A   1      35.187  25.715  24.283  1.00  0.00     0.028 H 
ATOM      6  H   UNL A   1      35.399  25.651  26.050  1.00  0.00     0.028 H 
BRANCH   4   7
ATOM      7  C   UNL A   1      34.530  23.922  25.218  1.00  0.00     0.017 C 
ATOM      8  H   UNL A   1      33.768  23.688  24.504  1.00  0.00     0.049 H 
ATOM      9  H   UNL A   1      35.455  23.449  24.963  1.00  0.00     0.049 H 
BRANCH   7  10
ATOM     10  N   UNL A   1      34.119  23.433  26.518  1.00  0.00    -0.356 N 
ATOM     11  C   UNL A   1      32.988  22.803  26.933  1.00  0.00     0.227 C 
ATOM     12  O   UNL A   1      32.897  22.581  28.148  1.00  0.00    -0.274 OA
ATOM     13  H   UNL A   1      34.781  23.584  27.231  1.00  0.00     0.163 HD
BRANCH  11  14
ATOM     14  C   UNL A   1      31.862  22.353  25.989  1.00  0.00     0.060 C 
ATOM     15  H   UNL A   1      31.141  21.863  26.610  1.00  0.00     0.045 H 
BRANCH  14  16
ATOM     16  C   UNL A   1      31.075  23.508  25.390  1.00  0.00    -0.036 A 
ATOM     17  C   UNL A   1      29.670  25.763  24.335  1.00  0.00    -0.018 A 
ATOM     18  C   UNL A   1      30.291  24.820  23.501  1.00  0.00    -0.054 A 
ATOM     19  C   UNL A   1      29.757  25.544  25.717  1.00  0.00    -0.054 A 
ATOM     20  C   UNL A   1      30.947  23.698  24.015  1.00  0.00    -0.058 A 
ATOM     21  H   UNL A   1      30.262  24.958  22.479  1.00  0.00     0.063 H 
ATOM     22  C   UNL A   1      30.463  24.447  26.236  1.00  0.00    -0.058 A 
ATOM     23  H   UNL A   1      29.296  26.201  26.364  1.00  0.00     0.063 H 
ATOM     24  H   UNL A   1      31.342  22.999  23.366  1.00  0.00     0.063 H 
ATOM     25  H   UNL A   1      30.532  24.328  27.259  1.00  0.00     0.063 H 
BRANCH  17  26
ATOM     26  C   UNL A   1      28.962  26.924  23.750  1.00  0.00    -0.018 A 
ATOM     27  C   UNL A   1      28.428  31.052  21.673  1.00  0.00     0.013 A 
ATOM     28  C   UNL A   1      29.512  30.227  21.885  1.00  0.00    -0.034 A 
ATOM     29  N   UNL A   1      27.324  30.418  22.190  1.00  0.00    -0.359 N 
ATOM     30  C   UNL A   1      29.052  29.069  22.563  1.00  0.00     0.000 A 
ATOM     31  H   UNL A   1      30.486  30.418  21.600  1.00  0.00     0.065 H 
ATOM     32  C   UNL A   1      27.681  29.211  22.751  1.00  0.00     0.046 A 
ATOM     33  H   UNL A   1      26.407  30.774  22.164  1.00  0.00     0.166 HD
ATOM     34  C   UNL A   1      29.684  27.910  23.046  1.00  0.00    -0.045 A 
ATOM     35  C   UNL A   1      26.912  28.243  23.404  1.00  0.00    -0.037 A 
ATOM     36  H   UNL A   1      30.695  27.778  22.882  1.00  0.00     0.064 H 
ATOM     37  C   UNL A   1      27.578  27.111  23.904  1.00  0.00    -0.052 A 
ATOM     38  H   UNL A   1      25.893  28.356  23.515  1.00  0.00     0.065 H 
ATOM     39  H   UNL A   1      27.031  26.392  24.402  1.00  0.00     0.063 H 
BRANCH  27  40
ATOM     40  C   UNL A   1      28.343  32.382  21.024  1.00  0.00    -0.024 C 
ATOM     41  H   UNL A   1      29.120  33.014  21.403  1.00  0.00     0.029 H 
ATOM     42  H   UNL A   1      27.391  32.822  21.236  1.00  0.00     0.029 H 
ATOM     43  H   UNL A   1      28.457  32.271  19.967  1.00  0.00     0.029 H 
ENDBRANCH  27  40
ENDBRANCH  17  26
ENDBRANCH  14  16
BRANCH  14  44
ATOM     44  C   UNL A   1      32.273  21.248  25.015  1.00  0.00    -0.049 C 
ATOM     45  H   UNL A   1      33.218  21.492  24.577  1.00  0.00     0.024 H 
ATOM     46  H   UNL A   1      31.535  21.158  24.245  1.00  0.00     0.024 H 
ATOM     47  H   UNL A   1      32.353  20.320  25.542  1.00  0.00     0.024 H 
ENDBRANCH  14  44
ENDBRANCH  11  14
ENDBRANCH   7  10
ENDBRANCH   4   7
ENDBRANCH   1   4
BRANCH   1  48
ATOM     48  C   UNL A   1      33.392  27.551  24.613  1.00  0.00    -0.052 C 
ATOM     49  H   UNL A   1      33.121  27.292  23.611  1.00  0.00     0.027 H 
ATOM     50  H   UNL A   1      34.354  28.013  24.696  1.00  0.00     0.027 H 
BRANCH  48  51
ATOM     51  C   UNL A   1      32.385  28.589  25.120  1.00  0.00    -0.036 C 
ATOM     52  H   UNL A   1      31.420  28.127  25.151  1.00  0.00     0.028 H 
ATOM     53  H   UNL A   1      32.438  29.414  24.442  1.00  0.00     0.028 H 
BRANCH  51  54
ATOM     54  C   UNL A   1      32.686  29.153  26.507  1.00  0.00     0.018 C 
ATOM     55  H   UNL A   1      33.659  28.827  26.808  1.00  0.00     0.049 H 
ATOM     56  H   UNL A   1      31.934  28.797  27.178  1.00  0.00     0.049 H 
BRANCH  54  57
ATOM     57  N   UNL A   1      32.651  30.606  26.521  1.00  0.00    -0.352 N 
ATOM     58  C   UNL A   1      33.436  31.499  27.207  1.00  0.00     0.251 C 
ATOM     59  H   UNL A   1      31.958  31.013  25.951  1.00  0.00     0.163 HD
ATOM     60  O   UNL A   1      33.118  32.682  27.261  1.00  0.00    -0.269 OA
BRANCH  58  61
ATOM     61  C   UNL A   1      34.664  31.041  27.893  1.00  0.00     0.039 A 
ATOM     62  C   UNL A   1      35.718  31.943  28.063  1.00  0.00    -0.049 A 
ATOM     63  C   UNL A   1      34.796  29.719  28.326  1.00  0.00    -0.049 A 
ATOM     64  C   UNL A   1      36.885  31.534  28.714  1.00  0.00    -0.053 A 
ATOM     65  H   UNL A   1      35.635  32.909  27.709  1.00  0.00     0.063 H 
ATOM     66  C   UNL A   1      35.934  29.329  29.030  1.00  0.00    -0.053 A 
ATOM     67  H   UNL A   1      34.052  29.033  28.125  1.00  0.00     0.063 H 
ATOM     68  C   UNL A   1      36.991  30.231  29.225  1.00  0.00    -0.014 A 
ATOM     69  H   UNL A   1      37.672  32.193  28.819  1.00  0.00     0.063 H 
ATOM     70  H   UNL A   1      35.999  28.372  29.410  1.00  0.00     0.063 H 
BRANCH  68  71
ATOM     71  C   UNL A   1      38.205  29.787  29.955  1.00  0.00     0.031 A 
ATOM     72  C   UNL A   1      38.487  30.310  31.336  1.00  0.00     0.074 A 
ATOM     73  C   UNL A   1      39.083  28.964  29.352  1.00  0.00     0.049 A 
ATOM     74  N   UNL A   1      39.529  30.106  32.103  1.00  0.00    -0.248 NA
ATOM     75  C   UNL A   1      37.474  31.199  31.924  1.00  0.00    -0.034 C 
ATOM     76  C   UNL A   1      38.939  28.418  28.002  1.00  0.00    -0.036 A 
ATOM     77  N   UNL A   1      40.277  28.450  29.793  1.00  0.00    -0.354 N 
ATOM     78  C   UNL A   1      39.303  30.850  33.253  1.00  0.00     0.074 A 
ATOM     79  C   UNL A   1      38.050  31.549  33.065  1.00  0.00    -0.034 C 
ATOM     80  H   UNL A   1      36.555  31.478  31.547  1.00  0.00     0.065 H 
ATOM     81  C   UNL A   1      39.994  27.632  27.731  1.00  0.00    -0.036 A 
ATOM     82  H   UNL A   1      38.153  28.607  27.361  1.00  0.00     0.065 H 
ATOM     83  C   UNL A   1      40.903  27.647  28.872  1.00  0.00     0.049 A 
ATOM     84  H   UNL A   1      40.649  28.639  30.685  1.00  0.00     0.167 HD
ATOM     85  C   UNL A   1      40.060  30.926  34.373  1.00  0.00     0.037 A 
ATOM     86  H   UNL A   1      37.656  32.230  33.732  1.00  0.00     0.065 H 
ATOM     87  H   UNL A   1      40.138  27.104  26.856  1.00  0.00     0.065 H 
ATOM     88  C   UNL A   1      42.083  27.001  28.940  1.00  0.00     0.037 A 
ATOM     89  C   UNL A   1      41.294  30.211  34.567  1.00  0.00     0.049 A 
ATOM     90  C   UNL A   1      42.909  27.109  30.193  1.00  0.00     0.074 A 
ATOM     91  C   UNL A   1      42.113  30.186  35.684  1.00  0.00    -0.036 A 
ATOM     92  N   UNL A   1      41.888  29.393  33.618  1.00  0.00    -0.354 N 
ATOM     93  N   UNL A   1      42.659  27.773  31.295  1.00  0.00    -0.248 NA
ATOM     94  C   UNL A   1      44.181  26.372  30.212  1.00  0.00    -0.034 C 
ATOM     95  C   UNL A   1      43.220  29.380  35.398  1.00  0.00    -0.036 A 
ATOM     96  H   UNL A   1      41.936  30.676  36.574  1.00  0.00     0.065 H 
ATOM     97  C   UNL A   1      43.070  28.868  34.119  1.00  0.00     0.049 A 
ATOM     98  H   UNL A   1      41.524  29.210  32.722  1.00  0.00     0.167 HD
ATOM     99  C   UNL A   1      43.722  27.510  32.148  1.00  0.00     0.074 A 
ATOM    100  C   UNL A   1      44.615  26.617  31.440  1.00  0.00    -0.034 C 
ATOM    101  H   UNL A   1      44.620  25.810  29.465  1.00  0.00     0.065 H 
ATOM    102  H   UNL A   1      44.013  29.197  36.032  1.00  0.00     0.065 H 
ATOM    103  C   UNL A   1      43.940  27.969  33.404  1.00  0.00     0.037 A 
ATOM    104  H   UNL A   1      45.481  26.222  31.840  1.00  0.00     0.065 H 
BRANCH  85 105
ATOM    105  C   UNL A   1      39.570  31.811  35.482  1.00  0.00     0.064 A 
ATOM    106  C   UNL A   1      40.020  33.134  35.618  1.00  0.00     0.173 A 
ATOM    107  C   UNL A   1      38.616  31.346  36.399  1.00  0.00     0.173 A 
ATOM    108  F   UNL A   1      40.940  33.623  34.773  1.00  0.00    -0.203 F 
ATOM    109  C   UNL A   1      39.554  33.948  36.647  1.00  0.00     0.198 A 
ATOM    110  C   UNL A   1      38.131  32.171  37.411  1.00  0.00     0.198 A 
ATOM    111  F   UNL A   1      38.148  30.092  36.311  1.00  0.00    -0.203 F 
ATOM    112  F   UNL A   1      40.033  35.191  36.784  1.00  0.00    -0.200 F 
ATOM    113  C   UNL A   1      38.606  33.469  37.538  1.00  0.00     0.200 A 
ATOM    114  F   UNL A   1      37.205  31.711  38.263  1.00  0.00    -0.200 F 
ATOM    115  F   UNL A   1      38.154  34.255  38.524  1.00  0.00    -0.200 F 
ENDBRANCH  85 105
BRANCH  88 116
ATOM    116  C   UNL A   1      42.543  26.171  27.796  1.00  0.00     0.064 A 
ATOM    117  C   UNL A   1      42.097  24.851  27.643  1.00  0.00     0.173 A 
ATOM    118  C   UNL A   1      43.438  26.674  26.841  1.00  0.00     0.173 A 
ATOM    119  F   UNL A   1      41.257  24.321  28.544  1.00  0.00    -0.203 F 
ATOM    120  C   UNL A   1      42.544  24.058  26.590  1.00  0.00     0.198 A 
ATOM    121  C   UNL A   1      43.865  25.887  25.773  1.00  0.00     0.198 A 
ATOM    122  F   UNL A   1      43.892  27.931  26.940  1.00  0.00    -0.203 F 
ATOM    123  F   UNL A   1      42.137  22.785  26.493  1.00  0.00    -0.200 F 
ATOM    124  C   UNL A   1      43.424  24.577  25.652  1.00  0.00     0.200 A 
ATOM    125  F   UNL A   1      44.705  26.397  24.862  1.00  0.00    -0.200 F 
ATOM    126  F   UNL A   1      43.853  23.815  24.638  1.00  0.00    -0.200 F 
ENDBRANCH  88 116
BRANCH 103 127
ATOM    127  C   UNL A   1      45.171  27.481  34.110  1.00  0.00     0.064 A 
ATOM    128  C   UNL A   1      45.165  26.301  34.866  1.00  0.00     0.173 A 
ATOM    129  C   UNL A   1      46.378  28.186  33.997  1.00  0.00     0.173 A 
ATOM    130  F   UNL A   1      44.030  25.602  35.018  1.00  0.00    -0.203 F 
ATOM    131  C   UNL A   1      46.319  25.855  35.504  1.00  0.00     0.198 A 
ATOM    132  C   UNL A   1      47.538  27.722  34.612  1.00  0.00     0.198 A 
ATOM    133  F   UNL A   1      46.437  29.317  33.280  1.00  0.00    -0.203 F 
ATOM    134  F   UNL A   1      46.281  24.747  36.258  1.00  0.00    -0.200 F 
ATOM    135  C   UNL A   1      47.505  26.561  35.370  1.00  0.00     0.200 A 
ATOM    136  F   UNL A   1      48.686  28.400  34.473  1.00  0.00    -0.200 F 
ATOM    137  F   UNL A   1      48.618  26.127  35.979  1.00  0.00    -0.200 F 
ENDBRANCH 103 127
ENDBRANCH  68  71
ENDBRANCH  58  61
ENDBRANCH  54  57
ENDBRANCH  51  54
ENDBRANCH  48  51
ENDBRANCH   1  48
TORSDOF 17
ENDMDL
MODEL 7
REMARK VINA RESULT:     -11.8      4.902     11.573
REMARK SMILES Cc1cc2cc(-c3ccc([C@@H](C)C(=O)NCCCCCCNC(=O)c4ccc(-c5c6nc(c(-c7c(F)c(F)c(F)c(F)c7F)c7ccc([nH]7)c(-c7c(F)c(F)c(F)c(F)c7F)c7nc(c(-c8c(F)c(F)c(F)c(F)c8F)c8ccc5[nH]8)C=C7)C=C6)cc4)cc3)ccc2[nH]1
REMARK SMILES IDX 18 1 17 4 16 7 15 10 13 11 14 12 11 14 10 16 7 17 8 18 89 19
REMARK SMILES IDX 9 20 88 22 6 26 2 27 3 28 93 29 4 30 92 32 5 34 91 35 90 37
REMARK SMILES IDX 1 40 12 44 19 48 20 51 21 54 22 57 23 58 24 60 25 61 26 62
REMARK SMILES IDX 87 63 27 64 86 66 28 68 29 71 30 72 80 73 31 74 85 75 79 76
REMARK SMILES IDX 81 77 32 78 84 79 78 81 77 83 33 85 65 88 45 89 64 90 46 91
REMARK SMILES IDX 49 92 63 93 82 94 47 95 48 97 62 99 83 100 50 103 34 105
REMARK SMILES IDX 35 106 43 107 36 108 37 109 41 110 44 111 38 112 39 113
REMARK SMILES IDX 42 114 40 115 66 116 67 117 75 118 68 119 69 120 73 121
REMARK SMILES IDX 76 122 70 123 71 124 74 125 72 126 51 127 52 128 60 129
REMARK SMILES IDX 53 130 54 131 58 132 61 133 55 134 56 135 59 136 57 137
REMARK H PARENT 18 2 18 3 17 5 17 6 16 8 16 9 15 13 11 15 8 21 89 23 9 24
REMARK H PARENT 88 25 3 31 93 33 5 36 91 38 90 39 1 41 1 42 1 43 12 45 12 46
REMARK H PARENT 12 47 19 49 19 50 20 52 20 53 21 55 21 56 22 59 26 65 87 67
REMARK H PARENT 27 69 86 70 85 80 79 82 81 84 84 86 78 87 46 96 49 98 82 101
REMARK H PARENT 47 102 83 104
REMARK Flexibility Score: inf
ROOT
ATOM      1  C   UNL A   1      37.372  32.505  31.196  1.00  0.00    -0.052 C 
ATOM      2  H   UNL A   1      38.119  31.852  31.598  1.00  0.00     0.027 H 
ATOM      3  H   UNL A   1      37.220  32.384  30.144  1.00  0.00     0.027 H 
ENDROOT
BRANCH   1   4
ATOM      4  C   UNL A   1      37.850  33.948  31.392  1.00  0.00    -0.036 C 
ATOM      5  H   UNL A   1      38.885  34.000  31.123  1.00  0.00     0.028 H 
ATOM      6  H   UNL A   1      37.233  34.566  30.775  1.00  0.00     0.028 H 
BRANCH   4   7
ATOM      7  C   UNL A   1      37.700  34.463  32.826  1.00  0.00     0.017 C 
ATOM      8  H   UNL A   1      37.389  35.486  32.794  1.00  0.00     0.049 H 
ATOM      9  H   UNL A   1      36.973  33.855  33.323  1.00  0.00     0.049 H 
BRANCH   7  10
ATOM     10  N   UNL A   1      38.942  34.373  33.565  1.00  0.00    -0.356 N 
ATOM     11  C   UNL A   1      39.413  33.440  34.436  1.00  0.00     0.227 C 
ATOM     12  O   UNL A   1      40.497  33.693  34.976  1.00  0.00    -0.274 OA
ATOM     13  H   UNL A   1      39.558  35.125  33.408  1.00  0.00     0.163 HD
BRANCH  11  14
ATOM     14  C   UNL A   1      38.689  32.122  34.753  1.00  0.00     0.060 C 
ATOM     15  H   UNL A   1      37.960  31.999  33.980  1.00  0.00     0.045 H 
BRANCH  14  16
ATOM     16  C   UNL A   1      39.571  30.893  34.599  1.00  0.00    -0.036 A 
ATOM     17  C   UNL A   1      41.262  28.626  34.188  1.00  0.00    -0.018 A 
ATOM     18  C   UNL A   1      41.400  29.460  35.308  1.00  0.00    -0.054 A 
ATOM     19  C   UNL A   1      40.243  28.945  33.279  1.00  0.00    -0.054 A 
ATOM     20  C   UNL A   1      40.550  30.547  35.529  1.00  0.00    -0.058 A 
ATOM     21  H   UNL A   1      42.150  29.265  35.989  1.00  0.00     0.063 H 
ATOM     22  C   UNL A   1      39.425  30.069  33.471  1.00  0.00    -0.058 A 
ATOM     23  H   UNL A   1      40.094  28.345  32.454  1.00  0.00     0.063 H 
ATOM     24  H   UNL A   1      40.650  31.103  36.393  1.00  0.00     0.063 H 
ATOM     25  H   UNL A   1      38.701  30.293  32.770  1.00  0.00     0.063 H 
BRANCH  17  26
ATOM     26  C   UNL A   1      42.166  27.467  34.006  1.00  0.00    -0.018 A 
ATOM     27  C   UNL A   1      44.238  23.418  34.982  1.00  0.00     0.013 A 
ATOM     28  C   UNL A   1      43.164  24.091  35.523  1.00  0.00    -0.034 A 
ATOM     29  N   UNL A   1      44.697  24.165  33.923  1.00  0.00    -0.359 N 
ATOM     30  C   UNL A   1      42.979  25.286  34.780  1.00  0.00     0.000 A 
ATOM     31  H   UNL A   1      42.594  23.781  36.326  1.00  0.00     0.065 H 
ATOM     32  C   UNL A   1      43.954  25.316  33.788  1.00  0.00     0.046 A 
ATOM     33  H   UNL A   1      45.451  23.912  33.342  1.00  0.00     0.166 HD
ATOM     34  C   UNL A   1      42.072  26.356  34.870  1.00  0.00    -0.045 A 
ATOM     35  C   UNL A   1      44.062  26.374  32.880  1.00  0.00    -0.037 A 
ATOM     36  H   UNL A   1      41.324  26.328  35.581  1.00  0.00     0.064 H 
ATOM     37  C   UNL A   1      43.162  27.444  33.015  1.00  0.00    -0.052 A 
ATOM     38  H   UNL A   1      44.778  26.368  32.137  1.00  0.00     0.065 H 
ATOM     39  H   UNL A   1      43.235  28.240  32.364  1.00  0.00     0.063 H 
BRANCH  27  40
ATOM     40  C   UNL A   1      44.864  22.133  35.373  1.00  0.00    -0.024 C 
ATOM     41  H   UNL A   1      44.406  21.771  36.270  1.00  0.00     0.029 H 
ATOM     42  H   UNL A   1      45.910  22.284  35.543  1.00  0.00     0.029 H 
ATOM     43  H   UNL A   1      44.730  21.418  34.590  1.00  0.00     0.029 H 
ENDBRANCH  27  40
ENDBRANCH  17  26
ENDBRANCH  14  16
BRANCH  14  44
ATOM     44  C   UNL A   1      37.832  32.175  36.019  1.00  0.00    -0.049 C 
ATOM     45  H   UNL A   1      36.810  32.343  35.751  1.00  0.00     0.024 H 
ATOM     46  H   UNL A   1      38.172  32.972  36.648  1.00  0.00     0.024 H 
ATOM     47  H   UNL A   1      37.915  31.246  36.544  1.00  0.00     0.024 H 
ENDBRANCH  14  44
ENDBRANCH  11  14
ENDBRANCH   7  10
ENDBRANCH   4   7
ENDBRANCH   1   4
BRANCH   1  48
ATOM     48  C   UNL A   1      36.033  32.162  31.863  1.00  0.00    -0.052 C 
ATOM     49  H   UNL A   1      35.977  32.702  32.784  1.00  0.00     0.027 H 
ATOM     50  H   UNL A   1      36.030  31.099  31.982  1.00  0.00     0.027 H 
BRANCH  48  51
ATOM     51  C   UNL A   1      34.782  32.496  31.045  1.00  0.00    -0.036 C 
ATOM     52  H   UNL A   1      34.399  33.434  31.389  1.00  0.00     0.028 H 
ATOM     53  H   UNL A   1      34.102  31.682  31.192  1.00  0.00     0.028 H 
BRANCH  51  54
ATOM     54  C   UNL A   1      35.007  32.599  29.538  1.00  0.00     0.018 C 
ATOM     55  H   UNL A   1      36.055  32.521  29.339  1.00  0.00     0.049 H 
ATOM     56  H   UNL A   1      34.620  33.541  29.210  1.00  0.00     0.049 H 
BRANCH  54  57
ATOM     57  N   UNL A   1      34.311  31.550  28.811  1.00  0.00    -0.352 N 
ATOM     58  C   UNL A   1      34.803  30.416  28.215  1.00  0.00     0.251 C 
ATOM     59  H   UNL A   1      33.336  31.671  28.735  1.00  0.00     0.163 HD
ATOM     60  O   UNL A   1      34.092  29.759  27.462  1.00  0.00    -0.269 OA
BRANCH  58  61
ATOM     61  C   UNL A   1      36.194  29.983  28.468  1.00  0.00     0.039 A 
ATOM     62  C   UNL A   1      37.153  30.173  27.469  1.00  0.00    -0.049 A 
ATOM     63  C   UNL A   1      36.546  29.352  29.665  1.00  0.00    -0.049 A 
ATOM     64  C   UNL A   1      38.475  29.777  27.689  1.00  0.00    -0.053 A 
ATOM     65  H   UNL A   1      36.884  30.605  26.570  1.00  0.00     0.063 H 
ATOM     66  C   UNL A   1      37.875  29.015  29.908  1.00  0.00    -0.053 A 
ATOM     67  H   UNL A   1      35.821  29.136  30.367  1.00  0.00     0.063 H 
ATOM     68  C   UNL A   1      38.851  29.219  28.921  1.00  0.00    -0.014 A 
ATOM     69  H   UNL A   1      39.177  29.897  26.943  1.00  0.00     0.063 H 
ATOM     70  H   UNL A   1      38.145  28.613  30.820  1.00  0.00     0.063 H 
BRANCH  68  71
ATOM     71  C   UNL A   1      40.258  28.829  29.190  1.00  0.00     0.031 A 
ATOM     72  C   UNL A   1      41.175  29.771  29.918  1.00  0.00     0.074 A 
ATOM     73  C   UNL A   1      40.725  27.654  28.727  1.00  0.00     0.049 A 
ATOM     74  N   UNL A   1      42.453  29.648  30.180  1.00  0.00    -0.248 NA
ATOM     75  C   UNL A   1      40.583  31.029  30.397  1.00  0.00    -0.034 C 
ATOM     76  C   UNL A   1      39.943  26.672  27.975  1.00  0.00    -0.036 A 
ATOM     77  N   UNL A   1      41.974  27.093  28.810  1.00  0.00    -0.354 N 
ATOM     78  C   UNL A   1      42.817  30.815  30.838  1.00  0.00     0.074 A 
ATOM     79  C   UNL A   1      41.640  31.655  30.894  1.00  0.00    -0.034 C 
ATOM     80  H   UNL A   1      39.601  31.344  30.357  1.00  0.00     0.065 H 
ATOM     81  C   UNL A   1      40.726  25.620  27.681  1.00  0.00    -0.036 A 
ATOM     82  H   UNL A   1      38.950  26.771  27.713  1.00  0.00     0.065 H 
ATOM     83  C   UNL A   1      42.070  25.870  28.192  1.00  0.00     0.049 A 
ATOM     84  H   UNL A   1      42.730  27.525  29.269  1.00  0.00     0.167 HD
ATOM     85  C   UNL A   1      44.019  31.147  31.367  1.00  0.00     0.037 A 
ATOM     86  H   UNL A   1      41.626  32.615  31.271  1.00  0.00     0.065 H 
ATOM     87  H   UNL A   1      40.424  24.772  27.175  1.00  0.00     0.065 H 
ATOM     88  C   UNL A   1      43.126  25.047  28.048  1.00  0.00     0.037 A 
ATOM     89  C   UNL A   1      45.182  30.299  31.332  1.00  0.00     0.049 A 
ATOM     90  C   UNL A   1      44.452  25.443  28.639  1.00  0.00     0.074 A 
ATOM     91  C   UNL A   1      46.433  30.525  31.879  1.00  0.00    -0.036 A 
ATOM     92  N   UNL A   1      45.235  29.059  30.712  1.00  0.00    -0.354 N 
ATOM     93  N   UNL A   1      44.772  26.525  29.305  1.00  0.00    -0.248 NA
ATOM     94  C   UNL A   1      45.564  24.499  28.460  1.00  0.00    -0.034 C 
ATOM     95  C   UNL A   1      47.254  29.437  31.561  1.00  0.00    -0.036 A 
ATOM     96  H   UNL A   1      46.713  31.352  32.428  1.00  0.00     0.065 H 
ATOM     97  C   UNL A   1      46.501  28.515  30.852  1.00  0.00     0.049 A 
ATOM     98  H   UNL A   1      44.484  28.629  30.244  1.00  0.00     0.167 HD
ATOM     99  C   UNL A   1      46.108  26.380  29.652  1.00  0.00     0.074 A 
ATOM    100  C   UNL A   1      46.537  25.098  29.132  1.00  0.00    -0.034 C 
ATOM    101  H   UNL A   1      45.583  23.603  27.947  1.00  0.00     0.065 H 
ATOM    102  H   UNL A   1      48.250  29.339  31.812  1.00  0.00     0.065 H 
ATOM    103  C   UNL A   1      46.907  27.231  30.339  1.00  0.00     0.037 A 
ATOM    104  H   UNL A   1      47.481  24.702  29.266  1.00  0.00     0.065 H 
BRANCH  85 105
ATOM    105  C   UNL A   1      44.135  32.484  32.039  1.00  0.00     0.064 A 
ATOM    106  C   UNL A   1      44.512  33.632  31.325  1.00  0.00     0.173 A 
ATOM    107  C   UNL A   1      43.833  32.629  33.401  1.00  0.00     0.173 A 
ATOM    108  F   UNL A   1      44.822  33.545  30.023  1.00  0.00    -0.203 F 
ATOM    109  C   UNL A   1      44.611  34.869  31.957  1.00  0.00     0.198 A 
ATOM    110  C   UNL A   1      43.905  33.872  34.024  1.00  0.00     0.198 A 
ATOM    111  F   UNL A   1      43.461  31.565  34.128  1.00  0.00    -0.203 F 
ATOM    112  F   UNL A   1      45.019  35.942  31.266  1.00  0.00    -0.200 F 
ATOM    113  C   UNL A   1      44.301  34.990  33.303  1.00  0.00     0.200 A 
ATOM    114  F   UNL A   1      43.594  33.989  35.322  1.00  0.00    -0.200 F 
ATOM    115  F   UNL A   1      44.391  36.182  33.909  1.00  0.00    -0.200 F 
ENDBRANCH  85 105
BRANCH  88 116
ATOM    116  C   UNL A   1      42.968  23.752  27.337  1.00  0.00     0.064 A 
ATOM    117  C   UNL A   1      42.454  22.628  27.999  1.00  0.00     0.173 A 
ATOM    118  C   UNL A   1      43.331  23.608  25.990  1.00  0.00     0.173 A 
ATOM    119  F   UNL A   1      42.113  22.713  29.293  1.00  0.00    -0.203 F 
ATOM    120  C   UNL A   1      42.328  21.404  27.348  1.00  0.00     0.198 A 
ATOM    121  C   UNL A   1      43.181  22.389  25.332  1.00  0.00     0.198 A 
ATOM    122  F   UNL A   1      43.824  24.653  25.311  1.00  0.00    -0.203 F 
ATOM    123  F   UNL A   1      41.877  20.335  28.018  1.00  0.00    -0.200 F 
ATOM    124  C   UNL A   1      42.687  21.286  26.014  1.00  0.00     0.200 A 
ATOM    125  F   UNL A   1      43.516  22.282  24.040  1.00  0.00    -0.200 F 
ATOM    126  F   UNL A   1      42.564  20.108  25.387  1.00  0.00    -0.200 F 
ENDBRANCH  88 116
BRANCH 103 127
ATOM    127  C   UNL A   1      48.316  26.788  30.603  1.00  0.00     0.064 A 
ATOM    128  C   UNL A   1      49.374  27.161  29.762  1.00  0.00     0.173 A 
ATOM    129  C   UNL A   1      48.615  26.012  31.733  1.00  0.00     0.173 A 
ATOM    130  F   UNL A   1      49.136  27.889  28.660  1.00  0.00    -0.203 F 
ATOM    131  C   UNL A   1      50.678  26.753  30.030  1.00  0.00     0.198 A 
ATOM    132  C   UNL A   1      49.923  25.629  32.013  1.00  0.00     0.198 A 
ATOM    133  F   UNL A   1      47.639  25.634  32.571  1.00  0.00    -0.203 F 
ATOM    134  F   UNL A   1      51.667  27.084  29.188  1.00  0.00    -0.200 F 
ATOM    135  C   UNL A   1      50.952  25.994  31.158  1.00  0.00     0.200 A 
ATOM    136  F   UNL A   1      50.188  24.905  33.110  1.00  0.00    -0.200 F 
ATOM    137  F   UNL A   1      52.209  25.607  31.418  1.00  0.00    -0.200 F 
ENDBRANCH 103 127
ENDBRANCH  68  71
ENDBRANCH  58  61
ENDBRANCH  54  57
ENDBRANCH  51  54
ENDBRANCH  48  51
ENDBRANCH   1  48
TORSDOF 17
ENDMDL
MODEL 8
REMARK VINA RESULT:     -11.7      4.883     11.622
REMARK SMILES Cc1cc2cc(-c3ccc([C@@H](C)C(=O)NCCCCCCNC(=O)c4ccc(-c5c6nc(c(-c7c(F)c(F)c(F)c(F)c7F)c7ccc([nH]7)c(-c7c(F)c(F)c(F)c(F)c7F)c7nc(c(-c8c(F)c(F)c(F)c(F)c8F)c8ccc5[nH]8)C=C7)C=C6)cc4)cc3)ccc2[nH]1
REMARK SMILES IDX 18 1 17 4 16 7 15 10 13 11 14 12 11 14 10 16 7 17 8 18 89 19
REMARK SMILES IDX 9 20 88 22 6 26 2 27 3 28 93 29 4 30 92 32 5 34 91 35 90 37
REMARK SMILES IDX 1 40 12 44 19 48 20 51 21 54 22 57 23 58 24 60 25 61 26 62
REMARK SMILES IDX 87 63 27 64 86 66 28 68 29 71 30 72 80 73 31 74 85 75 79 76
REMARK SMILES IDX 81 77 32 78 84 79 78 81 77 83 33 85 65 88 45 89 64 90 46 91
REMARK SMILES IDX 49 92 63 93 82 94 47 95 48 97 62 99 83 100 50 103 34 105
REMARK SMILES IDX 35 106 43 107 36 108 37 109 41 110 44 111 38 112 39 113
REMARK SMILES IDX 42 114 40 115 66 116 67 117 75 118 68 119 69 120 73 121
REMARK SMILES IDX 76 122 70 123 71 124 74 125 72 126 51 127 52 128 60 129
REMARK SMILES IDX 53 130 54 131 58 132 61 133 55 134 56 135 59 136 57 137
REMARK H PARENT 18 2 18 3 17 5 17 6 16 8 16 9 15 13 11 15 8 21 89 23 9 24
REMARK H PARENT 88 25 3 31 93 33 5 36 91 38 90 39 1 41 1 42 1 43 12 45 12 46
REMARK H PARENT 12 47 19 49 19 50 20 52 20 53 21 55 21 56 22 59 26 65 87 67
REMARK H PARENT 27 69 86 70 85 80 79 82 81 84 84 86 78 87 46 96 49 98 82 101
REMARK H PARENT 47 102 83 104
REMARK Flexibility Score: inf
ROOT
ATOM      1  C   UNL A   1      37.317  32.472  31.296  1.00  0.00    -0.052 C 
ATOM      2  H   UNL A   1      38.013  31.863  31.835  1.00  0.00     0.027 H 
ATOM      3  H   UNL A   1      37.325  32.299  30.241  1.00  0.00     0.027 H 
ENDROOT
BRANCH   1   4
ATOM      4  C   UNL A   1      37.723  33.937  31.488  1.00  0.00    -0.036 C 
ATOM      5  H   UNL A   1      38.742  34.049  31.177  1.00  0.00     0.028 H 
ATOM      6  H   UNL A   1      37.048  34.525  30.903  1.00  0.00     0.028 H 
BRANCH   4   7
ATOM      7  C   UNL A   1      37.605  34.431  32.932  1.00  0.00     0.017 C 
ATOM      8  H   UNL A   1      37.270  35.448  32.924  1.00  0.00     0.049 H 
ATOM      9  H   UNL A   1      36.907  33.800  33.443  1.00  0.00     0.049 H 
BRANCH   7  10
ATOM     10  N   UNL A   1      38.870  34.360  33.633  1.00  0.00    -0.356 N 
ATOM     11  C   UNL A   1      39.375  33.444  34.504  1.00  0.00     0.227 C 
ATOM     12  O   UNL A   1      40.474  33.712  35.005  1.00  0.00    -0.274 OA
ATOM     13  H   UNL A   1      39.476  35.113  33.444  1.00  0.00     0.163 HD
BRANCH  11  14
ATOM     14  C   UNL A   1      38.670  32.129  34.866  1.00  0.00     0.060 C 
ATOM     15  H   UNL A   1      37.910  31.993  34.124  1.00  0.00     0.045 H 
BRANCH  14  16
ATOM     16  C   UNL A   1      39.549  30.900  34.691  1.00  0.00    -0.036 A 
ATOM     17  C   UNL A   1      41.237  28.638  34.242  1.00  0.00    -0.018 A 
ATOM     18  C   UNL A   1      41.366  29.445  35.383  1.00  0.00    -0.054 A 
ATOM     19  C   UNL A   1      40.228  28.983  33.332  1.00  0.00    -0.054 A 
ATOM     20  C   UNL A   1      40.518  30.529  35.621  1.00  0.00    -0.058 A 
ATOM     21  H   UNL A   1      42.109  29.232  36.067  1.00  0.00     0.063 H 
ATOM     22  C   UNL A   1      39.411  30.104  33.542  1.00  0.00    -0.058 A 
ATOM     23  H   UNL A   1      40.085  28.402  32.491  1.00  0.00     0.063 H 
ATOM     24  H   UNL A   1      40.611  31.064  36.499  1.00  0.00     0.063 H 
ATOM     25  H   UNL A   1      38.696  30.347  32.840  1.00  0.00     0.063 H 
BRANCH  17  26
ATOM     26  C   UNL A   1      42.139  27.481  34.041  1.00  0.00    -0.018 A 
ATOM     27  C   UNL A   1      44.214  23.420  34.957  1.00  0.00     0.013 A 
ATOM     28  C   UNL A   1      43.144  24.087  35.513  1.00  0.00    -0.034 A 
ATOM     29  N   UNL A   1      44.668  24.179  33.905  1.00  0.00    -0.359 N 
ATOM     30  C   UNL A   1      42.956  25.291  34.785  1.00  0.00     0.000 A 
ATOM     31  H   UNL A   1      42.578  23.768  36.315  1.00  0.00     0.065 H 
ATOM     32  C   UNL A   1      43.925  25.332  33.788  1.00  0.00     0.046 A 
ATOM     33  H   UNL A   1      45.418  23.933  33.317  1.00  0.00     0.166 HD
ATOM     34  C   UNL A   1      42.050  26.360  34.892  1.00  0.00    -0.045 A 
ATOM     35  C   UNL A   1      44.029  26.401  32.892  1.00  0.00    -0.037 A 
ATOM     36  H   UNL A   1      41.305  26.324  35.607  1.00  0.00     0.064 H 
ATOM     37  C   UNL A   1      43.130  27.469  33.045  1.00  0.00    -0.052 A 
ATOM     38  H   UNL A   1      44.741  26.403  32.144  1.00  0.00     0.065 H 
ATOM     39  H   UNL A   1      43.199  28.274  32.403  1.00  0.00     0.063 H 
BRANCH  27  40
ATOM     40  C   UNL A   1      44.842  22.130  35.330  1.00  0.00    -0.024 C 
ATOM     41  H   UNL A   1      45.587  22.299  36.080  1.00  0.00     0.029 H 
ATOM     42  H   UNL A   1      45.299  21.693  34.466  1.00  0.00     0.029 H 
ATOM     43  H   UNL A   1      44.096  21.467  35.711  1.00  0.00     0.029 H 
ENDBRANCH  27  40
ENDBRANCH  17  26
ENDBRANCH  14  16
BRANCH  14  44
ATOM     44  C   UNL A   1      37.864  32.194  36.165  1.00  0.00    -0.049 C 
ATOM     45  H   UNL A   1      38.220  33.004  36.765  1.00  0.00     0.024 H 
ATOM     46  H   UNL A   1      37.977  31.275  36.701  1.00  0.00     0.024 H 
ATOM     47  H   UNL A   1      36.830  32.347  35.935  1.00  0.00     0.024 H 
ENDBRANCH  14  44
ENDBRANCH  11  14
ENDBRANCH   7  10
ENDBRANCH   4   7
ENDBRANCH   1   4
BRANCH   1  48
ATOM     48  C   UNL A   1      35.904  32.116  31.776  1.00  0.00    -0.052 C 
ATOM     49  H   UNL A   1      35.777  32.526  32.756  1.00  0.00     0.027 H 
ATOM     50  H   UNL A   1      35.843  31.048  31.742  1.00  0.00     0.027 H 
BRANCH  48  51
ATOM     51  C   UNL A   1      34.757  32.628  30.899  1.00  0.00    -0.036 C 
ATOM     52  H   UNL A   1      34.548  33.639  31.182  1.00  0.00     0.028 H 
ATOM     53  H   UNL A   1      33.935  31.964  31.062  1.00  0.00     0.028 H 
BRANCH  51  54
ATOM     54  C   UNL A   1      35.036  32.604  29.398  1.00  0.00     0.018 C 
ATOM     55  H   UNL A   1      36.088  32.479  29.244  1.00  0.00     0.049 H 
ATOM     56  H   UNL A   1      34.692  33.528  28.983  1.00  0.00     0.049 H 
BRANCH  54  57
ATOM     57  N   UNL A   1      34.332  31.521  28.732  1.00  0.00    -0.352 N 
ATOM     58  C   UNL A   1      34.816  30.358  28.189  1.00  0.00     0.251 C 
ATOM     59  H   UNL A   1      33.356  31.640  28.659  1.00  0.00     0.163 HD
ATOM     60  O   UNL A   1      34.097  29.665  27.477  1.00  0.00    -0.269 OA
BRANCH  58  61
ATOM     61  C   UNL A   1      36.209  29.935  28.450  1.00  0.00     0.039 A 
ATOM     62  C   UNL A   1      37.174  30.141  27.459  1.00  0.00    -0.049 A 
ATOM     63  C   UNL A   1      36.556  29.298  29.644  1.00  0.00    -0.049 A 
ATOM     64  C   UNL A   1      38.497  29.755  27.687  1.00  0.00    -0.053 A 
ATOM     65  H   UNL A   1      36.909  30.577  26.562  1.00  0.00     0.063 H 
ATOM     66  C   UNL A   1      37.887  28.971  29.896  1.00  0.00    -0.053 A 
ATOM     67  H   UNL A   1      35.828  29.071  30.339  1.00  0.00     0.063 H 
ATOM     68  C   UNL A   1      38.868  29.191  28.918  1.00  0.00    -0.014 A 
ATOM     69  H   UNL A   1      39.204  29.887  26.948  1.00  0.00     0.063 H 
ATOM     70  H   UNL A   1      38.152  28.564  30.807  1.00  0.00     0.063 H 
BRANCH  68  71
ATOM     71  C   UNL A   1      40.277  28.811  29.195  1.00  0.00     0.031 A 
ATOM     72  C   UNL A   1      41.182  29.759  29.930  1.00  0.00     0.074 A 
ATOM     73  C   UNL A   1      40.755  27.640  28.734  1.00  0.00     0.049 A 
ATOM     74  N   UNL A   1      42.459  29.646  30.199  1.00  0.00    -0.248 NA
ATOM     75  C   UNL A   1      40.578  31.013  30.406  1.00  0.00    -0.034 C 
ATOM     76  C   UNL A   1      39.986  26.653  27.977  1.00  0.00    -0.036 A 
ATOM     77  N   UNL A   1      42.008  27.088  28.824  1.00  0.00    -0.354 N 
ATOM     78  C   UNL A   1      42.811  30.815  30.860  1.00  0.00     0.074 A 
ATOM     79  C   UNL A   1      41.628  31.646  30.910  1.00  0.00    -0.034 C 
ATOM     80  H   UNL A   1      39.593  31.320  30.360  1.00  0.00     0.065 H 
ATOM     81  C   UNL A   1      40.778  25.607  27.687  1.00  0.00    -0.036 A 
ATOM     82  H   UNL A   1      38.994  26.745  27.709  1.00  0.00     0.065 H 
ATOM     83  C   UNL A   1      42.117  25.867  28.206  1.00  0.00     0.049 A 
ATOM     84  H   UNL A   1      42.758  27.526  29.288  1.00  0.00     0.167 HD
ATOM     85  C   UNL A   1      44.007  31.155  31.398  1.00  0.00     0.037 A 
ATOM     86  H   UNL A   1      41.603  32.606  31.288  1.00  0.00     0.065 H 
ATOM     87  H   UNL A   1      40.486  24.758  27.178  1.00  0.00     0.065 H 
ATOM     88  C   UNL A   1      43.180  25.052  28.068  1.00  0.00     0.037 A 
ATOM     89  C   UNL A   1      45.176  30.316  31.369  1.00  0.00     0.049 A 
ATOM     90  C   UNL A   1      44.499  25.457  28.667  1.00  0.00     0.074 A 
ATOM     91  C   UNL A   1      46.423  30.551  31.924  1.00  0.00    -0.036 A 
ATOM     92  N   UNL A   1      45.242  29.077  30.749  1.00  0.00    -0.354 N 
ATOM     93  N   UNL A   1      44.807  26.541  29.337  1.00  0.00    -0.248 NA
ATOM     94  C   UNL A   1      45.620  24.521  28.495  1.00  0.00    -0.034 C 
ATOM     95  C   UNL A   1      47.253  29.470  31.610  1.00  0.00    -0.036 A 
ATOM     96  H   UNL A   1      46.693  31.380  32.476  1.00  0.00     0.065 H 
ATOM     97  C   UNL A   1      46.512  28.542  30.896  1.00  0.00     0.049 A 
ATOM     98  H   UNL A   1      44.497  28.642  30.275  1.00  0.00     0.167 HD
ATOM     99  C   UNL A   1      46.142  26.405  29.692  1.00  0.00     0.074 A 
ATOM    100  C   UNL A   1      46.584  25.127  29.173  1.00  0.00    -0.034 C 
ATOM    101  H   UNL A   1      45.648  23.626  27.981  1.00  0.00     0.065 H 
ATOM    102  H   UNL A   1      48.249  29.379  31.867  1.00  0.00     0.065 H 
ATOM    103  C   UNL A   1      46.931  27.262  30.384  1.00  0.00     0.037 A 
ATOM    104  H   UNL A   1      47.529  24.738  29.313  1.00  0.00     0.065 H 
BRANCH  85 105
ATOM    105  C   UNL A   1      44.109  32.492  32.071  1.00  0.00     0.064 A 
ATOM    106  C   UNL A   1      43.809  32.652  33.433  1.00  0.00     0.173 A 
ATOM    107  C   UNL A   1      44.543  33.620  31.359  1.00  0.00     0.173 A 
ATOM    108  F   UNL A   1      43.380  31.607  34.156  1.00  0.00    -0.203 F 
ATOM    109  C   UNL A   1      43.913  33.897  34.049  1.00  0.00     0.198 A 
ATOM    110  C   UNL A   1      44.673  34.858  31.984  1.00  0.00     0.198 A 
ATOM    111  F   UNL A   1      44.848  33.522  30.056  1.00  0.00    -0.203 F 
ATOM    112  F   UNL A   1      43.576  34.034  35.338  1.00  0.00    -0.200 F 
ATOM    113  C   UNL A   1      44.351  34.997  33.327  1.00  0.00     0.200 A 
ATOM    114  F   UNL A   1      45.107  35.917  31.288  1.00  0.00    -0.200 F 
ATOM    115  F   UNL A   1      44.455  36.193  33.922  1.00  0.00    -0.200 F 
ENDBRANCH  85 105
BRANCH  88 116
ATOM    116  C   UNL A   1      43.036  23.756  27.355  1.00  0.00     0.064 A 
ATOM    117  C   UNL A   1      43.393  23.638  26.005  1.00  0.00     0.173 A 
ATOM    118  C   UNL A   1      42.534  22.617  28.001  1.00  0.00     0.173 A 
ATOM    119  F   UNL A   1      43.857  24.706  25.340  1.00  0.00    -0.203 F 
ATOM    120  C   UNL A   1      43.235  22.435  25.321  1.00  0.00     0.198 A 
ATOM    121  C   UNL A   1      42.401  21.407  27.323  1.00  0.00     0.198 A 
ATOM    122  F   UNL A   1      42.182  22.677  29.293  1.00  0.00    -0.203 F 
ATOM    123  F   UNL A   1      43.542  22.361  24.019  1.00  0.00    -0.200 F 
ATOM    124  C   UNL A   1      42.744  21.318  25.982  1.00  0.00     0.200 A 
ATOM    125  F   UNL A   1      41.938  20.328  27.968  1.00  0.00    -0.200 F 
ATOM    126  F   UNL A   1      42.594  20.161  25.325  1.00  0.00    -0.200 F 
ENDBRANCH  88 116
BRANCH 103 127
ATOM    127  C   UNL A   1      48.341  26.829  30.657  1.00  0.00     0.064 A 
ATOM    128  C   UNL A   1      48.660  26.006  31.746  1.00  0.00     0.173 A 
ATOM    129  C   UNL A   1      49.379  27.213  29.795  1.00  0.00     0.173 A 
ATOM    130  F   UNL A   1      47.704  25.625  32.607  1.00  0.00    -0.203 F 
ATOM    131  C   UNL A   1      49.972  25.601  31.976  1.00  0.00     0.198 A 
ATOM    132  C   UNL A   1      50.685  26.785  30.013  1.00  0.00     0.198 A 
ATOM    133  F   UNL A   1      49.125  27.996  28.736  1.00  0.00    -0.203 F 
ATOM    134  F   UNL A   1      50.261  24.850  33.048  1.00  0.00    -0.200 F 
ATOM    135  C   UNL A   1      50.981  25.985  31.106  1.00  0.00     0.200 A 
ATOM    136  F   UNL A   1      51.658  27.147  29.164  1.00  0.00    -0.200 F 
ATOM    137  F   UNL A   1      52.244  25.589  31.326  1.00  0.00    -0.200 F 
ENDBRANCH 103 127
ENDBRANCH  68  71
ENDBRANCH  58  61
ENDBRANCH  54  57
ENDBRANCH  51  54
ENDBRANCH  48  51
ENDBRANCH   1  48
TORSDOF 17
ENDMDL
MODEL 9
REMARK VINA RESULT:     -11.7      1.805      5.348
REMARK SMILES Cc1cc2cc(-c3ccc([C@@H](C)C(=O)NCCCCCCNC(=O)c4ccc(-c5c6nc(c(-c7c(F)c(F)c(F)c(F)c7F)c7ccc([nH]7)c(-c7c(F)c(F)c(F)c(F)c7F)c7nc(c(-c8c(F)c(F)c(F)c(F)c8F)c8ccc5[nH]8)C=C7)C=C6)cc4)cc3)ccc2[nH]1
REMARK SMILES IDX 18 1 17 4 16 7 15 10 13 11 14 12 11 14 10 16 7 17 8 18 89 19
REMARK SMILES IDX 9 20 88 22 6 26 2 27 3 28 93 29 4 30 92 32 5 34 91 35 90 37
REMARK SMILES IDX 1 40 12 44 19 48 20 51 21 54 22 57 23 58 24 60 25 61 26 62
REMARK SMILES IDX 87 63 27 64 86 66 28 68 29 71 30 72 80 73 31 74 85 75 79 76
REMARK SMILES IDX 81 77 32 78 84 79 78 81 77 83 33 85 65 88 45 89 64 90 46 91
REMARK SMILES IDX 49 92 63 93 82 94 47 95 48 97 62 99 83 100 50 103 34 105
REMARK SMILES IDX 35 106 43 107 36 108 37 109 41 110 44 111 38 112 39 113
REMARK SMILES IDX 42 114 40 115 66 116 67 117 75 118 68 119 69 120 73 121
REMARK SMILES IDX 76 122 70 123 71 124 74 125 72 126 51 127 52 128 60 129
REMARK SMILES IDX 53 130 54 131 58 132 61 133 55 134 56 135 59 136 57 137
REMARK H PARENT 18 2 18 3 17 5 17 6 16 8 16 9 15 13 11 15 8 21 89 23 9 24
REMARK H PARENT 88 25 3 31 93 33 5 36 91 38 90 39 1 41 1 42 1 43 12 45 12 46
REMARK H PARENT 12 47 19 49 19 50 20 52 20 53 21 55 21 56 22 59 26 65 87 67
REMARK H PARENT 27 69 86 70 85 80 79 82 81 84 84 86 78 87 46 96 49 98 82 101
REMARK H PARENT 47 102 83 104
REMARK Flexibility Score: inf
ROOT
ATOM      1  C   UNL A   1      30.826  28.390  23.562  1.00  0.00    -0.052 C 
ATOM      2  H   UNL A   1      30.163  29.150  23.918  1.00  0.00     0.027 H 
ATOM      3  H   UNL A   1      30.608  28.063  22.567  1.00  0.00     0.027 H 
ENDROOT
BRANCH   1   4
ATOM      4  C   UNL A   1      30.662  27.159  24.459  1.00  0.00    -0.036 C 
ATOM      5  H   UNL A   1      31.631  26.736  24.632  1.00  0.00     0.028 H 
ATOM      6  H   UNL A   1      30.192  27.492  25.360  1.00  0.00     0.028 H 
BRANCH   4   7
ATOM      7  C   UNL A   1      29.763  26.072  23.865  1.00  0.00     0.017 C 
ATOM      8  H   UNL A   1      28.774  26.189  24.257  1.00  0.00     0.049 H 
ATOM      9  H   UNL A   1      29.770  26.180  22.800  1.00  0.00     0.049 H 
BRANCH   7  10
ATOM     10  N   UNL A   1      30.239  24.743  24.184  1.00  0.00    -0.356 N 
ATOM     11  C   UNL A   1      31.408  24.107  23.904  1.00  0.00     0.227 C 
ATOM     12  O   UNL A   1      31.484  22.920  24.249  1.00  0.00    -0.274 OA
ATOM     13  H   UNL A   1      29.598  24.200  24.699  1.00  0.00     0.163 HD
BRANCH  11  14
ATOM     14  C   UNL A   1      32.605  24.780  23.215  1.00  0.00     0.060 C 
ATOM     15  H   UNL A   1      32.519  25.823  23.439  1.00  0.00     0.045 H 
BRANCH  14  16
ATOM     16  C   UNL A   1      33.947  24.404  23.824  1.00  0.00    -0.036 A 
ATOM     17  C   UNL A   1      36.403  23.643  25.073  1.00  0.00    -0.018 A 
ATOM     18  C   UNL A   1      36.093  23.268  23.756  1.00  0.00    -0.054 A 
ATOM     19  C   UNL A   1      35.456  24.425  25.750  1.00  0.00    -0.054 A 
ATOM     20  C   UNL A   1      34.909  23.670  23.133  1.00  0.00    -0.058 A 
ATOM     21  H   UNL A   1      36.758  22.678  23.233  1.00  0.00     0.063 H 
ATOM     22  C   UNL A   1      34.242  24.783  25.144  1.00  0.00    -0.058 A 
ATOM     23  H   UNL A   1      35.655  24.740  26.711  1.00  0.00     0.063 H 
ATOM     24  H   UNL A   1      34.744  23.419  22.146  1.00  0.00     0.063 H 
ATOM     25  H   UNL A   1      33.554  25.336  25.679  1.00  0.00     0.063 H 
BRANCH  17  26
ATOM     26  C   UNL A   1      37.682  23.219  25.687  1.00  0.00    -0.018 A 
ATOM     27  C   UNL A   1      41.096  20.339  26.986  1.00  0.00     0.013 A 
ATOM     28  C   UNL A   1      40.007  20.206  26.152  1.00  0.00    -0.034 A 
ATOM     29  N   UNL A   1      41.102  21.632  27.450  1.00  0.00    -0.359 N 
ATOM     30  C   UNL A   1      39.326  21.451  26.125  1.00  0.00     0.000 A 
ATOM     31  H   UNL A   1      39.735  19.354  25.638  1.00  0.00     0.065 H 
ATOM     32  C   UNL A   1      40.023  22.327  26.950  1.00  0.00     0.046 A 
ATOM     33  H   UNL A   1      41.780  22.010  28.055  1.00  0.00     0.166 HD
ATOM     34  C   UNL A   1      38.165  21.911  25.477  1.00  0.00    -0.045 A 
ATOM     35  C   UNL A   1      39.609  23.647  27.157  1.00  0.00    -0.037 A 
ATOM     36  H   UNL A   1      37.659  21.279  24.836  1.00  0.00     0.064 H 
ATOM     37  C   UNL A   1      38.428  24.067  26.522  1.00  0.00    -0.052 A 
ATOM     38  H   UNL A   1      40.152  24.289  27.756  1.00  0.00     0.065 H 
ATOM     39  H   UNL A   1      38.098  25.032  26.674  1.00  0.00     0.063 H 
BRANCH  27  40
ATOM     40  C   UNL A   1      42.133  19.354  27.378  1.00  0.00    -0.024 C 
ATOM     41  H   UNL A   1      41.874  18.391  26.990  1.00  0.00     0.029 H 
ATOM     42  H   UNL A   1      42.191  19.305  28.446  1.00  0.00     0.029 H 
ATOM     43  H   UNL A   1      43.079  19.656  26.983  1.00  0.00     0.029 H 
ENDBRANCH  27  40
ENDBRANCH  17  26
ENDBRANCH  14  16
BRANCH  14  44
ATOM     44  C   UNL A   1      32.536  24.757  21.687  1.00  0.00    -0.049 C 
ATOM     45  H   UNL A   1      33.517  24.895  21.283  1.00  0.00     0.024 H 
ATOM     46  H   UNL A   1      31.895  25.544  21.347  1.00  0.00     0.024 H 
ATOM     47  H   UNL A   1      32.146  23.815  21.363  1.00  0.00     0.024 H 
ENDBRANCH  14  44
ENDBRANCH  11  14
ENDBRANCH   7  10
ENDBRANCH   4   7
ENDBRANCH   1   4
BRANCH   1  48
ATOM     48  C   UNL A   1      32.242  28.981  23.514  1.00  0.00    -0.052 C 
ATOM     49  H   UNL A   1      32.215  29.938  23.991  1.00  0.00     0.027 H 
ATOM     50  H   UNL A   1      32.508  29.020  22.479  1.00  0.00     0.027 H 
BRANCH  48  51
ATOM     51  C   UNL A   1      33.331  28.146  24.195  1.00  0.00    -0.036 C 
ATOM     52  H   UNL A   1      34.081  27.920  23.465  1.00  0.00     0.028 H 
ATOM     53  H   UNL A   1      32.844  27.277  24.583  1.00  0.00     0.028 H 
BRANCH  51  54
ATOM     54  C   UNL A   1      34.013  28.822  25.382  1.00  0.00     0.018 C 
ATOM     55  H   UNL A   1      35.018  29.067  25.109  1.00  0.00     0.049 H 
ATOM     56  H   UNL A   1      33.991  28.142  26.207  1.00  0.00     0.049 H 
BRANCH  54  57
ATOM     57  N   UNL A   1      33.325  30.038  25.783  1.00  0.00    -0.352 N 
ATOM     58  C   UNL A   1      33.543  30.859  26.861  1.00  0.00     0.251 C 
ATOM     59  H   UNL A   1      32.589  30.317  25.189  1.00  0.00     0.163 HD
ATOM     60  O   UNL A   1      32.722  31.721  27.154  1.00  0.00    -0.269 OA
BRANCH  58  61
ATOM     61  C   UNL A   1      34.763  30.704  27.683  1.00  0.00     0.039 A 
ATOM     62  C   UNL A   1      34.974  29.498  28.357  1.00  0.00    -0.049 A 
ATOM     63  C   UNL A   1      35.673  31.755  27.826  1.00  0.00    -0.049 A 
ATOM     64  C   UNL A   1      36.123  29.328  29.134  1.00  0.00    -0.053 A 
ATOM     65  H   UNL A   1      34.282  28.735  28.282  1.00  0.00     0.063 H 
ATOM     66  C   UNL A   1      36.848  31.564  28.550  1.00  0.00    -0.053 A 
ATOM     67  H   UNL A   1      35.474  32.672  27.397  1.00  0.00     0.063 H 
ATOM     68  C   UNL A   1      37.081  30.350  29.215  1.00  0.00    -0.014 A 
ATOM     69  H   UNL A   1      36.267  28.446  29.650  1.00  0.00     0.063 H 
ATOM     70  H   UNL A   1      37.551  32.318  28.596  1.00  0.00     0.063 H 
BRANCH  68  71
ATOM     71  C   UNL A   1      38.328  30.175  30.002  1.00  0.00     0.031 A 
ATOM     72  C   UNL A   1      39.476  29.390  29.431  1.00  0.00     0.074 A 
ATOM     73  C   UNL A   1      38.403  30.671  31.251  1.00  0.00     0.049 A 
ATOM     74  N   UNL A   1      40.613  29.060  29.990  1.00  0.00    -0.248 NA
ATOM     75  C   UNL A   1      39.314  28.890  28.057  1.00  0.00    -0.034 C 
ATOM     76  C   UNL A   1      37.344  31.419  31.929  1.00  0.00    -0.036 A 
ATOM     77  N   UNL A   1      39.413  30.610  32.179  1.00  0.00    -0.354 N 
ATOM     78  C   UNL A   1      41.292  28.304  29.044  1.00  0.00     0.074 A 
ATOM     79  C   UNL A   1      40.422  28.183  27.894  1.00  0.00    -0.034 C 
ATOM     80  H   UNL A   1      38.539  29.049  27.393  1.00  0.00     0.065 H 
ATOM     81  C   UNL A   1      37.765  31.762  33.157  1.00  0.00    -0.036 A 
ATOM     82  H   UNL A   1      36.420  31.645  31.527  1.00  0.00     0.065 H 
ATOM     83  C   UNL A   1      39.108  31.230  33.365  1.00  0.00     0.049 A 
ATOM     84  H   UNL A   1      40.274  30.164  32.010  1.00  0.00     0.167 HD
ATOM     85  C   UNL A   1      42.539  27.778  29.118  1.00  0.00     0.037 A 
ATOM     86  H   UNL A   1      40.636  27.620  27.056  1.00  0.00     0.065 H 
ATOM     87  H   UNL A   1      37.225  32.314  33.843  1.00  0.00     0.065 H 
ATOM     88  C   UNL A   1      39.829  31.349  34.496  1.00  0.00     0.037 A 
ATOM     89  C   UNL A   1      43.412  27.920  30.253  1.00  0.00     0.049 A 
ATOM     90  C   UNL A   1      41.207  30.748  34.556  1.00  0.00     0.074 A 
ATOM     91  C   UNL A   1      44.709  27.463  30.409  1.00  0.00    -0.036 A 
ATOM     92  N   UNL A   1      43.074  28.571  31.430  1.00  0.00    -0.354 N 
ATOM     93  N   UNL A   1      41.860  30.081  33.635  1.00  0.00    -0.248 NA
ATOM     94  C   UNL A   1      41.951  30.921  35.812  1.00  0.00    -0.034 C 
ATOM     95  C   UNL A   1      45.144  27.807  31.693  1.00  0.00    -0.036 A 
ATOM     96  H   UNL A   1      45.261  26.957  29.699  1.00  0.00     0.065 H 
ATOM     97  C   UNL A   1      44.134  28.516  32.322  1.00  0.00     0.049 A 
ATOM     98  H   UNL A   1      42.210  29.009  31.606  1.00  0.00     0.167 HD
ATOM     99  C   UNL A   1      43.099  29.783  34.187  1.00  0.00     0.074 A 
ATOM    100  C   UNL A   1      43.111  30.351  35.519  1.00  0.00    -0.034 C 
ATOM    101  H   UNL A   1      41.648  31.369  36.692  1.00  0.00     0.065 H 
ATOM    102  H   UNL A   1      46.063  27.573  32.102  1.00  0.00     0.065 H 
ATOM    103  C   UNL A   1      44.133  29.099  33.640  1.00  0.00     0.037 A 
ATOM    104  H   UNL A   1      43.920  30.316  36.159  1.00  0.00     0.065 H 
BRANCH  85 105
ATOM    105  C   UNL A   1      43.035  27.003  27.933  1.00  0.00     0.064 A 
ATOM    106  C   UNL A   1      42.820  25.621  27.818  1.00  0.00     0.173 A 
ATOM    107  C   UNL A   1      43.703  27.652  26.883  1.00  0.00     0.173 A 
ATOM    108  F   UNL A   1      42.197  24.952  28.799  1.00  0.00    -0.203 F 
ATOM    109  C   UNL A   1      43.281  24.913  26.711  1.00  0.00     0.198 A 
ATOM    110  C   UNL A   1      44.137  26.946  25.764  1.00  0.00     0.198 A 
ATOM    111  F   UNL A   1      43.929  28.973  26.939  1.00  0.00    -0.203 F 
ATOM    112  F   UNL A   1      43.105  23.586  26.646  1.00  0.00    -0.200 F 
ATOM    113  C   UNL A   1      43.932  25.576  25.682  1.00  0.00     0.200 A 
ATOM    114  F   UNL A   1      44.756  27.590  24.765  1.00  0.00    -0.200 F 
ATOM    115  F   UNL A   1      44.370  24.895  24.614  1.00  0.00    -0.200 F 
ENDBRANCH  85 105
BRANCH  88 116
ATOM    116  C   UNL A   1      39.273  32.090  35.658  1.00  0.00     0.064 A 
ATOM    117  C   UNL A   1      39.560  33.450  35.844  1.00  0.00     0.173 A 
ATOM    118  C   UNL A   1      38.454  31.459  36.605  1.00  0.00     0.173 A 
ATOM    119  F   UNL A   1      40.356  34.090  34.976  1.00  0.00    -0.203 F 
ATOM    120  C   UNL A   1      39.066  34.146  36.945  1.00  0.00     0.198 A 
ATOM    121  C   UNL A   1      37.939  32.163  37.692  1.00  0.00     0.198 A 
ATOM    122  F   UNL A   1      38.148  30.161  36.470  1.00  0.00    -0.203 F 
ATOM    123  F   UNL A   1      39.393  35.433  37.122  1.00  0.00    -0.200 F 
ATOM    124  C   UNL A   1      38.252  33.503  37.865  1.00  0.00     0.200 A 
ATOM    125  F   UNL A   1      37.142  31.542  38.572  1.00  0.00    -0.200 F 
ATOM    126  F   UNL A   1      37.775  34.173  38.923  1.00  0.00    -0.200 F 
ENDBRANCH  88 116
BRANCH 103 127
ATOM    127  C   UNL A   1      45.379  28.962  34.464  1.00  0.00     0.064 A 
ATOM    128  C   UNL A   1      46.381  29.942  34.450  1.00  0.00     0.173 A 
ATOM    129  C   UNL A   1      45.553  27.853  35.305  1.00  0.00     0.173 A 
ATOM    130  F   UNL A   1      46.267  31.013  33.649  1.00  0.00    -0.203 F 
ATOM    131  C   UNL A   1      47.524  29.806  35.232  1.00  0.00     0.198 A 
ATOM    132  C   UNL A   1      46.685  27.734  36.107  1.00  0.00     0.198 A 
ATOM    133  F   UNL A   1      44.620  26.891  35.359  1.00  0.00    -0.203 F 
ATOM    134  F   UNL A   1      48.490  30.734  35.171  1.00  0.00    -0.200 F 
ATOM    135  C   UNL A   1      47.672  28.707  36.065  1.00  0.00     0.200 A 
ATOM    136  F   UNL A   1      46.820  26.676  36.920  1.00  0.00    -0.200 F 
ATOM    137  F   UNL A   1      48.771  28.580  36.822  1.00  0.00    -0.200 F 
ENDBRANCH 103 127
ENDBRANCH  68  71
ENDBRANCH  58  61
ENDBRANCH  54  57
ENDBRANCH  51  54
ENDBRANCH  48  51
ENDBRANCH   1  48
TORSDOF 17
ENDMDL
MODEL 10
REMARK VINA RESULT:     -11.6      5.167      8.501
REMARK SMILES Cc1cc2cc(-c3ccc([C@@H](C)C(=O)NCCCCCCNC(=O)c4ccc(-c5c6nc(c(-c7c(F)c(F)c(F)c(F)c7F)c7ccc([nH]7)c(-c7c(F)c(F)c(F)c(F)c7F)c7nc(c(-c8c(F)c(F)c(F)c(F)c8F)c8ccc5[nH]8)C=C7)C=C6)cc4)cc3)ccc2[nH]1
REMARK SMILES IDX 18 1 17 4 16 7 15 10 13 11 14 12 11 14 10 16 7 17 8 18 89 19
REMARK SMILES IDX 9 20 88 22 6 26 2 27 3 28 93 29 4 30 92 32 5 34 91 35 90 37
REMARK SMILES IDX 1 40 12 44 19 48 20 51 21 54 22 57 23 58 24 60 25 61 26 62
REMARK SMILES IDX 87 63 27 64 86 66 28 68 29 71 30 72 80 73 31 74 85 75 79 76
REMARK SMILES IDX 81 77 32 78 84 79 78 81 77 83 33 85 65 88 45 89 64 90 46 91
REMARK SMILES IDX 49 92 63 93 82 94 47 95 48 97 62 99 83 100 50 103 34 105
REMARK SMILES IDX 35 106 43 107 36 108 37 109 41 110 44 111 38 112 39 113
REMARK SMILES IDX 42 114 40 115 66 116 67 117 75 118 68 119 69 120 73 121
REMARK SMILES IDX 76 122 70 123 71 124 74 125 72 126 51 127 52 128 60 129
REMARK SMILES IDX 53 130 54 131 58 132 61 133 55 134 56 135 59 136 57 137
REMARK H PARENT 18 2 18 3 17 5 17 6 16 8 16 9 15 13 11 15 8 21 89 23 9 24
REMARK H PARENT 88 25 3 31 93 33 5 36 91 38 90 39 1 41 1 42 1 43 12 45 12 46
REMARK H PARENT 12 47 19 49 19 50 20 52 20 53 21 55 21 56 22 59 26 65 87 67
REMARK H PARENT 27 69 86 70 85 80 79 82 81 84 84 86 78 87 46 96 49 98 82 101
REMARK H PARENT 47 102 83 104
REMARK Flexibility Score: inf
ROOT
ATOM      1  C   UNL A   1      39.756  21.701  26.360  1.00  0.00    -0.052 C 
ATOM      2  H   UNL A   1      39.707  21.599  25.295  1.00  0.00     0.027 H 
ATOM      3  H   UNL A   1      38.910  21.288  26.868  1.00  0.00     0.027 H 
ENDROOT
BRANCH   1   4
ATOM      4  C   UNL A   1      39.761  23.197  26.692  1.00  0.00    -0.036 C 
ATOM      5  H   UNL A   1      40.093  23.316  27.704  1.00  0.00     0.028 H 
ATOM      6  H   UNL A   1      40.413  23.669  25.988  1.00  0.00     0.028 H 
BRANCH   4   7
ATOM      7  C   UNL A   1      38.394  23.870  26.552  1.00  0.00     0.017 C 
ATOM      8  H   UNL A   1      37.738  23.478  27.301  1.00  0.00     0.049 H 
ATOM      9  H   UNL A   1      38.529  24.925  26.672  1.00  0.00     0.049 H 
BRANCH   7  10
ATOM     10  N   UNL A   1      37.808  23.637  25.249  1.00  0.00    -0.356 N 
ATOM     11  C   UNL A   1      36.536  23.343  24.866  1.00  0.00     0.227 C 
ATOM     12  O   UNL A   1      36.365  23.116  23.661  1.00  0.00    -0.274 OA
ATOM     13  H   UNL A   1      38.448  23.705  24.503  1.00  0.00     0.163 HD
BRANCH  11  14
ATOM     14  C   UNL A   1      35.340  23.299  25.829  1.00  0.00     0.060 C 
ATOM     15  H   UNL A   1      35.663  23.806  26.715  1.00  0.00     0.045 H 
BRANCH  14  16
ATOM     16  C   UNL A   1      34.155  24.131  25.365  1.00  0.00    -0.036 A 
ATOM     17  C   UNL A   1      32.007  25.751  24.401  1.00  0.00    -0.018 A 
ATOM     18  C   UNL A   1      31.900  24.354  24.490  1.00  0.00    -0.054 A 
ATOM     19  C   UNL A   1      33.216  26.324  24.821  1.00  0.00    -0.054 A 
ATOM     20  C   UNL A   1      32.937  23.565  24.995  1.00  0.00    -0.058 A 
ATOM     21  H   UNL A   1      31.032  23.896  24.174  1.00  0.00     0.063 H 
ATOM     22  C   UNL A   1      34.277  25.528  25.277  1.00  0.00    -0.058 A 
ATOM     23  H   UNL A   1      33.327  27.349  24.793  1.00  0.00     0.063 H 
ATOM     24  H   UNL A   1      32.798  22.547  25.095  1.00  0.00     0.063 H 
ATOM     25  H   UNL A   1      35.164  25.977  25.553  1.00  0.00     0.063 H 
BRANCH  17  26
ATOM     26  C   UNL A   1      30.874  26.554  23.885  1.00  0.00    -0.018 A 
ATOM     27  C   UNL A   1      28.687  30.139  21.886  1.00  0.00     0.013 A 
ATOM     28  C   UNL A   1      30.012  29.777  21.998  1.00  0.00    -0.034 A 
ATOM     29  N   UNL A   1      27.941  29.157  22.493  1.00  0.00    -0.359 N 
ATOM     30  C   UNL A   1      30.069  28.549  22.707  1.00  0.00     0.000 A 
ATOM     31  H   UNL A   1      30.820  30.305  21.632  1.00  0.00     0.065 H 
ATOM     32  C   UNL A   1      28.763  28.182  23.013  1.00  0.00     0.046 A 
ATOM     33  H   UNL A   1      26.959  29.150  22.548  1.00  0.00     0.166 HD
ATOM     34  C   UNL A   1      31.122  27.717  23.127  1.00  0.00    -0.045 A 
ATOM     35  C   UNL A   1      28.462  27.017  23.726  1.00  0.00    -0.037 A 
ATOM     36  H   UNL A   1      32.093  27.962  22.876  1.00  0.00     0.064 H 
ATOM     37  C   UNL A   1      29.537  26.223  24.160  1.00  0.00    -0.052 A 
ATOM     38  H   UNL A   1      27.485  26.750  23.924  1.00  0.00     0.065 H 
ATOM     39  H   UNL A   1      29.337  25.367  24.699  1.00  0.00     0.063 H 
BRANCH  27  40
ATOM     40  C   UNL A   1      28.064  31.327  21.254  1.00  0.00    -0.024 C 
ATOM     41  H   UNL A   1      27.769  32.021  22.013  1.00  0.00     0.029 H 
ATOM     42  H   UNL A   1      27.204  31.023  20.695  1.00  0.00     0.029 H 
ATOM     43  H   UNL A   1      28.769  31.793  20.599  1.00  0.00     0.029 H 
ENDBRANCH  27  40
ENDBRANCH  17  26
ENDBRANCH  14  16
BRANCH  14  44
ATOM     44  C   UNL A   1      35.011  21.897  26.345  1.00  0.00    -0.049 C 
ATOM     45  H   UNL A   1      34.251  21.963  27.095  1.00  0.00     0.024 H 
ATOM     46  H   UNL A   1      35.891  21.456  26.766  1.00  0.00     0.024 H 
ATOM     47  H   UNL A   1      34.662  21.292  25.535  1.00  0.00     0.024 H 
ENDBRANCH  14  44
ENDBRANCH  11  14
ENDBRANCH   7  10
ENDBRANCH   4   7
ENDBRANCH   1   4
BRANCH   1  48
ATOM     48  C   UNL A   1      40.977  20.916  26.856  1.00  0.00    -0.052 C 
ATOM     49  H   UNL A   1      40.772  20.585  27.852  1.00  0.00     0.027 H 
ATOM     50  H   UNL A   1      41.806  21.588  26.784  1.00  0.00     0.027 H 
BRANCH  48  51
ATOM     51  C   UNL A   1      41.359  19.689  26.021  1.00  0.00    -0.036 C 
ATOM     52  H   UNL A   1      41.421  19.990  24.996  1.00  0.00     0.028 H 
ATOM     53  H   UNL A   1      40.602  18.955  26.202  1.00  0.00     0.028 H 
BRANCH  51  54
ATOM     54  C   UNL A   1      42.687  19.039  26.405  1.00  0.00     0.018 C 
ATOM     55  H   UNL A   1      42.487  18.118  26.911  1.00  0.00     0.049 H 
ATOM     56  H   UNL A   1      43.218  19.720  27.036  1.00  0.00     0.049 H 
BRANCH  54  57
ATOM     57  N   UNL A   1      43.514  18.766  25.241  1.00  0.00    -0.352 N 
ATOM     58  C   UNL A   1      44.244  19.624  24.458  1.00  0.00     0.251 C 
ATOM     59  H   UNL A   1      43.558  17.818  24.973  1.00  0.00     0.163 HD
ATOM     60  O   UNL A   1      44.706  19.239  23.389  1.00  0.00    -0.269 OA
BRANCH  58  61
ATOM     61  C   UNL A   1      44.472  21.020  24.891  1.00  0.00     0.039 A 
ATOM     62  C   UNL A   1      43.966  22.061  24.107  1.00  0.00    -0.049 A 
ATOM     63  C   UNL A   1      45.216  21.305  26.039  1.00  0.00    -0.049 A 
ATOM     64  C   UNL A   1      44.164  23.387  24.501  1.00  0.00    -0.053 A 
ATOM     65  H   UNL A   1      43.449  21.850  23.239  1.00  0.00     0.063 H 
ATOM     66  C   UNL A   1      45.359  22.624  26.464  1.00  0.00    -0.053 A 
ATOM     67  H   UNL A   1      45.660  20.540  26.570  1.00  0.00     0.063 H 
ATOM     68  C   UNL A   1      44.840  23.677  25.697  1.00  0.00    -0.014 A 
ATOM     69  H   UNL A   1      43.810  24.155  23.910  1.00  0.00     0.063 H 
ATOM     70  H   UNL A   1      45.850  22.828  27.349  1.00  0.00     0.063 H 
BRANCH  68  71
ATOM     71  C   UNL A   1      45.025  25.078  26.154  1.00  0.00     0.031 A 
ATOM     72  C   UNL A   1      46.383  25.718  26.088  1.00  0.00     0.074 A 
ATOM     73  C   UNL A   1      43.986  25.750  26.683  1.00  0.00     0.049 A 
ATOM     74  N   UNL A   1      46.765  26.898  26.509  1.00  0.00    -0.248 NA
ATOM     75  C   UNL A   1      47.462  24.918  25.488  1.00  0.00    -0.034 C 
ATOM     76  C   UNL A   1      42.629  25.224  26.835  1.00  0.00    -0.036 A 
ATOM     77  N   UNL A   1      43.911  27.018  27.203  1.00  0.00    -0.354 N 
ATOM     78  C   UNL A   1      48.124  26.974  26.240  1.00  0.00     0.074 A 
ATOM     79  C   UNL A   1      48.513  25.705  25.664  1.00  0.00    -0.034 C 
ATOM     80  H   UNL A   1      47.413  23.986  25.047  1.00  0.00     0.065 H 
ATOM     81  C   UNL A   1      41.852  26.167  27.393  1.00  0.00    -0.036 A 
ATOM     82  H   UNL A   1      42.318  24.279  26.558  1.00  0.00     0.065 H 
ATOM     83  C   UNL A   1      42.663  27.349  27.669  1.00  0.00     0.049 A 
ATOM     84  H   UNL A   1      44.680  27.632  27.238  1.00  0.00     0.167 HD
ATOM     85  C   UNL A   1      48.969  28.015  26.435  1.00  0.00     0.037 A 
ATOM     86  H   UNL A   1      49.482  25.446  25.421  1.00  0.00     0.065 H 
ATOM     87  H   UNL A   1      40.844  26.071  27.594  1.00  0.00     0.065 H 
ATOM     88  C   UNL A   1      42.225  28.477  28.260  1.00  0.00     0.037 A 
ATOM     89  C   UNL A   1      48.574  29.285  26.986  1.00  0.00     0.049 A 
ATOM     90  C   UNL A   1      43.185  29.616  28.472  1.00  0.00     0.074 A 
ATOM     91  C   UNL A   1      49.344  30.419  27.181  1.00  0.00    -0.036 A 
ATOM     92  N   UNL A   1      47.296  29.589  27.430  1.00  0.00    -0.354 N 
ATOM     93  N   UNL A   1      44.456  29.696  28.165  1.00  0.00    -0.248 NA
ATOM     94  C   UNL A   1      42.645  30.826  29.110  1.00  0.00    -0.034 C 
ATOM     95  C   UNL A   1      48.540  31.398  27.776  1.00  0.00    -0.036 A 
ATOM     96  H   UNL A   1      50.339  30.525  26.930  1.00  0.00     0.065 H 
ATOM     97  C   UNL A   1      47.259  30.888  27.911  1.00  0.00     0.049 A 
ATOM     98  H   UNL A   1      46.528  28.974  27.406  1.00  0.00     0.167 HD
ATOM     99  C   UNL A   1      44.861  30.969  28.541  1.00  0.00     0.074 A 
ATOM    100  C   UNL A   1      43.697  31.632  29.090  1.00  0.00    -0.034 C 
ATOM    101  H   UNL A   1      41.696  31.001  29.477  1.00  0.00     0.065 H 
ATOM    102  H   UNL A   1      48.850  32.339  28.064  1.00  0.00     0.065 H 
ATOM    103  C   UNL A   1      46.087  31.537  28.442  1.00  0.00     0.037 A 
ATOM    104  H   UNL A   1      43.687  32.608  29.425  1.00  0.00     0.065 H 
BRANCH  85 105
ATOM    105  C   UNL A   1      50.404  27.826  26.042  1.00  0.00     0.064 A 
ATOM    106  C   UNL A   1      50.822  27.955  24.708  1.00  0.00     0.173 A 
ATOM    107  C   UNL A   1      51.380  27.549  27.010  1.00  0.00     0.173 A 
ATOM    108  F   UNL A   1      49.926  28.210  23.742  1.00  0.00    -0.203 F 
ATOM    109  C   UNL A   1      52.158  27.784  24.355  1.00  0.00     0.198 A 
ATOM    110  C   UNL A   1      52.720  27.405  26.658  1.00  0.00     0.198 A 
ATOM    111  F   UNL A   1      51.036  27.422  28.300  1.00  0.00    -0.203 F 
ATOM    112  F   UNL A   1      52.525  27.864  23.069  1.00  0.00    -0.200 F 
ATOM    113  C   UNL A   1      53.107  27.516  25.330  1.00  0.00     0.200 A 
ATOM    114  F   UNL A   1      53.637  27.158  27.604  1.00  0.00    -0.200 F 
ATOM    115  F   UNL A   1      54.393  27.357  24.990  1.00  0.00    -0.200 F 
ENDBRANCH  85 105
BRANCH  88 116
ATOM    116  C   UNL A   1      40.802  28.597  28.669  1.00  0.00     0.064 A 
ATOM    117  C   UNL A   1      39.834  29.065  27.769  1.00  0.00     0.173 A 
ATOM    118  C   UNL A   1      40.381  28.256  29.963  1.00  0.00     0.173 A 
ATOM    119  F   UNL A   1      40.193  29.423  26.528  1.00  0.00    -0.203 F 
ATOM    120  C   UNL A   1      38.503  29.207  28.153  1.00  0.00     0.198 A 
ATOM    121  C   UNL A   1      39.044  28.373  30.338  1.00  0.00     0.198 A 
ATOM    122  F   UNL A   1      41.266  27.800  30.859  1.00  0.00    -0.203 F 
ATOM    123  F   UNL A   1      37.607  29.699  27.286  1.00  0.00    -0.200 F 
ATOM    124  C   UNL A   1      38.107  28.856  29.435  1.00  0.00     0.200 A 
ATOM    125  F   UNL A   1      38.663  28.022  31.573  1.00  0.00    -0.200 F 
ATOM    126  F   UNL A   1      36.827  28.991  29.804  1.00  0.00    -0.200 F 
ENDBRANCH  88 116
BRANCH 103 127
ATOM    127  C   UNL A   1      46.224  32.959  28.900  1.00  0.00     0.064 A 
ATOM    128  C   UNL A   1      46.590  33.276  30.216  1.00  0.00     0.173 A 
ATOM    129  C   UNL A   1      46.024  34.016  27.999  1.00  0.00     0.173 A 
ATOM    130  F   UNL A   1      46.776  32.300  31.118  1.00  0.00    -0.203 F 
ATOM    131  C   UNL A   1      46.726  34.601  30.620  1.00  0.00     0.198 A 
ATOM    132  C   UNL A   1      46.188  35.338  28.400  1.00  0.00     0.198 A 
ATOM    133  F   UNL A   1      45.679  33.765  26.728  1.00  0.00    -0.203 F 
ATOM    134  F   UNL A   1      47.033  34.882  31.895  1.00  0.00    -0.200 F 
ATOM    135  C   UNL A   1      46.533  35.630  29.711  1.00  0.00     0.200 A 
ATOM    136  F   UNL A   1      46.012  36.331  27.517  1.00  0.00    -0.200 F 
ATOM    137  F   UNL A   1      46.671  36.905  30.101  1.00  0.00    -0.200 F 
ENDBRANCH 103 127
ENDBRANCH  68  71
ENDBRANCH  58  61
ENDBRANCH  54  57
ENDBRANCH  51  54
ENDBRANCH  48  51
ENDBRANCH   1  48
TORSDOF 17
ENDMDL
