MODEL 1
REMARK VINA RESULT:     -11.8      0.000      0.000
REMARK SMILES CC(C)(C)OC(=O)N1CCC[C@H]1C(=O)N[C@@H](Cc1ccccc1)C(=O)NCCCCCCNC(=O)c1ccc(-c2c3nc(c(-c4c(F)c(F)c(F)c(F)c4F)c4ccc([nH]4)c(-c4c(F)c(F)c(F)c(F)c4F)c4nc(c(-c5c(F)c(F)c(F)c(F)c5F)c5ccc2[nH]5)C=C4)C=C3)cc1
REMARK SMILES IDX 27 1 26 4 24 5 25 6 16 8 15 10 13 11 14 12 12 14 8 15 9 16
REMARK SMILES IDX 10 17 11 20 6 26 7 27 5 28 2 29 1 30 3 34 4 38 17 42 18 45
REMARK SMILES IDX 19 46 23 47 20 48 22 50 21 52 28 56 29 59 30 62 31 65 32 68
REMARK SMILES IDX 33 71 34 72 35 74 36 75 37 76 98 77 38 78 97 80 39 82 40 85
REMARK SMILES IDX 41 86 91 87 42 88 96 89 90 90 92 91 43 92 95 93 89 95 88 97
REMARK SMILES IDX 44 99 76 102 56 103 75 104 57 105 60 106 74 107 93 108
REMARK SMILES IDX 58 109 59 111 73 113 94 114 61 117 45 119 46 120 54 121
REMARK SMILES IDX 47 122 48 123 52 124 55 125 49 126 50 127 53 128 51 129
REMARK SMILES IDX 77 130 78 131 86 132 79 133 80 134 84 135 87 136 81 137
REMARK SMILES IDX 82 138 85 139 83 140 62 141 63 142 71 143 64 144 65 145
REMARK SMILES IDX 69 146 72 147 66 148 67 149 70 150 68 151
REMARK H PARENT 27 2 27 3 26 7 16 9 15 13 9 18 9 19 12 21 10 22 10 23 11 24
REMARK H PARENT 11 25 1 31 1 32 1 33 3 35 3 36 3 37 4 39 4 40 4 41 17 43 17 44
REMARK H PARENT 19 49 23 51 20 53 22 54 21 55 28 57 28 58 29 60 29 61 30 63
REMARK H PARENT 30 64 31 66 31 67 32 69 32 70 33 73 37 79 98 81 38 83 97 84
REMARK H PARENT 96 94 90 96 92 98 95 100 89 101 57 110 60 112 93 115 58 116
REMARK H PARENT 94 118
REMARK Flexibility Score: inf
ROOT
ATOM      1  C   UNL A   1      32.819  27.729  25.877  1.00  0.00     0.017 C 
ATOM      2  H   UNL A   1      32.902  26.701  26.156  1.00  0.00     0.049 H 
ATOM      3  H   UNL A   1      31.859  27.973  25.473  1.00  0.00     0.049 H 
ENDROOT
BRANCH   1   4
ATOM      4  N   UNL A   1      33.788  27.998  24.839  1.00  0.00    -0.354 N 
ATOM      5  C   UNL A   1      33.600  28.171  23.501  1.00  0.00     0.242 C 
ATOM      6  O   UNL A   1      34.485  28.785  22.890  1.00  0.00    -0.273 OA
ATOM      7  H   UNL A   1      34.721  28.065  25.144  1.00  0.00     0.163 HD
BRANCH   5   8
ATOM      8  C   UNL A   1      32.312  27.753  22.751  1.00  0.00     0.112 C 
ATOM      9  H   UNL A   1      32.067  28.630  22.191  1.00  0.00     0.064 H 
BRANCH   8  10
ATOM     10  N   UNL A   1      32.488  26.722  21.720  1.00  0.00    -0.342 N 
ATOM     11  C   UNL A   1      32.829  25.405  21.853  1.00  0.00     0.243 C 
ATOM     12  O   UNL A   1      32.962  24.747  20.819  1.00  0.00    -0.273 OA
ATOM     13  H   UNL A   1      32.337  27.025  20.796  1.00  0.00     0.164 HD
BRANCH  11  14
ATOM     14  C   UNL A   1      33.149  24.849  23.253  1.00  0.00     0.114 C 
ATOM     15  N   UNL A   1      32.438  23.615  23.556  1.00  0.00    -0.296 N 
ATOM     16  C   UNL A   1      33.333  22.485  23.656  1.00  0.00     0.025 C 
ATOM     17  C   UNL A   1      34.653  23.120  24.049  1.00  0.00    -0.033 C 
ATOM     18  H   UNL A   1      33.416  21.978  22.717  1.00  0.00     0.050 H 
ATOM     19  H   UNL A   1      32.999  21.745  24.353  1.00  0.00     0.050 H 
ATOM     20  C   UNL A   1      34.634  24.464  23.327  1.00  0.00    -0.022 C 
ATOM     21  H   UNL A   1      32.865  25.621  23.936  1.00  0.00     0.064 H 
ATOM     22  H   UNL A   1      35.477  22.522  23.722  1.00  0.00     0.029 H 
ATOM     23  H   UNL A   1      34.767  23.218  25.108  1.00  0.00     0.029 H 
ATOM     24  H   UNL A   1      35.048  24.369  22.346  1.00  0.00     0.029 H 
ATOM     25  H   UNL A   1      35.218  25.203  23.834  1.00  0.00     0.029 H 
BRANCH  15  26
ATOM     26  C   UNL A   1      31.093  23.626  23.833  1.00  0.00     0.410 C 
ATOM     27  O   UNL A   1      30.275  24.191  23.127  1.00  0.00    -0.224 OA
BRANCH  26  28
ATOM     28  O   UNL A   1      30.821  22.995  25.002  1.00  0.00    -0.444 OA
BRANCH  28  29
ATOM     29  C   UNL A   1      30.653  23.713  26.253  1.00  0.00     0.106 C 
BRANCH  29  30
ATOM     30  C   UNL A   1      32.057  23.740  26.876  1.00  0.00    -0.025 C 
ATOM     31  H   UNL A   1      32.022  23.302  27.853  1.00  0.00     0.027 H 
ATOM     32  H   UNL A   1      32.395  24.752  26.951  1.00  0.00     0.027 H 
ATOM     33  H   UNL A   1      32.731  23.182  26.261  1.00  0.00     0.027 H 
ENDBRANCH  29  30
BRANCH  29  34
ATOM     34  C   UNL A   1      29.711  22.910  27.150  1.00  0.00    -0.025 C 
ATOM     35  H   UNL A   1      29.706  21.886  26.838  1.00  0.00     0.027 H 
ATOM     36  H   UNL A   1      28.720  23.310  27.076  1.00  0.00     0.027 H 
ATOM     37  H   UNL A   1      30.045  22.972  28.164  1.00  0.00     0.027 H 
ENDBRANCH  29  34
BRANCH  29  38
ATOM     38  C   UNL A   1      30.176  25.164  26.100  1.00  0.00    -0.025 C 
ATOM     39  H   UNL A   1      29.123  25.215  26.277  1.00  0.00     0.027 H 
ATOM     40  H   UNL A   1      30.388  25.507  25.108  1.00  0.00     0.027 H 
ATOM     41  H   UNL A   1      30.688  25.784  26.807  1.00  0.00     0.027 H 
ENDBRANCH  29  38
ENDBRANCH  28  29
ENDBRANCH  26  28
ENDBRANCH  15  26
ENDBRANCH  11  14
ENDBRANCH   8  10
BRANCH   8  42
ATOM     42  C   UNL A   1      31.097  27.501  23.671  1.00  0.00     0.002 C 
ATOM     43  H   UNL A   1      31.433  27.611  24.681  1.00  0.00     0.034 H 
ATOM     44  H   UNL A   1      30.753  26.524  23.402  1.00  0.00     0.034 H 
BRANCH  42  45
ATOM     45  C   UNL A   1      29.887  28.389  23.500  1.00  0.00    -0.045 A 
ATOM     46  C   UNL A   1      28.615  27.821  23.337  1.00  0.00    -0.059 A 
ATOM     47  C   UNL A   1      30.007  29.786  23.498  1.00  0.00    -0.059 A 
ATOM     48  C   UNL A   1      27.497  28.631  23.126  1.00  0.00    -0.062 A 
ATOM     49  H   UNL A   1      28.503  26.795  23.373  1.00  0.00     0.063 H 
ATOM     50  C   UNL A   1      28.891  30.594  23.266  1.00  0.00    -0.062 A 
ATOM     51  H   UNL A   1      30.926  30.222  23.670  1.00  0.00     0.063 H 
ATOM     52  C   UNL A   1      27.637  30.016  23.076  1.00  0.00    -0.062 A 
ATOM     53  H   UNL A   1      26.565  28.203  23.008  1.00  0.00     0.062 H 
ATOM     54  H   UNL A   1      28.995  31.620  23.236  1.00  0.00     0.062 H 
ATOM     55  H   UNL A   1      26.814  30.612  22.898  1.00  0.00     0.062 H 
ENDBRANCH  42  45
ENDBRANCH   8  42
ENDBRANCH   5   8
ENDBRANCH   1   4
BRANCH   1  56
ATOM     56  C   UNL A   1      32.995  28.580  27.127  1.00  0.00    -0.036 C 
ATOM     57  H   UNL A   1      33.943  28.335  27.562  1.00  0.00     0.028 H 
ATOM     58  H   UNL A   1      32.163  28.353  27.761  1.00  0.00     0.028 H 
BRANCH  56  59
ATOM     59  C   UNL A   1      32.956  30.093  26.899  1.00  0.00    -0.052 C 
ATOM     60  H   UNL A   1      33.637  30.320  26.105  1.00  0.00     0.027 H 
ATOM     61  H   UNL A   1      33.212  30.529  27.842  1.00  0.00     0.027 H 
BRANCH  59  62
ATOM     62  C   UNL A   1      31.592  30.690  26.530  1.00  0.00    -0.052 C 
ATOM     63  H   UNL A   1      30.845  30.157  27.078  1.00  0.00     0.027 H 
ATOM     64  H   UNL A   1      31.519  30.591  25.467  1.00  0.00     0.027 H 
BRANCH  62  65
ATOM     65  C   UNL A   1      31.402  32.184  26.810  1.00  0.00    -0.036 C 
ATOM     66  H   UNL A   1      30.793  32.277  27.685  1.00  0.00     0.028 H 
ATOM     67  H   UNL A   1      30.959  32.590  25.925  1.00  0.00     0.028 H 
BRANCH  65  68
ATOM     68  C   UNL A   1      32.677  32.988  27.042  1.00  0.00     0.018 C 
ATOM     69  H   UNL A   1      33.170  33.125  26.102  1.00  0.00     0.049 H 
ATOM     70  H   UNL A   1      33.283  32.440  27.731  1.00  0.00     0.049 H 
BRANCH  68  71
ATOM     71  N   UNL A   1      32.419  34.292  27.626  1.00  0.00    -0.352 N 
ATOM     72  C   UNL A   1      33.002  34.918  28.697  1.00  0.00     0.251 C 
ATOM     73  H   UNL A   1      31.711  34.811  27.180  1.00  0.00     0.163 HD
ATOM     74  O   UNL A   1      32.528  35.972  29.113  1.00  0.00    -0.269 OA
BRANCH  72  75
ATOM     75  C   UNL A   1      34.181  34.335  29.378  1.00  0.00     0.039 A 
ATOM     76  C   UNL A   1      33.973  33.576  30.534  1.00  0.00    -0.049 A 
ATOM     77  C   UNL A   1      35.483  34.562  28.925  1.00  0.00    -0.049 A 
ATOM     78  C   UNL A   1      35.058  33.003  31.203  1.00  0.00    -0.053 A 
ATOM     79  H   UNL A   1      33.015  33.439  30.896  1.00  0.00     0.063 H 
ATOM     80  C   UNL A   1      36.560  33.933  29.550  1.00  0.00    -0.053 A 
ATOM     81  H   UNL A   1      35.648  35.195  28.127  1.00  0.00     0.063 H 
ATOM     82  C   UNL A   1      36.360  33.153  30.699  1.00  0.00    -0.014 A 
ATOM     83  H   UNL A   1      34.902  32.468  32.071  1.00  0.00     0.063 H 
ATOM     84  H   UNL A   1      37.511  34.042  29.166  1.00  0.00     0.063 H 
BRANCH  82  85
ATOM     85  C   UNL A   1      37.519  32.504  31.365  1.00  0.00     0.031 A 
ATOM     86  C   UNL A   1      38.226  31.352  30.710  1.00  0.00     0.074 A 
ATOM     87  C   UNL A   1      37.893  32.911  32.594  1.00  0.00     0.049 A 
ATOM     88  N   UNL A   1      39.210  30.616  31.165  1.00  0.00    -0.248 NA
ATOM     89  C   UNL A   1      37.744  30.952  29.379  1.00  0.00    -0.034 C 
ATOM     90  C   UNL A   1      37.254  33.981  33.360  1.00  0.00    -0.036 A 
ATOM     91  N   UNL A   1      38.892  32.460  33.421  1.00  0.00    -0.354 N 
ATOM     92  C   UNL A   1      39.448  29.657  30.189  1.00  0.00     0.074 A 
ATOM     93  C   UNL A   1      38.477  29.875  29.138  1.00  0.00    -0.034 C 
ATOM     94  H   UNL A   1      37.023  31.395  28.788  1.00  0.00     0.065 H 
ATOM     95  C   UNL A   1      37.882  34.113  34.539  1.00  0.00    -0.036 A 
ATOM     96  H   UNL A   1      36.449  34.545  33.044  1.00  0.00     0.065 H 
ATOM     97  C   UNL A   1      38.946  33.116  34.626  1.00  0.00     0.049 A 
ATOM     98  H   UNL A   1      39.510  31.734  33.174  1.00  0.00     0.167 HD
ATOM     99  C   UNL A   1      40.400  28.693  30.164  1.00  0.00     0.037 A 
ATOM    100  H   UNL A   1      38.370  29.270  28.309  1.00  0.00     0.065 H 
ATOM    101  H   UNL A   1      37.650  34.807  35.267  1.00  0.00     0.065 H 
ATOM    102  C   UNL A   1      39.757  32.932  35.685  1.00  0.00     0.037 A 
ATOM    103  C   UNL A   1      41.388  28.502  31.194  1.00  0.00     0.049 A 
ATOM    104  C   UNL A   1      40.824  31.875  35.623  1.00  0.00     0.074 A 
ATOM    105  C   UNL A   1      42.449  27.614  31.217  1.00  0.00    -0.036 A 
ATOM    106  N   UNL A   1      41.434  29.212  32.385  1.00  0.00    -0.354 N 
ATOM    107  N   UNL A   1      41.091  31.027  34.660  1.00  0.00    -0.248 NA
ATOM    108  C   UNL A   1      41.708  31.754  36.791  1.00  0.00    -0.034 C 
ATOM    109  C   UNL A   1      43.110  27.753  32.443  1.00  0.00    -0.036 A 
ATOM    110  H   UNL A   1      42.708  26.962  30.462  1.00  0.00     0.065 H 
ATOM    111  C   UNL A   1      42.489  28.762  33.163  1.00  0.00     0.049 A 
ATOM    112  H   UNL A   1      40.809  29.927  32.640  1.00  0.00     0.167 HD
ATOM    113  C   UNL A   1      42.183  30.288  35.095  1.00  0.00     0.074 A 
ATOM    114  C   UNL A   1      42.539  30.799  36.402  1.00  0.00    -0.034 C 
ATOM    115  H   UNL A   1      41.688  32.278  37.680  1.00  0.00     0.065 H 
ATOM    116  H   UNL A   1      43.921  27.199  32.757  1.00  0.00     0.065 H 
ATOM    117  C   UNL A   1      42.832  29.278  34.464  1.00  0.00     0.037 A 
ATOM    118  H   UNL A   1      43.338  30.460  36.960  1.00  0.00     0.065 H 
BRANCH  99 119
ATOM    119  C   UNL A   1      40.418  27.767  28.983  1.00  0.00     0.064 A 
ATOM    120  C   UNL A   1      41.200  28.030  27.848  1.00  0.00     0.173 A 
ATOM    121  C   UNL A   1      39.663  26.584  28.998  1.00  0.00     0.173 A 
ATOM    122  F   UNL A   1      41.933  29.152  27.780  1.00  0.00    -0.203 F 
ATOM    123  C   UNL A   1      41.199  27.163  26.759  1.00  0.00     0.198 A 
ATOM    124  C   UNL A   1      39.688  25.703  27.919  1.00  0.00     0.198 A 
ATOM    125  F   UNL A   1      38.904  26.279  30.060  1.00  0.00    -0.203 F 
ATOM    126  F   UNL A   1      41.914  27.463  25.665  1.00  0.00    -0.200 F 
ATOM    127  C   UNL A   1      40.449  25.997  26.797  1.00  0.00     0.200 A 
ATOM    128  F   UNL A   1      38.973  24.571  27.963  1.00  0.00    -0.200 F 
ATOM    129  F   UNL A   1      40.452  25.162  25.749  1.00  0.00    -0.200 F 
ENDBRANCH  99 119
BRANCH 102 130
ATOM    130  C   UNL A   1      39.600  33.791  36.887  1.00  0.00     0.064 A 
ATOM    131  C   UNL A   1      40.239  35.035  36.972  1.00  0.00     0.173 A 
ATOM    132  C   UNL A   1      38.792  33.395  37.964  1.00  0.00     0.173 A 
ATOM    133  F   UNL A   1      41.037  35.447  35.976  1.00  0.00    -0.203 F 
ATOM    134  C   UNL A   1      40.086  35.847  38.094  1.00  0.00     0.198 A 
ATOM    135  C   UNL A   1      38.621  34.219  39.073  1.00  0.00     0.198 A 
ATOM    136  F   UNL A   1      38.154  32.216  37.926  1.00  0.00    -0.203 F 
ATOM    137  F   UNL A   1      40.736  37.016  38.165  1.00  0.00    -0.200 F 
ATOM    138  C   UNL A   1      39.272  35.441  39.140  1.00  0.00     0.200 A 
ATOM    139  F   UNL A   1      37.820  33.830  40.076  1.00  0.00    -0.200 F 
ATOM    140  F   UNL A   1      39.117  36.227  40.215  1.00  0.00    -0.200 F 
ENDBRANCH 102 130
BRANCH 117 141
ATOM    141  C   UNL A   1      44.007  28.669  35.171  1.00  0.00     0.064 A 
ATOM    142  C   UNL A   1      43.864  27.550  36.004  1.00  0.00     0.173 A 
ATOM    143  C   UNL A   1      45.297  29.185  34.979  1.00  0.00     0.173 A 
ATOM    144  F   UNL A   1      42.648  27.029  36.232  1.00  0.00    -0.203 F 
ATOM    145  C   UNL A   1      44.967  26.983  36.636  1.00  0.00     0.198 A 
ATOM    146  C   UNL A   1      46.402  28.598  35.591  1.00  0.00     0.198 A 
ATOM    147  F   UNL A   1      45.489  30.251  34.188  1.00  0.00    -0.203 F 
ATOM    148  F   UNL A   1      44.801  25.939  37.462  1.00  0.00    -0.200 F 
ATOM    149  C   UNL A   1      46.235  27.502  36.423  1.00  0.00     0.200 A 
ATOM    150  F   UNL A   1      47.628  29.095  35.374  1.00  0.00    -0.200 F 
ATOM    151  F   UNL A   1      47.296  26.950  37.026  1.00  0.00    -0.200 F 
ENDBRANCH 117 141
ENDBRANCH  82  85
ENDBRANCH  72  75
ENDBRANCH  68  71
ENDBRANCH  65  68
ENDBRANCH  62  65
ENDBRANCH  59  62
ENDBRANCH  56  59
ENDBRANCH   1  56
TORSDOF 23
ENDMDL
MODEL 2
REMARK VINA RESULT:     -11.6      5.301     10.754
REMARK SMILES CC(C)(C)OC(=O)N1CCC[C@H]1C(=O)N[C@@H](Cc1ccccc1)C(=O)NCCCCCCNC(=O)c1ccc(-c2c3nc(c(-c4c(F)c(F)c(F)c(F)c4F)c4ccc([nH]4)c(-c4c(F)c(F)c(F)c(F)c4F)c4nc(c(-c5c(F)c(F)c(F)c(F)c5F)c5ccc2[nH]5)C=C4)C=C3)cc1
REMARK SMILES IDX 27 1 26 4 24 5 25 6 16 8 15 10 13 11 14 12 12 14 8 15 9 16
REMARK SMILES IDX 10 17 11 20 6 26 7 27 5 28 2 29 1 30 3 34 4 38 17 42 18 45
REMARK SMILES IDX 19 46 23 47 20 48 22 50 21 52 28 56 29 59 30 62 31 65 32 68
REMARK SMILES IDX 33 71 34 72 35 74 36 75 37 76 98 77 38 78 97 80 39 82 40 85
REMARK SMILES IDX 41 86 91 87 42 88 96 89 90 90 92 91 43 92 95 93 89 95 88 97
REMARK SMILES IDX 44 99 76 102 56 103 75 104 57 105 60 106 74 107 93 108
REMARK SMILES IDX 58 109 59 111 73 113 94 114 61 117 45 119 46 120 54 121
REMARK SMILES IDX 47 122 48 123 52 124 55 125 49 126 50 127 53 128 51 129
REMARK SMILES IDX 77 130 78 131 86 132 79 133 80 134 84 135 87 136 81 137
REMARK SMILES IDX 82 138 85 139 83 140 62 141 63 142 71 143 64 144 65 145
REMARK SMILES IDX 69 146 72 147 66 148 67 149 70 150 68 151
REMARK H PARENT 27 2 27 3 26 7 16 9 15 13 9 18 9 19 12 21 10 22 10 23 11 24
REMARK H PARENT 11 25 1 31 1 32 1 33 3 35 3 36 3 37 4 39 4 40 4 41 17 43 17 44
REMARK H PARENT 19 49 23 51 20 53 22 54 21 55 28 57 28 58 29 60 29 61 30 63
REMARK H PARENT 30 64 31 66 31 67 32 69 32 70 33 73 37 79 98 81 38 83 97 84
REMARK H PARENT 96 94 90 96 92 98 95 100 89 101 57 110 60 112 93 115 58 116
REMARK H PARENT 94 118
REMARK Flexibility Score: inf
ROOT
ATOM      1  C   UNL A   1      35.517  21.823  26.481  1.00  0.00     0.017 C 
ATOM      2  H   UNL A   1      35.202  21.219  25.658  1.00  0.00     0.049 H 
ATOM      3  H   UNL A   1      35.960  21.251  27.270  1.00  0.00     0.049 H 
ENDROOT
BRANCH   1   4
ATOM      4  N   UNL A   1      34.354  22.473  27.040  1.00  0.00    -0.354 N 
ATOM      5  C   UNL A   1      33.078  22.525  26.566  1.00  0.00     0.242 C 
ATOM      6  O   UNL A   1      32.188  22.770  27.391  1.00  0.00    -0.273 OA
ATOM      7  H   UNL A   1      34.506  22.947  27.889  1.00  0.00     0.163 HD
BRANCH   5   8
ATOM      8  C   UNL A   1      32.687  22.184  25.107  1.00  0.00     0.112 C 
ATOM      9  H   UNL A   1      31.992  22.958  24.859  1.00  0.00     0.064 H 
BRANCH   8  10
ATOM     10  N   UNL A   1      33.754  22.347  24.113  1.00  0.00    -0.342 N 
ATOM     11  C   UNL A   1      33.968  23.359  23.219  1.00  0.00     0.243 C 
ATOM     12  O   UNL A   1      34.920  23.241  22.446  1.00  0.00    -0.273 OA
ATOM     13  H   UNL A   1      34.416  21.618  24.086  1.00  0.00     0.164 HD
BRANCH  11  14
ATOM     14  C   UNL A   1      32.953  24.515  23.136  1.00  0.00     0.114 C 
ATOM     15  N   UNL A   1      33.513  25.798  23.534  1.00  0.00    -0.296 N 
ATOM     16  C   UNL A   1      33.608  26.715  22.421  1.00  0.00     0.025 C 
ATOM     17  C   UNL A   1      32.523  26.232  21.477  1.00  0.00    -0.033 C 
ATOM     18  H   UNL A   1      34.572  26.658  21.959  1.00  0.00     0.050 H 
ATOM     19  H   UNL A   1      33.488  27.739  22.709  1.00  0.00     0.050 H 
ATOM     20  C   UNL A   1      32.523  24.719  21.676  1.00  0.00    -0.022 C 
ATOM     21  H   UNL A   1      32.153  24.237  23.790  1.00  0.00     0.064 H 
ATOM     22  H   UNL A   1      32.757  26.485  20.465  1.00  0.00     0.029 H 
ATOM     23  H   UNL A   1      31.571  26.678  21.677  1.00  0.00     0.029 H 
ATOM     24  H   UNL A   1      33.218  24.253  21.010  1.00  0.00     0.029 H 
ATOM     25  H   UNL A   1      31.567  24.285  21.472  1.00  0.00     0.029 H 
BRANCH  15  26
ATOM     26  C   UNL A   1      33.770  26.077  24.853  1.00  0.00     0.410 C 
ATOM     27  O   UNL A   1      34.395  25.324  25.581  1.00  0.00    -0.224 OA
BRANCH  26  28
ATOM     28  O   UNL A   1      33.193  27.242  25.238  1.00  0.00    -0.444 OA
BRANCH  28  29
ATOM     29  C   UNL A   1      31.803  27.323  25.649  1.00  0.00     0.106 C 
BRANCH  29  30
ATOM     30  C   UNL A   1      31.807  28.294  26.839  1.00  0.00    -0.025 C 
ATOM     31  H   UNL A   1      30.814  28.658  27.006  1.00  0.00     0.027 H 
ATOM     32  H   UNL A   1      32.458  29.116  26.627  1.00  0.00     0.027 H 
ATOM     33  H   UNL A   1      32.150  27.784  27.715  1.00  0.00     0.027 H 
ENDBRANCH  29  30
BRANCH  29  34
ATOM     34  C   UNL A   1      31.356  25.939  26.121  1.00  0.00    -0.025 C 
ATOM     35  H   UNL A   1      32.216  25.333  26.317  1.00  0.00     0.027 H 
ATOM     36  H   UNL A   1      30.761  25.478  25.359  1.00  0.00     0.027 H 
ATOM     37  H   UNL A   1      30.777  26.037  27.015  1.00  0.00     0.027 H 
ENDBRANCH  29  34
BRANCH  29  38
ATOM     38  C   UNL A   1      30.851  27.884  24.584  1.00  0.00    -0.025 C 
ATOM     39  H   UNL A   1      31.206  28.838  24.254  1.00  0.00     0.027 H 
ATOM     40  H   UNL A   1      29.872  27.994  25.003  1.00  0.00     0.027 H 
ATOM     41  H   UNL A   1      30.810  27.212  23.753  1.00  0.00     0.027 H 
ENDBRANCH  29  38
ENDBRANCH  28  29
ENDBRANCH  26  28
ENDBRANCH  15  26
ENDBRANCH  11  14
ENDBRANCH   8  10
BRANCH   8  42
ATOM     42  C   UNL A   1      31.901  20.863  24.954  1.00  0.00     0.002 C 
ATOM     43  H   UNL A   1      31.042  21.070  24.350  1.00  0.00     0.034 H 
ATOM     44  H   UNL A   1      31.695  20.555  25.958  1.00  0.00     0.034 H 
BRANCH  42  45
ATOM     45  C   UNL A   1      32.614  19.686  24.334  1.00  0.00    -0.045 A 
ATOM     46  C   UNL A   1      32.123  19.107  23.154  1.00  0.00    -0.059 A 
ATOM     47  C   UNL A   1      33.770  19.147  24.918  1.00  0.00    -0.059 A 
ATOM     48  C   UNL A   1      32.745  17.985  22.601  1.00  0.00    -0.062 A 
ATOM     49  H   UNL A   1      31.295  19.513  22.691  1.00  0.00     0.063 H 
ATOM     50  C   UNL A   1      34.378  18.013  24.374  1.00  0.00    -0.062 A 
ATOM     51  H   UNL A   1      34.176  19.593  25.756  1.00  0.00     0.063 H 
ATOM     52  C   UNL A   1      33.863  17.430  23.219  1.00  0.00    -0.062 A 
ATOM     53  H   UNL A   1      32.375  17.568  21.732  1.00  0.00     0.062 H 
ATOM     54  H   UNL A   1      35.210  17.606  24.829  1.00  0.00     0.062 H 
ATOM     55  H   UNL A   1      34.308  16.588  22.821  1.00  0.00     0.062 H 
ENDBRANCH  42  45
ENDBRANCH   8  42
ENDBRANCH   5   8
ENDBRANCH   1   4
BRANCH   1  56
ATOM     56  C   UNL A   1      36.589  22.785  25.985  1.00  0.00    -0.036 C 
ATOM     57  H   UNL A   1      37.097  23.182  26.839  1.00  0.00     0.028 H 
ATOM     58  H   UNL A   1      36.078  23.527  25.409  1.00  0.00     0.028 H 
BRANCH  56  59
ATOM     59  C   UNL A   1      37.638  22.170  25.055  1.00  0.00    -0.052 C 
ATOM     60  H   UNL A   1      38.536  22.035  25.621  1.00  0.00     0.027 H 
ATOM     61  H   UNL A   1      37.727  22.854  24.237  1.00  0.00     0.027 H 
BRANCH  59  62
ATOM     62  C   UNL A   1      37.278  20.821  24.421  1.00  0.00    -0.052 C 
ATOM     63  H   UNL A   1      37.365  20.926  23.360  1.00  0.00     0.027 H 
ATOM     64  H   UNL A   1      36.289  20.601  24.766  1.00  0.00     0.027 H 
BRANCH  62  65
ATOM     65  C   UNL A   1      38.129  19.619  24.842  1.00  0.00    -0.036 C 
ATOM     66  H   UNL A   1      38.715  19.322  23.997  1.00  0.00     0.028 H 
ATOM     67  H   UNL A   1      37.435  18.876  25.176  1.00  0.00     0.028 H 
BRANCH  65  68
ATOM     68  C   UNL A   1      39.080  19.852  26.011  1.00  0.00     0.018 C 
ATOM     69  H   UNL A   1      38.561  19.642  26.922  1.00  0.00     0.049 H 
ATOM     70  H   UNL A   1      39.405  20.870  25.964  1.00  0.00     0.049 H 
BRANCH  68  71
ATOM     71  N   UNL A   1      40.264  19.013  25.947  1.00  0.00    -0.352 N 
ATOM     72  C   UNL A   1      41.593  19.339  26.029  1.00  0.00     0.251 C 
ATOM     73  H   UNL A   1      40.082  18.052  25.826  1.00  0.00     0.163 HD
ATOM     74  O   UNL A   1      42.442  18.480  25.804  1.00  0.00    -0.269 OA
BRANCH  72  75
ATOM     75  C   UNL A   1      42.024  20.717  26.360  1.00  0.00     0.039 A 
ATOM     76  C   UNL A   1      42.286  21.027  27.699  1.00  0.00    -0.049 A 
ATOM     77  C   UNL A   1      42.128  21.713  25.386  1.00  0.00    -0.049 A 
ATOM     78  C   UNL A   1      42.701  22.314  28.052  1.00  0.00    -0.053 A 
ATOM     79  H   UNL A   1      42.171  20.305  28.428  1.00  0.00     0.063 H 
ATOM     80  C   UNL A   1      42.611  22.976  25.727  1.00  0.00    -0.053 A 
ATOM     81  H   UNL A   1      41.849  21.513  24.413  1.00  0.00     0.063 H 
ATOM     82  C   UNL A   1      42.896  23.292  27.065  1.00  0.00    -0.014 A 
ATOM     83  H   UNL A   1      42.866  22.546  29.044  1.00  0.00     0.063 H 
ATOM     84  H   UNL A   1      42.758  23.685  24.992  1.00  0.00     0.063 H 
BRANCH  82  85
ATOM     85  C   UNL A   1      43.391  24.648  27.416  1.00  0.00     0.031 A 
ATOM     86  C   UNL A   1      42.457  25.674  27.994  1.00  0.00     0.074 A 
ATOM     87  C   UNL A   1      44.670  24.979  27.151  1.00  0.00     0.049 A 
ATOM     88  N   UNL A   1      42.687  26.927  28.300  1.00  0.00    -0.248 NA
ATOM     89  C   UNL A   1      41.071  25.244  28.234  1.00  0.00    -0.034 C 
ATOM     90  C   UNL A   1      45.661  24.093  26.541  1.00  0.00    -0.036 A 
ATOM     91  N   UNL A   1      45.350  26.156  27.345  1.00  0.00    -0.354 N 
ATOM     92  C   UNL A   1      41.474  27.437  28.743  1.00  0.00     0.074 A 
ATOM     93  C   UNL A   1      40.500  26.373  28.626  1.00  0.00    -0.034 C 
ATOM     94  H   UNL A   1      40.652  24.306  28.124  1.00  0.00     0.065 H 
ATOM     95  C   UNL A   1      46.825  24.752  26.421  1.00  0.00    -0.036 A 
ATOM     96  H   UNL A   1      45.494  23.117  26.250  1.00  0.00     0.065 H 
ATOM     97  C   UNL A   1      46.653  26.116  26.916  1.00  0.00     0.049 A 
ATOM     98  H   UNL A   1      44.940  26.954  27.754  1.00  0.00     0.167 HD
ATOM     99  C   UNL A   1      41.202  28.675  29.221  1.00  0.00     0.037 A 
ATOM    100  H   UNL A   1      39.493  26.480  28.823  1.00  0.00     0.065 H 
ATOM    101  H   UNL A   1      47.700  24.358  26.042  1.00  0.00     0.065 H 
ATOM    102  C   UNL A   1      47.602  27.071  26.913  1.00  0.00     0.037 A 
ATOM    103  C   UNL A   1      42.180  29.721  29.371  1.00  0.00     0.049 A 
ATOM    104  C   UNL A   1      47.283  28.429  27.474  1.00  0.00     0.074 A 
ATOM    105  C   UNL A   1      42.022  30.977  29.930  1.00  0.00    -0.036 A 
ATOM    106  N   UNL A   1      43.502  29.630  28.958  1.00  0.00    -0.354 N 
ATOM    107  N   UNL A   1      46.154  28.875  27.966  1.00  0.00    -0.248 NA
ATOM    108  C   UNL A   1      48.374  29.414  27.487  1.00  0.00    -0.034 C 
ATOM    109  C   UNL A   1      43.235  31.665  29.812  1.00  0.00    -0.036 A 
ATOM    110  H   UNL A   1      41.158  31.344  30.359  1.00  0.00     0.065 H 
ATOM    111  C   UNL A   1      44.162  30.819  29.224  1.00  0.00     0.049 A 
ATOM    112  H   UNL A   1      43.909  28.840  28.537  1.00  0.00     0.167 HD
ATOM    113  C   UNL A   1      46.400  30.182  28.365  1.00  0.00     0.074 A 
ATOM    114  C   UNL A   1      47.793  30.451  28.073  1.00  0.00    -0.034 C 
ATOM    115  H   UNL A   1      49.340  29.322  27.134  1.00  0.00     0.065 H 
ATOM    116  H   UNL A   1      43.409  32.636  30.112  1.00  0.00     0.065 H 
ATOM    117  C   UNL A   1      45.548  31.075  28.926  1.00  0.00     0.037 A 
ATOM    118  H   UNL A   1      48.271  31.339  28.292  1.00  0.00     0.065 H 
BRANCH  99 119
ATOM    119  C   UNL A   1      39.783  28.970  29.616  1.00  0.00     0.064 A 
ATOM    120  C   UNL A   1      38.840  29.439  28.689  1.00  0.00     0.173 A 
ATOM    121  C   UNL A   1      39.354  28.752  30.934  1.00  0.00     0.173 A 
ATOM    122  F   UNL A   1      39.201  29.672  27.418  1.00  0.00    -0.203 F 
ATOM    123  C   UNL A   1      37.530  29.713  29.074  1.00  0.00     0.198 A 
ATOM    124  C   UNL A   1      38.035  28.998  31.309  1.00  0.00     0.198 A 
ATOM    125  F   UNL A   1      40.212  28.297  31.859  1.00  0.00    -0.203 F 
ATOM    126  F   UNL A   1      36.662  30.211  28.183  1.00  0.00    -0.200 F 
ATOM    127  C   UNL A   1      37.127  29.487  30.382  1.00  0.00     0.200 A 
ATOM    128  F   UNL A   1      37.644  28.767  32.569  1.00  0.00    -0.200 F 
ATOM    129  F   UNL A   1      35.865  29.748  30.750  1.00  0.00    -0.200 F 
ENDBRANCH  99 119
BRANCH 102 130
ATOM    130  C   UNL A   1      48.952  26.762  26.379  1.00  0.00     0.064 A 
ATOM    131  C   UNL A   1      49.280  27.037  25.044  1.00  0.00     0.173 A 
ATOM    132  C   UNL A   1      49.949  26.206  27.195  1.00  0.00     0.173 A 
ATOM    133  F   UNL A   1      48.354  27.551  24.221  1.00  0.00    -0.203 F 
ATOM    134  C   UNL A   1      50.549  26.756  24.543  1.00  0.00     0.198 A 
ATOM    135  C   UNL A   1      51.225  25.949  26.698  1.00  0.00     0.198 A 
ATOM    136  F   UNL A   1      49.686  25.931  28.482  1.00  0.00    -0.203 F 
ATOM    137  F   UNL A   1      50.825  26.996  23.254  1.00  0.00    -0.200 F 
ATOM    138  C   UNL A   1      51.522  26.219  25.372  1.00  0.00     0.200 A 
ATOM    139  F   UNL A   1      52.166  25.444  27.508  1.00  0.00    -0.200 F 
ATOM    140  F   UNL A   1      52.746  25.959  24.891  1.00  0.00    -0.200 F 
ENDBRANCH 102 130
BRANCH 117 141
ATOM    141  C   UNL A   1      46.103  32.425  29.279  1.00  0.00     0.064 A 
ATOM    142  C   UNL A   1      46.051  33.498  28.377  1.00  0.00     0.173 A 
ATOM    143  C   UNL A   1      46.652  32.657  30.548  1.00  0.00     0.173 A 
ATOM    144  F   UNL A   1      45.549  33.322  27.146  1.00  0.00    -0.203 F 
ATOM    145  C   UNL A   1      46.550  34.750  28.727  1.00  0.00     0.198 A 
ATOM    146  C   UNL A   1      47.125  33.918  30.904  1.00  0.00     0.198 A 
ATOM    147  F   UNL A   1      46.720  31.665  31.448  1.00  0.00    -0.203 F 
ATOM    148  F   UNL A   1      46.529  35.751  27.835  1.00  0.00    -0.200 F 
ATOM    149  C   UNL A   1      47.078  34.961  29.992  1.00  0.00     0.200 A 
ATOM    150  F   UNL A   1      47.625  34.122  32.131  1.00  0.00    -0.200 F 
ATOM    151  F   UNL A   1      47.551  36.169  30.329  1.00  0.00    -0.200 F 
ENDBRANCH 117 141
ENDBRANCH  82  85
ENDBRANCH  72  75
ENDBRANCH  68  71
ENDBRANCH  65  68
ENDBRANCH  62  65
ENDBRANCH  59  62
ENDBRANCH  56  59
ENDBRANCH   1  56
TORSDOF 23
ENDMDL
MODEL 3
REMARK VINA RESULT:     -11.5      5.381     10.867
REMARK SMILES CC(C)(C)OC(=O)N1CCC[C@H]1C(=O)N[C@@H](Cc1ccccc1)C(=O)NCCCCCCNC(=O)c1ccc(-c2c3nc(c(-c4c(F)c(F)c(F)c(F)c4F)c4ccc([nH]4)c(-c4c(F)c(F)c(F)c(F)c4F)c4nc(c(-c5c(F)c(F)c(F)c(F)c5F)c5ccc2[nH]5)C=C4)C=C3)cc1
REMARK SMILES IDX 27 1 26 4 24 5 25 6 16 8 15 10 13 11 14 12 12 14 8 15 9 16
REMARK SMILES IDX 10 17 11 20 6 26 7 27 5 28 2 29 1 30 3 34 4 38 17 42 18 45
REMARK SMILES IDX 19 46 23 47 20 48 22 50 21 52 28 56 29 59 30 62 31 65 32 68
REMARK SMILES IDX 33 71 34 72 35 74 36 75 37 76 98 77 38 78 97 80 39 82 40 85
REMARK SMILES IDX 41 86 91 87 42 88 96 89 90 90 92 91 43 92 95 93 89 95 88 97
REMARK SMILES IDX 44 99 76 102 56 103 75 104 57 105 60 106 74 107 93 108
REMARK SMILES IDX 58 109 59 111 73 113 94 114 61 117 45 119 46 120 54 121
REMARK SMILES IDX 47 122 48 123 52 124 55 125 49 126 50 127 53 128 51 129
REMARK SMILES IDX 77 130 78 131 86 132 79 133 80 134 84 135 87 136 81 137
REMARK SMILES IDX 82 138 85 139 83 140 62 141 63 142 71 143 64 144 65 145
REMARK SMILES IDX 69 146 72 147 66 148 67 149 70 150 68 151
REMARK H PARENT 27 2 27 3 26 7 16 9 15 13 9 18 9 19 12 21 10 22 10 23 11 24
REMARK H PARENT 11 25 1 31 1 32 1 33 3 35 3 36 3 37 4 39 4 40 4 41 17 43 17 44
REMARK H PARENT 19 49 23 51 20 53 22 54 21 55 28 57 28 58 29 60 29 61 30 63
REMARK H PARENT 30 64 31 66 31 67 32 69 32 70 33 73 37 79 98 81 38 83 97 84
REMARK H PARENT 96 94 90 96 92 98 95 100 89 101 57 110 60 112 93 115 58 116
REMARK H PARENT 94 118
REMARK Flexibility Score: inf
ROOT
ATOM      1  C   UNL A   1      35.320  23.218  25.030  1.00  0.00     0.017 C 
ATOM      2  H   UNL A   1      34.803  24.046  24.595  1.00  0.00     0.049 H 
ATOM      3  H   UNL A   1      35.039  22.280  24.598  1.00  0.00     0.049 H 
ENDROOT
BRANCH   1   4
ATOM      4  N   UNL A   1      34.973  23.152  26.431  1.00  0.00    -0.354 N 
ATOM      5  C   UNL A   1      33.979  22.452  27.047  1.00  0.00     0.242 C 
ATOM      6  O   UNL A   1      34.127  22.223  28.255  1.00  0.00    -0.273 OA
ATOM      7  H   UNL A   1      35.538  23.693  27.028  1.00  0.00     0.163 HD
BRANCH   5   8
ATOM      8  C   UNL A   1      32.766  21.844  26.303  1.00  0.00     0.112 C 
ATOM      9  H   UNL A   1      32.709  20.856  26.708  1.00  0.00     0.064 H 
BRANCH   8  10
ATOM     10  N   UNL A   1      31.462  22.430  26.636  1.00  0.00    -0.342 N 
ATOM     11  C   UNL A   1      30.964  23.671  26.349  1.00  0.00     0.243 C 
ATOM     12  O   UNL A   1      29.846  23.947  26.786  1.00  0.00    -0.273 OA
ATOM     13  H   UNL A   1      30.856  21.842  27.141  1.00  0.00     0.164 HD
BRANCH  11  14
ATOM     14  C   UNL A   1      31.859  24.689  25.619  1.00  0.00     0.114 C 
ATOM     15  N   UNL A   1      31.175  25.380  24.536  1.00  0.00    -0.296 N 
ATOM     16  C   UNL A   1      30.989  26.785  24.823  1.00  0.00     0.025 C 
ATOM     17  C   UNL A   1      32.116  27.096  25.789  1.00  0.00    -0.033 C 
ATOM     18  H   UNL A   1      30.035  26.960  25.278  1.00  0.00     0.050 H 
ATOM     19  H   UNL A   1      31.006  27.399  23.946  1.00  0.00     0.050 H 
ATOM     20  C   UNL A   1      32.267  25.807  26.591  1.00  0.00    -0.022 C 
ATOM     21  H   UNL A   1      32.682  24.122  25.239  1.00  0.00     0.064 H 
ATOM     22  H   UNL A   1      31.859  27.915  26.426  1.00  0.00     0.029 H 
ATOM     23  H   UNL A   1      33.019  27.385  25.293  1.00  0.00     0.029 H 
ATOM     24  H   UNL A   1      31.622  25.818  27.444  1.00  0.00     0.029 H 
ATOM     25  H   UNL A   1      33.261  25.676  26.962  1.00  0.00     0.029 H 
BRANCH  15  26
ATOM     26  C   UNL A   1      30.890  24.738  23.358  1.00  0.00     0.410 C 
ATOM     27  O   UNL A   1      30.371  23.635  23.311  1.00  0.00    -0.224 OA
BRANCH  26  28
ATOM     28  O   UNL A   1      31.316  25.451  22.286  1.00  0.00    -0.444 OA
BRANCH  28  29
ATOM     29  C   UNL A   1      32.671  25.354  21.776  1.00  0.00     0.106 C 
BRANCH  29  30
ATOM     30  C   UNL A   1      32.533  25.580  20.262  1.00  0.00    -0.025 C 
ATOM     31  H   UNL A   1      33.286  25.021  19.747  1.00  0.00     0.027 H 
ATOM     32  H   UNL A   1      32.649  26.621  20.045  1.00  0.00     0.027 H 
ATOM     33  H   UNL A   1      31.566  25.255  19.940  1.00  0.00     0.027 H 
ENDBRANCH  29  30
BRANCH  29  34
ATOM     34  C   UNL A   1      33.186  23.938  22.035  1.00  0.00    -0.025 C 
ATOM     35  H   UNL A   1      33.921  23.685  21.300  1.00  0.00     0.027 H 
ATOM     36  H   UNL A   1      32.371  23.246  21.978  1.00  0.00     0.027 H 
ATOM     37  H   UNL A   1      33.625  23.891  23.009  1.00  0.00     0.027 H 
ENDBRANCH  29  34
BRANCH  29  38
ATOM     38  C   UNL A   1      33.640  26.410  22.324  1.00  0.00    -0.025 C 
ATOM     39  H   UNL A   1      33.108  27.317  22.519  1.00  0.00     0.027 H 
ATOM     40  H   UNL A   1      34.410  26.596  21.604  1.00  0.00     0.027 H 
ATOM     41  H   UNL A   1      34.081  26.052  23.232  1.00  0.00     0.027 H 
ENDBRANCH  29  38
ENDBRANCH  28  29
ENDBRANCH  26  28
ENDBRANCH  15  26
ENDBRANCH  11  14
ENDBRANCH   8  10
BRANCH   8  42
ATOM     42  C   UNL A   1      32.984  21.653  24.785  1.00  0.00     0.002 C 
ATOM     43  H   UNL A   1      33.874  22.187  24.521  1.00  0.00     0.034 H 
ATOM     44  H   UNL A   1      32.081  22.011  24.336  1.00  0.00     0.034 H 
BRANCH  42  45
ATOM     45  C   UNL A   1      33.135  20.244  24.266  1.00  0.00    -0.045 A 
ATOM     46  C   UNL A   1      32.269  19.764  23.272  1.00  0.00    -0.059 A 
ATOM     47  C   UNL A   1      34.130  19.389  24.762  1.00  0.00    -0.059 A 
ATOM     48  C   UNL A   1      32.365  18.445  22.822  1.00  0.00    -0.062 A 
ATOM     49  H   UNL A   1      31.554  20.390  22.869  1.00  0.00     0.063 H 
ATOM     50  C   UNL A   1      34.211  18.065  24.325  1.00  0.00    -0.062 A 
ATOM     51  H   UNL A   1      34.809  19.742  25.454  1.00  0.00     0.063 H 
ATOM     52  C   UNL A   1      33.326  17.592  23.359  1.00  0.00    -0.062 A 
ATOM     53  H   UNL A   1      31.723  18.102  22.090  1.00  0.00     0.062 H 
ATOM     54  H   UNL A   1      34.928  17.436  24.719  1.00  0.00     0.062 H 
ATOM     55  H   UNL A   1      33.382  16.612  23.041  1.00  0.00     0.062 H 
ENDBRANCH  42  45
ENDBRANCH   8  42
ENDBRANCH   5   8
ENDBRANCH   1   4
BRANCH   1  56
ATOM     56  C   UNL A   1      36.809  23.392  24.765  1.00  0.00    -0.036 C 
ATOM     57  H   UNL A   1      37.144  24.251  25.309  1.00  0.00     0.028 H 
ATOM     58  H   UNL A   1      36.913  23.491  23.705  1.00  0.00     0.028 H 
BRANCH  56  59
ATOM     59  C   UNL A   1      37.688  22.205  25.170  1.00  0.00    -0.052 C 
ATOM     60  H   UNL A   1      37.626  22.102  26.234  1.00  0.00     0.027 H 
ATOM     61  H   UNL A   1      38.665  22.437  24.802  1.00  0.00     0.027 H 
BRANCH  59  62
ATOM     62  C   UNL A   1      37.328  20.849  24.549  1.00  0.00    -0.052 C 
ATOM     63  H   UNL A   1      37.371  20.957  23.485  1.00  0.00     0.027 H 
ATOM     64  H   UNL A   1      36.358  20.611  24.932  1.00  0.00     0.027 H 
BRANCH  62  65
ATOM     65  C   UNL A   1      38.218  19.664  24.934  1.00  0.00    -0.036 C 
ATOM     66  H   UNL A   1      38.743  19.350  24.057  1.00  0.00     0.028 H 
ATOM     67  H   UNL A   1      37.556  18.924  25.334  1.00  0.00     0.028 H 
BRANCH  65  68
ATOM     68  C   UNL A   1      39.249  19.930  26.026  1.00  0.00     0.018 C 
ATOM     69  H   UNL A   1      38.778  19.806  26.978  1.00  0.00     0.049 H 
ATOM     70  H   UNL A   1      39.613  20.926  25.889  1.00  0.00     0.049 H 
BRANCH  68  71
ATOM     71  N   UNL A   1      40.389  19.033  25.951  1.00  0.00    -0.352 N 
ATOM     72  C   UNL A   1      41.732  19.291  26.044  1.00  0.00     0.251 C 
ATOM     73  H   UNL A   1      40.159  18.086  25.812  1.00  0.00     0.163 HD
ATOM     74  O   UNL A   1      42.538  18.395  25.807  1.00  0.00    -0.269 OA
BRANCH  72  75
ATOM     75  C   UNL A   1      42.230  20.639  26.403  1.00  0.00     0.039 A 
ATOM     76  C   UNL A   1      42.488  21.549  25.373  1.00  0.00    -0.049 A 
ATOM     77  C   UNL A   1      42.492  21.001  27.727  1.00  0.00    -0.049 A 
ATOM     78  C   UNL A   1      42.954  22.832  25.670  1.00  0.00    -0.053 A 
ATOM     79  H   UNL A   1      42.335  21.271  24.390  1.00  0.00     0.063 H 
ATOM     80  C   UNL A   1      42.889  22.304  28.029  1.00  0.00    -0.053 A 
ATOM     81  H   UNL A   1      42.391  20.305  28.482  1.00  0.00     0.063 H 
ATOM     82  C   UNL A   1      43.131  23.231  27.003  1.00  0.00    -0.014 A 
ATOM     83  H   UNL A   1      43.169  23.491  24.904  1.00  0.00     0.063 H 
ATOM     84  H   UNL A   1      43.007  22.589  29.014  1.00  0.00     0.063 H 
BRANCH  82  85
ATOM     85  C   UNL A   1      43.571  24.609  27.340  1.00  0.00     0.031 A 
ATOM     86  C   UNL A   1      42.576  25.634  27.808  1.00  0.00     0.074 A 
ATOM     87  C   UNL A   1      44.860  24.959  27.160  1.00  0.00     0.049 A 
ATOM     88  N   UNL A   1      42.758  26.902  28.083  1.00  0.00    -0.248 NA
ATOM     89  C   UNL A   1      41.184  25.182  27.958  1.00  0.00    -0.034 C 
ATOM     90  C   UNL A   1      45.912  24.074  26.660  1.00  0.00    -0.036 A 
ATOM     91  N   UNL A   1      45.500  26.156  27.361  1.00  0.00    -0.354 N 
ATOM     92  C   UNL A   1      41.506  27.401  28.414  1.00  0.00     0.074 A 
ATOM     93  C   UNL A   1      40.564  26.311  28.264  1.00  0.00    -0.034 C 
ATOM     94  H   UNL A   1      40.794  24.232  27.852  1.00  0.00     0.065 H 
ATOM     95  C   UNL A   1      47.068  24.754  26.603  1.00  0.00    -0.036 A 
ATOM     96  H   UNL A   1      45.786  23.085  26.393  1.00  0.00     0.065 H 
ATOM     97  C   UNL A   1      46.833  26.130  27.033  1.00  0.00     0.049 A 
ATOM     98  H   UNL A   1      45.046  26.959  27.707  1.00  0.00     0.167 HD
ATOM     99  C   UNL A   1      41.174  28.649  28.824  1.00  0.00     0.037 A 
ATOM    100  H   UNL A   1      39.543  26.403  28.381  1.00  0.00     0.065 H 
ATOM    101  H   UNL A   1      47.977  24.366  26.306  1.00  0.00     0.065 H 
ATOM    102  C   UNL A   1      47.760  27.106  27.066  1.00  0.00     0.037 A 
ATOM    103  C   UNL A   1      42.117  29.720  29.009  1.00  0.00     0.049 A 
ATOM    104  C   UNL A   1      47.374  28.475  27.550  1.00  0.00     0.074 A 
ATOM    105  C   UNL A   1      41.893  30.992  29.506  1.00  0.00    -0.036 A 
ATOM    106  N   UNL A   1      43.468  29.645  28.699  1.00  0.00    -0.354 N 
ATOM    107  N   UNL A   1      46.202  28.913  27.938  1.00  0.00    -0.248 NA
ATOM    108  C   UNL A   1      48.441  29.484  27.608  1.00  0.00    -0.034 C 
ATOM    109  C   UNL A   1      43.098  31.702  29.455  1.00  0.00    -0.036 A 
ATOM    110  H   UNL A   1      40.992  31.354  29.855  1.00  0.00     0.065 H 
ATOM    111  C   UNL A   1      44.083  30.856  28.970  1.00  0.00     0.049 A 
ATOM    112  H   UNL A   1      43.921  28.849  28.340  1.00  0.00     0.167 HD
ATOM    113  C   UNL A   1      46.392  30.238  28.306  1.00  0.00     0.074 A 
ATOM    114  C   UNL A   1      47.797  30.528  28.110  1.00  0.00    -0.034 C 
ATOM    115  H   UNL A   1      49.432  29.400  27.333  1.00  0.00     0.065 H 
ATOM    116  H   UNL A   1      43.230  32.687  29.731  1.00  0.00     0.065 H 
ATOM    117  C   UNL A   1      45.483  31.132  28.768  1.00  0.00     0.037 A 
ATOM    118  H   UNL A   1      48.240  31.433  28.331  1.00  0.00     0.065 H 
BRANCH  99 119
ATOM    119  C   UNL A   1      39.724  28.925  29.100  1.00  0.00     0.064 A 
ATOM    120  C   UNL A   1      39.165  28.743  30.374  1.00  0.00     0.173 A 
ATOM    121  C   UNL A   1      38.887  29.406  28.080  1.00  0.00     0.173 A 
ATOM    122  F   UNL A   1      39.920  28.277  31.381  1.00  0.00    -0.203 F 
ATOM    123  C   UNL A   1      37.817  28.998  30.610  1.00  0.00     0.198 A 
ATOM    124  C   UNL A   1      37.545  29.689  28.327  1.00  0.00     0.198 A 
ATOM    125  F   UNL A   1      39.371  29.605  26.845  1.00  0.00    -0.203 F 
ATOM    126  F   UNL A   1      37.295  28.766  31.822  1.00  0.00    -0.200 F 
ATOM    127  C   UNL A   1      37.010  29.477  29.588  1.00  0.00     0.200 A 
ATOM    128  F   UNL A   1      36.770  30.163  27.343  1.00  0.00    -0.200 F 
ATOM    129  F   UNL A   1      35.713  29.725  29.818  1.00  0.00    -0.200 F 
ENDBRANCH  99 119
BRANCH 102 130
ATOM    130  C   UNL A   1      49.153  26.807  26.646  1.00  0.00     0.064 A 
ATOM    131  C   UNL A   1      50.109  26.374  27.575  1.00  0.00     0.173 A 
ATOM    132  C   UNL A   1      49.552  26.928  25.306  1.00  0.00     0.173 A 
ATOM    133  F   UNL A   1      49.779  26.262  28.871  1.00  0.00    -0.203 F 
ATOM    134  C   UNL A   1      51.414  26.085  27.184  1.00  0.00     0.198 A 
ATOM    135  C   UNL A   1      50.851  26.614  24.912  1.00  0.00     0.198 A 
ATOM    136  F   UNL A   1      48.672  27.332  24.378  1.00  0.00    -0.203 F 
ATOM    137  F   UNL A   1      52.317  25.706  28.098  1.00  0.00    -0.200 F 
ATOM    138  C   UNL A   1      51.782  26.198  25.851  1.00  0.00     0.200 A 
ATOM    139  F   UNL A   1      51.198  26.711  23.621  1.00  0.00    -0.200 F 
ATOM    140  F   UNL A   1      53.035  25.910  25.473  1.00  0.00    -0.200 F 
ENDBRANCH 102 130
BRANCH 117 141
ATOM    141  C   UNL A   1      45.982  32.506  29.111  1.00  0.00     0.064 A 
ATOM    142  C   UNL A   1      45.965  33.548  28.173  1.00  0.00     0.173 A 
ATOM    143  C   UNL A   1      46.443  32.791  30.404  1.00  0.00     0.173 A 
ATOM    144  F   UNL A   1      45.548  33.321  26.918  1.00  0.00    -0.203 F 
ATOM    145  C   UNL A   1      46.412  34.823  28.513  1.00  0.00     0.198 A 
ATOM    146  C   UNL A   1      46.863  34.074  30.748  1.00  0.00     0.198 A 
ATOM    147  F   UNL A   1      46.475  31.830  31.339  1.00  0.00    -0.203 F 
ATOM    148  F   UNL A   1      46.426  35.794  27.589  1.00  0.00    -0.200 F 
ATOM    149  C   UNL A   1      46.852  35.086  29.801  1.00  0.00     0.200 A 
ATOM    150  F   UNL A   1      47.278  34.329  31.997  1.00  0.00    -0.200 F 
ATOM    151  F   UNL A   1      47.274  36.315  30.127  1.00  0.00    -0.200 F 
ENDBRANCH 117 141
ENDBRANCH  82  85
ENDBRANCH  72  75
ENDBRANCH  68  71
ENDBRANCH  65  68
ENDBRANCH  62  65
ENDBRANCH  59  62
ENDBRANCH  56  59
ENDBRANCH   1  56
TORSDOF 23
ENDMDL
MODEL 4
REMARK VINA RESULT:     -11.4      5.367     10.944
REMARK SMILES CC(C)(C)OC(=O)N1CCC[C@H]1C(=O)N[C@@H](Cc1ccccc1)C(=O)NCCCCCCNC(=O)c1ccc(-c2c3nc(c(-c4c(F)c(F)c(F)c(F)c4F)c4ccc([nH]4)c(-c4c(F)c(F)c(F)c(F)c4F)c4nc(c(-c5c(F)c(F)c(F)c(F)c5F)c5ccc2[nH]5)C=C4)C=C3)cc1
REMARK SMILES IDX 27 1 26 4 24 5 25 6 16 8 15 10 13 11 14 12 12 14 8 15 9 16
REMARK SMILES IDX 10 17 11 20 6 26 7 27 5 28 2 29 1 30 3 34 4 38 17 42 18 45
REMARK SMILES IDX 19 46 23 47 20 48 22 50 21 52 28 56 29 59 30 62 31 65 32 68
REMARK SMILES IDX 33 71 34 72 35 74 36 75 37 76 98 77 38 78 97 80 39 82 40 85
REMARK SMILES IDX 41 86 91 87 42 88 96 89 90 90 92 91 43 92 95 93 89 95 88 97
REMARK SMILES IDX 44 99 76 102 56 103 75 104 57 105 60 106 74 107 93 108
REMARK SMILES IDX 58 109 59 111 73 113 94 114 61 117 45 119 46 120 54 121
REMARK SMILES IDX 47 122 48 123 52 124 55 125 49 126 50 127 53 128 51 129
REMARK SMILES IDX 77 130 78 131 86 132 79 133 80 134 84 135 87 136 81 137
REMARK SMILES IDX 82 138 85 139 83 140 62 141 63 142 71 143 64 144 65 145
REMARK SMILES IDX 69 146 72 147 66 148 67 149 70 150 68 151
REMARK H PARENT 27 2 27 3 26 7 16 9 15 13 9 18 9 19 12 21 10 22 10 23 11 24
REMARK H PARENT 11 25 1 31 1 32 1 33 3 35 3 36 3 37 4 39 4 40 4 41 17 43 17 44
REMARK H PARENT 19 49 23 51 20 53 22 54 21 55 28 57 28 58 29 60 29 61 30 63
REMARK H PARENT 30 64 31 66 31 67 32 69 32 70 33 73 37 79 98 81 38 83 97 84
REMARK H PARENT 96 94 90 96 92 98 95 100 89 101 57 110 60 112 93 115 58 116
REMARK H PARENT 94 118
REMARK Flexibility Score: inf
ROOT
ATOM      1  C   UNL A   1      35.730  23.742  24.380  1.00  0.00     0.017 C 
ATOM      2  H   UNL A   1      36.669  24.248  24.317  1.00  0.00     0.049 H 
ATOM      3  H   UNL A   1      34.963  24.221  23.808  1.00  0.00     0.049 H 
ENDROOT
BRANCH   1   4
ATOM      4  N   UNL A   1      35.295  23.761  25.758  1.00  0.00    -0.354 N 
ATOM      5  C   UNL A   1      34.034  23.710  26.271  1.00  0.00     0.242 C 
ATOM      6  O   UNL A   1      33.926  23.328  27.444  1.00  0.00    -0.273 OA
ATOM      7  H   UNL A   1      36.018  23.819  26.424  1.00  0.00     0.163 HD
BRANCH   5   8
ATOM      8  C   UNL A   1      32.756  23.984  25.442  1.00  0.00     0.112 C 
ATOM      9  H   UNL A   1      32.290  24.782  25.980  1.00  0.00     0.064 H 
BRANCH   8  10
ATOM     10  N   UNL A   1      32.979  24.551  24.107  1.00  0.00    -0.342 N 
ATOM     11  C   UNL A   1      32.422  25.655  23.524  1.00  0.00     0.243 C 
ATOM     12  O   UNL A   1      32.739  25.901  22.358  1.00  0.00    -0.273 OA
ATOM     13  H   UNL A   1      33.626  24.063  23.548  1.00  0.00     0.164 HD
BRANCH  11  14
ATOM     14  C   UNL A   1      31.349  26.450  24.291  1.00  0.00     0.114 C 
ATOM     15  N   UNL A   1      31.246  27.837  23.861  1.00  0.00    -0.296 N 
ATOM     16  C   UNL A   1      29.990  28.106  23.199  1.00  0.00     0.025 C 
ATOM     17  C   UNL A   1      29.057  27.063  23.783  1.00  0.00    -0.033 C 
ATOM     18  H   UNL A   1      30.082  27.988  22.139  1.00  0.00     0.050 H 
ATOM     19  H   UNL A   1      29.644  29.108  23.347  1.00  0.00     0.050 H 
ATOM     20  C   UNL A   1      29.962  25.854  24.002  1.00  0.00    -0.022 C 
ATOM     21  H   UNL A   1      31.639  26.398  25.319  1.00  0.00     0.064 H 
ATOM     22  H   UNL A   1      28.267  26.830  23.101  1.00  0.00     0.029 H 
ATOM     23  H   UNL A   1      28.578  27.392  24.682  1.00  0.00     0.029 H 
ATOM     24  H   UNL A   1      29.990  25.242  23.126  1.00  0.00     0.029 H 
ATOM     25  H   UNL A   1      29.617  25.230  24.799  1.00  0.00     0.029 H 
BRANCH  15  26
ATOM     26  C   UNL A   1      32.211  28.753  24.198  1.00  0.00     0.410 C 
ATOM     27  O   UNL A   1      33.205  28.949  23.520  1.00  0.00    -0.224 OA
BRANCH  26  28
ATOM     28  O   UNL A   1      31.943  29.342  25.389  1.00  0.00    -0.444 OA
BRANCH  28  29
ATOM     29  C   UNL A   1      32.634  28.975  26.612  1.00  0.00     0.106 C 
BRANCH  29  30
ATOM     30  C   UNL A   1      33.029  30.315  27.251  1.00  0.00    -0.025 C 
ATOM     31  H   UNL A   1      33.768  30.795  26.644  1.00  0.00     0.027 H 
ATOM     32  H   UNL A   1      33.429  30.140  28.228  1.00  0.00     0.027 H 
ATOM     33  H   UNL A   1      32.167  30.943  27.326  1.00  0.00     0.027 H 
ENDBRANCH  29  30
BRANCH  29  34
ATOM     34  C   UNL A   1      33.895  28.194  26.240  1.00  0.00    -0.025 C 
ATOM     35  H   UNL A   1      33.630  27.361  25.623  1.00  0.00     0.027 H 
ATOM     36  H   UNL A   1      34.372  27.842  27.131  1.00  0.00     0.027 H 
ATOM     37  H   UNL A   1      34.566  28.834  25.706  1.00  0.00     0.027 H 
ENDBRANCH  29  34
BRANCH  29  38
ATOM     38  C   UNL A   1      31.777  28.203  27.625  1.00  0.00    -0.025 C 
ATOM     39  H   UNL A   1      31.293  27.385  27.134  1.00  0.00     0.027 H 
ATOM     40  H   UNL A   1      31.039  28.857  28.040  1.00  0.00     0.027 H 
ATOM     41  H   UNL A   1      32.403  27.829  28.408  1.00  0.00     0.027 H 
ENDBRANCH  29  38
ENDBRANCH  28  29
ENDBRANCH  26  28
ENDBRANCH  15  26
ENDBRANCH  11  14
ENDBRANCH   8  10
BRANCH   8  42
ATOM     42  C   UNL A   1      31.732  22.827  25.456  1.00  0.00     0.002 C 
ATOM     43  H   UNL A   1      30.881  23.146  24.890  1.00  0.00     0.034 H 
ATOM     44  H   UNL A   1      31.552  22.639  26.494  1.00  0.00     0.034 H 
BRANCH  42  45
ATOM     45  C   UNL A   1      32.168  21.493  24.898  1.00  0.00    -0.045 A 
ATOM     46  C   UNL A   1      32.702  20.515  25.751  1.00  0.00    -0.059 A 
ATOM     47  C   UNL A   1      32.054  21.205  23.530  1.00  0.00    -0.059 A 
ATOM     48  C   UNL A   1      33.157  19.297  25.239  1.00  0.00    -0.062 A 
ATOM     49  H   UNL A   1      32.759  20.696  26.766  1.00  0.00     0.063 H 
ATOM     50  C   UNL A   1      32.528  19.995  23.018  1.00  0.00    -0.062 A 
ATOM     51  H   UNL A   1      31.614  21.892  22.898  1.00  0.00     0.063 H 
ATOM     52  C   UNL A   1      33.084  19.044  23.871  1.00  0.00    -0.062 A 
ATOM     53  H   UNL A   1      33.547  18.585  25.874  1.00  0.00     0.062 H 
ATOM     54  H   UNL A   1      32.467  19.806  22.005  1.00  0.00     0.062 H 
ATOM     55  H   UNL A   1      33.440  18.154  23.491  1.00  0.00     0.062 H 
ENDBRANCH  42  45
ENDBRANCH   8  42
ENDBRANCH   5   8
ENDBRANCH   1   4
BRANCH   1  56
ATOM     56  C   UNL A   1      35.899  22.345  23.800  1.00  0.00    -0.036 C 
ATOM     57  H   UNL A   1      35.960  22.434  22.735  1.00  0.00     0.028 H 
ATOM     58  H   UNL A   1      35.053  21.780  24.133  1.00  0.00     0.028 H 
BRANCH  56  59
ATOM     59  C   UNL A   1      37.137  21.583  24.281  1.00  0.00    -0.052 C 
ATOM     60  H   UNL A   1      37.617  22.181  25.027  1.00  0.00     0.027 H 
ATOM     61  H   UNL A   1      37.724  21.411  23.404  1.00  0.00     0.027 H 
BRANCH  59  62
ATOM     62  C   UNL A   1      36.889  20.195  24.886  1.00  0.00    -0.052 C 
ATOM     63  H   UNL A   1      36.162  19.700  24.277  1.00  0.00     0.027 H 
ATOM     64  H   UNL A   1      36.575  20.377  25.892  1.00  0.00     0.027 H 
BRANCH  62  65
ATOM     65  C   UNL A   1      38.106  19.273  25.001  1.00  0.00    -0.036 C 
ATOM     66  H   UNL A   1      38.483  19.104  24.014  1.00  0.00     0.028 H 
ATOM     67  H   UNL A   1      37.754  18.389  25.491  1.00  0.00     0.028 H 
BRANCH  65  68
ATOM     68  C   UNL A   1      39.257  19.790  25.858  1.00  0.00     0.018 C 
ATOM     69  H   UNL A   1      38.904  19.925  26.859  1.00  0.00     0.049 H 
ATOM     70  H   UNL A   1      39.590  20.710  25.427  1.00  0.00     0.049 H 
BRANCH  68  71
ATOM     71  N   UNL A   1      40.390  18.883  25.883  1.00  0.00    -0.352 N 
ATOM     72  C   UNL A   1      41.730  19.135  26.027  1.00  0.00     0.251 C 
ATOM     73  H   UNL A   1      40.158  17.931  25.781  1.00  0.00     0.163 HD
ATOM     74  O   UNL A   1      42.537  18.222  25.873  1.00  0.00    -0.269 OA
BRANCH  72  75
ATOM     75  C   UNL A   1      42.224  20.496  26.341  1.00  0.00     0.039 A 
ATOM     76  C   UNL A   1      42.658  21.305  25.286  1.00  0.00    -0.049 A 
ATOM     77  C   UNL A   1      42.311  20.965  27.654  1.00  0.00    -0.049 A 
ATOM     78  C   UNL A   1      43.126  22.598  25.540  1.00  0.00    -0.053 A 
ATOM     79  H   UNL A   1      42.634  20.948  24.317  1.00  0.00     0.063 H 
ATOM     80  C   UNL A   1      42.711  22.278  27.901  1.00  0.00    -0.053 A 
ATOM     81  H   UNL A   1      42.079  20.340  28.441  1.00  0.00     0.063 H 
ATOM     82  C   UNL A   1      43.129  23.106  26.848  1.00  0.00    -0.014 A 
ATOM     83  H   UNL A   1      43.471  23.181  24.761  1.00  0.00     0.063 H 
ATOM     84  H   UNL A   1      42.700  22.644  28.866  1.00  0.00     0.063 H 
BRANCH  82  85
ATOM     85  C   UNL A   1      43.570  24.497  27.129  1.00  0.00     0.031 A 
ATOM     86  C   UNL A   1      42.591  25.518  27.636  1.00  0.00     0.074 A 
ATOM     87  C   UNL A   1      44.841  24.858  26.864  1.00  0.00     0.049 A 
ATOM     88  N   UNL A   1      42.772  26.793  27.874  1.00  0.00    -0.248 NA
ATOM     89  C   UNL A   1      41.217  25.052  27.880  1.00  0.00    -0.034 C 
ATOM     90  C   UNL A   1      45.872  23.976  26.318  1.00  0.00    -0.036 A 
ATOM     91  N   UNL A   1      45.475  26.068  27.001  1.00  0.00    -0.354 N 
ATOM     92  C   UNL A   1      41.535  27.284  28.271  1.00  0.00     0.074 A 
ATOM     93  C   UNL A   1      40.601  26.179  28.200  1.00  0.00    -0.034 C 
ATOM     94  H   UNL A   1      40.834  24.095  27.817  1.00  0.00     0.065 H 
ATOM     95  C   UNL A   1      47.013  24.669  26.178  1.00  0.00    -0.036 A 
ATOM     96  H   UNL A   1      45.744  22.981  26.080  1.00  0.00     0.065 H 
ATOM     97  C   UNL A   1      46.786  26.051  26.593  1.00  0.00     0.049 A 
ATOM     98  H   UNL A   1      45.031  26.872  27.358  1.00  0.00     0.167 HD
ATOM     99  C   UNL A   1      41.211  28.536  28.675  1.00  0.00     0.037 A 
ATOM    100  H   UNL A   1      39.588  26.261  28.377  1.00  0.00     0.065 H 
ATOM    101  H   UNL A   1      47.908  24.287  25.833  1.00  0.00     0.065 H 
ATOM    102  C   UNL A   1      47.700  27.039  26.550  1.00  0.00     0.037 A 
ATOM    103  C   UNL A   1      42.149  29.622  28.780  1.00  0.00     0.049 A 
ATOM    104  C   UNL A   1      47.324  28.413  27.029  1.00  0.00     0.074 A 
ATOM    105  C   UNL A   1      41.938  30.901  29.265  1.00  0.00    -0.036 A 
ATOM    106  N   UNL A   1      43.480  29.557  28.390  1.00  0.00    -0.354 N 
ATOM    107  N   UNL A   1      46.172  28.845  27.479  1.00  0.00    -0.248 NA
ATOM    108  C   UNL A   1      48.379  29.436  27.002  1.00  0.00    -0.034 C 
ATOM    109  C   UNL A   1      43.128  31.625  29.125  1.00  0.00    -0.036 A 
ATOM    110  H   UNL A   1      41.055  31.260  29.660  1.00  0.00     0.065 H 
ATOM    111  C   UNL A   1      44.094  30.782  28.599  1.00  0.00     0.049 A 
ATOM    112  H   UNL A   1      43.921  28.760  28.021  1.00  0.00     0.167 HD
ATOM    113  C   UNL A   1      46.366  30.179  27.808  1.00  0.00     0.074 A 
ATOM    114  C   UNL A   1      47.753  30.483  27.521  1.00  0.00    -0.034 C 
ATOM    115  H   UNL A   1      49.353  29.360  26.668  1.00  0.00     0.065 H 
ATOM    116  H   UNL A   1      43.262  32.617  29.373  1.00  0.00     0.065 H 
ATOM    117  C   UNL A   1      45.474  31.072  28.306  1.00  0.00     0.037 A 
ATOM    118  H   UNL A   1      48.196  31.398  27.696  1.00  0.00     0.065 H 
BRANCH  99 119
ATOM    119  C   UNL A   1      39.777  28.800  29.033  1.00  0.00     0.064 A 
ATOM    120  C   UNL A   1      39.296  28.624  30.339  1.00  0.00     0.173 A 
ATOM    121  C   UNL A   1      38.877  29.261  28.060  1.00  0.00     0.173 A 
ATOM    122  F   UNL A   1      40.114  28.176  31.304  1.00  0.00    -0.203 F 
ATOM    123  C   UNL A   1      37.961  28.867  30.652  1.00  0.00     0.198 A 
ATOM    124  C   UNL A   1      37.549  29.533  28.383  1.00  0.00     0.198 A 
ATOM    125  F   UNL A   1      39.285  29.453  26.797  1.00  0.00    -0.203 F 
ATOM    126  F   UNL A   1      37.514  28.642  31.895  1.00  0.00    -0.200 F 
ATOM    127  C   UNL A   1      37.090  29.327  29.675  1.00  0.00     0.200 A 
ATOM    128  F   UNL A   1      36.712  29.989  27.442  1.00  0.00    -0.200 F 
ATOM    129  F   UNL A   1      35.807  29.564  29.978  1.00  0.00    -0.200 F 
ENDBRANCH  99 119
BRANCH 102 130
ATOM    130  C   UNL A   1      49.069  26.749  26.052  1.00  0.00     0.064 A 
ATOM    131  C   UNL A   1      50.039  26.189  26.895  1.00  0.00     0.173 A 
ATOM    132  C   UNL A   1      49.429  27.006  24.721  1.00  0.00     0.173 A 
ATOM    133  F   UNL A   1      49.746  25.944  28.180  1.00  0.00    -0.203 F 
ATOM    134  C   UNL A   1      51.321  25.908  26.429  1.00  0.00     0.198 A 
ATOM    135  C   UNL A   1      50.704  26.701  24.250  1.00  0.00     0.198 A 
ATOM    136  F   UNL A   1      48.534  27.535  23.873  1.00  0.00    -0.203 F 
ATOM    137  F   UNL A   1      52.240  25.405  27.264  1.00  0.00    -0.200 F 
ATOM    138  C   UNL A   1      51.650  26.158  25.105  1.00  0.00     0.200 A 
ATOM    139  F   UNL A   1      51.014  26.930  22.966  1.00  0.00    -0.200 F 
ATOM    140  F   UNL A   1      52.881  25.878  24.654  1.00  0.00    -0.200 F 
ENDBRANCH 102 130
BRANCH 117 141
ATOM    141  C   UNL A   1      45.975  32.458  28.590  1.00  0.00     0.064 A 
ATOM    142  C   UNL A   1      46.551  32.791  29.825  1.00  0.00     0.173 A 
ATOM    143  C   UNL A   1      45.915  33.451  27.602  1.00  0.00     0.173 A 
ATOM    144  F   UNL A   1      46.616  31.881  30.807  1.00  0.00    -0.203 F 
ATOM    145  C   UNL A   1      47.030  34.077  30.066  1.00  0.00     0.198 A 
ATOM    146  C   UNL A   1      46.421  34.727  27.837  1.00  0.00     0.198 A 
ATOM    147  F   UNL A   1      45.378  33.181  26.402  1.00  0.00    -0.203 F 
ATOM    148  F   UNL A   1      47.538  34.385  31.267  1.00  0.00    -0.200 F 
ATOM    149  C   UNL A   1      46.971  35.040  29.070  1.00  0.00     0.200 A 
ATOM    150  F   UNL A   1      46.374  35.654  26.869  1.00  0.00    -0.200 F 
ATOM    151  F   UNL A   1      47.441  36.273  29.302  1.00  0.00    -0.200 F 
ENDBRANCH 117 141
ENDBRANCH  82  85
ENDBRANCH  72  75
ENDBRANCH  68  71
ENDBRANCH  65  68
ENDBRANCH  62  65
ENDBRANCH  59  62
ENDBRANCH  56  59
ENDBRANCH   1  56
TORSDOF 23
ENDMDL
MODEL 5
REMARK VINA RESULT:     -11.2      1.117      2.342
REMARK SMILES CC(C)(C)OC(=O)N1CCC[C@H]1C(=O)N[C@@H](Cc1ccccc1)C(=O)NCCCCCCNC(=O)c1ccc(-c2c3nc(c(-c4c(F)c(F)c(F)c(F)c4F)c4ccc([nH]4)c(-c4c(F)c(F)c(F)c(F)c4F)c4nc(c(-c5c(F)c(F)c(F)c(F)c5F)c5ccc2[nH]5)C=C4)C=C3)cc1
REMARK SMILES IDX 27 1 26 4 24 5 25 6 16 8 15 10 13 11 14 12 12 14 8 15 9 16
REMARK SMILES IDX 10 17 11 20 6 26 7 27 5 28 2 29 1 30 3 34 4 38 17 42 18 45
REMARK SMILES IDX 19 46 23 47 20 48 22 50 21 52 28 56 29 59 30 62 31 65 32 68
REMARK SMILES IDX 33 71 34 72 35 74 36 75 37 76 98 77 38 78 97 80 39 82 40 85
REMARK SMILES IDX 41 86 91 87 42 88 96 89 90 90 92 91 43 92 95 93 89 95 88 97
REMARK SMILES IDX 44 99 76 102 56 103 75 104 57 105 60 106 74 107 93 108
REMARK SMILES IDX 58 109 59 111 73 113 94 114 61 117 45 119 46 120 54 121
REMARK SMILES IDX 47 122 48 123 52 124 55 125 49 126 50 127 53 128 51 129
REMARK SMILES IDX 77 130 78 131 86 132 79 133 80 134 84 135 87 136 81 137
REMARK SMILES IDX 82 138 85 139 83 140 62 141 63 142 71 143 64 144 65 145
REMARK SMILES IDX 69 146 72 147 66 148 67 149 70 150 68 151
REMARK H PARENT 27 2 27 3 26 7 16 9 15 13 9 18 9 19 12 21 10 22 10 23 11 24
REMARK H PARENT 11 25 1 31 1 32 1 33 3 35 3 36 3 37 4 39 4 40 4 41 17 43 17 44
REMARK H PARENT 19 49 23 51 20 53 22 54 21 55 28 57 28 58 29 60 29 61 30 63
REMARK H PARENT 30 64 31 66 31 67 32 69 32 70 33 73 37 79 98 81 38 83 97 84
REMARK H PARENT 96 94 90 96 92 98 95 100 89 101 57 110 60 112 93 115 58 116
REMARK H PARENT 94 118
REMARK Flexibility Score: inf
ROOT
ATOM      1  C   UNL A   1      32.880  27.795  26.311  1.00  0.00     0.017 C 
ATOM      2  H   UNL A   1      33.055  26.797  26.653  1.00  0.00     0.049 H 
ATOM      3  H   UNL A   1      31.839  28.021  26.209  1.00  0.00     0.049 H 
ENDROOT
BRANCH   1   4
ATOM      4  N   UNL A   1      33.468  27.934  24.999  1.00  0.00    -0.354 N 
ATOM      5  C   UNL A   1      32.885  28.297  23.822  1.00  0.00     0.242 C 
ATOM      6  O   UNL A   1      33.637  28.741  22.943  1.00  0.00    -0.273 OA
ATOM      7  H   UNL A   1      34.430  27.736  24.948  1.00  0.00     0.163 HD
BRANCH   5   8
ATOM      8  C   UNL A   1      31.356  28.293  23.580  1.00  0.00     0.112 C 
ATOM      9  H   UNL A   1      31.282  28.435  22.522  1.00  0.00     0.064 H 
BRANCH   8  10
ATOM     10  N   UNL A   1      30.685  27.007  23.804  1.00  0.00    -0.342 N 
ATOM     11  C   UNL A   1      31.114  25.739  23.524  1.00  0.00     0.243 C 
ATOM     12  O   UNL A   1      30.337  24.813  23.765  1.00  0.00    -0.273 OA
ATOM     13  H   UNL A   1      29.794  27.066  24.217  1.00  0.00     0.164 HD
BRANCH  11  14
ATOM     14  C   UNL A   1      32.468  25.542  22.817  1.00  0.00     0.114 C 
ATOM     15  N   UNL A   1      33.145  24.314  23.209  1.00  0.00    -0.296 N 
ATOM     16  C   UNL A   1      33.218  23.366  22.120  1.00  0.00     0.025 C 
ATOM     17  C   UNL A   1      33.160  24.246  20.886  1.00  0.00    -0.033 C 
ATOM     18  H   UNL A   1      32.389  22.688  22.146  1.00  0.00     0.050 H 
ATOM     19  H   UNL A   1      34.093  22.751  22.156  1.00  0.00     0.050 H 
ATOM     20  C   UNL A   1      32.242  25.391  21.305  1.00  0.00    -0.022 C 
ATOM     21  H   UNL A   1      33.055  26.394  23.087  1.00  0.00     0.064 H 
ATOM     22  H   UNL A   1      32.750  23.713  20.055  1.00  0.00     0.029 H 
ATOM     23  H   UNL A   1      34.126  24.582  20.571  1.00  0.00     0.029 H 
ATOM     24  H   UNL A   1      31.221  25.149  21.099  1.00  0.00     0.029 H 
ATOM     25  H   UNL A   1      32.455  26.295  20.774  1.00  0.00     0.029 H 
BRANCH  15  26
ATOM     26  C   UNL A   1      33.736  24.196  24.442  1.00  0.00     0.410 C 
ATOM     27  O   UNL A   1      33.099  24.049  25.471  1.00  0.00    -0.224 OA
BRANCH  26  28
ATOM     28  O   UNL A   1      35.083  24.330  24.363  1.00  0.00    -0.444 OA
BRANCH  28  29
ATOM     29  C   UNL A   1      35.986  23.202  24.497  1.00  0.00     0.106 C 
BRANCH  29  30
ATOM     30  C   UNL A   1      37.047  23.672  25.504  1.00  0.00    -0.025 C 
ATOM     31  H   UNL A   1      37.159  24.735  25.434  1.00  0.00     0.027 H 
ATOM     32  H   UNL A   1      37.981  23.199  25.285  1.00  0.00     0.027 H 
ATOM     33  H   UNL A   1      36.739  23.412  26.494  1.00  0.00     0.027 H 
ENDBRANCH  29  30
BRANCH  29  34
ATOM     34  C   UNL A   1      36.646  22.947  23.142  1.00  0.00    -0.025 C 
ATOM     35  H   UNL A   1      35.971  22.406  22.512  1.00  0.00     0.027 H 
ATOM     36  H   UNL A   1      37.539  22.373  23.283  1.00  0.00     0.027 H 
ATOM     37  H   UNL A   1      36.892  23.881  22.683  1.00  0.00     0.027 H 
ENDBRANCH  29  34
BRANCH  29  38
ATOM     38  C   UNL A   1      35.340  21.926  25.053  1.00  0.00    -0.025 C 
ATOM     39  H   UNL A   1      35.522  21.862  26.105  1.00  0.00     0.027 H 
ATOM     40  H   UNL A   1      35.762  21.071  24.566  1.00  0.00     0.027 H 
ATOM     41  H   UNL A   1      34.285  21.953  24.874  1.00  0.00     0.027 H 
ENDBRANCH  29  38
ENDBRANCH  28  29
ENDBRANCH  26  28
ENDBRANCH  15  26
ENDBRANCH  11  14
ENDBRANCH   8  10
BRANCH   8  42
ATOM     42  C   UNL A   1      30.613  29.492  24.209  1.00  0.00     0.002 C 
ATOM     43  H   UNL A   1      31.354  30.186  24.547  1.00  0.00     0.034 H 
ATOM     44  H   UNL A   1      30.003  29.060  24.974  1.00  0.00     0.034 H 
BRANCH  42  45
ATOM     45  C   UNL A   1      29.644  30.256  23.338  1.00  0.00    -0.045 A 
ATOM     46  C   UNL A   1      28.993  31.394  23.840  1.00  0.00    -0.059 A 
ATOM     47  C   UNL A   1      29.373  29.850  22.023  1.00  0.00    -0.059 A 
ATOM     48  C   UNL A   1      28.057  32.078  23.062  1.00  0.00    -0.062 A 
ATOM     49  H   UNL A   1      29.208  31.728  24.793  1.00  0.00     0.063 H 
ATOM     50  C   UNL A   1      28.421  30.524  21.255  1.00  0.00    -0.062 A 
ATOM     51  H   UNL A   1      29.882  29.048  21.620  1.00  0.00     0.063 H 
ATOM     52  C   UNL A   1      27.760  31.634  21.775  1.00  0.00    -0.062 A 
ATOM     53  H   UNL A   1      27.584  32.913  23.440  1.00  0.00     0.062 H 
ATOM     54  H   UNL A   1      28.207  30.198  20.299  1.00  0.00     0.062 H 
ATOM     55  H   UNL A   1      27.052  32.127  21.209  1.00  0.00     0.062 H 
ENDBRANCH  42  45
ENDBRANCH   8  42
ENDBRANCH   5   8
ENDBRANCH   1   4
BRANCH   1  56
ATOM     56  C   UNL A   1      33.437  28.760  27.348  1.00  0.00    -0.036 C 
ATOM     57  H   UNL A   1      34.492  28.592  27.423  1.00  0.00     0.028 H 
ATOM     58  H   UNL A   1      32.907  28.561  28.256  1.00  0.00     0.028 H 
BRANCH  56  59
ATOM     59  C   UNL A   1      33.216  30.245  27.044  1.00  0.00    -0.052 C 
ATOM     60  H   UNL A   1      33.699  30.462  26.113  1.00  0.00     0.027 H 
ATOM     61  H   UNL A   1      33.617  30.769  27.885  1.00  0.00     0.027 H 
BRANCH  59  62
ATOM     62  C   UNL A   1      31.757  30.706  26.932  1.00  0.00    -0.052 C 
ATOM     63  H   UNL A   1      31.219  30.286  27.755  1.00  0.00     0.027 H 
ATOM     64  H   UNL A   1      31.428  30.372  25.970  1.00  0.00     0.027 H 
BRANCH  62  65
ATOM     65  C   UNL A   1      31.517  32.218  26.939  1.00  0.00    -0.036 C 
ATOM     66  H   UNL A   1      30.874  32.443  27.764  1.00  0.00     0.028 H 
ATOM     67  H   UNL A   1      31.096  32.449  25.982  1.00  0.00     0.028 H 
BRANCH  65  68
ATOM     68  C   UNL A   1      32.761  33.092  27.065  1.00  0.00     0.018 C 
ATOM     69  H   UNL A   1      33.167  33.251  26.088  1.00  0.00     0.049 H 
ATOM     70  H   UNL A   1      33.449  32.581  27.703  1.00  0.00     0.049 H 
BRANCH  68  71
ATOM     71  N   UNL A   1      32.481  34.383  27.667  1.00  0.00    -0.352 N 
ATOM     72  C   UNL A   1      33.043  34.999  28.755  1.00  0.00     0.251 C 
ATOM     73  H   UNL A   1      31.772  34.901  27.221  1.00  0.00     0.163 HD
ATOM     74  O   UNL A   1      32.552  36.040  29.183  1.00  0.00    -0.269 OA
BRANCH  72  75
ATOM     75  C   UNL A   1      34.221  34.418  29.441  1.00  0.00     0.039 A 
ATOM     76  C   UNL A   1      34.009  33.652  30.592  1.00  0.00    -0.049 A 
ATOM     77  C   UNL A   1      35.525  34.655  28.998  1.00  0.00    -0.049 A 
ATOM     78  C   UNL A   1      35.093  33.082  31.265  1.00  0.00    -0.053 A 
ATOM     79  H   UNL A   1      33.050  33.508  30.946  1.00  0.00     0.063 H 
ATOM     80  C   UNL A   1      36.600  34.028  29.626  1.00  0.00    -0.053 A 
ATOM     81  H   UNL A   1      35.691  35.293  28.204  1.00  0.00     0.063 H 
ATOM     82  C   UNL A   1      36.397  33.240  30.770  1.00  0.00    -0.014 A 
ATOM     83  H   UNL A   1      34.934  32.540  32.129  1.00  0.00     0.063 H 
ATOM     84  H   UNL A   1      37.554  34.145  29.249  1.00  0.00     0.063 H 
BRANCH  82  85
ATOM     85  C   UNL A   1      37.555  32.595  31.440  1.00  0.00     0.031 A 
ATOM     86  C   UNL A   1      38.254  31.430  30.798  1.00  0.00     0.074 A 
ATOM     87  C   UNL A   1      37.937  33.016  32.662  1.00  0.00     0.049 A 
ATOM     88  N   UNL A   1      39.236  30.695  31.258  1.00  0.00    -0.248 NA
ATOM     89  C   UNL A   1      37.765  31.015  29.474  1.00  0.00    -0.034 C 
ATOM     90  C   UNL A   1      37.306  34.099  33.416  1.00  0.00    -0.036 A 
ATOM     91  N   UNL A   1      38.936  32.571  33.491  1.00  0.00    -0.354 N 
ATOM     92  C   UNL A   1      39.464  29.722  30.295  1.00  0.00     0.074 A 
ATOM     93  C   UNL A   1      38.491  29.931  29.244  1.00  0.00    -0.034 C 
ATOM     94  H   UNL A   1      37.044  31.454  28.880  1.00  0.00     0.065 H 
ATOM     95  C   UNL A   1      37.939  34.243  34.591  1.00  0.00    -0.036 A 
ATOM     96  H   UNL A   1      36.503  34.663  33.096  1.00  0.00     0.065 H 
ATOM     97  C   UNL A   1      38.999  33.243  34.687  1.00  0.00     0.049 A 
ATOM     98  H   UNL A   1      39.549  31.838  33.251  1.00  0.00     0.167 HD
ATOM     99  C   UNL A   1      40.412  28.753  30.279  1.00  0.00     0.037 A 
ATOM    100  H   UNL A   1      38.378  29.316  28.424  1.00  0.00     0.065 H 
ATOM    101  H   UNL A   1      37.714  34.948  35.310  1.00  0.00     0.065 H 
ATOM    102  C   UNL A   1      39.813  33.068  35.745  1.00  0.00     0.037 A 
ATOM    103  C   UNL A   1      41.403  28.570  31.307  1.00  0.00     0.049 A 
ATOM    104  C   UNL A   1      40.874  32.005  35.693  1.00  0.00     0.074 A 
ATOM    105  C   UNL A   1      42.459  27.677  31.338  1.00  0.00    -0.036 A 
ATOM    106  N   UNL A   1      41.457  29.295  32.489  1.00  0.00    -0.354 N 
ATOM    107  N   UNL A   1      41.132  31.143  34.741  1.00  0.00    -0.248 NA
ATOM    108  C   UNL A   1      41.761  31.895  36.859  1.00  0.00    -0.034 C 
ATOM    109  C   UNL A   1      43.125  27.829  32.560  1.00  0.00    -0.036 A 
ATOM    110  H   UNL A   1      42.712  27.013  30.591  1.00  0.00     0.065 H 
ATOM    111  C   UNL A   1      42.513  28.851  33.269  1.00  0.00     0.049 A 
ATOM    112  H   UNL A   1      40.837  30.018  32.737  1.00  0.00     0.167 HD
ATOM    113  C   UNL A   1      42.222  30.403  35.181  1.00  0.00     0.074 A 
ATOM    114  C   UNL A   1      42.586  30.930  36.480  1.00  0.00    -0.034 C 
ATOM    115  H   UNL A   1      41.747  32.431  37.742  1.00  0.00     0.065 H 
ATOM    116  H   UNL A   1      43.935  27.274  32.878  1.00  0.00     0.065 H 
ATOM    117  C   UNL A   1      42.863  29.381  34.561  1.00  0.00     0.037 A 
ATOM    118  H   UNL A   1      43.386  30.594  37.040  1.00  0.00     0.065 H 
BRANCH  99 119
ATOM    119  C   UNL A   1      40.420  27.811  29.110  1.00  0.00     0.064 A 
ATOM    120  C   UNL A   1      39.632  26.650  29.090  1.00  0.00     0.173 A 
ATOM    121  C   UNL A   1      41.208  28.087  27.982  1.00  0.00     0.173 A 
ATOM    122  F   UNL A   1      38.869  26.335  30.148  1.00  0.00    -0.203 F 
ATOM    123  C   UNL A   1      39.658  25.784  28.000  1.00  0.00     0.198 A 
ATOM    124  C   UNL A   1      41.208  27.234  26.880  1.00  0.00     0.198 A 
ATOM    125  F   UNL A   1      41.974  29.187  27.945  1.00  0.00    -0.203 F 
ATOM    126  F   UNL A   1      38.937  24.654  28.027  1.00  0.00    -0.200 F 
ATOM    127  C   UNL A   1      40.440  26.080  26.894  1.00  0.00     0.200 A 
ATOM    128  F   UNL A   1      41.954  27.528  25.807  1.00  0.00    -0.200 F 
ATOM    129  F   UNL A   1      40.462  25.247  25.844  1.00  0.00    -0.200 F 
ENDBRANCH  99 119
BRANCH 102 130
ATOM    130  C   UNL A   1      39.665  33.943  36.936  1.00  0.00     0.064 A 
ATOM    131  C   UNL A   1      40.303  35.189  36.999  1.00  0.00     0.173 A 
ATOM    132  C   UNL A   1      38.866  33.563  38.025  1.00  0.00     0.173 A 
ATOM    133  F   UNL A   1      41.092  35.588  35.990  1.00  0.00    -0.203 F 
ATOM    134  C   UNL A   1      40.159  36.017  38.110  1.00  0.00     0.198 A 
ATOM    135  C   UNL A   1      38.703  34.402  39.125  1.00  0.00     0.198 A 
ATOM    136  F   UNL A   1      38.229  32.383  38.010  1.00  0.00    -0.203 F 
ATOM    137  F   UNL A   1      40.808  37.188  38.160  1.00  0.00    -0.200 F 
ATOM    138  C   UNL A   1      39.354  35.625  39.169  1.00  0.00     0.200 A 
ATOM    139  F   UNL A   1      37.911  34.026  40.139  1.00  0.00    -0.200 F 
ATOM    140  F   UNL A   1      39.207  36.426  40.234  1.00  0.00    -0.200 F 
ENDBRANCH 102 130
BRANCH 117 141
ATOM    141  C   UNL A   1      44.038  28.776  35.272  1.00  0.00     0.064 A 
ATOM    142  C   UNL A   1      45.338  29.270  35.094  1.00  0.00     0.173 A 
ATOM    143  C   UNL A   1      43.855  27.717  36.173  1.00  0.00     0.173 A 
ATOM    144  F   UNL A   1      45.567  30.271  34.231  1.00  0.00    -0.203 F 
ATOM    145  C   UNL A   1      46.416  28.711  35.777  1.00  0.00     0.198 A 
ATOM    146  C   UNL A   1      44.930  27.179  36.875  1.00  0.00     0.198 A 
ATOM    147  F   UNL A   1      42.630  27.211  36.383  1.00  0.00    -0.203 F 
ATOM    148  F   UNL A   1      47.656  29.172  35.559  1.00  0.00    -0.200 F 
ATOM    149  C   UNL A   1      46.210  27.673  36.671  1.00  0.00     0.200 A 
ATOM    150  F   UNL A   1      44.728  26.183  37.749  1.00  0.00    -0.200 F 
ATOM    151  F   UNL A   1      47.247  27.142  37.333  1.00  0.00    -0.200 F 
ENDBRANCH 117 141
ENDBRANCH  82  85
ENDBRANCH  72  75
ENDBRANCH  68  71
ENDBRANCH  65  68
ENDBRANCH  62  65
ENDBRANCH  59  62
ENDBRANCH  56  59
ENDBRANCH   1  56
TORSDOF 23
ENDMDL
MODEL 6
REMARK VINA RESULT:     -11.2      6.108     10.791
REMARK SMILES CC(C)(C)OC(=O)N1CCC[C@H]1C(=O)N[C@@H](Cc1ccccc1)C(=O)NCCCCCCNC(=O)c1ccc(-c2c3nc(c(-c4c(F)c(F)c(F)c(F)c4F)c4ccc([nH]4)c(-c4c(F)c(F)c(F)c(F)c4F)c4nc(c(-c5c(F)c(F)c(F)c(F)c5F)c5ccc2[nH]5)C=C4)C=C3)cc1
REMARK SMILES IDX 27 1 26 4 24 5 25 6 16 8 15 10 13 11 14 12 12 14 8 15 9 16
REMARK SMILES IDX 10 17 11 20 6 26 7 27 5 28 2 29 1 30 3 34 4 38 17 42 18 45
REMARK SMILES IDX 19 46 23 47 20 48 22 50 21 52 28 56 29 59 30 62 31 65 32 68
REMARK SMILES IDX 33 71 34 72 35 74 36 75 37 76 98 77 38 78 97 80 39 82 40 85
REMARK SMILES IDX 41 86 91 87 42 88 96 89 90 90 92 91 43 92 95 93 89 95 88 97
REMARK SMILES IDX 44 99 76 102 56 103 75 104 57 105 60 106 74 107 93 108
REMARK SMILES IDX 58 109 59 111 73 113 94 114 61 117 45 119 46 120 54 121
REMARK SMILES IDX 47 122 48 123 52 124 55 125 49 126 50 127 53 128 51 129
REMARK SMILES IDX 77 130 78 131 86 132 79 133 80 134 84 135 87 136 81 137
REMARK SMILES IDX 82 138 85 139 83 140 62 141 63 142 71 143 64 144 65 145
REMARK SMILES IDX 69 146 72 147 66 148 67 149 70 150 68 151
REMARK H PARENT 27 2 27 3 26 7 16 9 15 13 9 18 9 19 12 21 10 22 10 23 11 24
REMARK H PARENT 11 25 1 31 1 32 1 33 3 35 3 36 3 37 4 39 4 40 4 41 17 43 17 44
REMARK H PARENT 19 49 23 51 20 53 22 54 21 55 28 57 28 58 29 60 29 61 30 63
REMARK H PARENT 30 64 31 66 31 67 32 69 32 70 33 73 37 79 98 81 38 83 97 84
REMARK H PARENT 96 94 90 96 92 98 95 100 89 101 57 110 60 112 93 115 58 116
REMARK H PARENT 94 118
REMARK Flexibility Score: inf
ROOT
ATOM      1  C   UNL A   1      37.876  23.350  26.116  1.00  0.00     0.017 C 
ATOM      2  H   UNL A   1      37.125  22.793  26.635  1.00  0.00     0.049 H 
ATOM      3  H   UNL A   1      37.766  24.407  26.236  1.00  0.00     0.049 H 
ENDROOT
BRANCH   1   4
ATOM      4  N   UNL A   1      37.748  23.076  24.703  1.00  0.00    -0.354 N 
ATOM      5  C   UNL A   1      36.646  22.722  23.984  1.00  0.00     0.242 C 
ATOM      6  O   UNL A   1      36.682  22.942  22.766  1.00  0.00    -0.273 OA
ATOM      7  H   UNL A   1      38.580  23.157  24.183  1.00  0.00     0.163 HD
BRANCH   5   8
ATOM      8  C   UNL A   1      35.340  22.183  24.619  1.00  0.00     0.112 C 
ATOM      9  H   UNL A   1      35.110  22.923  25.356  1.00  0.00     0.064 H 
BRANCH   8  10
ATOM     10  N   UNL A   1      34.163  22.189  23.743  1.00  0.00    -0.342 N 
ATOM     11  C   UNL A   1      32.924  22.730  23.949  1.00  0.00     0.243 C 
ATOM     12  O   UNL A   1      32.078  22.559  23.070  1.00  0.00    -0.273 OA
ATOM     13  H   UNL A   1      34.284  21.737  22.876  1.00  0.00     0.164 HD
BRANCH  11  14
ATOM     14  C   UNL A   1      32.614  23.402  25.300  1.00  0.00     0.114 C 
ATOM     15  N   UNL A   1      32.274  24.812  25.173  1.00  0.00    -0.296 N 
ATOM     16  C   UNL A   1      30.891  25.067  25.509  1.00  0.00     0.025 C 
ATOM     17  C   UNL A   1      30.547  23.933  26.454  1.00  0.00    -0.033 C 
ATOM     18  H   UNL A   1      30.273  25.040  24.635  1.00  0.00     0.050 H 
ATOM     19  H   UNL A   1      30.736  26.035  25.940  1.00  0.00     0.050 H 
ATOM     20  C   UNL A   1      31.363  22.760  25.919  1.00  0.00    -0.022 C 
ATOM     21  H   UNL A   1      33.500  23.284  25.886  1.00  0.00     0.064 H 
ATOM     22  H   UNL A   1      29.500  23.715  26.425  1.00  0.00     0.029 H 
ATOM     23  H   UNL A   1      30.768  24.162  27.476  1.00  0.00     0.029 H 
ATOM     24  H   UNL A   1      30.810  22.223  25.179  1.00  0.00     0.029 H 
ATOM     25  H   UNL A   1      31.610  22.056  26.686  1.00  0.00     0.029 H 
BRANCH  15  26
ATOM     26  C   UNL A   1      33.238  25.748  24.892  1.00  0.00     0.410 C 
ATOM     27  O   UNL A   1      34.412  25.600  25.188  1.00  0.00    -0.224 OA
BRANCH  26  28
ATOM     28  O   UNL A   1      32.705  26.855  24.318  1.00  0.00    -0.444 OA
BRANCH  28  29
ATOM     29  C   UNL A   1      32.743  27.083  22.886  1.00  0.00     0.106 C 
BRANCH  29  30
ATOM     30  C   UNL A   1      33.683  28.285  22.709  1.00  0.00    -0.025 C 
ATOM     31  H   UNL A   1      34.385  28.078  21.928  1.00  0.00     0.027 H 
ATOM     32  H   UNL A   1      34.208  28.465  23.623  1.00  0.00     0.027 H 
ATOM     33  H   UNL A   1      33.110  29.151  22.451  1.00  0.00     0.027 H 
ENDBRANCH  29  30
BRANCH  29  34
ATOM     34  C   UNL A   1      31.337  27.462  22.418  1.00  0.00    -0.025 C 
ATOM     35  H   UNL A   1      31.297  28.512  22.218  1.00  0.00     0.027 H 
ATOM     36  H   UNL A   1      30.629  27.217  23.183  1.00  0.00     0.027 H 
ATOM     37  H   UNL A   1      31.099  26.920  21.527  1.00  0.00     0.027 H 
ENDBRANCH  29  34
BRANCH  29  38
ATOM     38  C   UNL A   1      33.309  25.916  22.065  1.00  0.00    -0.025 C 
ATOM     39  H   UNL A   1      32.640  25.084  22.119  1.00  0.00     0.027 H 
ATOM     40  H   UNL A   1      34.263  25.634  22.458  1.00  0.00     0.027 H 
ATOM     41  H   UNL A   1      33.420  26.219  21.044  1.00  0.00     0.027 H 
ENDBRANCH  29  38
ENDBRANCH  28  29
ENDBRANCH  26  28
ENDBRANCH  15  26
ENDBRANCH  11  14
ENDBRANCH   8  10
BRANCH   8  42
ATOM     42  C   UNL A   1      35.516  20.864  25.404  1.00  0.00     0.002 C 
ATOM     43  H   UNL A   1      35.313  21.075  26.433  1.00  0.00     0.034 H 
ATOM     44  H   UNL A   1      36.515  20.551  25.185  1.00  0.00     0.034 H 
BRANCH  42  45
ATOM     45  C   UNL A   1      34.654  19.688  25.008  1.00  0.00    -0.045 A 
ATOM     46  C   UNL A   1      33.304  19.646  25.388  1.00  0.00    -0.059 A 
ATOM     47  C   UNL A   1      35.178  18.622  24.262  1.00  0.00    -0.059 A 
ATOM     48  C   UNL A   1      32.512  18.539  25.072  1.00  0.00    -0.062 A 
ATOM     49  H   UNL A   1      32.893  20.438  25.905  1.00  0.00     0.063 H 
ATOM     50  C   UNL A   1      34.390  17.508  23.965  1.00  0.00    -0.062 A 
ATOM     51  H   UNL A   1      36.154  18.662  23.928  1.00  0.00     0.063 H 
ATOM     52  C   UNL A   1      33.059  17.465  24.374  1.00  0.00    -0.062 A 
ATOM     53  H   UNL A   1      31.520  18.518  25.356  1.00  0.00     0.062 H 
ATOM     54  H   UNL A   1      34.794  16.716  23.442  1.00  0.00     0.062 H 
ATOM     55  H   UNL A   1      32.478  16.639  24.161  1.00  0.00     0.062 H 
ENDBRANCH  42  45
ENDBRANCH   8  42
ENDBRANCH   5   8
ENDBRANCH   1   4
BRANCH   1  56
ATOM     56  C   UNL A   1      39.233  22.983  26.700  1.00  0.00    -0.036 C 
ATOM     57  H   UNL A   1      39.080  22.644  27.704  1.00  0.00     0.028 H 
ATOM     58  H   UNL A   1      39.834  23.866  26.634  1.00  0.00     0.028 H 
BRANCH  56  59
ATOM     59  C   UNL A   1      39.997  21.892  25.944  1.00  0.00    -0.052 C 
ATOM     60  H   UNL A   1      40.702  22.375  25.300  1.00  0.00     0.027 H 
ATOM     61  H   UNL A   1      39.248  21.323  25.434  1.00  0.00     0.027 H 
BRANCH  59  62
ATOM     62  C   UNL A   1      40.765  20.880  26.803  1.00  0.00    -0.052 C 
ATOM     63  H   UNL A   1      40.152  20.635  27.645  1.00  0.00     0.027 H 
ATOM     64  H   UNL A   1      41.688  21.362  27.050  1.00  0.00     0.027 H 
BRANCH  62  65
ATOM     65  C   UNL A   1      41.165  19.568  26.120  1.00  0.00    -0.036 C 
ATOM     66  H   UNL A   1      41.168  19.737  25.063  1.00  0.00     0.028 H 
ATOM     67  H   UNL A   1      40.447  18.843  26.444  1.00  0.00     0.028 H 
BRANCH  65  68
ATOM     68  C   UNL A   1      42.527  19.003  26.506  1.00  0.00     0.018 C 
ATOM     69  H   UNL A   1      42.378  18.105  27.069  1.00  0.00     0.049 H 
ATOM     70  H   UNL A   1      43.036  19.750  27.077  1.00  0.00     0.049 H 
BRANCH  68  71
ATOM     71  N   UNL A   1      43.354  18.695  25.353  1.00  0.00    -0.352 N 
ATOM     72  C   UNL A   1      44.169  19.501  24.601  1.00  0.00     0.251 C 
ATOM     73  H   UNL A   1      43.326  17.754  25.064  1.00  0.00     0.163 HD
ATOM     74  O   UNL A   1      44.671  19.061  23.570  1.00  0.00    -0.269 OA
BRANCH  72  75
ATOM     75  C   UNL A   1      44.436  20.903  24.996  1.00  0.00     0.039 A 
ATOM     76  C   UNL A   1      43.975  21.928  24.164  1.00  0.00    -0.049 A 
ATOM     77  C   UNL A   1      45.172  21.220  26.142  1.00  0.00    -0.049 A 
ATOM     78  C   UNL A   1      44.202  23.265  24.505  1.00  0.00    -0.053 A 
ATOM     79  H   UNL A   1      43.467  21.698  23.295  1.00  0.00     0.063 H 
ATOM     80  C   UNL A   1      45.336  22.553  26.519  1.00  0.00    -0.053 A 
ATOM     81  H   UNL A   1      45.591  20.467  26.709  1.00  0.00     0.063 H 
ATOM     82  C   UNL A   1      44.859  23.589  25.702  1.00  0.00    -0.014 A 
ATOM     83  H   UNL A   1      43.884  24.017  23.874  1.00  0.00     0.063 H 
ATOM     84  H   UNL A   1      45.813  22.779  27.406  1.00  0.00     0.063 H 
BRANCH  82  85
ATOM     85  C   UNL A   1      45.059  25.004  26.108  1.00  0.00     0.031 A 
ATOM     86  C   UNL A   1      46.420  25.636  26.022  1.00  0.00     0.074 A 
ATOM     87  C   UNL A   1      44.026  25.702  26.619  1.00  0.00     0.049 A 
ATOM     88  N   UNL A   1      46.804  26.832  26.392  1.00  0.00    -0.248 NA
ATOM     89  C   UNL A   1      47.502  24.802  25.475  1.00  0.00    -0.034 C 
ATOM     90  C   UNL A   1      42.670  25.187  26.806  1.00  0.00    -0.036 A 
ATOM     91  N   UNL A   1      43.961  26.990  27.090  1.00  0.00    -0.354 N 
ATOM     92  C   UNL A   1      48.169  26.885  26.145  1.00  0.00     0.074 A 
ATOM     93  C   UNL A   1      48.557  25.587  25.634  1.00  0.00    -0.034 C 
ATOM     94  H   UNL A   1      47.451  23.853  25.071  1.00  0.00     0.065 H 
ATOM     95  C   UNL A   1      41.904  26.150  27.341  1.00  0.00    -0.036 A 
ATOM     96  H   UNL A   1      42.353  24.235  26.565  1.00  0.00     0.065 H 
ATOM     97  C   UNL A   1      42.721  27.340  27.564  1.00  0.00     0.049 A 
ATOM     98  H   UNL A   1      44.731  27.604  27.089  1.00  0.00     0.167 HD
ATOM     99  C   UNL A   1      49.019  27.927  26.312  1.00  0.00     0.037 A 
ATOM    100  H   UNL A   1      49.527  25.310  25.422  1.00  0.00     0.065 H 
ATOM    101  H   UNL A   1      40.898  26.065  27.558  1.00  0.00     0.065 H 
ATOM    102  C   UNL A   1      42.292  28.488  28.122  1.00  0.00     0.037 A 
ATOM    103  C   UNL A   1      48.625  29.228  26.785  1.00  0.00     0.049 A 
ATOM    104  C   UNL A   1      43.247  29.639  28.272  1.00  0.00     0.074 A 
ATOM    105  C   UNL A   1      49.394  30.373  26.901  1.00  0.00    -0.036 A 
ATOM    106  N   UNL A   1      47.350  29.556  27.222  1.00  0.00    -0.354 N 
ATOM    107  N   UNL A   1      44.517  29.703  27.959  1.00  0.00    -0.248 NA
ATOM    108  C   UNL A   1      42.706  30.879  28.845  1.00  0.00    -0.034 C 
ATOM    109  C   UNL A   1      48.596  31.382  27.454  1.00  0.00    -0.036 A 
ATOM    110  H   UNL A   1      50.384  30.467  26.629  1.00  0.00     0.065 H 
ATOM    111  C   UNL A   1      47.317  30.879  27.635  1.00  0.00     0.049 A 
ATOM    112  H   UNL A   1      46.583  28.941  27.237  1.00  0.00     0.167 HD
ATOM    113  C   UNL A   1      44.924  30.992  28.275  1.00  0.00     0.074 A 
ATOM    114  C   UNL A   1      43.759  31.682  28.791  1.00  0.00    -0.034 C 
ATOM    115  H   UNL A   1      41.755  31.075  29.195  1.00  0.00     0.065 H 
ATOM    116  H   UNL A   1      48.907  32.338  27.685  1.00  0.00     0.065 H 
ATOM    117  C   UNL A   1      46.152  31.553  28.148  1.00  0.00     0.037 A 
ATOM    118  H   UNL A   1      43.751  32.673  29.080  1.00  0.00     0.065 H 
BRANCH  99 119
ATOM    119  C   UNL A   1      50.467  27.701  25.982  1.00  0.00     0.064 A 
ATOM    120  C   UNL A   1      50.952  27.813  24.670  1.00  0.00     0.173 A 
ATOM    121  C   UNL A   1      51.386  27.393  26.997  1.00  0.00     0.173 A 
ATOM    122  F   UNL A   1      50.113  28.095  23.662  1.00  0.00    -0.203 F 
ATOM    123  C   UNL A   1      52.297  27.593  24.382  1.00  0.00     0.198 A 
ATOM    124  C   UNL A   1      52.736  27.204  26.709  1.00  0.00     0.198 A 
ATOM    125  F   UNL A   1      50.977  27.282  28.269  1.00  0.00    -0.203 F 
ATOM    126  F   UNL A   1      52.726  27.654  23.114  1.00  0.00    -0.200 F 
ATOM    127  C   UNL A   1      53.188  27.295  25.401  1.00  0.00     0.200 A 
ATOM    128  F   UNL A   1      53.598  26.929  27.697  1.00  0.00    -0.200 F 
ATOM    129  F   UNL A   1      54.482  27.087  25.122  1.00  0.00    -0.200 F 
ENDBRANCH  99 119
BRANCH 102 130
ATOM    130  C   UNL A   1      40.877  28.605  28.560  1.00  0.00     0.064 A 
ATOM    131  C   UNL A   1      39.884  29.050  27.677  1.00  0.00     0.173 A 
ATOM    132  C   UNL A   1      40.486  28.256  29.861  1.00  0.00     0.173 A 
ATOM    133  F   UNL A   1      40.213  29.414  26.429  1.00  0.00    -0.203 F 
ATOM    134  C   UNL A   1      38.555  29.153  28.081  1.00  0.00     0.198 A 
ATOM    135  C   UNL A   1      39.152  28.335  30.256  1.00  0.00     0.198 A 
ATOM    136  F   UNL A   1      41.398  27.817  30.742  1.00  0.00    -0.203 F 
ATOM    137  F   UNL A   1      37.631  29.614  27.228  1.00  0.00    -0.200 F 
ATOM    138  C   UNL A   1      38.190  28.789  29.369  1.00  0.00     0.200 A 
ATOM    139  F   UNL A   1      38.801  27.968  31.497  1.00  0.00    -0.200 F 
ATOM    140  F   UNL A   1      36.909  28.878  29.754  1.00  0.00    -0.200 F 
ENDBRANCH 102 130
BRANCH 117 141
ATOM    141  C   UNL A   1      46.297  32.990  28.555  1.00  0.00     0.064 A 
ATOM    142  C   UNL A   1      46.083  34.036  27.645  1.00  0.00     0.173 A 
ATOM    143  C   UNL A   1      46.612  33.325  29.880  1.00  0.00     0.173 A 
ATOM    144  F   UNL A   1      45.794  33.766  26.363  1.00  0.00    -0.203 F 
ATOM    145  C   UNL A   1      46.200  35.365  28.043  1.00  0.00     0.198 A 
ATOM    146  C   UNL A   1      46.701  34.656  30.281  1.00  0.00     0.198 A 
ATOM    147  F   UNL A   1      46.822  32.362  30.790  1.00  0.00    -0.203 F 
ATOM    148  F   UNL A   1      46.032  36.348  27.147  1.00  0.00    -0.200 F 
ATOM    149  C   UNL A   1      46.501  35.673  29.361  1.00  0.00     0.200 A 
ATOM    150  F   UNL A   1      46.981  34.952  31.558  1.00  0.00    -0.200 F 
ATOM    151  F   UNL A   1      46.605  36.954  29.743  1.00  0.00    -0.200 F 
ENDBRANCH 117 141
ENDBRANCH  82  85
ENDBRANCH  72  75
ENDBRANCH  68  71
ENDBRANCH  65  68
ENDBRANCH  62  65
ENDBRANCH  59  62
ENDBRANCH  56  59
ENDBRANCH   1  56
TORSDOF 23
ENDMDL
MODEL 7
REMARK VINA RESULT:     -11.1      1.206      3.570
REMARK SMILES CC(C)(C)OC(=O)N1CCC[C@H]1C(=O)N[C@@H](Cc1ccccc1)C(=O)NCCCCCCNC(=O)c1ccc(-c2c3nc(c(-c4c(F)c(F)c(F)c(F)c4F)c4ccc([nH]4)c(-c4c(F)c(F)c(F)c(F)c4F)c4nc(c(-c5c(F)c(F)c(F)c(F)c5F)c5ccc2[nH]5)C=C4)C=C3)cc1
REMARK SMILES IDX 27 1 26 4 24 5 25 6 16 8 15 10 13 11 14 12 12 14 8 15 9 16
REMARK SMILES IDX 10 17 11 20 6 26 7 27 5 28 2 29 1 30 3 34 4 38 17 42 18 45
REMARK SMILES IDX 19 46 23 47 20 48 22 50 21 52 28 56 29 59 30 62 31 65 32 68
REMARK SMILES IDX 33 71 34 72 35 74 36 75 37 76 98 77 38 78 97 80 39 82 40 85
REMARK SMILES IDX 41 86 91 87 42 88 96 89 90 90 92 91 43 92 95 93 89 95 88 97
REMARK SMILES IDX 44 99 76 102 56 103 75 104 57 105 60 106 74 107 93 108
REMARK SMILES IDX 58 109 59 111 73 113 94 114 61 117 45 119 46 120 54 121
REMARK SMILES IDX 47 122 48 123 52 124 55 125 49 126 50 127 53 128 51 129
REMARK SMILES IDX 77 130 78 131 86 132 79 133 80 134 84 135 87 136 81 137
REMARK SMILES IDX 82 138 85 139 83 140 62 141 63 142 71 143 64 144 65 145
REMARK SMILES IDX 69 146 72 147 66 148 67 149 70 150 68 151
REMARK H PARENT 27 2 27 3 26 7 16 9 15 13 9 18 9 19 12 21 10 22 10 23 11 24
REMARK H PARENT 11 25 1 31 1 32 1 33 3 35 3 36 3 37 4 39 4 40 4 41 17 43 17 44
REMARK H PARENT 19 49 23 51 20 53 22 54 21 55 28 57 28 58 29 60 29 61 30 63
REMARK H PARENT 30 64 31 66 31 67 32 69 32 70 33 73 37 79 98 81 38 83 97 84
REMARK H PARENT 96 94 90 96 92 98 95 100 89 101 57 110 60 112 93 115 58 116
REMARK H PARENT 94 118
REMARK Flexibility Score: inf
ROOT
ATOM      1  C   UNL A   1      32.804  27.852  25.879  1.00  0.00     0.017 C 
ATOM      2  H   UNL A   1      31.827  27.417  25.885  1.00  0.00     0.049 H 
ATOM      3  H   UNL A   1      32.942  28.549  25.079  1.00  0.00     0.049 H 
ENDROOT
BRANCH   1   4
ATOM      4  N   UNL A   1      33.769  26.796  25.684  1.00  0.00    -0.354 N 
ATOM      5  C   UNL A   1      33.709  25.705  24.870  1.00  0.00     0.242 C 
ATOM      6  O   UNL A   1      34.788  25.181  24.562  1.00  0.00    -0.273 OA
ATOM      7  H   UNL A   1      34.592  26.877  26.217  1.00  0.00     0.163 HD
BRANCH   5   8
ATOM      8  C   UNL A   1      32.400  25.176  24.234  1.00  0.00     0.112 C 
ATOM      9  H   UNL A   1      31.643  25.616  24.848  1.00  0.00     0.064 H 
BRANCH   8  10
ATOM     10  N   UNL A   1      32.099  25.688  22.892  1.00  0.00    -0.342 N 
ATOM     11  C   UNL A   1      31.170  26.610  22.498  1.00  0.00     0.243 C 
ATOM     12  O   UNL A   1      31.076  26.840  21.291  1.00  0.00    -0.273 OA
ATOM     13  H   UNL A   1      32.650  25.312  22.167  1.00  0.00     0.164 HD
BRANCH  11  14
ATOM     14  C   UNL A   1      30.215  27.210  23.547  1.00  0.00     0.114 C 
ATOM     15  N   UNL A   1      29.453  28.345  23.046  1.00  0.00    -0.296 N 
ATOM     16  C   UNL A   1      28.043  28.045  22.940  1.00  0.00     0.025 C 
ATOM     17  C   UNL A   1      27.840  26.952  23.971  1.00  0.00    -0.033 C 
ATOM     18  H   UNL A   1      27.799  27.695  21.958  1.00  0.00     0.050 H 
ATOM     19  H   UNL A   1      27.419  28.899  23.104  1.00  0.00     0.050 H 
ATOM     20  C   UNL A   1      29.150  26.170  23.928  1.00  0.00    -0.022 C 
ATOM     21  H   UNL A   1      30.840  27.510  24.361  1.00  0.00     0.064 H 
ATOM     22  H   UNL A   1      27.013  26.327  23.709  1.00  0.00     0.029 H 
ATOM     23  H   UNL A   1      27.617  27.336  24.945  1.00  0.00     0.029 H 
ATOM     24  H   UNL A   1      29.101  25.395  23.194  1.00  0.00     0.029 H 
ATOM     25  H   UNL A   1      29.367  25.694  24.861  1.00  0.00     0.029 H 
BRANCH  15  26
ATOM     26  C   UNL A   1      30.051  29.564  22.847  1.00  0.00     0.410 C 
ATOM     27  O   UNL A   1      31.017  29.718  22.119  1.00  0.00    -0.224 OA
BRANCH  26  28
ATOM     28  O   UNL A   1      29.476  30.530  23.604  1.00  0.00    -0.444 OA
BRANCH  28  29
ATOM     29  C   UNL A   1      28.561  31.511  23.050  1.00  0.00     0.106 C 
BRANCH  29  30
ATOM     30  C   UNL A   1      29.240  32.865  23.310  1.00  0.00    -0.025 C 
ATOM     31  H   UNL A   1      29.770  33.172  22.433  1.00  0.00     0.027 H 
ATOM     32  H   UNL A   1      29.925  32.769  24.126  1.00  0.00     0.027 H 
ATOM     33  H   UNL A   1      28.497  33.596  23.552  1.00  0.00     0.027 H 
ENDBRANCH  29  30
BRANCH  29  34
ATOM     34  C   UNL A   1      27.246  31.441  23.828  1.00  0.00    -0.025 C 
ATOM     35  H   UNL A   1      27.326  32.029  24.719  1.00  0.00     0.027 H 
ATOM     36  H   UNL A   1      27.040  30.424  24.089  1.00  0.00     0.027 H 
ATOM     37  H   UNL A   1      26.452  31.821  23.220  1.00  0.00     0.027 H 
ENDBRANCH  29  34
BRANCH  29  38
ATOM     38  C   UNL A   1      28.323  31.385  21.539  1.00  0.00    -0.025 C 
ATOM     39  H   UNL A   1      27.621  32.127  21.224  1.00  0.00     0.027 H 
ATOM     40  H   UNL A   1      27.935  30.412  21.319  1.00  0.00     0.027 H 
ATOM     41  H   UNL A   1      29.248  31.525  21.020  1.00  0.00     0.027 H 
ENDBRANCH  29  38
ENDBRANCH  28  29
ENDBRANCH  26  28
ENDBRANCH  15  26
ENDBRANCH  11  14
ENDBRANCH   8  10
BRANCH   8  42
ATOM     42  C   UNL A   1      32.202  23.650  24.368  1.00  0.00     0.002 C 
ATOM     43  H   UNL A   1      32.573  23.199  23.471  1.00  0.00     0.034 H 
ATOM     44  H   UNL A   1      31.154  23.529  24.547  1.00  0.00     0.034 H 
BRANCH  42  45
ATOM     45  C   UNL A   1      32.868  22.952  25.530  1.00  0.00    -0.045 A 
ATOM     46  C   UNL A   1      33.919  22.051  25.301  1.00  0.00    -0.059 A 
ATOM     47  C   UNL A   1      32.455  23.183  26.850  1.00  0.00    -0.059 A 
ATOM     48  C   UNL A   1      34.508  21.361  26.363  1.00  0.00    -0.062 A 
ATOM     49  H   UNL A   1      34.261  21.896  24.339  1.00  0.00     0.063 H 
ATOM     50  C   UNL A   1      33.031  22.477  27.908  1.00  0.00    -0.062 A 
ATOM     51  H   UNL A   1      31.720  23.882  27.042  1.00  0.00     0.063 H 
ATOM     52  C   UNL A   1      34.053  21.562  27.665  1.00  0.00    -0.062 A 
ATOM     53  H   UNL A   1      35.280  20.700  26.184  1.00  0.00     0.062 H 
ATOM     54  H   UNL A   1      32.698  22.632  28.873  1.00  0.00     0.062 H 
ATOM     55  H   UNL A   1      34.474  21.036  28.446  1.00  0.00     0.062 H 
ENDBRANCH  42  45
ENDBRANCH   8  42
ENDBRANCH   5   8
ENDBRANCH   1   4
BRANCH   1  56
ATOM     56  C   UNL A   1      32.987  28.632  27.174  1.00  0.00    -0.036 C 
ATOM     57  H   UNL A   1      33.936  28.363  27.590  1.00  0.00     0.028 H 
ATOM     58  H   UNL A   1      32.158  28.370  27.799  1.00  0.00     0.028 H 
BRANCH  56  59
ATOM     59  C   UNL A   1      32.947  30.155  27.031  1.00  0.00    -0.052 C 
ATOM     60  H   UNL A   1      33.707  30.436  26.331  1.00  0.00     0.027 H 
ATOM     61  H   UNL A   1      33.092  30.537  28.019  1.00  0.00     0.027 H 
BRANCH  59  62
ATOM     62  C   UNL A   1      31.623  30.759  26.548  1.00  0.00    -0.052 C 
ATOM     63  H   UNL A   1      30.829  30.242  27.045  1.00  0.00     0.027 H 
ATOM     64  H   UNL A   1      31.630  30.645  25.484  1.00  0.00     0.027 H 
BRANCH  62  65
ATOM     65  C   UNL A   1      31.426  32.258  26.792  1.00  0.00    -0.036 C 
ATOM     66  H   UNL A   1      30.788  32.371  27.643  1.00  0.00     0.028 H 
ATOM     67  H   UNL A   1      31.015  32.648  25.883  1.00  0.00     0.028 H 
BRANCH  65  68
ATOM     68  C   UNL A   1      32.695  33.065  27.050  1.00  0.00     0.018 C 
ATOM     69  H   UNL A   1      33.198  33.218  26.119  1.00  0.00     0.049 H 
ATOM     70  H   UNL A   1      33.294  32.509  27.739  1.00  0.00     0.049 H 
BRANCH  68  71
ATOM     71  N   UNL A   1      32.424  34.359  27.650  1.00  0.00    -0.352 N 
ATOM     72  C   UNL A   1      33.002  34.979  28.727  1.00  0.00     0.251 C 
ATOM     73  H   UNL A   1      31.710  34.876  27.210  1.00  0.00     0.163 HD
ATOM     74  O   UNL A   1      32.517  36.024  29.156  1.00  0.00    -0.269 OA
BRANCH  72  75
ATOM     75  C   UNL A   1      34.187  34.400  29.400  1.00  0.00     0.039 A 
ATOM     76  C   UNL A   1      33.996  33.689  30.589  1.00  0.00    -0.049 A 
ATOM     77  C   UNL A   1      35.481  34.588  28.907  1.00  0.00    -0.049 A 
ATOM     78  C   UNL A   1      35.088  33.122  31.251  1.00  0.00    -0.053 A 
ATOM     79  H   UNL A   1      33.046  33.582  30.979  1.00  0.00     0.063 H 
ATOM     80  C   UNL A   1      36.563  33.963  29.528  1.00  0.00    -0.053 A 
ATOM     81  H   UNL A   1      35.637  35.188  28.082  1.00  0.00     0.063 H 
ATOM     82  C   UNL A   1      36.379  33.229  30.711  1.00  0.00    -0.014 A 
ATOM     83  H   UNL A   1      34.945  32.621  32.143  1.00  0.00     0.063 H 
ATOM     84  H   UNL A   1      37.506  34.041  29.117  1.00  0.00     0.063 H 
BRANCH  82  85
ATOM     85  C   UNL A   1      37.543  32.585  31.371  1.00  0.00     0.031 A 
ATOM     86  C   UNL A   1      38.248  31.432  30.716  1.00  0.00     0.074 A 
ATOM     87  C   UNL A   1      37.925  32.997  32.596  1.00  0.00     0.049 A 
ATOM     88  N   UNL A   1      39.237  30.700  31.166  1.00  0.00    -0.248 NA
ATOM     89  C   UNL A   1      37.759  31.026  29.389  1.00  0.00    -0.034 C 
ATOM     90  C   UNL A   1      37.288  34.069  33.362  1.00  0.00    -0.036 A 
ATOM     91  N   UNL A   1      38.929  32.551  33.419  1.00  0.00    -0.354 N 
ATOM     92  C   UNL A   1      39.470  29.737  30.193  1.00  0.00     0.074 A 
ATOM     93  C   UNL A   1      38.492  29.950  29.147  1.00  0.00    -0.034 C 
ATOM     94  H   UNL A   1      37.033  31.466  28.801  1.00  0.00     0.065 H 
ATOM     95  C   UNL A   1      37.923  34.206  34.537  1.00  0.00    -0.036 A 
ATOM     96  H   UNL A   1      36.481  34.630  33.050  1.00  0.00     0.065 H 
ATOM     97  C   UNL A   1      38.990  33.212  34.621  1.00  0.00     0.049 A 
ATOM     98  H   UNL A   1      39.547  31.825  33.170  1.00  0.00     0.167 HD
ATOM     99  C   UNL A   1      40.424  28.776  30.165  1.00  0.00     0.037 A 
ATOM    100  H   UNL A   1      38.382  29.343  28.320  1.00  0.00     0.065 H 
ATOM    101  H   UNL A   1      37.695  34.902  35.264  1.00  0.00     0.065 H 
ATOM    102  C   UNL A   1      39.808  33.032  35.675  1.00  0.00     0.037 A 
ATOM    103  C   UNL A   1      41.419  28.590  31.189  1.00  0.00     0.049 A 
ATOM    104  C   UNL A   1      40.876  31.977  35.610  1.00  0.00     0.074 A 
ATOM    105  C   UNL A   1      42.482  27.704  31.209  1.00  0.00    -0.036 A 
ATOM    106  N   UNL A   1      41.471  29.304  32.378  1.00  0.00    -0.354 N 
ATOM    107  N   UNL A   1      41.139  31.127  34.649  1.00  0.00    -0.248 NA
ATOM    108  C   UNL A   1      41.768  31.862  36.773  1.00  0.00    -0.034 C 
ATOM    109  C   UNL A   1      43.150  27.848  32.430  1.00  0.00    -0.036 A 
ATOM    110  H   UNL A   1      42.738  27.050  30.454  1.00  0.00     0.065 H 
ATOM    111  C   UNL A   1      42.532  28.859  33.150  1.00  0.00     0.049 A 
ATOM    112  H   UNL A   1      40.847  30.019  32.634  1.00  0.00     0.167 HD
ATOM    113  C   UNL A   1      42.235  30.391  35.079  1.00  0.00     0.074 A 
ATOM    114  C   UNL A   1      42.599  30.907  36.382  1.00  0.00    -0.034 C 
ATOM    115  H   UNL A   1      41.752  32.389  37.660  1.00  0.00     0.065 H 
ATOM    116  H   UNL A   1      43.964  27.297  32.741  1.00  0.00     0.065 H 
ATOM    117  C   UNL A   1      42.882  29.380  34.447  1.00  0.00     0.037 A 
ATOM    118  H   UNL A   1      43.402  30.571  36.936  1.00  0.00     0.065 H 
BRANCH  99 119
ATOM    119  C   UNL A   1      40.437  27.845  28.987  1.00  0.00     0.064 A 
ATOM    120  C   UNL A   1      41.217  28.102  27.850  1.00  0.00     0.173 A 
ATOM    121  C   UNL A   1      39.677  26.665  29.008  1.00  0.00     0.173 A 
ATOM    122  F   UNL A   1      41.954  29.221  27.776  1.00  0.00    -0.203 F 
ATOM    123  C   UNL A   1      41.211  27.231  26.763  1.00  0.00     0.198 A 
ATOM    124  C   UNL A   1      39.697  25.780  27.931  1.00  0.00     0.198 A 
ATOM    125  F   UNL A   1      38.919  26.366  30.073  1.00  0.00    -0.203 F 
ATOM    126  F   UNL A   1      41.924  27.525  25.667  1.00  0.00    -0.200 F 
ATOM    127  C   UNL A   1      40.456  26.068  26.807  1.00  0.00     0.200 A 
ATOM    128  F   UNL A   1      38.978  24.651  27.981  1.00  0.00    -0.200 F 
ATOM    129  F   UNL A   1      40.454  25.229  25.762  1.00  0.00    -0.200 F 
ENDBRANCH  99 119
BRANCH 102 130
ATOM    130  C   UNL A   1      39.657  33.895  36.875  1.00  0.00     0.064 A 
ATOM    131  C   UNL A   1      40.277  35.150  36.944  1.00  0.00     0.173 A 
ATOM    132  C   UNL A   1      38.873  33.492  37.967  1.00  0.00     0.173 A 
ATOM    133  F   UNL A   1      41.052  35.569  35.932  1.00  0.00    -0.203 F 
ATOM    134  C   UNL A   1      40.130  35.965  38.063  1.00  0.00     0.198 A 
ATOM    135  C   UNL A   1      38.707  34.320  39.075  1.00  0.00     0.198 A 
ATOM    136  F   UNL A   1      38.254  32.303  37.946  1.00  0.00    -0.203 F 
ATOM    137  F   UNL A   1      40.762  37.145  38.118  1.00  0.00    -0.200 F 
ATOM    138  C   UNL A   1      39.339  35.552  39.125  1.00  0.00     0.200 A 
ATOM    139  F   UNL A   1      37.929  33.923  40.093  1.00  0.00    -0.200 F 
ATOM    140  F   UNL A   1      39.189  36.341  40.198  1.00  0.00    -0.200 F 
ENDBRANCH 102 130
BRANCH 117 141
ATOM    141  C   UNL A   1      44.063  28.775  35.149  1.00  0.00     0.064 A 
ATOM    142  C   UNL A   1      43.923  27.676  36.009  1.00  0.00     0.173 A 
ATOM    143  C   UNL A   1      45.354  29.275  34.925  1.00  0.00     0.173 A 
ATOM    144  F   UNL A   1      42.707  27.172  36.267  1.00  0.00    -0.203 F 
ATOM    145  C   UNL A   1      45.031  27.113  36.636  1.00  0.00     0.198 A 
ATOM    146  C   UNL A   1      46.463  28.692  35.532  1.00  0.00     0.198 A 
ATOM    147  F   UNL A   1      45.543  30.322  34.108  1.00  0.00    -0.203 F 
ATOM    148  F   UNL A   1      44.869  26.089  37.486  1.00  0.00    -0.200 F 
ATOM    149  C   UNL A   1      46.300  27.616  36.391  1.00  0.00     0.200 A 
ATOM    150  F   UNL A   1      47.690  29.172  35.286  1.00  0.00    -0.200 F 
ATOM    151  F   UNL A   1      47.366  27.067  36.990  1.00  0.00    -0.200 F 
ENDBRANCH 117 141
ENDBRANCH  82  85
ENDBRANCH  72  75
ENDBRANCH  68  71
ENDBRANCH  65  68
ENDBRANCH  62  65
ENDBRANCH  59  62
ENDBRANCH  56  59
ENDBRANCH   1  56
TORSDOF 23
ENDMDL
MODEL 8
REMARK VINA RESULT:     -10.9      6.098     11.119
REMARK SMILES CC(C)(C)OC(=O)N1CCC[C@H]1C(=O)N[C@@H](Cc1ccccc1)C(=O)NCCCCCCNC(=O)c1ccc(-c2c3nc(c(-c4c(F)c(F)c(F)c(F)c4F)c4ccc([nH]4)c(-c4c(F)c(F)c(F)c(F)c4F)c4nc(c(-c5c(F)c(F)c(F)c(F)c5F)c5ccc2[nH]5)C=C4)C=C3)cc1
REMARK SMILES IDX 27 1 26 4 24 5 25 6 16 8 15 10 13 11 14 12 12 14 8 15 9 16
REMARK SMILES IDX 10 17 11 20 6 26 7 27 5 28 2 29 1 30 3 34 4 38 17 42 18 45
REMARK SMILES IDX 19 46 23 47 20 48 22 50 21 52 28 56 29 59 30 62 31 65 32 68
REMARK SMILES IDX 33 71 34 72 35 74 36 75 37 76 98 77 38 78 97 80 39 82 40 85
REMARK SMILES IDX 41 86 91 87 42 88 96 89 90 90 92 91 43 92 95 93 89 95 88 97
REMARK SMILES IDX 44 99 76 102 56 103 75 104 57 105 60 106 74 107 93 108
REMARK SMILES IDX 58 109 59 111 73 113 94 114 61 117 45 119 46 120 54 121
REMARK SMILES IDX 47 122 48 123 52 124 55 125 49 126 50 127 53 128 51 129
REMARK SMILES IDX 77 130 78 131 86 132 79 133 80 134 84 135 87 136 81 137
REMARK SMILES IDX 82 138 85 139 83 140 62 141 63 142 71 143 64 144 65 145
REMARK SMILES IDX 69 146 72 147 66 148 67 149 70 150 68 151
REMARK H PARENT 27 2 27 3 26 7 16 9 15 13 9 18 9 19 12 21 10 22 10 23 11 24
REMARK H PARENT 11 25 1 31 1 32 1 33 3 35 3 36 3 37 4 39 4 40 4 41 17 43 17 44
REMARK H PARENT 19 49 23 51 20 53 22 54 21 55 28 57 28 58 29 60 29 61 30 63
REMARK H PARENT 30 64 31 66 31 67 32 69 32 70 33 73 37 79 98 81 38 83 97 84
REMARK H PARENT 96 94 90 96 92 98 95 100 89 101 57 110 60 112 93 115 58 116
REMARK H PARENT 94 118
REMARK Flexibility Score: inf
ROOT
ATOM      1  C   UNL A   1      39.721  34.675  29.655  1.00  0.00     0.017 C 
ATOM      2  H   UNL A   1      40.057  33.850  30.247  1.00  0.00     0.049 H 
ATOM      3  H   UNL A   1      39.490  35.538  30.243  1.00  0.00     0.049 H 
ENDROOT
BRANCH   1   4
ATOM      4  N   UNL A   1      38.500  34.287  28.987  1.00  0.00    -0.354 N 
ATOM      5  C   UNL A   1      37.273  34.011  29.512  1.00  0.00     0.242 C 
ATOM      6  O   UNL A   1      36.306  34.108  28.745  1.00  0.00    -0.273 OA
ATOM      7  H   UNL A   1      38.565  34.210  28.008  1.00  0.00     0.163 HD
BRANCH   5   8
ATOM      8  C   UNL A   1      37.026  33.709  31.010  1.00  0.00     0.112 C 
ATOM      9  H   UNL A   1      37.498  32.758  31.142  1.00  0.00     0.064 H 
BRANCH   8  10
ATOM     10  N   UNL A   1      37.733  34.580  31.955  1.00  0.00    -0.342 N 
ATOM     11  C   UNL A   1      38.426  34.258  33.090  1.00  0.00     0.243 C 
ATOM     12  O   UNL A   1      38.896  35.186  33.749  1.00  0.00    -0.273 OA
ATOM     13  H   UNL A   1      37.706  35.541  31.740  1.00  0.00     0.164 HD
BRANCH  11  14
ATOM     14  C   UNL A   1      38.473  32.789  33.549  1.00  0.00     0.114 C 
ATOM     15  N   UNL A   1      39.717  32.437  34.218  1.00  0.00    -0.296 N 
ATOM     16  C   UNL A   1      39.515  32.151  35.620  1.00  0.00     0.025 C 
ATOM     17  C   UNL A   1      38.068  31.700  35.679  1.00  0.00    -0.033 C 
ATOM     18  H   UNL A   1      39.669  33.027  36.216  1.00  0.00     0.050 H 
ATOM     19  H   UNL A   1      40.198  31.421  36.002  1.00  0.00     0.050 H 
ATOM     20  C   UNL A   1      37.386  32.544  34.606  1.00  0.00    -0.022 C 
ATOM     21  H   UNL A   1      38.352  32.209  32.658  1.00  0.00     0.064 H 
ATOM     22  H   UNL A   1      37.646  31.893  36.643  1.00  0.00     0.029 H 
ATOM     23  H   UNL A   1      37.954  30.649  35.516  1.00  0.00     0.029 H 
ATOM     24  H   UNL A   1      37.045  33.470  35.017  1.00  0.00     0.029 H 
ATOM     25  H   UNL A   1      36.526  32.057  34.196  1.00  0.00     0.029 H 
BRANCH  15  26
ATOM     26  C   UNL A   1      40.882  32.286  33.508  1.00  0.00     0.410 C 
ATOM     27  O   UNL A   1      41.487  33.225  33.018  1.00  0.00    -0.224 OA
BRANCH  26  28
ATOM     28  O   UNL A   1      41.218  30.979  33.375  1.00  0.00    -0.444 OA
BRANCH  28  29
ATOM     29  C   UNL A   1      42.408  30.416  33.986  1.00  0.00     0.106 C 
BRANCH  29  30
ATOM     30  C   UNL A   1      43.391  30.228  32.820  1.00  0.00    -0.025 C 
ATOM     31  H   UNL A   1      43.384  31.103  32.203  1.00  0.00     0.027 H 
ATOM     32  H   UNL A   1      43.097  29.379  32.239  1.00  0.00     0.027 H 
ATOM     33  H   UNL A   1      44.376  30.073  33.206  1.00  0.00     0.027 H 
ENDBRANCH  29  30
BRANCH  29  34
ATOM     34  C   UNL A   1      42.050  29.052  34.577  1.00  0.00    -0.025 C 
ATOM     35  H   UNL A   1      42.945  28.490  34.747  1.00  0.00     0.027 H 
ATOM     36  H   UNL A   1      41.420  28.522  33.893  1.00  0.00     0.027 H 
ATOM     37  H   UNL A   1      41.534  29.189  35.504  1.00  0.00     0.027 H 
ENDBRANCH  29  34
BRANCH  29  38
ATOM     38  C   UNL A   1      43.081  31.318  35.030  1.00  0.00    -0.025 C 
ATOM     39  H   UNL A   1      44.143  31.251  34.928  1.00  0.00     0.027 H 
ATOM     40  H   UNL A   1      42.796  31.001  36.012  1.00  0.00     0.027 H 
ATOM     41  H   UNL A   1      42.771  32.331  34.879  1.00  0.00     0.027 H 
ENDBRANCH  29  38
ENDBRANCH  28  29
ENDBRANCH  26  28
ENDBRANCH  15  26
ENDBRANCH  11  14
ENDBRANCH   8  10
BRANCH   8  42
ATOM     42  C   UNL A   1      35.541  33.484  31.374  1.00  0.00     0.002 C 
ATOM     43  H   UNL A   1      35.516  32.852  32.238  1.00  0.00     0.034 H 
ATOM     44  H   UNL A   1      35.106  33.071  30.488  1.00  0.00     0.034 H 
BRANCH  42  45
ATOM     45  C   UNL A   1      34.699  34.699  31.680  1.00  0.00    -0.045 A 
ATOM     46  C   UNL A   1      34.820  35.345  32.920  1.00  0.00    -0.059 A 
ATOM     47  C   UNL A   1      33.783  35.203  30.745  1.00  0.00    -0.059 A 
ATOM     48  C   UNL A   1      34.009  36.438  33.234  1.00  0.00    -0.062 A 
ATOM     49  H   UNL A   1      35.515  35.010  33.606  1.00  0.00     0.063 H 
ATOM     50  C   UNL A   1      32.959  36.283  31.069  1.00  0.00    -0.062 A 
ATOM     51  H   UNL A   1      33.719  34.773  29.809  1.00  0.00     0.063 H 
ATOM     52  C   UNL A   1      33.069  36.897  32.315  1.00  0.00    -0.062 A 
ATOM     53  H   UNL A   1      34.107  36.906  34.148  1.00  0.00     0.062 H 
ATOM     54  H   UNL A   1      32.267  36.626  30.385  1.00  0.00     0.062 H 
ATOM     55  H   UNL A   1      32.455  37.690  32.556  1.00  0.00     0.062 H 
ENDBRANCH  42  45
ENDBRANCH   8  42
ENDBRANCH   5   8
ENDBRANCH   1   4
BRANCH   1  56
ATOM     56  C   UNL A   1      40.846  35.076  28.712  1.00  0.00    -0.036 C 
ATOM     57  H   UNL A   1      40.419  35.645  27.912  1.00  0.00     0.028 H 
ATOM     58  H   UNL A   1      41.304  34.164  28.391  1.00  0.00     0.028 H 
BRANCH  56  59
ATOM     59  C   UNL A   1      41.962  35.913  29.345  1.00  0.00    -0.052 C 
ATOM     60  H   UNL A   1      42.701  35.237  29.722  1.00  0.00     0.027 H 
ATOM     61  H   UNL A   1      41.481  36.507  30.093  1.00  0.00     0.027 H 
BRANCH  59  62
ATOM     62  C   UNL A   1      42.670  36.912  28.422  1.00  0.00    -0.052 C 
ATOM     63  H   UNL A   1      41.936  37.318  27.757  1.00  0.00     0.027 H 
ATOM     64  H   UNL A   1      43.444  36.352  27.940  1.00  0.00     0.027 H 
BRANCH  62  65
ATOM     65  C   UNL A   1      43.382  38.085  29.102  1.00  0.00    -0.036 C 
ATOM     66  H   UNL A   1      42.640  38.675  29.598  1.00  0.00     0.028 H 
ATOM     67  H   UNL A   1      43.901  38.601  28.321  1.00  0.00     0.028 H 
BRANCH  65  68
ATOM     68  C   UNL A   1      44.446  37.713  30.130  1.00  0.00     0.018 C 
ATOM     69  H   UNL A   1      44.234  36.734  30.504  1.00  0.00     0.049 H 
ATOM     70  H   UNL A   1      44.417  38.450  30.905  1.00  0.00     0.049 H 
BRANCH  68  71
ATOM     71  N   UNL A   1      45.788  37.717  29.574  1.00  0.00    -0.352 N 
ATOM     72  C   UNL A   1      46.558  36.687  29.099  1.00  0.00     0.251 C 
ATOM     73  H   UNL A   1      46.214  38.604  29.532  1.00  0.00     0.163 HD
ATOM     74  O   UNL A   1      47.732  36.895  28.805  1.00  0.00    -0.269 OA
BRANCH  72  75
ATOM     75  C   UNL A   1      46.005  35.320  28.956  1.00  0.00     0.039 A 
ATOM     76  C   UNL A   1      45.354  34.988  27.764  1.00  0.00    -0.049 A 
ATOM     77  C   UNL A   1      46.077  34.383  29.990  1.00  0.00    -0.049 A 
ATOM     78  C   UNL A   1      44.824  33.707  27.587  1.00  0.00    -0.053 A 
ATOM     79  H   UNL A   1      45.263  35.691  27.012  1.00  0.00     0.063 H 
ATOM     80  C   UNL A   1      45.612  33.084  29.787  1.00  0.00    -0.053 A 
ATOM     81  H   UNL A   1      46.475  34.652  30.903  1.00  0.00     0.063 H 
ATOM     82  C   UNL A   1      44.975  32.734  28.587  1.00  0.00    -0.014 A 
ATOM     83  H   UNL A   1      44.320  33.475  26.717  1.00  0.00     0.063 H 
ATOM     84  H   UNL A   1      45.736  32.374  30.526  1.00  0.00     0.063 H 
BRANCH  82  85
ATOM     85  C   UNL A   1      44.467  31.351  28.393  1.00  0.00     0.031 A 
ATOM     86  C   UNL A   1      45.267  30.349  27.609  1.00  0.00     0.074 A 
ATOM     87  C   UNL A   1      43.252  31.015  28.868  1.00  0.00     0.049 A 
ATOM     88  N   UNL A   1      44.961  29.120  27.277  1.00  0.00    -0.248 NA
ATOM     89  C   UNL A   1      46.574  30.798  27.104  1.00  0.00    -0.034 C 
ATOM     90  C   UNL A   1      42.354  31.911  29.598  1.00  0.00    -0.036 A 
ATOM     91  N   UNL A   1      42.555  29.835  28.793  1.00  0.00    -0.354 N 
ATOM     92  C   UNL A   1      46.021  28.659  26.508  1.00  0.00     0.074 A 
ATOM     93  C   UNL A   1      46.960  29.754  26.386  1.00  0.00    -0.034 C 
ATOM     94  H   UNL A   1      47.062  31.693  27.267  1.00  0.00     0.065 H 
ATOM     95  C   UNL A   1      41.231  31.246  29.913  1.00  0.00    -0.036 A 
ATOM     96  H   UNL A   1      42.552  32.896  29.832  1.00  0.00     0.065 H 
ATOM     97  C   UNL A   1      41.316  29.889  29.382  1.00  0.00     0.049 A 
ATOM     98  H   UNL A   1      42.911  29.026  28.358  1.00  0.00     0.167 HD
ATOM     99  C   UNL A   1      46.204  27.429  25.970  1.00  0.00     0.037 A 
ATOM    100  H   UNL A   1      47.818  29.725  25.813  1.00  0.00     0.065 H 
ATOM    101  H   UNL A   1      40.437  31.632  30.446  1.00  0.00     0.065 H 
ATOM    102  C   UNL A   1      40.352  28.953  29.476  1.00  0.00     0.037 A 
ATOM    103  C   UNL A   1      45.287  26.331  26.124  1.00  0.00     0.049 A 
ATOM    104  C   UNL A   1      40.590  27.588  28.894  1.00  0.00     0.074 A 
ATOM    105  C   UNL A   1      45.426  25.023  25.694  1.00  0.00    -0.036 A 
ATOM    106  N   UNL A   1      44.056  26.414  26.759  1.00  0.00    -0.354 N 
ATOM    107  N   UNL A   1      41.632  27.139  28.239  1.00  0.00    -0.248 NA
ATOM    108  C   UNL A   1      39.520  26.596  29.071  1.00  0.00    -0.034 C 
ATOM    109  C   UNL A   1      44.259  24.325  26.027  1.00  0.00    -0.036 A 
ATOM    110  H   UNL A   1      46.248  24.630  25.211  1.00  0.00     0.065 H 
ATOM    111  C   UNL A   1      43.414  25.187  26.708  1.00  0.00     0.049 A 
ATOM    112  H   UNL A   1      43.693  27.224  27.183  1.00  0.00     0.167 HD
ATOM    113  C   UNL A   1      41.356  25.811  27.944  1.00  0.00     0.074 A 
ATOM    114  C   UNL A   1      40.053  25.521  28.506  1.00  0.00    -0.034 C 
ATOM    115  H   UNL A   1      38.597  26.706  29.519  1.00  0.00     0.065 H 
ATOM    116  H   UNL A   1      44.063  23.338  25.804  1.00  0.00     0.065 H 
ATOM    117  C   UNL A   1      42.115  24.913  27.269  1.00  0.00     0.037 A 
ATOM    118  H   UNL A   1      39.597  24.596  28.470  1.00  0.00     0.065 H 
BRANCH  99 119
ATOM    119  C   UNL A   1      47.447  27.207  25.157  1.00  0.00     0.064 A 
ATOM    120  C   UNL A   1      47.540  27.622  23.820  1.00  0.00     0.173 A 
ATOM    121  C   UNL A   1      48.570  26.592  25.732  1.00  0.00     0.173 A 
ATOM    122  F   UNL A   1      46.491  28.206  23.220  1.00  0.00    -0.203 F 
ATOM    123  C   UNL A   1      48.698  27.401  23.079  1.00  0.00     0.198 A 
ATOM    124  C   UNL A   1      49.738  26.401  24.997  1.00  0.00     0.198 A 
ATOM    125  F   UNL A   1      48.538  26.182  27.008  1.00  0.00    -0.203 F 
ATOM    126  F   UNL A   1      48.745  27.760  21.788  1.00  0.00    -0.200 F 
ATOM    127  C   UNL A   1      49.798  26.797  23.669  1.00  0.00     0.200 A 
ATOM    128  F   UNL A   1      50.803  25.828  25.572  1.00  0.00    -0.200 F 
ATOM    129  F   UNL A   1      50.913  26.588  22.956  1.00  0.00    -0.200 F 
ENDBRANCH  99 119
BRANCH 102 130
ATOM    130  C   UNL A   1      39.082  29.277  30.173  1.00  0.00     0.064 A 
ATOM    131  C   UNL A   1      38.935  29.048  31.548  1.00  0.00     0.173 A 
ATOM    132  C   UNL A   1      37.997  29.841  29.485  1.00  0.00     0.173 A 
ATOM    133  F   UNL A   1      39.938  28.492  32.244  1.00  0.00    -0.203 F 
ATOM    134  C   UNL A   1      37.748  29.359  32.207  1.00  0.00     0.198 A 
ATOM    135  C   UNL A   1      36.820  30.175  30.151  1.00  0.00     0.198 A 
ATOM    136  F   UNL A   1      38.091  30.086  28.170  1.00  0.00    -0.203 F 
ATOM    137  F   UNL A   1      37.622  29.098  33.515  1.00  0.00    -0.200 F 
ATOM    138  C   UNL A   1      36.694  29.929  31.509  1.00  0.00     0.200 A 
ATOM    139  F   UNL A   1      35.809  30.740  29.475  1.00  0.00    -0.200 F 
ATOM    140  F   UNL A   1      35.555  30.238  32.145  1.00  0.00    -0.200 F 
ENDBRANCH 102 130
BRANCH 117 141
ATOM    141  C   UNL A   1      41.566  23.524  27.117  1.00  0.00     0.064 A 
ATOM    142  C   UNL A   1      40.416  23.269  26.356  1.00  0.00     0.173 A 
ATOM    143  C   UNL A   1      42.222  22.433  27.705  1.00  0.00     0.173 A 
ATOM    144  F   UNL A   1      39.745  24.282  25.787  1.00  0.00    -0.203 F 
ATOM    145  C   UNL A   1      39.931  21.972  26.206  1.00  0.00     0.198 A 
ATOM    146  C   UNL A   1      41.749  21.135  27.531  1.00  0.00     0.198 A 
ATOM    147  F   UNL A   1      43.328  22.623  28.440  1.00  0.00    -0.203 F 
ATOM    148  F   UNL A   1      38.807  21.756  25.509  1.00  0.00    -0.200 F 
ATOM    149  C   UNL A   1      40.602  20.907  26.787  1.00  0.00     0.200 A 
ATOM    150  F   UNL A   1      42.405  20.104  28.083  1.00  0.00    -0.200 F 
ATOM    151  F   UNL A   1      40.137  19.659  26.635  1.00  0.00    -0.200 F 
ENDBRANCH 117 141
ENDBRANCH  82  85
ENDBRANCH  72  75
ENDBRANCH  68  71
ENDBRANCH  65  68
ENDBRANCH  62  65
ENDBRANCH  59  62
ENDBRANCH  56  59
ENDBRANCH   1  56
TORSDOF 23
ENDMDL
MODEL 9
REMARK VINA RESULT:     -10.7      5.494     10.485
REMARK SMILES CC(C)(C)OC(=O)N1CCC[C@H]1C(=O)N[C@@H](Cc1ccccc1)C(=O)NCCCCCCNC(=O)c1ccc(-c2c3nc(c(-c4c(F)c(F)c(F)c(F)c4F)c4ccc([nH]4)c(-c4c(F)c(F)c(F)c(F)c4F)c4nc(c(-c5c(F)c(F)c(F)c(F)c5F)c5ccc2[nH]5)C=C4)C=C3)cc1
REMARK SMILES IDX 27 1 26 4 24 5 25 6 16 8 15 10 13 11 14 12 12 14 8 15 9 16
REMARK SMILES IDX 10 17 11 20 6 26 7 27 5 28 2 29 1 30 3 34 4 38 17 42 18 45
REMARK SMILES IDX 19 46 23 47 20 48 22 50 21 52 28 56 29 59 30 62 31 65 32 68
REMARK SMILES IDX 33 71 34 72 35 74 36 75 37 76 98 77 38 78 97 80 39 82 40 85
REMARK SMILES IDX 41 86 91 87 42 88 96 89 90 90 92 91 43 92 95 93 89 95 88 97
REMARK SMILES IDX 44 99 76 102 56 103 75 104 57 105 60 106 74 107 93 108
REMARK SMILES IDX 58 109 59 111 73 113 94 114 61 117 45 119 46 120 54 121
REMARK SMILES IDX 47 122 48 123 52 124 55 125 49 126 50 127 53 128 51 129
REMARK SMILES IDX 77 130 78 131 86 132 79 133 80 134 84 135 87 136 81 137
REMARK SMILES IDX 82 138 85 139 83 140 62 141 63 142 71 143 64 144 65 145
REMARK SMILES IDX 69 146 72 147 66 148 67 149 70 150 68 151
REMARK H PARENT 27 2 27 3 26 7 16 9 15 13 9 18 9 19 12 21 10 22 10 23 11 24
REMARK H PARENT 11 25 1 31 1 32 1 33 3 35 3 36 3 37 4 39 4 40 4 41 17 43 17 44
REMARK H PARENT 19 49 23 51 20 53 22 54 21 55 28 57 28 58 29 60 29 61 30 63
REMARK H PARENT 30 64 31 66 31 67 32 69 32 70 33 73 37 79 98 81 38 83 97 84
REMARK H PARENT 96 94 90 96 92 98 95 100 89 101 57 110 60 112 93 115 58 116
REMARK H PARENT 94 118
REMARK Flexibility Score: inf
ROOT
ATOM      1  C   UNL A   1      37.800  32.140  35.625  1.00  0.00     0.017 C 
ATOM      2  H   UNL A   1      38.357  31.437  35.043  1.00  0.00     0.049 H 
ATOM      3  H   UNL A   1      36.746  31.956  35.600  1.00  0.00     0.049 H 
ENDROOT
BRANCH   1   4
ATOM      4  N   UNL A   1      38.006  33.456  35.066  1.00  0.00    -0.354 N 
ATOM      5  C   UNL A   1      38.146  33.833  33.764  1.00  0.00     0.242 C 
ATOM      6  O   UNL A   1      37.899  35.017  33.499  1.00  0.00    -0.273 OA
ATOM      7  H   UNL A   1      38.051  34.188  35.722  1.00  0.00     0.163 HD
BRANCH   5   8
ATOM      8  C   UNL A   1      38.475  32.851  32.613  1.00  0.00     0.112 C 
ATOM      9  H   UNL A   1      37.548  32.339  32.465  1.00  0.00     0.064 H 
BRANCH   8  10
ATOM     10  N   UNL A   1      38.739  33.472  31.310  1.00  0.00    -0.342 N 
ATOM     11  C   UNL A   1      38.195  33.197  30.086  1.00  0.00     0.243 C 
ATOM     12  O   UNL A   1      38.622  33.833  29.121  1.00  0.00    -0.273 OA
ATOM     13  H   UNL A   1      39.408  34.194  31.318  1.00  0.00     0.164 HD
BRANCH  11  14
ATOM     14  C   UNL A   1      37.186  32.041  29.955  1.00  0.00     0.114 C 
ATOM     15  N   UNL A   1      35.920  32.450  29.365  1.00  0.00    -0.296 N 
ATOM     16  C   UNL A   1      35.717  31.862  28.059  1.00  0.00     0.025 C 
ATOM     17  C   UNL A   1      36.548  30.595  28.114  1.00  0.00    -0.033 C 
ATOM     18  H   UNL A   1      36.066  32.516  27.287  1.00  0.00     0.050 H 
ATOM     19  H   UNL A   1      34.686  31.679  27.837  1.00  0.00     0.050 H 
ATOM     20  C   UNL A   1      37.738  30.984  28.986  1.00  0.00    -0.022 C 
ATOM     21  H   UNL A   1      37.035  31.682  30.951  1.00  0.00     0.064 H 
ATOM     22  H   UNL A   1      36.870  30.306  27.136  1.00  0.00     0.029 H 
ATOM     23  H   UNL A   1      36.004  29.759  28.501  1.00  0.00     0.029 H 
ATOM     24  H   UNL A   1      38.524  31.394  28.389  1.00  0.00     0.029 H 
ATOM     25  H   UNL A   1      38.153  30.143  29.501  1.00  0.00     0.029 H 
BRANCH  15  26
ATOM     26  C   UNL A   1      35.018  33.198  30.078  1.00  0.00     0.410 C 
ATOM     27  O   UNL A   1      34.322  32.731  30.964  1.00  0.00    -0.224 OA
BRANCH  26  28
ATOM     28  O   UNL A   1      34.963  34.475  29.627  1.00  0.00    -0.444 OA
BRANCH  28  29
ATOM     29  C   UNL A   1      33.755  35.052  29.067  1.00  0.00     0.106 C 
BRANCH  29  30
ATOM     30  C   UNL A   1      34.248  36.222  28.202  1.00  0.00    -0.025 C 
ATOM     31  H   UNL A   1      35.306  36.334  28.323  1.00  0.00     0.027 H 
ATOM     32  H   UNL A   1      33.756  37.122  28.505  1.00  0.00     0.027 H 
ATOM     33  H   UNL A   1      34.027  36.023  27.174  1.00  0.00     0.027 H 
ENDBRANCH  29  30
BRANCH  29  34
ATOM     34  C   UNL A   1      32.898  35.591  30.214  1.00  0.00    -0.025 C 
ATOM     35  H   UNL A   1      33.396  35.416  31.145  1.00  0.00     0.027 H 
ATOM     36  H   UNL A   1      31.951  35.091  30.217  1.00  0.00     0.027 H 
ATOM     37  H   UNL A   1      32.746  36.641  30.082  1.00  0.00     0.027 H 
ENDBRANCH  29  34
BRANCH  29  38
ATOM     38  C   UNL A   1      32.950  34.105  28.167  1.00  0.00    -0.025 C 
ATOM     39  H   UNL A   1      31.925  34.411  28.152  1.00  0.00     0.027 H 
ATOM     40  H   UNL A   1      33.018  33.107  28.547  1.00  0.00     0.027 H 
ATOM     41  H   UNL A   1      33.346  34.135  27.173  1.00  0.00     0.027 H 
ENDBRANCH  29  38
ENDBRANCH  28  29
ENDBRANCH  26  28
ENDBRANCH  15  26
ENDBRANCH  11  14
ENDBRANCH   8  10
BRANCH   8  42
ATOM     42  C   UNL A   1      39.495  31.753  32.990  1.00  0.00     0.002 C 
ATOM     43  H   UNL A   1      39.434  31.610  34.049  1.00  0.00     0.034 H 
ATOM     44  H   UNL A   1      40.432  32.121  32.627  1.00  0.00     0.034 H 
BRANCH  42  45
ATOM     45  C   UNL A   1      39.342  30.398  32.343  1.00  0.00    -0.045 A 
ATOM     46  C   UNL A   1      40.285  29.956  31.402  1.00  0.00    -0.059 A 
ATOM     47  C   UNL A   1      38.264  29.558  32.660  1.00  0.00    -0.059 A 
ATOM     48  C   UNL A   1      40.125  28.727  30.759  1.00  0.00    -0.062 A 
ATOM     49  H   UNL A   1      41.104  30.545  31.184  1.00  0.00     0.063 H 
ATOM     50  C   UNL A   1      38.095  28.339  32.001  1.00  0.00    -0.062 A 
ATOM     51  H   UNL A   1      37.590  29.844  33.388  1.00  0.00     0.063 H 
ATOM     52  C   UNL A   1      39.023  27.926  31.047  1.00  0.00    -0.062 A 
ATOM     53  H   UNL A   1      40.825  28.412  30.069  1.00  0.00     0.062 H 
ATOM     54  H   UNL A   1      37.282  27.743  32.220  1.00  0.00     0.062 H 
ATOM     55  H   UNL A   1      38.895  27.028  30.555  1.00  0.00     0.062 H 
ENDBRANCH  42  45
ENDBRANCH   8  42
ENDBRANCH   5   8
ENDBRANCH   1   4
BRANCH   1  56
ATOM     56  C   UNL A   1      38.233  32.006  37.078  1.00  0.00    -0.036 C 
ATOM     57  H   UNL A   1      39.171  31.490  37.097  1.00  0.00     0.028 H 
ATOM     58  H   UNL A   1      37.446  31.480  37.576  1.00  0.00     0.028 H 
BRANCH  56  59
ATOM     59  C   UNL A   1      38.406  33.328  37.833  1.00  0.00    -0.052 C 
ATOM     60  H   UNL A   1      37.522  33.487  38.416  1.00  0.00     0.027 H 
ATOM     61  H   UNL A   1      38.577  34.065  37.077  1.00  0.00     0.027 H 
BRANCH  59  62
ATOM     62  C   UNL A   1      39.611  33.420  38.776  1.00  0.00    -0.052 C 
ATOM     63  H   UNL A   1      40.492  33.485  38.173  1.00  0.00     0.027 H 
ATOM     64  H   UNL A   1      39.557  32.546  39.391  1.00  0.00     0.027 H 
BRANCH  62  65
ATOM     65  C   UNL A   1      39.626  34.601  39.752  1.00  0.00    -0.036 C 
ATOM     66  H   UNL A   1      40.616  34.683  40.151  1.00  0.00     0.028 H 
ATOM     67  H   UNL A   1      38.877  34.381  40.483  1.00  0.00     0.028 H 
BRANCH  65  68
ATOM     68  C   UNL A   1      39.246  35.956  39.165  1.00  0.00     0.018 C 
ATOM     69  H   UNL A   1      38.358  36.302  39.651  1.00  0.00     0.049 H 
ATOM     70  H   UNL A   1      39.098  35.823  38.115  1.00  0.00     0.049 H 
BRANCH  68  71
ATOM     71  N   UNL A   1      40.288  36.953  39.336  1.00  0.00    -0.352 N 
ATOM     72  C   UNL A   1      41.478  37.121  38.676  1.00  0.00     0.251 C 
ATOM     73  H   UNL A   1      40.111  37.618  40.041  1.00  0.00     0.163 HD
ATOM     74  O   UNL A   1      42.284  37.954  39.082  1.00  0.00    -0.269 OA
BRANCH  72  75
ATOM     75  C   UNL A   1      41.820  36.297  37.493  1.00  0.00     0.039 A 
ATOM     76  C   UNL A   1      43.127  35.813  37.375  1.00  0.00    -0.049 A 
ATOM     77  C   UNL A   1      40.892  36.038  36.481  1.00  0.00    -0.049 A 
ATOM     78  C   UNL A   1      43.488  35.028  36.277  1.00  0.00    -0.053 A 
ATOM     79  H   UNL A   1      43.827  36.037  38.101  1.00  0.00     0.063 H 
ATOM     80  C   UNL A   1      41.232  35.196  35.421  1.00  0.00    -0.053 A 
ATOM     81  H   UNL A   1      39.955  36.467  36.517  1.00  0.00     0.063 H 
ATOM     82  C   UNL A   1      42.535  34.688  35.305  1.00  0.00    -0.014 A 
ATOM     83  H   UNL A   1      44.461  34.696  36.181  1.00  0.00     0.063 H 
ATOM     84  H   UNL A   1      40.521  34.945  34.717  1.00  0.00     0.063 H 
BRANCH  82  85
ATOM     85  C   UNL A   1      42.887  33.808  34.161  1.00  0.00     0.031 A 
ATOM     86  C   UNL A   1      43.121  34.391  32.796  1.00  0.00     0.074 A 
ATOM     87  C   UNL A   1      42.931  32.472  34.337  1.00  0.00     0.049 A 
ATOM     88  N   UNL A   1      43.370  33.779  31.664  1.00  0.00    -0.248 NA
ATOM     89  C   UNL A   1      43.034  35.854  32.679  1.00  0.00    -0.034 C 
ATOM     90  C   UNL A   1      42.670  31.779  35.598  1.00  0.00    -0.036 A 
ATOM     91  N   UNL A   1      43.194  31.460  33.449  1.00  0.00    -0.354 N 
ATOM     92  C   UNL A   1      43.445  34.778  30.703  1.00  0.00     0.074 A 
ATOM     93  C   UNL A   1      43.172  36.031  31.374  1.00  0.00    -0.034 C 
ATOM     94  H   UNL A   1      42.899  36.559  33.422  1.00  0.00     0.065 H 
ATOM     95  C   UNL A   1      42.797  30.456  35.407  1.00  0.00    -0.036 A 
ATOM     96  H   UNL A   1      42.428  32.233  36.493  1.00  0.00     0.065 H 
ATOM     97  C   UNL A   1      43.117  30.207  34.004  1.00  0.00     0.049 A 
ATOM     98  H   UNL A   1      43.417  31.617  32.502  1.00  0.00     0.167 HD
ATOM     99  C   UNL A   1      43.734  34.662  29.384  1.00  0.00     0.037 A 
ATOM    100  H   UNL A   1      43.096  36.943  30.897  1.00  0.00     0.065 H 
ATOM    101  H   UNL A   1      42.688  29.733  36.135  1.00  0.00     0.065 H 
ATOM    102  C   UNL A   1      43.277  28.992  33.445  1.00  0.00     0.037 A 
ATOM    103  C   UNL A   1      44.042  33.420  28.726  1.00  0.00     0.049 A 
ATOM    104  C   UNL A   1      43.623  28.891  31.986  1.00  0.00     0.074 A 
ATOM    105  C   UNL A   1      44.435  33.211  27.416  1.00  0.00    -0.036 A 
ATOM    106  N   UNL A   1      43.988  32.172  29.332  1.00  0.00    -0.354 N 
ATOM    107  N   UNL A   1      43.772  29.848  31.105  1.00  0.00    -0.248 NA
ATOM    108  C   UNL A   1      43.833  27.540  31.446  1.00  0.00    -0.034 C 
ATOM    109  C   UNL A   1      44.574  31.833  27.214  1.00  0.00    -0.036 A 
ATOM    110  H   UNL A   1      44.597  33.944  26.709  1.00  0.00     0.065 H 
ATOM    111  C   UNL A   1      44.315  31.187  28.413  1.00  0.00     0.049 A 
ATOM    112  H   UNL A   1      43.752  32.011  30.273  1.00  0.00     0.167 HD
ATOM    113  C   UNL A   1      44.112  29.222  29.913  1.00  0.00     0.074 A 
ATOM    114  C   UNL A   1      44.163  27.801  30.189  1.00  0.00    -0.034 C 
ATOM    115  H   UNL A   1      43.747  26.628  31.921  1.00  0.00     0.065 H 
ATOM    116  H   UNL A   1      44.827  31.376  26.325  1.00  0.00     0.065 H 
ATOM    117  C   UNL A   1      44.360  29.776  28.701  1.00  0.00     0.037 A 
ATOM    118  H   UNL A   1      44.423  27.083  29.495  1.00  0.00     0.065 H 
BRANCH  99 119
ATOM    119  C   UNL A   1      43.727  35.918  28.560  1.00  0.00     0.064 A 
ATOM    120  C   UNL A   1      44.898  36.657  28.330  1.00  0.00     0.173 A 
ATOM    121  C   UNL A   1      42.538  36.373  27.970  1.00  0.00     0.173 A 
ATOM    122  F   UNL A   1      46.059  36.270  28.880  1.00  0.00    -0.203 F 
ATOM    123  C   UNL A   1      44.872  37.823  27.570  1.00  0.00     0.198 A 
ATOM    124  C   UNL A   1      42.522  37.523  27.184  1.00  0.00     0.198 A 
ATOM    125  F   UNL A   1      41.392  35.701  28.151  1.00  0.00    -0.203 F 
ATOM    126  F   UNL A   1      45.992  38.541  27.408  1.00  0.00    -0.200 F 
ATOM    127  C   UNL A   1      43.686  38.252  26.992  1.00  0.00     0.200 A 
ATOM    128  F   UNL A   1      41.378  37.929  26.617  1.00  0.00    -0.200 F 
ATOM    129  F   UNL A   1      43.663  39.372  26.257  1.00  0.00    -0.200 F 
ENDBRANCH  99 119
BRANCH 102 130
ATOM    130  C   UNL A   1      43.133  27.775  34.284  1.00  0.00     0.064 A 
ATOM    131  C   UNL A   1      44.235  27.223  34.950  1.00  0.00     0.173 A 
ATOM    132  C   UNL A   1      41.887  27.151  34.453  1.00  0.00     0.173 A 
ATOM    133  F   UNL A   1      45.449  27.774  34.802  1.00  0.00    -0.203 F 
ATOM    134  C   UNL A   1      44.102  26.087  35.744  1.00  0.00     0.198 A 
ATOM    135  C   UNL A   1      41.751  26.029  35.268  1.00  0.00     0.198 A 
ATOM    136  F   UNL A   1      40.800  27.645  33.842  1.00  0.00    -0.203 F 
ATOM    137  F   UNL A   1      45.178  25.559  36.342  1.00  0.00    -0.200 F 
ATOM    138  C   UNL A   1      42.858  25.495  35.908  1.00  0.00     0.200 A 
ATOM    139  F   UNL A   1      40.544  25.470  35.436  1.00  0.00    -0.200 F 
ATOM    140  F   UNL A   1      42.728  24.408  36.681  1.00  0.00    -0.200 F 
ENDBRANCH 102 130
BRANCH 117 141
ATOM    141  C   UNL A   1      44.729  28.845  27.582  1.00  0.00     0.064 A 
ATOM    142  C   UNL A   1      46.046  28.397  27.405  1.00  0.00     0.173 A 
ATOM    143  C   UNL A   1      43.747  28.364  26.705  1.00  0.00     0.173 A 
ATOM    144  F   UNL A   1      47.025  28.841  28.209  1.00  0.00    -0.203 F 
ATOM    145  C   UNL A   1      46.370  27.516  26.376  1.00  0.00     0.198 A 
ATOM    146  C   UNL A   1      44.069  27.462  25.694  1.00  0.00     0.198 A 
ATOM    147  F   UNL A   1      42.471  28.758  26.835  1.00  0.00    -0.203 F 
ATOM    148  F   UNL A   1      47.642  27.134  26.199  1.00  0.00    -0.200 F 
ATOM    149  C   UNL A   1      45.380  27.044  25.527  1.00  0.00     0.200 A 
ATOM    150  F   UNL A   1      43.109  26.997  24.882  1.00  0.00    -0.200 F 
ATOM    151  F   UNL A   1      45.693  26.191  24.542  1.00  0.00    -0.200 F 
ENDBRANCH 117 141
ENDBRANCH  82  85
ENDBRANCH  72  75
ENDBRANCH  68  71
ENDBRANCH  65  68
ENDBRANCH  62  65
ENDBRANCH  59  62
ENDBRANCH  56  59
ENDBRANCH   1  56
TORSDOF 23
ENDMDL
MODEL 10
REMARK VINA RESULT:     -10.6      7.571     11.662
REMARK SMILES CC(C)(C)OC(=O)N1CCC[C@H]1C(=O)N[C@@H](Cc1ccccc1)C(=O)NCCCCCCNC(=O)c1ccc(-c2c3nc(c(-c4c(F)c(F)c(F)c(F)c4F)c4ccc([nH]4)c(-c4c(F)c(F)c(F)c(F)c4F)c4nc(c(-c5c(F)c(F)c(F)c(F)c5F)c5ccc2[nH]5)C=C4)C=C3)cc1
REMARK SMILES IDX 27 1 26 4 24 5 25 6 16 8 15 10 13 11 14 12 12 14 8 15 9 16
REMARK SMILES IDX 10 17 11 20 6 26 7 27 5 28 2 29 1 30 3 34 4 38 17 42 18 45
REMARK SMILES IDX 19 46 23 47 20 48 22 50 21 52 28 56 29 59 30 62 31 65 32 68
REMARK SMILES IDX 33 71 34 72 35 74 36 75 37 76 98 77 38 78 97 80 39 82 40 85
REMARK SMILES IDX 41 86 91 87 42 88 96 89 90 90 92 91 43 92 95 93 89 95 88 97
REMARK SMILES IDX 44 99 76 102 56 103 75 104 57 105 60 106 74 107 93 108
REMARK SMILES IDX 58 109 59 111 73 113 94 114 61 117 45 119 46 120 54 121
REMARK SMILES IDX 47 122 48 123 52 124 55 125 49 126 50 127 53 128 51 129
REMARK SMILES IDX 77 130 78 131 86 132 79 133 80 134 84 135 87 136 81 137
REMARK SMILES IDX 82 138 85 139 83 140 62 141 63 142 71 143 64 144 65 145
REMARK SMILES IDX 69 146 72 147 66 148 67 149 70 150 68 151
REMARK H PARENT 27 2 27 3 26 7 16 9 15 13 9 18 9 19 12 21 10 22 10 23 11 24
REMARK H PARENT 11 25 1 31 1 32 1 33 3 35 3 36 3 37 4 39 4 40 4 41 17 43 17 44
REMARK H PARENT 19 49 23 51 20 53 22 54 21 55 28 57 28 58 29 60 29 61 30 63
REMARK H PARENT 30 64 31 66 31 67 32 69 32 70 33 73 37 79 98 81 38 83 97 84
REMARK H PARENT 96 94 90 96 92 98 95 100 89 101 57 110 60 112 93 115 58 116
REMARK H PARENT 94 118
REMARK Flexibility Score: inf
ROOT
ATOM      1  C   UNL A   1      39.219  29.712  28.795  1.00  0.00     0.017 C 
ATOM      2  H   UNL A   1      40.205  29.782  29.202  1.00  0.00     0.049 H 
ATOM      3  H   UNL A   1      38.900  30.620  28.328  1.00  0.00     0.049 H 
ENDROOT
BRANCH   1   4
ATOM      4  N   UNL A   1      38.299  29.455  29.878  1.00  0.00    -0.354 N 
ATOM      5  C   UNL A   1      36.988  29.804  30.004  1.00  0.00     0.242 C 
ATOM      6  O   UNL A   1      36.309  29.138  30.798  1.00  0.00    -0.273 OA
ATOM      7  H   UNL A   1      38.674  28.953  30.637  1.00  0.00     0.163 HD
BRANCH   5   8
ATOM      8  C   UNL A   1      36.298  30.886  29.138  1.00  0.00     0.112 C 
ATOM      9  H   UNL A   1      35.336  30.981  29.597  1.00  0.00     0.064 H 
BRANCH   8  10
ATOM     10  N   UNL A   1      36.866  32.235  29.242  1.00  0.00    -0.342 N 
ATOM     11  C   UNL A   1      36.245  33.425  29.502  1.00  0.00     0.243 C 
ATOM     12  O   UNL A   1      36.941  34.442  29.489  1.00  0.00    -0.273 OA
ATOM     13  H   UNL A   1      37.839  32.291  29.106  1.00  0.00     0.164 HD
BRANCH  11  14
ATOM     14  C   UNL A   1      34.714  33.454  29.666  1.00  0.00     0.114 C 
ATOM     15  N   UNL A   1      34.276  34.241  30.810  1.00  0.00    -0.296 N 
ATOM     16  C   UNL A   1      33.566  35.434  30.406  1.00  0.00     0.025 C 
ATOM     17  C   UNL A   1      33.007  35.064  29.045  1.00  0.00    -0.033 C 
ATOM     18  H   UNL A   1      34.231  36.269  30.333  1.00  0.00     0.050 H 
ATOM     19  H   UNL A   1      32.810  35.729  31.104  1.00  0.00     0.050 H 
ATOM     20  C   UNL A   1      34.079  34.152  28.454  1.00  0.00    -0.022 C 
ATOM     21  H   UNL A   1      34.422  32.432  29.782  1.00  0.00     0.064 H 
ATOM     22  H   UNL A   1      32.868  35.933  28.439  1.00  0.00     0.029 H 
ATOM     23  H   UNL A   1      32.048  34.593  29.105  1.00  0.00     0.029 H 
ATOM     24  H   UNL A   1      34.809  34.726  27.924  1.00  0.00     0.029 H 
ATOM     25  H   UNL A   1      33.673  33.454  27.753  1.00  0.00     0.029 H 
BRANCH  15  26
ATOM     26  C   UNL A   1      34.436  33.774  32.090  1.00  0.00     0.410 C 
ATOM     27  O   UNL A   1      33.705  32.934  32.587  1.00  0.00    -0.224 OA
BRANCH  26  28
ATOM     28  O   UNL A   1      35.451  34.409  32.728  1.00  0.00    -0.444 OA
BRANCH  28  29
ATOM     29  C   UNL A   1      36.562  33.693  33.327  1.00  0.00     0.106 C 
BRANCH  29  30
ATOM     30  C   UNL A   1      36.292  33.753  34.838  1.00  0.00    -0.025 C 
ATOM     31  H   UNL A   1      35.284  33.451  35.033  1.00  0.00     0.027 H 
ATOM     32  H   UNL A   1      36.439  34.753  35.188  1.00  0.00     0.027 H 
ATOM     33  H   UNL A   1      36.965  33.094  35.347  1.00  0.00     0.027 H 
ENDBRANCH  29  30
BRANCH  29  34
ATOM     34  C   UNL A   1      37.853  34.448  33.009  1.00  0.00    -0.025 C 
ATOM     35  H   UNL A   1      37.855  34.733  31.977  1.00  0.00     0.027 H 
ATOM     36  H   UNL A   1      38.694  33.816  33.207  1.00  0.00     0.027 H 
ATOM     37  H   UNL A   1      37.914  35.324  33.621  1.00  0.00     0.027 H 
ENDBRANCH  29  34
BRANCH  29  38
ATOM     38  C   UNL A   1      36.665  32.216  32.924  1.00  0.00    -0.025 C 
ATOM     39  H   UNL A   1      37.313  31.704  33.604  1.00  0.00     0.027 H 
ATOM     40  H   UNL A   1      37.061  32.144  31.932  1.00  0.00     0.027 H 
ATOM     41  H   UNL A   1      35.693  31.770  32.952  1.00  0.00     0.027 H 
ENDBRANCH  29  38
ENDBRANCH  28  29
ENDBRANCH  26  28
ENDBRANCH  15  26
ENDBRANCH  11  14
ENDBRANCH   8  10
BRANCH   8  42
ATOM     42  C   UNL A   1      36.017  30.448  27.683  1.00  0.00     0.002 C 
ATOM     43  H   UNL A   1      36.710  29.668  27.445  1.00  0.00     0.034 H 
ATOM     44  H   UNL A   1      36.116  31.345  27.108  1.00  0.00     0.034 H 
BRANCH  42  45
ATOM     45  C   UNL A   1      34.634  29.937  27.355  1.00  0.00    -0.045 A 
ATOM     46  C   UNL A   1      33.549  30.826  27.305  1.00  0.00    -0.059 A 
ATOM     47  C   UNL A   1      34.403  28.577  27.099  1.00  0.00    -0.059 A 
ATOM     48  C   UNL A   1      32.257  30.357  27.055  1.00  0.00    -0.062 A 
ATOM     49  H   UNL A   1      33.707  31.835  27.455  1.00  0.00     0.063 H 
ATOM     50  C   UNL A   1      33.108  28.108  26.869  1.00  0.00    -0.062 A 
ATOM     51  H   UNL A   1      35.197  27.918  27.079  1.00  0.00     0.063 H 
ATOM     52  C   UNL A   1      32.035  28.997  26.852  1.00  0.00    -0.062 A 
ATOM     53  H   UNL A   1      31.467  31.019  27.020  1.00  0.00     0.062 H 
ATOM     54  H   UNL A   1      32.945  27.101  26.712  1.00  0.00     0.062 H 
ATOM     55  H   UNL A   1      31.078  28.649  26.689  1.00  0.00     0.062 H 
ENDBRANCH  42  45
ENDBRANCH   8  42
ENDBRANCH   5   8
ENDBRANCH   1   4
BRANCH   1  56
ATOM     56  C   UNL A   1      39.223  28.641  27.714  1.00  0.00    -0.036 C 
ATOM     57  H   UNL A   1      39.109  29.127  26.767  1.00  0.00     0.028 H 
ATOM     58  H   UNL A   1      38.419  27.976  27.951  1.00  0.00     0.028 H 
BRANCH  56  59
ATOM     59  C   UNL A   1      40.486  27.778  27.653  1.00  0.00    -0.052 C 
ATOM     60  H   UNL A   1      41.295  28.357  28.049  1.00  0.00     0.027 H 
ATOM     61  H   UNL A   1      40.596  27.508  26.624  1.00  0.00     0.027 H 
BRANCH  59  62
ATOM     62  C   UNL A   1      40.441  26.452  28.422  1.00  0.00    -0.052 C 
ATOM     63  H   UNL A   1      40.082  26.659  29.408  1.00  0.00     0.027 H 
ATOM     64  H   UNL A   1      41.440  26.069  28.385  1.00  0.00     0.027 H 
BRANCH  62  65
ATOM     65  C   UNL A   1      39.563  25.347  27.828  1.00  0.00    -0.036 C 
ATOM     66  H   UNL A   1      38.555  25.706  27.807  1.00  0.00     0.028 H 
ATOM     67  H   UNL A   1      39.710  24.492  28.456  1.00  0.00     0.028 H 
BRANCH  65  68
ATOM     68  C   UNL A   1      39.925  24.892  26.418  1.00  0.00     0.018 C 
ATOM     69  H   UNL A   1      40.456  25.681  25.930  1.00  0.00     0.049 H 
ATOM     70  H   UNL A   1      39.014  24.653  25.913  1.00  0.00     0.049 H 
BRANCH  68  71
ATOM     71  N   UNL A   1      40.755  23.700  26.409  1.00  0.00    -0.352 N 
ATOM     72  C   UNL A   1      42.115  23.563  26.301  1.00  0.00     0.251 C 
ATOM     73  H   UNL A   1      40.261  22.853  26.497  1.00  0.00     0.163 HD
ATOM     74  O   UNL A   1      42.601  22.442  26.170  1.00  0.00    -0.269 OA
BRANCH  72  75
ATOM     75  C   UNL A   1      43.008  24.744  26.314  1.00  0.00     0.039 A 
ATOM     76  C   UNL A   1      43.646  25.082  27.512  1.00  0.00    -0.049 A 
ATOM     77  C   UNL A   1      43.188  25.547  25.185  1.00  0.00    -0.049 A 
ATOM     78  C   UNL A   1      44.502  26.185  27.565  1.00  0.00    -0.053 A 
ATOM     79  H   UNL A   1      43.484  24.515  28.360  1.00  0.00     0.063 H 
ATOM     80  C   UNL A   1      44.095  26.606  25.218  1.00  0.00    -0.053 A 
ATOM     81  H   UNL A   1      42.650  25.356  24.325  1.00  0.00     0.063 H 
ATOM     82  C   UNL A   1      44.757  26.940  26.410  1.00  0.00    -0.014 A 
ATOM     83  H   UNL A   1      44.948  26.447  28.458  1.00  0.00     0.063 H 
ATOM     84  H   UNL A   1      44.282  27.148  24.360  1.00  0.00     0.063 H 
BRANCH  82  85
ATOM     85  C   UNL A   1      45.706  28.083  26.434  1.00  0.00     0.031 A 
ATOM     86  C   UNL A   1      47.179  27.853  26.241  1.00  0.00     0.074 A 
ATOM     87  C   UNL A   1      45.249  29.323  26.698  1.00  0.00     0.049 A 
ATOM     88  N   UNL A   1      48.167  28.711  26.297  1.00  0.00    -0.248 NA
ATOM     89  C   UNL A   1      47.602  26.468  25.981  1.00  0.00    -0.034 C 
ATOM     90  C   UNL A   1      43.852  29.669  26.957  1.00  0.00    -0.036 A 
ATOM     91  N   UNL A   1      45.915  30.518  26.807  1.00  0.00    -0.354 N 
ATOM     92  C   UNL A   1      49.324  27.970  26.103  1.00  0.00     0.074 A 
ATOM     93  C   UNL A   1      48.922  26.585  25.971  1.00  0.00    -0.034 C 
ATOM     94  H   UNL A   1      47.022  25.626  25.842  1.00  0.00     0.065 H 
ATOM     95  C   UNL A   1      43.762  30.989  27.185  1.00  0.00    -0.036 A 
ATOM     96  H   UNL A   1      43.062  29.005  26.964  1.00  0.00     0.065 H 
ATOM     97  C   UNL A   1      45.097  31.576  27.119  1.00  0.00     0.049 A 
ATOM     98  H   UNL A   1      46.887  30.608  26.676  1.00  0.00     0.167 HD
ATOM     99  C   UNL A   1      50.605  28.406  26.023  1.00  0.00     0.037 A 
ATOM    100  H   UNL A   1      49.577  25.794  25.882  1.00  0.00     0.065 H 
ATOM    101  H   UNL A   1      42.889  31.506  27.374  1.00  0.00     0.065 H 
ATOM    102  C   UNL A   1      45.391  32.873  27.334  1.00  0.00     0.037 A 
ATOM    103  C   UNL A   1      50.999  29.787  26.117  1.00  0.00     0.049 A 
ATOM    104  C   UNL A   1      46.815  33.337  27.214  1.00  0.00     0.074 A 
ATOM    105  C   UNL A   1      52.258  30.338  25.958  1.00  0.00    -0.036 A 
ATOM    106  N   UNL A   1      50.136  30.837  26.397  1.00  0.00    -0.354 N 
ATOM    107  N   UNL A   1      47.891  32.639  26.948  1.00  0.00    -0.248 NA
ATOM    108  C   UNL A   1      47.064  34.772  27.413  1.00  0.00    -0.034 C 
ATOM    109  C   UNL A   1      52.167  31.715  26.189  1.00  0.00    -0.036 A 
ATOM    110  H   UNL A   1      53.117  29.822  25.713  1.00  0.00     0.065 H 
ATOM    111  C   UNL A   1      50.841  32.029  26.443  1.00  0.00     0.049 A 
ATOM    112  H   UNL A   1      49.167  30.748  26.543  1.00  0.00     0.167 HD
ATOM    113  C   UNL A   1      48.941  33.548  26.929  1.00  0.00     0.074 A 
ATOM    114  C   UNL A   1      48.368  34.852  27.193  1.00  0.00    -0.034 C 
ATOM    115  H   UNL A   1      46.398  35.521  27.659  1.00  0.00     0.065 H 
ATOM    116  H   UNL A   1      52.953  32.383  26.172  1.00  0.00     0.065 H 
ATOM    117  C   UNL A   1      50.260  33.320  26.710  1.00  0.00     0.037 A 
ATOM    118  H   UNL A   1      48.909  35.731  27.209  1.00  0.00     0.065 H 
BRANCH  99 119
ATOM    119  C   UNL A   1      51.677  27.374  25.826  1.00  0.00     0.064 A 
ATOM    120  C   UNL A   1      52.013  26.889  24.553  1.00  0.00     0.173 A 
ATOM    121  C   UNL A   1      52.399  26.883  26.925  1.00  0.00     0.173 A 
ATOM    122  F   UNL A   1      51.346  27.320  23.471  1.00  0.00    -0.203 F 
ATOM    123  C   UNL A   1      53.006  25.927  24.390  1.00  0.00     0.198 A 
ATOM    124  C   UNL A   1      53.413  25.943  26.755  1.00  0.00     0.198 A 
ATOM    125  F   UNL A   1      52.125  27.317  28.164  1.00  0.00    -0.203 F 
ATOM    126  F   UNL A   1      53.272  25.441  23.170  1.00  0.00    -0.200 F 
ATOM    127  C   UNL A   1      53.710  25.459  25.490  1.00  0.00     0.200 A 
ATOM    128  F   UNL A   1      54.101  25.501  27.817  1.00  0.00    -0.200 F 
ATOM    129  F   UNL A   1      54.667  24.536  25.331  1.00  0.00    -0.200 F 
ENDBRANCH  99 119
BRANCH 102 130
ATOM    130  C   UNL A   1      44.300  33.826  27.665  1.00  0.00     0.064 A 
ATOM    131  C   UNL A   1      43.789  33.912  28.966  1.00  0.00     0.173 A 
ATOM    132  C   UNL A   1      43.763  34.683  26.693  1.00  0.00     0.173 A 
ATOM    133  F   UNL A   1      44.258  33.100  29.925  1.00  0.00    -0.203 F 
ATOM    134  C   UNL A   1      42.773  34.811  29.282  1.00  0.00     0.198 A 
ATOM    135  C   UNL A   1      42.765  35.599  27.015  1.00  0.00     0.198 A 
ATOM    136  F   UNL A   1      44.224  34.643  25.434  1.00  0.00    -0.203 F 
ATOM    137  F   UNL A   1      42.277  34.850  30.526  1.00  0.00    -0.200 F 
ATOM    138  C   UNL A   1      42.266  35.658  28.307  1.00  0.00     0.200 A 
ATOM    139  F   UNL A   1      42.289  36.426  26.074  1.00  0.00    -0.200 F 
ATOM    140  F   UNL A   1      41.296  36.531  28.614  1.00  0.00    -0.200 F 
ENDBRANCH 102 130
BRANCH 117 141
ATOM    141  C   UNL A   1      51.174  34.510  26.726  1.00  0.00     0.064 A 
ATOM    142  C   UNL A   1      51.870  34.884  27.885  1.00  0.00     0.173 A 
ATOM    143  C   UNL A   1      51.389  35.257  25.559  1.00  0.00     0.173 A 
ATOM    144  F   UNL A   1      51.686  34.211  29.030  1.00  0.00    -0.203 F 
ATOM    145  C   UNL A   1      52.732  35.978  27.879  1.00  0.00     0.198 A 
ATOM    146  C   UNL A   1      52.273  36.333  25.550  1.00  0.00     0.198 A 
ATOM    147  F   UNL A   1      50.751  34.937  24.423  1.00  0.00    -0.203 F 
ATOM    148  F   UNL A   1      53.355  36.344  29.009  1.00  0.00    -0.200 F 
ATOM    149  C   UNL A   1      52.938  36.696  26.711  1.00  0.00     0.200 A 
ATOM    150  F   UNL A   1      52.480  37.019  24.417  1.00  0.00    -0.200 F 
ATOM    151  F   UNL A   1      53.774  37.743  26.706  1.00  0.00    -0.200 F 
ENDBRANCH 117 141
ENDBRANCH  82  85
ENDBRANCH  72  75
ENDBRANCH  68  71
ENDBRANCH  65  68
ENDBRANCH  62  65
ENDBRANCH  59  62
ENDBRANCH  56  59
ENDBRANCH   1  56
TORSDOF 23
ENDMDL
