MODEL 1
REMARK VINA RESULT:     -11.7      0.000      0.000
REMARK SMILES Cc1cc(C)c2c(=O)n(CCCC(=O)NCCCCCCNC(=O)c3ccc(-c4c5nc(c(-c6c(F)c(F)c(F)c(F)c6F)c6ccc([nH]6)c(-c6c(F)c(F)c(F)c(F)c6F)c6nc(c(-c7c(F)c(F)c(F)c(F)c7F)c7ccc4[nH]7)C=C6)C=C5)cc3)sc2n1
REMARK SMILES IDX 17 1 16 4 15 7 13 8 14 9 12 11 11 14 10 17 9 20 2 21 3 22
REMARK SMILES IDX 90 23 4 24 89 26 6 27 88 28 7 29 8 30 1 31 5 35 18 39 19 42
REMARK SMILES IDX 20 45 21 48 22 51 23 52 24 54 25 55 26 56 87 57 27 58 86 60
REMARK SMILES IDX 28 62 29 65 30 66 80 67 31 68 85 69 79 70 81 71 32 72 84 73
REMARK SMILES IDX 78 75 77 77 33 79 65 82 45 83 64 84 46 85 49 86 63 87 82 88
REMARK SMILES IDX 47 89 48 91 62 93 83 94 50 97 34 99 35 100 43 101 36 102
REMARK SMILES IDX 37 103 41 104 44 105 38 106 39 107 42 108 40 109 66 110
REMARK SMILES IDX 67 111 75 112 68 113 69 114 73 115 76 116 70 117 71 118
REMARK SMILES IDX 74 119 72 120 51 121 52 122 60 123 53 124 54 125 58 126
REMARK SMILES IDX 61 127 55 128 56 129 59 130 57 131
REMARK H PARENT 17 2 17 3 16 5 16 6 15 10 12 12 12 13 11 15 11 16 10 18 10 19
REMARK H PARENT 3 25 1 32 1 33 1 34 5 36 5 37 5 38 18 40 18 41 19 43 19 44
REMARK H PARENT 20 46 20 47 21 49 21 50 22 53 26 59 87 61 27 63 86 64 85 74
REMARK H PARENT 79 76 81 78 84 80 78 81 46 90 49 92 82 95 47 96 83 98
REMARK Flexibility Score: inf
ROOT
ATOM      1  C   UNL A   1      39.212  21.451  26.121  1.00  0.00    -0.036 C 
ATOM      2  H   UNL A   1      39.280  20.957  25.174  1.00  0.00     0.028 H 
ATOM      3  H   UNL A   1      38.726  20.846  26.857  1.00  0.00     0.028 H 
ENDROOT
BRANCH   1   4
ATOM      4  C   UNL A   1      38.373  22.718  25.950  1.00  0.00     0.017 C 
ATOM      5  H   UNL A   1      37.586  22.721  26.676  1.00  0.00     0.049 H 
ATOM      6  H   UNL A   1      39.001  23.573  26.088  1.00  0.00     0.049 H 
BRANCH   4   7
ATOM      7  N   UNL A   1      37.800  22.764  24.626  1.00  0.00    -0.356 N 
ATOM      8  C   UNL A   1      36.600  23.229  24.196  1.00  0.00     0.220 C 
ATOM      9  O   UNL A   1      36.307  23.038  23.013  1.00  0.00    -0.275 OA
ATOM     10  H   UNL A   1      38.375  22.398  23.916  1.00  0.00     0.163 HD
BRANCH   8  11
ATOM     11  C   UNL A   1      35.696  24.060  25.088  1.00  0.00     0.028 C 
ATOM     12  H   UNL A   1      35.610  23.531  26.014  1.00  0.00     0.037 H 
ATOM     13  H   UNL A   1      36.181  25.013  25.104  1.00  0.00     0.037 H 
BRANCH  11  14
ATOM     14  C   UNL A   1      34.270  24.402  24.640  1.00  0.00    -0.025 C 
ATOM     15  H   UNL A   1      33.854  23.498  24.248  1.00  0.00     0.029 H 
ATOM     16  H   UNL A   1      33.850  24.824  25.529  1.00  0.00     0.029 H 
BRANCH  14  17
ATOM     17  C   UNL A   1      33.985  25.496  23.597  1.00  0.00     0.037 C 
ATOM     18  H   UNL A   1      34.787  26.200  23.669  1.00  0.00     0.051 H 
ATOM     19  H   UNL A   1      33.879  24.933  22.693  1.00  0.00     0.051 H 
BRANCH  17  20
ATOM     20  N   UNL A   1      32.750  26.274  23.631  1.00  0.00    -0.262 N 
ATOM     21  C   UNL A   1      29.355  29.380  22.616  1.00  0.00     0.039 A 
ATOM     22  C   UNL A   1      29.911  30.039  23.721  1.00  0.00    -0.037 A 
ATOM     23  N   UNL A   1      29.778  28.162  22.205  1.00  0.00    -0.241 NA
ATOM     24  C   UNL A   1      30.977  29.453  24.428  1.00  0.00    -0.033 A 
ATOM     25  H   UNL A   1      29.538  30.955  24.017  1.00  0.00     0.064 H 
ATOM     26  C   UNL A   1      30.800  27.634  22.897  1.00  0.00     0.146 A 
ATOM     27  C   UNL A   1      31.462  28.245  23.943  1.00  0.00     0.081 A 
ATOM     28  S   UNL A   1      31.419  26.008  22.591  1.00  0.00    -0.035 S 
ATOM     29  C   UNL A   1      32.668  27.479  24.337  1.00  0.00     0.270 A 
ATOM     30  O   UNL A   1      33.510  27.924  25.105  1.00  0.00    -0.268 OA
BRANCH  21  31
ATOM     31  C   UNL A   1      28.272  30.018  21.799  1.00  0.00    -0.022 C 
ATOM     32  H   UNL A   1      27.752  30.738  22.395  1.00  0.00     0.030 H 
ATOM     33  H   UNL A   1      27.586  29.267  21.467  1.00  0.00     0.030 H 
ATOM     34  H   UNL A   1      28.705  30.504  20.950  1.00  0.00     0.030 H 
ENDBRANCH  21  31
BRANCH  24  35
ATOM     35  C   UNL A   1      31.523  30.097  25.664  1.00  0.00    -0.039 C 
ATOM     36  H   UNL A   1      32.178  29.414  26.162  1.00  0.00     0.028 H 
ATOM     37  H   UNL A   1      30.716  30.359  26.315  1.00  0.00     0.028 H 
ATOM     38  H   UNL A   1      32.066  30.979  25.395  1.00  0.00     0.028 H 
ENDBRANCH  24  35
ENDBRANCH  17  20
ENDBRANCH  14  17
ENDBRANCH  11  14
ENDBRANCH   8  11
ENDBRANCH   4   7
ENDBRANCH   1   4
BRANCH   1  39
ATOM     39  C   UNL A   1      40.631  21.729  26.626  1.00  0.00    -0.052 C 
ATOM     40  H   UNL A   1      40.635  22.696  27.083  1.00  0.00     0.027 H 
ATOM     41  H   UNL A   1      41.271  21.656  25.773  1.00  0.00     0.027 H 
BRANCH  39  42
ATOM     42  C   UNL A   1      41.170  20.716  27.652  1.00  0.00    -0.052 C 
ATOM     43  H   UNL A   1      40.345  20.127  27.992  1.00  0.00     0.027 H 
ATOM     44  H   UNL A   1      41.638  21.305  28.413  1.00  0.00     0.027 H 
BRANCH  42  45
ATOM     45  C   UNL A   1      42.258  19.755  27.152  1.00  0.00    -0.036 C 
ATOM     46  H   UNL A   1      42.059  18.779  27.545  1.00  0.00     0.028 H 
ATOM     47  H   UNL A   1      43.200  20.138  27.486  1.00  0.00     0.028 H 
BRANCH  45  48
ATOM     48  C   UNL A   1      42.322  19.660  25.639  1.00  0.00     0.018 C 
ATOM     49  H   UNL A   1      41.841  20.521  25.222  1.00  0.00     0.049 H 
ATOM     50  H   UNL A   1      41.832  18.754  25.349  1.00  0.00     0.049 H 
BRANCH  48  51
ATOM     51  N   UNL A   1      43.697  19.601  25.133  1.00  0.00    -0.352 N 
ATOM     52  C   UNL A   1      44.558  20.639  24.817  1.00  0.00     0.251 C 
ATOM     53  H   UNL A   1      44.059  18.696  24.999  1.00  0.00     0.163 HD
ATOM     54  O   UNL A   1      45.540  20.458  24.121  1.00  0.00    -0.269 OA
BRANCH  52  55
ATOM     55  C   UNL A   1      44.260  21.979  25.353  1.00  0.00     0.039 A 
ATOM     56  C   UNL A   1      43.446  22.892  24.679  1.00  0.00    -0.049 A 
ATOM     57  C   UNL A   1      44.820  22.304  26.581  1.00  0.00    -0.049 A 
ATOM     58  C   UNL A   1      43.182  24.117  25.289  1.00  0.00    -0.053 A 
ATOM     59  H   UNL A   1      43.051  22.665  23.753  1.00  0.00     0.063 H 
ATOM     60  C   UNL A   1      44.345  23.367  27.285  1.00  0.00    -0.053 A 
ATOM     61  H   UNL A   1      45.597  21.740  26.960  1.00  0.00     0.063 H 
ATOM     62  C   UNL A   1      43.645  24.338  26.595  1.00  0.00    -0.014 A 
ATOM     63  H   UNL A   1      42.655  24.849  24.787  1.00  0.00     0.063 H 
ATOM     64  H   UNL A   1      44.504  23.445  28.301  1.00  0.00     0.063 H 
BRANCH  62  65
ATOM     65  C   UNL A   1      43.417  25.586  27.301  1.00  0.00     0.031 A 
ATOM     66  C   UNL A   1      44.381  26.661  26.973  1.00  0.00     0.074 A 
ATOM     67  C   UNL A   1      42.292  25.797  28.021  1.00  0.00     0.049 A 
ATOM     68  N   UNL A   1      45.259  27.198  27.752  1.00  0.00    -0.248 NA
ATOM     69  C   UNL A   1      44.476  27.097  25.571  1.00  0.00    -0.034 C 
ATOM     70  C   UNL A   1      41.100  24.942  28.155  1.00  0.00    -0.036 A 
ATOM     71  N   UNL A   1      41.943  26.894  28.739  1.00  0.00    -0.354 N 
ATOM     72  C   UNL A   1      45.909  28.164  26.989  1.00  0.00     0.074 A 
ATOM     73  C   UNL A   1      45.505  27.943  25.625  1.00  0.00    -0.034 C 
ATOM     74  H   UNL A   1      43.900  26.819  24.760  1.00  0.00     0.065 H 
ATOM     75  C   UNL A   1      40.091  25.644  28.715  1.00  0.00    -0.036 A 
ATOM     76  H   UNL A   1      41.044  23.954  27.862  1.00  0.00     0.065 H 
ATOM     77  C   UNL A   1      40.617  26.920  29.154  1.00  0.00     0.049 A 
ATOM     78  H   UNL A   1      42.579  27.616  28.949  1.00  0.00     0.167 HD
ATOM     79  C   UNL A   1      46.559  29.202  27.581  1.00  0.00     0.037 A 
ATOM     80  H   UNL A   1      45.950  28.381  24.802  1.00  0.00     0.065 H 
ATOM     81  H   UNL A   1      39.115  25.325  28.815  1.00  0.00     0.065 H 
ATOM     82  C   UNL A   1      40.005  27.939  29.803  1.00  0.00     0.037 A 
ATOM     83  C   UNL A   1      46.773  28.941  28.982  1.00  0.00     0.049 A 
ATOM     84  C   UNL A   1      41.081  28.762  30.405  1.00  0.00     0.074 A 
ATOM     85  C   UNL A   1      47.541  28.050  29.703  1.00  0.00    -0.036 A 
ATOM     86  N   UNL A   1      45.822  29.412  29.850  1.00  0.00    -0.354 N 
ATOM     87  N   UNL A   1      41.876  28.344  31.351  1.00  0.00    -0.248 NA
ATOM     88  C   UNL A   1      41.560  29.904  29.645  1.00  0.00    -0.034 C 
ATOM     89  C   UNL A   1      46.747  27.706  30.839  1.00  0.00    -0.036 A 
ATOM     90  H   UNL A   1      48.487  27.707  29.471  1.00  0.00     0.065 H 
ATOM     91  C   UNL A   1      45.563  28.444  30.787  1.00  0.00     0.049 A 
ATOM     92  H   UNL A   1      45.394  30.298  29.809  1.00  0.00     0.167 HD
ATOM     93  C   UNL A   1      43.116  28.886  31.040  1.00  0.00     0.074 A 
ATOM     94  C   UNL A   1      42.833  29.918  30.046  1.00  0.00    -0.034 C 
ATOM     95  H   UNL A   1      41.061  30.524  28.988  1.00  0.00     0.065 H 
ATOM     96  H   UNL A   1      47.005  27.026  31.572  1.00  0.00     0.065 H 
ATOM     97  C   UNL A   1      44.268  28.252  31.409  1.00  0.00     0.037 A 
ATOM     98  H   UNL A   1      43.539  30.585  29.694  1.00  0.00     0.065 H 
BRANCH  79  99
ATOM     99  C   UNL A   1      46.683  30.586  26.993  1.00  0.00     0.064 A 
ATOM    100  C   UNL A   1      47.939  31.227  26.994  1.00  0.00     0.173 A 
ATOM    101  C   UNL A   1      45.582  31.415  26.685  1.00  0.00     0.173 A 
ATOM    102  F   UNL A   1      49.054  30.547  27.298  1.00  0.00    -0.203 F 
ATOM    103  C   UNL A   1      48.070  32.600  26.761  1.00  0.00     0.198 A 
ATOM    104  C   UNL A   1      45.722  32.772  26.401  1.00  0.00     0.198 A 
ATOM    105  F   UNL A   1      44.319  30.977  26.756  1.00  0.00    -0.203 F 
ATOM    106  F   UNL A   1      49.269  33.185  26.885  1.00  0.00    -0.200 F 
ATOM    107  C   UNL A   1      46.961  33.372  26.467  1.00  0.00     0.200 A 
ATOM    108  F   UNL A   1      44.632  33.506  26.138  1.00  0.00    -0.200 F 
ATOM    109  F   UNL A   1      47.076  34.695  26.294  1.00  0.00    -0.200 F 
ENDBRANCH  79  99
BRANCH  82 110
ATOM    110  C   UNL A   1      38.633  28.463  29.594  1.00  0.00     0.064 A 
ATOM    111  C   UNL A   1      37.815  28.778  30.691  1.00  0.00     0.173 A 
ATOM    112  C   UNL A   1      38.226  28.965  28.342  1.00  0.00     0.173 A 
ATOM    113  F   UNL A   1      38.155  28.370  31.922  1.00  0.00    -0.203 F 
ATOM    114  C   UNL A   1      36.683  29.589  30.554  1.00  0.00     0.198 A 
ATOM    115  C   UNL A   1      37.094  29.772  28.206  1.00  0.00     0.198 A 
ATOM    116  F   UNL A   1      38.974  28.770  27.247  1.00  0.00    -0.203 F 
ATOM    117  F   UNL A   1      35.971  29.932  31.636  1.00  0.00    -0.200 F 
ATOM    118  C   UNL A   1      36.334  30.099  29.314  1.00  0.00     0.200 A 
ATOM    119  F   UNL A   1      36.788  30.291  27.008  1.00  0.00    -0.200 F 
ATOM    120  F   UNL A   1      35.296  30.938  29.194  1.00  0.00    -0.200 F 
ENDBRANCH  82 110
BRANCH  97 121
ATOM    121  C   UNL A   1      44.149  27.122  32.400  1.00  0.00     0.064 A 
ATOM    122  C   UNL A   1      44.179  25.757  32.059  1.00  0.00     0.173 A 
ATOM    123  C   UNL A   1      44.135  27.434  33.766  1.00  0.00     0.173 A 
ATOM    124  F   UNL A   1      44.283  25.367  30.784  1.00  0.00    -0.203 F 
ATOM    125  C   UNL A   1      44.158  24.759  33.035  1.00  0.00     0.198 A 
ATOM    126  C   UNL A   1      44.152  26.439  34.741  1.00  0.00     0.198 A 
ATOM    127  F   UNL A   1      44.154  28.718  34.159  1.00  0.00    -0.203 F 
ATOM    128  F   UNL A   1      44.177  23.467  32.679  1.00  0.00    -0.200 F 
ATOM    129  C   UNL A   1      44.154  25.103  34.375  1.00  0.00     0.200 A 
ATOM    130  F   UNL A   1      44.195  26.778  36.036  1.00  0.00    -0.200 F 
ATOM    131  F   UNL A   1      44.178  24.147  35.316  1.00  0.00    -0.200 F 
ENDBRANCH  97 121
ENDBRANCH  62  65
ENDBRANCH  52  55
ENDBRANCH  48  51
ENDBRANCH  45  48
ENDBRANCH  42  45
ENDBRANCH  39  42
ENDBRANCH   1  39
TORSDOF 18
ENDMDL
MODEL 2
REMARK VINA RESULT:     -11.5      2.738      8.335
REMARK SMILES Cc1cc(C)c2c(=O)n(CCCC(=O)NCCCCCCNC(=O)c3ccc(-c4c5nc(c(-c6c(F)c(F)c(F)c(F)c6F)c6ccc([nH]6)c(-c6c(F)c(F)c(F)c(F)c6F)c6nc(c(-c7c(F)c(F)c(F)c(F)c7F)c7ccc4[nH]7)C=C6)C=C5)cc3)sc2n1
REMARK SMILES IDX 17 1 16 4 15 7 13 8 14 9 12 11 11 14 10 17 9 20 2 21 3 22
REMARK SMILES IDX 90 23 4 24 89 26 6 27 88 28 7 29 8 30 1 31 5 35 18 39 19 42
REMARK SMILES IDX 20 45 21 48 22 51 23 52 24 54 25 55 26 56 87 57 27 58 86 60
REMARK SMILES IDX 28 62 29 65 30 66 80 67 31 68 85 69 79 70 81 71 32 72 84 73
REMARK SMILES IDX 78 75 77 77 33 79 65 82 45 83 64 84 46 85 49 86 63 87 82 88
REMARK SMILES IDX 47 89 48 91 62 93 83 94 50 97 34 99 35 100 43 101 36 102
REMARK SMILES IDX 37 103 41 104 44 105 38 106 39 107 42 108 40 109 66 110
REMARK SMILES IDX 67 111 75 112 68 113 69 114 73 115 76 116 70 117 71 118
REMARK SMILES IDX 74 119 72 120 51 121 52 122 60 123 53 124 54 125 58 126
REMARK SMILES IDX 61 127 55 128 56 129 59 130 57 131
REMARK H PARENT 17 2 17 3 16 5 16 6 15 10 12 12 12 13 11 15 11 16 10 18 10 19
REMARK H PARENT 3 25 1 32 1 33 1 34 5 36 5 37 5 38 18 40 18 41 19 43 19 44
REMARK H PARENT 20 46 20 47 21 49 21 50 22 53 26 59 87 61 27 63 86 64 85 74
REMARK H PARENT 79 76 81 78 84 80 78 81 46 90 49 92 82 95 47 96 83 98
REMARK Flexibility Score: inf
ROOT
ATOM      1  C   UNL A   1      33.724  25.194  25.759  1.00  0.00    -0.036 C 
ATOM      2  H   UNL A   1      33.018  24.833  26.478  1.00  0.00     0.028 H 
ATOM      3  H   UNL A   1      33.372  25.079  24.756  1.00  0.00     0.028 H 
ENDROOT
BRANCH   1   4
ATOM      4  C   UNL A   1      35.009  24.375  25.885  1.00  0.00     0.017 C 
ATOM      5  H   UNL A   1      35.720  24.920  26.472  1.00  0.00     0.049 H 
ATOM      6  H   UNL A   1      34.783  23.442  26.358  1.00  0.00     0.049 H 
BRANCH   4   7
ATOM      7  N   UNL A   1      35.568  24.116  24.580  1.00  0.00    -0.356 N 
ATOM      8  C   UNL A   1      35.475  23.027  23.775  1.00  0.00     0.220 C 
ATOM      9  O   UNL A   1      36.157  23.019  22.748  1.00  0.00    -0.275 OA
ATOM     10  H   UNL A   1      36.108  24.852  24.211  1.00  0.00     0.163 HD
BRANCH   8  11
ATOM     11  C   UNL A   1      34.484  21.911  24.050  1.00  0.00     0.028 C 
ATOM     12  H   UNL A   1      34.953  21.001  23.738  1.00  0.00     0.037 H 
ATOM     13  H   UNL A   1      34.271  22.027  25.092  1.00  0.00     0.037 H 
BRANCH  11  14
ATOM     14  C   UNL A   1      33.094  21.936  23.404  1.00  0.00    -0.025 C 
ATOM     15  H   UNL A   1      32.979  20.997  22.904  1.00  0.00     0.029 H 
ATOM     16  H   UNL A   1      32.462  22.160  24.238  1.00  0.00     0.029 H 
BRANCH  14  17
ATOM     17  C   UNL A   1      32.686  23.018  22.389  1.00  0.00     0.037 C 
ATOM     18  H   UNL A   1      33.546  23.200  21.778  1.00  0.00     0.051 H 
ATOM     19  H   UNL A   1      31.816  22.592  21.933  1.00  0.00     0.051 H 
BRANCH  17  20
ATOM     20  N   UNL A   1      32.206  24.325  22.826  1.00  0.00    -0.262 N 
ATOM     21  C   UNL A   1      30.016  28.495  22.985  1.00  0.00     0.039 A 
ATOM     22  C   UNL A   1      31.314  28.955  22.721  1.00  0.00    -0.037 A 
ATOM     23  N   UNL A   1      29.736  27.188  23.194  1.00  0.00    -0.241 NA
ATOM     24  C   UNL A   1      32.380  28.042  22.624  1.00  0.00    -0.033 A 
ATOM     25  H   UNL A   1      31.487  29.965  22.596  1.00  0.00     0.064 H 
ATOM     26  C   UNL A   1      30.774  26.342  23.089  1.00  0.00     0.146 A 
ATOM     27  C   UNL A   1      32.065  26.695  22.750  1.00  0.00     0.081 A 
ATOM     28  S   UNL A   1      30.636  24.616  23.438  1.00  0.00    -0.035 S 
ATOM     29  C   UNL A   1      32.906  25.497  22.518  1.00  0.00     0.270 A 
ATOM     30  O   UNL A   1      34.023  25.562  22.024  1.00  0.00    -0.268 OA
BRANCH  21  31
ATOM     31  C   UNL A   1      28.851  29.438  23.015  1.00  0.00    -0.022 C 
ATOM     32  H   UNL A   1      29.078  30.304  22.430  1.00  0.00     0.030 H 
ATOM     33  H   UNL A   1      28.656  29.731  24.025  1.00  0.00     0.030 H 
ATOM     34  H   UNL A   1      27.988  28.951  22.612  1.00  0.00     0.030 H 
ENDBRANCH  21  31
BRANCH  24  35
ATOM     35  C   UNL A   1      33.784  28.521  22.432  1.00  0.00    -0.039 C 
ATOM     36  H   UNL A   1      34.133  28.975  23.336  1.00  0.00     0.028 H 
ATOM     37  H   UNL A   1      33.811  29.238  21.639  1.00  0.00     0.028 H 
ATOM     38  H   UNL A   1      34.413  27.691  22.185  1.00  0.00     0.028 H 
ENDBRANCH  24  35
ENDBRANCH  17  20
ENDBRANCH  14  17
ENDBRANCH  11  14
ENDBRANCH   8  11
ENDBRANCH   4   7
ENDBRANCH   1   4
BRANCH   1  39
ATOM     39  C   UNL A   1      33.937  26.692  25.997  1.00  0.00    -0.052 C 
ATOM     40  H   UNL A   1      34.339  27.115  25.101  1.00  0.00     0.027 H 
ATOM     41  H   UNL A   1      34.594  26.770  26.838  1.00  0.00     0.027 H 
BRANCH  39  42
ATOM     42  C   UNL A   1      32.670  27.482  26.370  1.00  0.00    -0.052 C 
ATOM     43  H   UNL A   1      32.042  26.835  26.947  1.00  0.00     0.027 H 
ATOM     44  H   UNL A   1      32.248  27.797  25.439  1.00  0.00     0.027 H 
BRANCH  42  45
ATOM     45  C   UNL A   1      32.885  28.769  27.179  1.00  0.00    -0.036 C 
ATOM     46  H   UNL A   1      32.720  28.554  28.215  1.00  0.00     0.028 H 
ATOM     47  H   UNL A   1      32.194  29.498  26.807  1.00  0.00     0.028 H 
BRANCH  45  48
ATOM     48  C   UNL A   1      34.278  29.349  27.023  1.00  0.00     0.018 C 
ATOM     49  H   UNL A   1      34.650  29.087  26.054  1.00  0.00     0.049 H 
ATOM     50  H   UNL A   1      34.888  28.943  27.803  1.00  0.00     0.049 H 
BRANCH  48  51
ATOM     51  N   UNL A   1      34.303  30.808  27.155  1.00  0.00    -0.352 N 
ATOM     52  C   UNL A   1      35.222  31.612  27.809  1.00  0.00     0.251 C 
ATOM     53  H   UNL A   1      33.561  31.285  26.717  1.00  0.00     0.163 HD
ATOM     54  O   UNL A   1      34.960  32.763  28.106  1.00  0.00    -0.269 OA
BRANCH  52  55
ATOM     55  C   UNL A   1      36.541  31.040  28.132  1.00  0.00     0.039 A 
ATOM     56  C   UNL A   1      37.476  31.713  28.921  1.00  0.00    -0.049 A 
ATOM     57  C   UNL A   1      36.822  29.779  27.624  1.00  0.00    -0.049 A 
ATOM     58  C   UNL A   1      38.678  31.071  29.214  1.00  0.00    -0.053 A 
ATOM     59  H   UNL A   1      37.283  32.662  29.277  1.00  0.00     0.063 H 
ATOM     60  C   UNL A   1      37.859  29.057  28.131  1.00  0.00    -0.053 A 
ATOM     61  H   UNL A   1      36.246  29.389  26.862  1.00  0.00     0.063 H 
ATOM     62  C   UNL A   1      38.852  29.740  28.806  1.00  0.00    -0.014 A 
ATOM     63  H   UNL A   1      39.427  31.567  29.722  1.00  0.00     0.063 H 
ATOM     64  H   UNL A   1      37.900  28.033  28.015  1.00  0.00     0.063 H 
BRANCH  62  65
ATOM     65  C   UNL A   1      40.073  28.999  29.067  1.00  0.00     0.031 A 
ATOM     66  C   UNL A   1      40.350  28.759  30.502  1.00  0.00     0.074 A 
ATOM     67  C   UNL A   1      40.765  28.400  28.071  1.00  0.00     0.049 A 
ATOM     68  N   UNL A   1      41.323  29.232  31.207  1.00  0.00    -0.248 NA
ATOM     69  C   UNL A   1      39.349  28.016  31.282  1.00  0.00    -0.034 C 
ATOM     70  C   UNL A   1      40.418  28.274  26.645  1.00  0.00    -0.036 A 
ATOM     71  N   UNL A   1      41.917  27.689  28.153  1.00  0.00    -0.354 N 
ATOM     72  C   UNL A   1      41.157  28.711  32.487  1.00  0.00     0.074 A 
ATOM     73  C   UNL A   1      39.849  28.112  32.515  1.00  0.00    -0.034 C 
ATOM     74  H   UNL A   1      38.488  27.546  30.961  1.00  0.00     0.065 H 
ATOM     75  C   UNL A   1      41.217  27.356  26.057  1.00  0.00    -0.036 A 
ATOM     76  H   UNL A   1      39.675  28.807  26.166  1.00  0.00     0.065 H 
ATOM     77  C   UNL A   1      42.245  26.979  27.004  1.00  0.00     0.049 A 
ATOM     78  H   UNL A   1      42.477  27.677  28.962  1.00  0.00     0.167 HD
ATOM     79  C   UNL A   1      42.206  28.629  33.350  1.00  0.00     0.037 A 
ATOM     80  H   UNL A   1      39.365  27.799  33.372  1.00  0.00     0.065 H 
ATOM     81  H   UNL A   1      41.113  26.989  25.098  1.00  0.00     0.065 H 
ATOM     82  C   UNL A   1      43.290  26.128  26.864  1.00  0.00     0.037 A 
ATOM     83  C   UNL A   1      43.303  29.450  32.903  1.00  0.00     0.049 A 
ATOM     84  C   UNL A   1      44.257  26.468  27.937  1.00  0.00     0.074 A 
ATOM     85  C   UNL A   1      43.517  30.806  32.771  1.00  0.00    -0.036 A 
ATOM     86  N   UNL A   1      44.257  28.837  32.131  1.00  0.00    -0.354 N 
ATOM     87  N   UNL A   1      44.900  27.601  28.006  1.00  0.00    -0.248 NA
ATOM     88  C   UNL A   1      44.175  25.719  29.178  1.00  0.00    -0.034 C 
ATOM     89  C   UNL A   1      44.308  30.947  31.590  1.00  0.00    -0.036 A 
ATOM     90  H   UNL A   1      43.180  31.558  33.392  1.00  0.00     0.065 H 
ATOM     91  C   UNL A   1      44.586  29.672  31.093  1.00  0.00     0.049 A 
ATOM     92  H   UNL A   1      44.643  27.946  32.294  1.00  0.00     0.167 HD
ATOM     93  C   UNL A   1      44.940  27.906  29.359  1.00  0.00     0.074 A 
ATOM     94  C   UNL A   1      44.574  26.663  30.033  1.00  0.00    -0.034 C 
ATOM     95  H   UNL A   1      43.891  24.741  29.350  1.00  0.00     0.065 H 
ATOM     96  H   UNL A   1      44.621  31.839  31.175  1.00  0.00     0.065 H 
ATOM     97  C   UNL A   1      44.988  29.204  29.781  1.00  0.00     0.037 A 
ATOM     98  H   UNL A   1      44.620  26.530  31.056  1.00  0.00     0.065 H 
BRANCH  79  99
ATOM     99  C   UNL A   1      42.381  27.552  34.391  1.00  0.00     0.064 A 
ATOM    100  C   UNL A   1      42.955  26.319  34.021  1.00  0.00     0.173 A 
ATOM    101  C   UNL A   1      41.760  27.572  35.660  1.00  0.00     0.173 A 
ATOM    102  F   UNL A   1      43.548  26.172  32.827  1.00  0.00    -0.203 F 
ATOM    103  C   UNL A   1      42.863  25.185  34.834  1.00  0.00     0.198 A 
ATOM    104  C   UNL A   1      41.718  26.455  36.492  1.00  0.00     0.198 A 
ATOM    105  F   UNL A   1      41.076  28.635  36.101  1.00  0.00    -0.203 F 
ATOM    106  F   UNL A   1      43.324  24.008  34.389  1.00  0.00    -0.200 F 
ATOM    107  C   UNL A   1      42.243  25.253  36.068  1.00  0.00     0.200 A 
ATOM    108  F   UNL A   1      41.094  26.538  37.675  1.00  0.00    -0.200 F 
ATOM    109  F   UNL A   1      42.109  24.158  36.827  1.00  0.00    -0.200 F 
ENDBRANCH  79  99
BRANCH  82 110
ATOM    110  C   UNL A   1      43.320  24.824  26.160  1.00  0.00     0.064 A 
ATOM    111  C   UNL A   1      44.242  24.591  25.127  1.00  0.00     0.173 A 
ATOM    112  C   UNL A   1      42.677  23.690  26.696  1.00  0.00     0.173 A 
ATOM    113  F   UNL A   1      44.923  25.614  24.591  1.00  0.00    -0.203 F 
ATOM    114  C   UNL A   1      44.543  23.296  24.689  1.00  0.00     0.198 A 
ATOM    115  C   UNL A   1      42.977  22.398  26.256  1.00  0.00     0.198 A 
ATOM    116  F   UNL A   1      41.827  23.805  27.726  1.00  0.00    -0.203 F 
ATOM    117  F   UNL A   1      45.486  23.108  23.755  1.00  0.00    -0.200 F 
ATOM    118  C   UNL A   1      43.922  22.200  25.267  1.00  0.00     0.200 A 
ATOM    119  F   UNL A   1      42.397  21.344  26.848  1.00  0.00    -0.200 F 
ATOM    120  F   UNL A   1      44.265  20.957  24.903  1.00  0.00    -0.200 F 
ENDBRANCH  82 110
BRANCH  97 121
ATOM    121  C   UNL A   1      45.289  30.258  28.745  1.00  0.00     0.064 A 
ATOM    122  C   UNL A   1      44.312  30.949  28.005  1.00  0.00     0.173 A 
ATOM    123  C   UNL A   1      46.617  30.678  28.591  1.00  0.00     0.173 A 
ATOM    124  F   UNL A   1      43.012  30.676  28.155  1.00  0.00    -0.203 F 
ATOM    125  C   UNL A   1      44.653  31.980  27.128  1.00  0.00     0.198 A 
ATOM    126  C   UNL A   1      46.953  31.732  27.743  1.00  0.00     0.198 A 
ATOM    127  F   UNL A   1      47.591  30.092  29.305  1.00  0.00    -0.203 F 
ATOM    128  F   UNL A   1      43.701  32.612  26.427  1.00  0.00    -0.200 F 
ATOM    129  C   UNL A   1      45.974  32.376  27.006  1.00  0.00     0.200 A 
ATOM    130  F   UNL A   1      48.227  32.141  27.665  1.00  0.00    -0.200 F 
ATOM    131  F   UNL A   1      46.300  33.394  26.197  1.00  0.00    -0.200 F 
ENDBRANCH  97 121
ENDBRANCH  62  65
ENDBRANCH  52  55
ENDBRANCH  48  51
ENDBRANCH  45  48
ENDBRANCH  42  45
ENDBRANCH  39  42
ENDBRANCH   1  39
TORSDOF 18
ENDMDL
MODEL 3
REMARK VINA RESULT:     -11.4      4.547      8.150
REMARK SMILES Cc1cc(C)c2c(=O)n(CCCC(=O)NCCCCCCNC(=O)c3ccc(-c4c5nc(c(-c6c(F)c(F)c(F)c(F)c6F)c6ccc([nH]6)c(-c6c(F)c(F)c(F)c(F)c6F)c6nc(c(-c7c(F)c(F)c(F)c(F)c7F)c7ccc4[nH]7)C=C6)C=C5)cc3)sc2n1
REMARK SMILES IDX 17 1 16 4 15 7 13 8 14 9 12 11 11 14 10 17 9 20 2 21 3 22
REMARK SMILES IDX 90 23 4 24 89 26 6 27 88 28 7 29 8 30 1 31 5 35 18 39 19 42
REMARK SMILES IDX 20 45 21 48 22 51 23 52 24 54 25 55 26 56 87 57 27 58 86 60
REMARK SMILES IDX 28 62 29 65 30 66 80 67 31 68 85 69 79 70 81 71 32 72 84 73
REMARK SMILES IDX 78 75 77 77 33 79 65 82 45 83 64 84 46 85 49 86 63 87 82 88
REMARK SMILES IDX 47 89 48 91 62 93 83 94 50 97 34 99 35 100 43 101 36 102
REMARK SMILES IDX 37 103 41 104 44 105 38 106 39 107 42 108 40 109 66 110
REMARK SMILES IDX 67 111 75 112 68 113 69 114 73 115 76 116 70 117 71 118
REMARK SMILES IDX 74 119 72 120 51 121 52 122 60 123 53 124 54 125 58 126
REMARK SMILES IDX 61 127 55 128 56 129 59 130 57 131
REMARK H PARENT 17 2 17 3 16 5 16 6 15 10 12 12 12 13 11 15 11 16 10 18 10 19
REMARK H PARENT 3 25 1 32 1 33 1 34 5 36 5 37 5 38 18 40 18 41 19 43 19 44
REMARK H PARENT 20 46 20 47 21 49 21 50 22 53 26 59 87 61 27 63 86 64 85 74
REMARK H PARENT 79 76 81 78 84 80 78 81 46 90 49 92 82 95 47 96 83 98
REMARK Flexibility Score: inf
ROOT
ATOM      1  C   UNL A   1      45.267  27.258  26.114  1.00  0.00    -0.036 C 
ATOM      2  H   UNL A   1      44.378  27.848  26.049  1.00  0.00     0.028 H 
ATOM      3  H   UNL A   1      45.541  27.053  27.127  1.00  0.00     0.028 H 
ENDROOT
BRANCH   1   4
ATOM      4  C   UNL A   1      46.419  28.042  25.483  1.00  0.00     0.017 C 
ATOM      5  H   UNL A   1      46.054  28.985  25.133  1.00  0.00     0.049 H 
ATOM      6  H   UNL A   1      47.180  28.195  26.218  1.00  0.00     0.049 H 
BRANCH   4   7
ATOM      7  N   UNL A   1      46.978  27.307  24.373  1.00  0.00    -0.356 N 
ATOM      8  C   UNL A   1      48.267  27.108  24.001  1.00  0.00     0.220 C 
ATOM      9  O   UNL A   1      48.467  26.531  22.930  1.00  0.00    -0.275 OA
ATOM     10  H   UNL A   1      46.312  26.877  23.789  1.00  0.00     0.163 HD
BRANCH   8  11
ATOM     11  C   UNL A   1      49.427  27.463  24.912  1.00  0.00     0.028 C 
ATOM     12  H   UNL A   1      50.072  28.107  24.350  1.00  0.00     0.037 H 
ATOM     13  H   UNL A   1      48.943  27.875  25.772  1.00  0.00     0.037 H 
BRANCH  11  14
ATOM     14  C   UNL A   1      50.311  26.359  25.505  1.00  0.00    -0.025 C 
ATOM     15  H   UNL A   1      50.194  25.507  24.868  1.00  0.00     0.029 H 
ATOM     16  H   UNL A   1      51.266  26.840  25.559  1.00  0.00     0.029 H 
BRANCH  14  17
ATOM     17  C   UNL A   1      50.123  25.851  26.944  1.00  0.00     0.037 C 
ATOM     18  H   UNL A   1      50.267  24.790  26.912  1.00  0.00     0.051 H 
ATOM     19  H   UNL A   1      50.823  26.445  27.494  1.00  0.00     0.051 H 
BRANCH  17  20
ATOM     20  N   UNL A   1      48.877  26.076  27.672  1.00  0.00    -0.262 N 
ATOM     21  C   UNL A   1      45.608  26.232  31.061  1.00  0.00     0.039 A 
ATOM     22  C   UNL A   1      45.096  25.150  30.333  1.00  0.00    -0.037 A 
ATOM     23  N   UNL A   1      46.689  26.937  30.656  1.00  0.00    -0.241 NA
ATOM     24  C   UNL A   1      45.733  24.731  29.150  1.00  0.00    -0.033 A 
ATOM     25  H   UNL A   1      44.251  24.658  30.665  1.00  0.00     0.064 H 
ATOM     26  C   UNL A   1      47.277  26.508  29.526  1.00  0.00     0.146 A 
ATOM     27  C   UNL A   1      46.894  25.404  28.792  1.00  0.00     0.081 A 
ATOM     28  S   UNL A   1      48.628  27.360  28.772  1.00  0.00    -0.035 S 
ATOM     29  C   UNL A   1      47.882  25.095  27.731  1.00  0.00     0.270 A 
ATOM     30  O   UNL A   1      47.852  24.056  27.086  1.00  0.00    -0.268 OA
BRANCH  21  31
ATOM     31  C   UNL A   1      44.994  26.648  32.365  1.00  0.00    -0.022 C 
ATOM     32  H   UNL A   1      45.378  27.605  32.650  1.00  0.00     0.030 H 
ATOM     33  H   UNL A   1      45.236  25.928  33.118  1.00  0.00     0.030 H 
ATOM     34  H   UNL A   1      43.932  26.708  32.255  1.00  0.00     0.030 H 
ENDBRANCH  21  31
BRANCH  24  35
ATOM     35  C   UNL A   1      45.150  23.636  28.312  1.00  0.00    -0.039 C 
ATOM     36  H   UNL A   1      44.600  22.964  28.936  1.00  0.00     0.028 H 
ATOM     37  H   UNL A   1      45.939  23.105  27.822  1.00  0.00     0.028 H 
ATOM     38  H   UNL A   1      44.496  24.059  27.579  1.00  0.00     0.028 H 
ENDBRANCH  24  35
ENDBRANCH  17  20
ENDBRANCH  14  17
ENDBRANCH  11  14
ENDBRANCH   8  11
ENDBRANCH   4   7
ENDBRANCH   1   4
BRANCH   1  39
ATOM     39  C   UNL A   1      45.009  25.911  25.432  1.00  0.00    -0.052 C 
ATOM     40  H   UNL A   1      45.540  25.158  25.975  1.00  0.00     0.027 H 
ATOM     41  H   UNL A   1      45.338  26.021  24.420  1.00  0.00     0.027 H 
BRANCH  39  42
ATOM     42  C   UNL A   1      43.531  25.489  25.356  1.00  0.00    -0.052 C 
ATOM     43  H   UNL A   1      43.007  26.239  24.800  1.00  0.00     0.027 H 
ATOM     44  H   UNL A   1      43.212  25.387  26.372  1.00  0.00     0.027 H 
BRANCH  42  45
ATOM     45  C   UNL A   1      43.243  24.132  24.699  1.00  0.00    -0.036 C 
ATOM     46  H   UNL A   1      44.055  23.891  24.044  1.00  0.00     0.028 H 
ATOM     47  H   UNL A   1      42.316  24.223  24.172  1.00  0.00     0.028 H 
BRANCH  45  48
ATOM     48  C   UNL A   1      43.082  23.004  25.701  1.00  0.00     0.018 C 
ATOM     49  H   UNL A   1      43.339  23.372  26.673  1.00  0.00     0.049 H 
ATOM     50  H   UNL A   1      43.726  22.205  25.397  1.00  0.00     0.049 H 
BRANCH  48  51
ATOM     51  N   UNL A   1      41.715  22.478  25.747  1.00  0.00    -0.352 N 
ATOM     52  C   UNL A   1      40.660  22.852  26.563  1.00  0.00     0.251 C 
ATOM     53  H   UNL A   1      41.518  21.757  25.106  1.00  0.00     0.163 HD
ATOM     54  O   UNL A   1      39.690  22.134  26.713  1.00  0.00    -0.269 OA
BRANCH  52  55
ATOM     55  C   UNL A   1      40.737  24.156  27.246  1.00  0.00     0.039 A 
ATOM     56  C   UNL A   1      41.612  24.394  28.309  1.00  0.00    -0.049 A 
ATOM     57  C   UNL A   1      39.900  25.161  26.780  1.00  0.00    -0.049 A 
ATOM     58  C   UNL A   1      41.648  25.674  28.859  1.00  0.00    -0.053 A 
ATOM     59  H   UNL A   1      42.215  23.642  28.677  1.00  0.00     0.063 H 
ATOM     60  C   UNL A   1      40.133  26.455  27.130  1.00  0.00    -0.053 A 
ATOM     61  H   UNL A   1      39.102  24.926  26.170  1.00  0.00     0.063 H 
ATOM     62  C   UNL A   1      40.896  26.693  28.256  1.00  0.00    -0.014 A 
ATOM     63  H   UNL A   1      42.218  25.868  29.698  1.00  0.00     0.063 H 
ATOM     64  H   UNL A   1      39.751  27.233  26.570  1.00  0.00     0.063 H 
BRANCH  62  65
ATOM     65  C   UNL A   1      40.875  28.052  28.768  1.00  0.00     0.031 A 
ATOM     66  C   UNL A   1      41.948  28.924  28.237  1.00  0.00     0.074 A 
ATOM     67  C   UNL A   1      39.832  28.520  29.491  1.00  0.00     0.049 A 
ATOM     68  N   UNL A   1      42.933  29.447  28.886  1.00  0.00    -0.248 NA
ATOM     69  C   UNL A   1      42.013  29.129  26.782  1.00  0.00    -0.034 C 
ATOM     70  C   UNL A   1      38.551  27.866  29.804  1.00  0.00    -0.036 A 
ATOM     71  N   UNL A   1      39.672  29.750  30.042  1.00  0.00    -0.354 N 
ATOM     72  C   UNL A   1      43.655  30.190  27.956  1.00  0.00     0.074 A 
ATOM     73  C   UNL A   1      43.144  29.825  26.661  1.00  0.00    -0.034 C 
ATOM     74  H   UNL A   1      41.358  28.815  26.048  1.00  0.00     0.065 H 
ATOM     75  C   UNL A   1      37.677  28.775  30.288  1.00  0.00    -0.036 A 
ATOM     76  H   UNL A   1      38.350  26.862  29.672  1.00  0.00     0.065 H 
ATOM     77  C   UNL A   1      38.388  30.018  30.501  1.00  0.00     0.049 A 
ATOM     78  H   UNL A   1      40.407  30.401  30.111  1.00  0.00     0.167 HD
ATOM     79  C   UNL A   1      44.468  31.206  28.352  1.00  0.00     0.037 A 
ATOM     80  H   UNL A   1      43.591  30.071  25.763  1.00  0.00     0.065 H 
ATOM     81  H   UNL A   1      36.675  28.611  30.476  1.00  0.00     0.065 H 
ATOM     82  C   UNL A   1      37.953  31.196  31.007  1.00  0.00     0.037 A 
ATOM     83  C   UNL A   1      44.732  31.130  29.767  1.00  0.00     0.049 A 
ATOM     84  C   UNL A   1      39.161  31.946  31.429  1.00  0.00     0.074 A 
ATOM     85  C   UNL A   1      45.421  30.260  30.586  1.00  0.00    -0.036 A 
ATOM     86  N   UNL A   1      43.903  31.851  30.589  1.00  0.00    -0.354 N 
ATOM     87  N   UNL A   1      39.952  31.569  32.396  1.00  0.00    -0.248 NA
ATOM     88  C   UNL A   1      39.736  32.885  30.482  1.00  0.00    -0.034 C 
ATOM     89  C   UNL A   1      44.659  30.201  31.794  1.00  0.00    -0.036 A 
ATOM     90  H   UNL A   1      46.298  29.760  30.374  1.00  0.00     0.065 H 
ATOM     91  C   UNL A   1      43.580  31.078  31.675  1.00  0.00     0.049 A 
ATOM     92  H   UNL A   1      43.592  32.771  30.427  1.00  0.00     0.167 HD
ATOM     93  C   UNL A   1      41.230  31.883  31.955  1.00  0.00     0.074 A 
ATOM     94  C   UNL A   1      41.022  32.785  30.824  1.00  0.00    -0.034 C 
ATOM     95  H   UNL A   1      39.282  33.462  29.757  1.00  0.00     0.065 H 
ATOM     96  H   UNL A   1      44.872  29.610  32.613  1.00  0.00     0.065 H 
ATOM     97  C   UNL A   1      42.311  31.160  32.371  1.00  0.00     0.037 A 
ATOM     98  H   UNL A   1      41.785  33.288  30.344  1.00  0.00     0.065 H 
BRANCH  79  99
ATOM     99  C   UNL A   1      44.734  32.457  27.551  1.00  0.00     0.064 A 
ATOM    100  C   UNL A   1      45.939  32.571  26.828  1.00  0.00     0.173 A 
ATOM    101  C   UNL A   1      43.993  33.652  27.684  1.00  0.00     0.173 A 
ATOM    102  F   UNL A   1      46.739  31.508  26.660  1.00  0.00    -0.203 F 
ATOM    103  C   UNL A   1      46.389  33.798  26.330  1.00  0.00     0.198 A 
ATOM    104  C   UNL A   1      44.418  34.862  27.140  1.00  0.00     0.198 A 
ATOM    105  F   UNL A   1      42.889  33.725  28.437  1.00  0.00    -0.203 F 
ATOM    106  F   UNL A   1      47.594  33.878  25.749  1.00  0.00    -0.200 F 
ATOM    107  C   UNL A   1      45.630  34.943  26.488  1.00  0.00     0.200 A 
ATOM    108  F   UNL A   1      43.677  35.963  27.322  1.00  0.00    -0.200 F 
ATOM    109  F   UNL A   1      46.082  36.127  26.056  1.00  0.00    -0.200 F 
ENDBRANCH  79  99
BRANCH  82 110
ATOM    110  C   UNL A   1      36.650  31.866  30.775  1.00  0.00     0.064 A 
ATOM    111  C   UNL A   1      35.780  32.125  31.846  1.00  0.00     0.173 A 
ATOM    112  C   UNL A   1      36.384  32.546  29.570  1.00  0.00     0.173 A 
ATOM    113  F   UNL A   1      35.989  31.546  33.037  1.00  0.00    -0.203 F 
ATOM    114  C   UNL A   1      34.734  33.048  31.735  1.00  0.00     0.198 A 
ATOM    115  C   UNL A   1      35.338  33.466  29.460  1.00  0.00     0.198 A 
ATOM    116  F   UNL A   1      37.195  32.412  28.511  1.00  0.00    -0.203 F 
ATOM    117  F   UNL A   1      33.972  33.327  32.802  1.00  0.00    -0.200 F 
ATOM    118  C   UNL A   1      34.525  33.730  30.547  1.00  0.00     0.200 A 
ATOM    119  F   UNL A   1      35.169  34.146  28.318  1.00  0.00    -0.200 F 
ATOM    120  F   UNL A   1      33.574  34.670  30.463  1.00  0.00    -0.200 F 
ENDBRANCH  82 110
BRANCH  97 121
ATOM    121  C   UNL A   1      42.108  30.217  33.530  1.00  0.00     0.064 A 
ATOM    122  C   UNL A   1      41.802  28.850  33.401  1.00  0.00     0.173 A 
ATOM    123  C   UNL A   1      42.363  30.691  34.824  1.00  0.00     0.173 A 
ATOM    124  F   UNL A   1      41.630  28.293  32.198  1.00  0.00    -0.203 F 
ATOM    125  C   UNL A   1      41.719  28.011  34.514  1.00  0.00     0.198 A 
ATOM    126  C   UNL A   1      42.317  29.845  35.931  1.00  0.00     0.198 A 
ATOM    127  F   UNL A   1      42.707  31.975  35.012  1.00  0.00    -0.203 F 
ATOM    128  F   UNL A   1      41.414  26.715  34.359  1.00  0.00    -0.200 F 
ATOM    129  C   UNL A   1      41.986  28.509  35.777  1.00  0.00     0.200 A 
ATOM    130  F   UNL A   1      42.622  30.323  37.145  1.00  0.00    -0.200 F 
ATOM    131  F   UNL A   1      41.950  27.697  36.843  1.00  0.00    -0.200 F 
ENDBRANCH  97 121
ENDBRANCH  62  65
ENDBRANCH  52  55
ENDBRANCH  48  51
ENDBRANCH  45  48
ENDBRANCH  42  45
ENDBRANCH  39  42
ENDBRANCH   1  39
TORSDOF 18
ENDMDL
MODEL 4
REMARK VINA RESULT:     -11.3      2.887      9.167
REMARK SMILES Cc1cc(C)c2c(=O)n(CCCC(=O)NCCCCCCNC(=O)c3ccc(-c4c5nc(c(-c6c(F)c(F)c(F)c(F)c6F)c6ccc([nH]6)c(-c6c(F)c(F)c(F)c(F)c6F)c6nc(c(-c7c(F)c(F)c(F)c(F)c7F)c7ccc4[nH]7)C=C6)C=C5)cc3)sc2n1
REMARK SMILES IDX 17 1 16 4 15 7 13 8 14 9 12 11 11 14 10 17 9 20 2 21 3 22
REMARK SMILES IDX 90 23 4 24 89 26 6 27 88 28 7 29 8 30 1 31 5 35 18 39 19 42
REMARK SMILES IDX 20 45 21 48 22 51 23 52 24 54 25 55 26 56 87 57 27 58 86 60
REMARK SMILES IDX 28 62 29 65 30 66 80 67 31 68 85 69 79 70 81 71 32 72 84 73
REMARK SMILES IDX 78 75 77 77 33 79 65 82 45 83 64 84 46 85 49 86 63 87 82 88
REMARK SMILES IDX 47 89 48 91 62 93 83 94 50 97 34 99 35 100 43 101 36 102
REMARK SMILES IDX 37 103 41 104 44 105 38 106 39 107 42 108 40 109 66 110
REMARK SMILES IDX 67 111 75 112 68 113 69 114 73 115 76 116 70 117 71 118
REMARK SMILES IDX 74 119 72 120 51 121 52 122 60 123 53 124 54 125 58 126
REMARK SMILES IDX 61 127 55 128 56 129 59 130 57 131
REMARK H PARENT 17 2 17 3 16 5 16 6 15 10 12 12 12 13 11 15 11 16 10 18 10 19
REMARK H PARENT 3 25 1 32 1 33 1 34 5 36 5 37 5 38 18 40 18 41 19 43 19 44
REMARK H PARENT 20 46 20 47 21 49 21 50 22 53 26 59 87 61 27 63 86 64 85 74
REMARK H PARENT 79 76 81 78 84 80 78 81 46 90 49 92 82 95 47 96 83 98
REMARK Flexibility Score: inf
ROOT
ATOM      1  C   UNL A   1      31.463  29.000  23.597  1.00  0.00    -0.036 C 
ATOM      2  H   UNL A   1      31.000  28.046  23.457  1.00  0.00     0.028 H 
ATOM      3  H   UNL A   1      30.915  29.787  23.122  1.00  0.00     0.028 H 
ENDROOT
BRANCH   1   4
ATOM      4  C   UNL A   1      32.851  28.964  22.957  1.00  0.00     0.017 C 
ATOM      5  H   UNL A   1      32.962  29.807  22.307  1.00  0.00     0.049 H 
ATOM      6  H   UNL A   1      33.592  28.998  23.728  1.00  0.00     0.049 H 
BRANCH   4   7
ATOM      7  N   UNL A   1      33.021  27.750  22.194  1.00  0.00    -0.356 N 
ATOM      8  C   UNL A   1      33.543  26.548  22.546  1.00  0.00     0.220 C 
ATOM      9  O   UNL A   1      33.680  25.705  21.656  1.00  0.00    -0.275 OA
ATOM     10  H   UNL A   1      32.705  27.803  21.264  1.00  0.00     0.163 HD
BRANCH   8  11
ATOM     11  C   UNL A   1      33.837  26.195  23.992  1.00  0.00     0.028 C 
ATOM     12  H   UNL A   1      34.649  25.498  23.979  1.00  0.00     0.037 H 
ATOM     13  H   UNL A   1      34.010  27.149  24.445  1.00  0.00     0.037 H 
BRANCH  11  14
ATOM     14  C   UNL A   1      32.744  25.583  24.876  1.00  0.00    -0.025 C 
ATOM     15  H   UNL A   1      32.427  26.359  25.542  1.00  0.00     0.029 H 
ATOM     16  H   UNL A   1      32.052  25.207  24.151  1.00  0.00     0.029 H 
BRANCH  14  17
ATOM     17  C   UNL A   1      33.002  24.344  25.751  1.00  0.00     0.037 C 
ATOM     18  H   UNL A   1      33.698  24.646  26.506  1.00  0.00     0.051 H 
ATOM     19  H   UNL A   1      32.014  24.061  26.051  1.00  0.00     0.051 H 
BRANCH  17  20
ATOM     20  N   UNL A   1      33.526  23.107  25.178  1.00  0.00    -0.262 N 
ATOM     21  C   UNL A   1      34.810  18.613  24.579  1.00  0.00     0.039 A 
ATOM     22  C   UNL A   1      36.081  19.162  24.793  1.00  0.00    -0.037 A 
ATOM     23  N   UNL A   1      33.691  19.371  24.510  1.00  0.00    -0.241 NA
ATOM     24  C   UNL A   1      36.228  20.549  24.985  1.00  0.00    -0.033 A 
ATOM     25  H   UNL A   1      36.912  18.550  24.810  1.00  0.00     0.064 H 
ATOM     26  C   UNL A   1      33.864  20.689  24.704  1.00  0.00     0.146 A 
ATOM     27  C   UNL A   1      35.063  21.305  25.003  1.00  0.00     0.081 A 
ATOM     28  S   UNL A   1      32.550  21.857  24.540  1.00  0.00    -0.035 S 
ATOM     29  C   UNL A   1      34.860  22.730  25.360  1.00  0.00     0.270 A 
ATOM     30  O   UNL A   1      35.747  23.420  25.844  1.00  0.00    -0.268 OA
BRANCH  21  31
ATOM     31  C   UNL A   1      34.618  17.132  24.450  1.00  0.00    -0.022 C 
ATOM     32  H   UNL A   1      35.282  16.750  23.703  1.00  0.00     0.030 H 
ATOM     33  H   UNL A   1      33.607  16.927  24.167  1.00  0.00     0.030 H 
ATOM     34  H   UNL A   1      34.828  16.662  25.388  1.00  0.00     0.030 H 
ENDBRANCH  21  31
BRANCH  24  35
ATOM     35  C   UNL A   1      37.584  21.164  25.125  1.00  0.00    -0.039 C 
ATOM     36  H   UNL A   1      38.299  20.579  24.585  1.00  0.00     0.028 H 
ATOM     37  H   UNL A   1      37.857  21.196  26.159  1.00  0.00     0.028 H 
ATOM     38  H   UNL A   1      37.567  22.158  24.730  1.00  0.00     0.028 H 
ENDBRANCH  24  35
ENDBRANCH  17  20
ENDBRANCH  14  17
ENDBRANCH  11  14
ENDBRANCH   8  11
ENDBRANCH   4   7
ENDBRANCH   1   4
BRANCH   1  39
ATOM     39  C   UNL A   1      31.497  29.310  25.096  1.00  0.00    -0.052 C 
ATOM     40  H   UNL A   1      31.108  28.461  25.618  1.00  0.00     0.027 H 
ATOM     41  H   UNL A   1      30.915  30.198  25.230  1.00  0.00     0.027 H 
BRANCH  39  42
ATOM     42  C   UNL A   1      32.890  29.623  25.668  1.00  0.00    -0.052 C 
ATOM     43  H   UNL A   1      32.895  30.651  25.969  1.00  0.00     0.027 H 
ATOM     44  H   UNL A   1      33.579  29.388  24.885  1.00  0.00     0.027 H 
BRANCH  42  45
ATOM     45  C   UNL A   1      33.337  28.781  26.872  1.00  0.00    -0.036 C 
ATOM     46  H   UNL A   1      33.926  27.962  26.516  1.00  0.00     0.028 H 
ATOM     47  H   UNL A   1      32.452  28.450  27.375  1.00  0.00     0.028 H 
BRANCH  45  48
ATOM     48  C   UNL A   1      34.159  29.565  27.878  1.00  0.00     0.018 C 
ATOM     49  H   UNL A   1      35.135  29.127  27.937  1.00  0.00     0.049 H 
ATOM     50  H   UNL A   1      33.649  29.522  28.818  1.00  0.00     0.049 H 
BRANCH  48  51
ATOM     51  N   UNL A   1      34.301  30.978  27.515  1.00  0.00    -0.352 N 
ATOM     52  C   UNL A   1      35.357  31.841  27.758  1.00  0.00     0.251 C 
ATOM     53  H   UNL A   1      33.539  31.369  27.031  1.00  0.00     0.163 HD
ATOM     54  O   UNL A   1      35.218  33.048  27.685  1.00  0.00    -0.269 OA
BRANCH  52  55
ATOM     55  C   UNL A   1      36.666  31.260  28.103  1.00  0.00     0.039 A 
ATOM     56  C   UNL A   1      37.519  31.841  29.045  1.00  0.00    -0.049 A 
ATOM     57  C   UNL A   1      37.025  30.087  27.454  1.00  0.00    -0.049 A 
ATOM     58  C   UNL A   1      38.716  31.192  29.340  1.00  0.00    -0.053 A 
ATOM     59  H   UNL A   1      37.269  32.728  29.509  1.00  0.00     0.063 H 
ATOM     60  C   UNL A   1      38.045  29.327  27.937  1.00  0.00    -0.053 A 
ATOM     61  H   UNL A   1      36.519  29.792  26.604  1.00  0.00     0.063 H 
ATOM     62  C   UNL A   1      38.963  29.933  28.772  1.00  0.00    -0.014 A 
ATOM     63  H   UNL A   1      39.410  31.631  29.966  1.00  0.00     0.063 H 
ATOM     64  H   UNL A   1      38.128  28.329  27.688  1.00  0.00     0.063 H 
BRANCH  62  65
ATOM     65  C   UNL A   1      40.186  29.191  29.024  1.00  0.00     0.031 A 
ATOM     66  C   UNL A   1      40.450  28.914  30.455  1.00  0.00     0.074 A 
ATOM     67  C   UNL A   1      40.889  28.623  28.019  1.00  0.00     0.049 A 
ATOM     68  N   UNL A   1      41.414  29.372  31.181  1.00  0.00    -0.248 NA
ATOM     69  C   UNL A   1      39.446  28.145  31.205  1.00  0.00    -0.034 C 
ATOM     70  C   UNL A   1      40.557  28.534  26.587  1.00  0.00    -0.036 A 
ATOM     71  N   UNL A   1      42.045  27.915  28.093  1.00  0.00    -0.354 N 
ATOM     72  C   UNL A   1      41.239  28.816  32.445  1.00  0.00     0.074 A 
ATOM     73  C   UNL A   1      39.933  28.210  32.445  1.00  0.00    -0.034 C 
ATOM     74  H   UNL A   1      38.590  27.680  30.864  1.00  0.00     0.065 H 
ATOM     75  C   UNL A   1      41.366  27.636  25.982  1.00  0.00    -0.036 A 
ATOM     76  H   UNL A   1      39.816  29.076  26.116  1.00  0.00     0.065 H 
ATOM     77  C   UNL A   1      42.387  27.238  26.929  1.00  0.00     0.049 A 
ATOM     78  H   UNL A   1      42.597  27.884  28.907  1.00  0.00     0.167 HD
ATOM     79  C   UNL A   1      42.280  28.716  33.316  1.00  0.00     0.037 A 
ATOM     80  H   UNL A   1      39.443  27.872  33.289  1.00  0.00     0.065 H 
ATOM     81  H   UNL A   1      41.272  27.295  25.013  1.00  0.00     0.065 H 
ATOM     82  C   UNL A   1      43.437  26.397  26.775  1.00  0.00     0.037 A 
ATOM     83  C   UNL A   1      43.377  29.554  32.901  1.00  0.00     0.049 A 
ATOM     84  C   UNL A   1      44.392  26.712  27.866  1.00  0.00     0.074 A 
ATOM     85  C   UNL A   1      43.586  30.914  32.809  1.00  0.00    -0.036 A 
ATOM     86  N   UNL A   1      44.342  28.967  32.122  1.00  0.00    -0.354 N 
ATOM     87  N   UNL A   1      45.029  27.845  27.972  1.00  0.00    -0.248 NA
ATOM     88  C   UNL A   1      44.302  25.929  29.086  1.00  0.00    -0.034 C 
ATOM     89  C   UNL A   1      44.387  31.091  31.639  1.00  0.00    -0.036 A 
ATOM     90  H   UNL A   1      43.239  31.647  33.446  1.00  0.00     0.065 H 
ATOM     91  C   UNL A   1      44.676  29.831  31.110  1.00  0.00     0.049 A 
ATOM     92  H   UNL A   1      44.730  28.074  32.264  1.00  0.00     0.167 HD
ATOM     93  C   UNL A   1      45.054  28.114  29.333  1.00  0.00     0.074 A 
ATOM     94  C   UNL A   1      44.689  26.851  29.970  1.00  0.00    -0.034 C 
ATOM     95  H   UNL A   1      44.022  24.946  29.228  1.00  0.00     0.065 H 
ATOM     96  H   UNL A   1      44.699  31.995  31.251  1.00  0.00     0.065 H 
ATOM     97  C   UNL A   1      45.092  29.401  29.790  1.00  0.00     0.037 A 
ATOM     98  H   UNL A   1      44.726  26.691  30.989  1.00  0.00     0.065 H 
BRANCH  79  99
ATOM     99  C   UNL A   1      42.450  27.612  34.329  1.00  0.00     0.064 A 
ATOM    100  C   UNL A   1      43.013  26.384  33.926  1.00  0.00     0.173 A 
ATOM    101  C   UNL A   1      41.836  27.606  35.601  1.00  0.00     0.173 A 
ATOM    102  F   UNL A   1      43.599  26.262  32.726  1.00  0.00    -0.203 F 
ATOM    103  C   UNL A   1      42.915  25.230  34.711  1.00  0.00     0.198 A 
ATOM    104  C   UNL A   1      41.788  26.468  36.405  1.00  0.00     0.198 A 
ATOM    105  F   UNL A   1      41.162  28.662  36.071  1.00  0.00    -0.203 F 
ATOM    106  F   UNL A   1      43.365  24.061  34.235  1.00  0.00    -0.200 F 
ATOM    107  C   UNL A   1      42.301  25.273  35.949  1.00  0.00     0.200 A 
ATOM    108  F   UNL A   1      41.170  26.527  37.593  1.00  0.00    -0.200 F 
ATOM    109  F   UNL A   1      42.161  24.160  36.681  1.00  0.00    -0.200 F 
ENDBRANCH  79  99
BRANCH  82 110
ATOM    110  C   UNL A   1      43.480  25.112  26.036  1.00  0.00     0.064 A 
ATOM    111  C   UNL A   1      44.526  24.838  25.141  1.00  0.00     0.173 A 
ATOM    112  C   UNL A   1      42.689  24.015  26.433  1.00  0.00     0.173 A 
ATOM    113  F   UNL A   1      45.348  25.821  24.746  1.00  0.00    -0.203 F 
ATOM    114  C   UNL A   1      44.798  23.536  24.705  1.00  0.00     0.198 A 
ATOM    115  C   UNL A   1      42.960  22.717  25.995  1.00  0.00     0.198 A 
ATOM    116  F   UNL A   1      41.707  24.165  27.332  1.00  0.00    -0.203 F 
ATOM    117  F   UNL A   1      45.853  23.303  23.911  1.00  0.00    -0.200 F 
ATOM    118  C   UNL A   1      44.025  22.475  25.146  1.00  0.00     0.200 A 
ATOM    119  F   UNL A   1      42.228  21.693  26.458  1.00  0.00    -0.200 F 
ATOM    120  F   UNL A   1      44.331  21.220  24.792  1.00  0.00    -0.200 F 
ENDBRANCH  82 110
BRANCH  97 121
ATOM    121  C   UNL A   1      45.398  30.484  28.786  1.00  0.00     0.064 A 
ATOM    122  C   UNL A   1      44.424  31.194  28.061  1.00  0.00     0.173 A 
ATOM    123  C   UNL A   1      46.726  30.908  28.650  1.00  0.00     0.173 A 
ATOM    124  F   UNL A   1      43.123  30.917  28.197  1.00  0.00    -0.203 F 
ATOM    125  C   UNL A   1      44.769  32.250  27.215  1.00  0.00     0.198 A 
ATOM    126  C   UNL A   1      47.066  31.986  27.834  1.00  0.00     0.198 A 
ATOM    127  F   UNL A   1      47.698  30.303  29.351  1.00  0.00    -0.203 F 
ATOM    128  F   UNL A   1      43.820  32.902  26.528  1.00  0.00    -0.200 F 
ATOM    129  C   UNL A   1      46.090  32.650  27.111  1.00  0.00     0.200 A 
ATOM    130  F   UNL A   1      48.340  32.397  27.774  1.00  0.00    -0.200 F 
ATOM    131  F   UNL A   1      46.419  33.691  26.333  1.00  0.00    -0.200 F 
ENDBRANCH  97 121
ENDBRANCH  62  65
ENDBRANCH  52  55
ENDBRANCH  48  51
ENDBRANCH  45  48
ENDBRANCH  42  45
ENDBRANCH  39  42
ENDBRANCH   1  39
TORSDOF 18
ENDMDL
MODEL 5
REMARK VINA RESULT:     -11.1      2.748      3.802
REMARK SMILES Cc1cc(C)c2c(=O)n(CCCC(=O)NCCCCCCNC(=O)c3ccc(-c4c5nc(c(-c6c(F)c(F)c(F)c(F)c6F)c6ccc([nH]6)c(-c6c(F)c(F)c(F)c(F)c6F)c6nc(c(-c7c(F)c(F)c(F)c(F)c7F)c7ccc4[nH]7)C=C6)C=C5)cc3)sc2n1
REMARK SMILES IDX 17 1 16 4 15 7 13 8 14 9 12 11 11 14 10 17 9 20 2 21 3 22
REMARK SMILES IDX 90 23 4 24 89 26 6 27 88 28 7 29 8 30 1 31 5 35 18 39 19 42
REMARK SMILES IDX 20 45 21 48 22 51 23 52 24 54 25 55 26 56 87 57 27 58 86 60
REMARK SMILES IDX 28 62 29 65 30 66 80 67 31 68 85 69 79 70 81 71 32 72 84 73
REMARK SMILES IDX 78 75 77 77 33 79 65 82 45 83 64 84 46 85 49 86 63 87 82 88
REMARK SMILES IDX 47 89 48 91 62 93 83 94 50 97 34 99 35 100 43 101 36 102
REMARK SMILES IDX 37 103 41 104 44 105 38 106 39 107 42 108 40 109 66 110
REMARK SMILES IDX 67 111 75 112 68 113 69 114 73 115 76 116 70 117 71 118
REMARK SMILES IDX 74 119 72 120 51 121 52 122 60 123 53 124 54 125 58 126
REMARK SMILES IDX 61 127 55 128 56 129 59 130 57 131
REMARK H PARENT 17 2 17 3 16 5 16 6 15 10 12 12 12 13 11 15 11 16 10 18 10 19
REMARK H PARENT 3 25 1 32 1 33 1 34 5 36 5 37 5 38 18 40 18 41 19 43 19 44
REMARK H PARENT 20 46 20 47 21 49 21 50 22 53 26 59 87 61 27 63 86 64 85 74
REMARK H PARENT 79 76 81 78 84 80 78 81 46 90 49 92 82 95 47 96 83 98
REMARK Flexibility Score: inf
ROOT
ATOM      1  C   UNL A   1      35.492  21.937  25.725  1.00  0.00    -0.036 C 
ATOM      2  H   UNL A   1      35.841  21.778  26.724  1.00  0.00     0.028 H 
ATOM      3  H   UNL A   1      34.497  22.332  25.705  1.00  0.00     0.028 H 
ENDROOT
BRANCH   1   4
ATOM      4  C   UNL A   1      35.460  20.591  25.001  1.00  0.00     0.017 C 
ATOM      5  H   UNL A   1      35.462  20.758  23.944  1.00  0.00     0.049 H 
ATOM      6  H   UNL A   1      36.321  20.023  25.284  1.00  0.00     0.049 H 
BRANCH   4   7
ATOM      7  N   UNL A   1      34.271  19.855  25.363  1.00  0.00    -0.356 N 
ATOM      8  C   UNL A   1      33.030  19.851  24.816  1.00  0.00     0.220 C 
ATOM      9  O   UNL A   1      32.153  19.210  25.399  1.00  0.00    -0.275 OA
ATOM     10  H   UNL A   1      34.380  19.256  26.137  1.00  0.00     0.163 HD
BRANCH   8  11
ATOM     11  C   UNL A   1      32.745  20.499  23.474  1.00  0.00     0.028 C 
ATOM     12  H   UNL A   1      33.609  20.334  22.864  1.00  0.00     0.037 H 
ATOM     13  H   UNL A   1      31.829  20.038  23.171  1.00  0.00     0.037 H 
BRANCH  11  14
ATOM     14  C   UNL A   1      32.425  21.997  23.391  1.00  0.00    -0.025 C 
ATOM     15  H   UNL A   1      33.303  22.470  23.005  1.00  0.00     0.029 H 
ATOM     16  H   UNL A   1      31.531  22.004  22.803  1.00  0.00     0.029 H 
BRANCH  14  17
ATOM     17  C   UNL A   1      32.005  22.809  24.628  1.00  0.00     0.037 C 
ATOM     18  H   UNL A   1      30.962  22.623  24.773  1.00  0.00     0.051 H 
ATOM     19  H   UNL A   1      32.694  22.468  25.374  1.00  0.00     0.051 H 
BRANCH  17  20
ATOM     20  N   UNL A   1      32.177  24.258  24.678  1.00  0.00    -0.262 N 
ATOM     21  C   UNL A   1      31.938  28.778  25.989  1.00  0.00     0.039 A 
ATOM     22  C   UNL A   1      31.035  28.828  24.918  1.00  0.00    -0.037 A 
ATOM     23  N   UNL A   1      32.633  27.661  26.304  1.00  0.00    -0.241 NA
ATOM     24  C   UNL A   1      30.792  27.677  24.146  1.00  0.00    -0.033 A 
ATOM     25  H   UNL A   1      30.546  29.709  24.695  1.00  0.00     0.064 H 
ATOM     26  C   UNL A   1      32.374  26.579  25.552  1.00  0.00     0.146 A 
ATOM     27  C   UNL A   1      31.444  26.513  24.534  1.00  0.00     0.081 A 
ATOM     28  S   UNL A   1      33.260  25.061  25.729  1.00  0.00    -0.035 S 
ATOM     29  C   UNL A   1      31.265  25.120  24.059  1.00  0.00     0.270 A 
ATOM     30  O   UNL A   1      30.360  24.793  23.303  1.00  0.00    -0.268 OA
BRANCH  21  31
ATOM     31  C   UNL A   1      32.154  29.968  26.875  1.00  0.00    -0.022 C 
ATOM     32  H   UNL A   1      31.639  29.822  27.801  1.00  0.00     0.030 H 
ATOM     33  H   UNL A   1      31.779  30.845  26.391  1.00  0.00     0.030 H 
ATOM     34  H   UNL A   1      33.201  30.086  27.064  1.00  0.00     0.030 H 
ENDBRANCH  21  31
BRANCH  24  35
ATOM     35  C   UNL A   1      29.902  27.733  22.945  1.00  0.00    -0.039 C 
ATOM     36  H   UNL A   1      30.486  27.955  22.077  1.00  0.00     0.028 H 
ATOM     37  H   UNL A   1      29.164  28.494  23.084  1.00  0.00     0.028 H 
ATOM     38  H   UNL A   1      29.419  26.787  22.816  1.00  0.00     0.028 H 
ENDBRANCH  24  35
ENDBRANCH  17  20
ENDBRANCH  14  17
ENDBRANCH  11  14
ENDBRANCH   8  11
ENDBRANCH   4   7
ENDBRANCH   1   4
BRANCH   1  39
ATOM     39  C   UNL A   1      36.402  22.966  25.049  1.00  0.00    -0.052 C 
ATOM     40  H   UNL A   1      35.870  23.891  24.990  1.00  0.00     0.027 H 
ATOM     41  H   UNL A   1      36.656  22.557  24.094  1.00  0.00     0.027 H 
BRANCH  39  42
ATOM     42  C   UNL A   1      37.738  23.230  25.767  1.00  0.00    -0.052 C 
ATOM     43  H   UNL A   1      37.513  23.599  26.746  1.00  0.00     0.027 H 
ATOM     44  H   UNL A   1      38.264  23.921  25.143  1.00  0.00     0.027 H 
BRANCH  42  45
ATOM     45  C   UNL A   1      38.676  22.025  25.926  1.00  0.00    -0.036 C 
ATOM     46  H   UNL A   1      39.075  21.774  24.964  1.00  0.00     0.028 H 
ATOM     47  H   UNL A   1      38.099  21.224  26.342  1.00  0.00     0.028 H 
BRANCH  45  48
ATOM     48  C   UNL A   1      39.831  22.286  26.873  1.00  0.00     0.018 C 
ATOM     49  H   UNL A   1      39.819  21.540  27.641  1.00  0.00     0.049 H 
ATOM     50  H   UNL A   1      39.704  23.270  27.276  1.00  0.00     0.049 H 
BRANCH  48  51
ATOM     51  N   UNL A   1      41.134  22.247  26.203  1.00  0.00    -0.352 N 
ATOM     52  C   UNL A   1      42.017  23.283  25.947  1.00  0.00     0.251 C 
ATOM     53  H   UNL A   1      41.422  21.359  25.891  1.00  0.00     0.163 HD
ATOM     54  O   UNL A   1      42.901  23.171  25.118  1.00  0.00    -0.269 OA
BRANCH  52  55
ATOM     55  C   UNL A   1      41.865  24.533  26.712  1.00  0.00     0.039 A 
ATOM     56  C   UNL A   1      42.439  24.714  27.972  1.00  0.00    -0.049 A 
ATOM     57  C   UNL A   1      41.125  25.548  26.120  1.00  0.00    -0.049 A 
ATOM     58  C   UNL A   1      42.282  25.948  28.598  1.00  0.00    -0.053 A 
ATOM     59  H   UNL A   1      42.966  23.952  28.428  1.00  0.00     0.063 H 
ATOM     60  C   UNL A   1      41.207  26.818  26.601  1.00  0.00    -0.053 A 
ATOM     61  H   UNL A   1      40.513  25.339  25.316  1.00  0.00     0.063 H 
ATOM     62  C   UNL A   1      41.658  26.991  27.896  1.00  0.00    -0.014 A 
ATOM     63  H   UNL A   1      42.618  26.094  29.563  1.00  0.00     0.063 H 
ATOM     64  H   UNL A   1      40.941  27.625  26.017  1.00  0.00     0.063 H 
BRANCH  62  65
ATOM     65  C   UNL A   1      41.450  28.306  28.475  1.00  0.00     0.031 A 
ATOM     66  C   UNL A   1      42.447  29.321  28.063  1.00  0.00     0.074 A 
ATOM     67  C   UNL A   1      40.320  28.612  29.150  1.00  0.00     0.049 A 
ATOM     68  N   UNL A   1      43.326  29.910  28.803  1.00  0.00    -0.248 NA
ATOM     69  C   UNL A   1      42.576  29.617  26.628  1.00  0.00    -0.034 C 
ATOM     70  C   UNL A   1      39.105  27.803  29.342  1.00  0.00    -0.036 A 
ATOM     71  N   UNL A   1      39.987  29.782  29.752  1.00  0.00    -0.354 N 
ATOM     72  C   UNL A   1      44.013  30.781  27.963  1.00  0.00     0.074 A 
ATOM     73  C   UNL A   1      43.626  30.440  26.619  1.00  0.00    -0.034 C 
ATOM     74  H   UNL A   1      42.007  29.277  25.837  1.00  0.00     0.065 H 
ATOM     75  C   UNL A   1      38.105  28.580  29.814  1.00  0.00    -0.036 A 
ATOM     76  H   UNL A   1      39.028  26.793  29.145  1.00  0.00     0.065 H 
ATOM     77  C   UNL A   1      38.656  29.879  30.138  1.00  0.00     0.049 A 
ATOM     78  H   UNL A   1      40.638  30.505  29.905  1.00  0.00     0.167 HD
ATOM     79  C   UNL A   1      44.680  31.856  28.465  1.00  0.00     0.037 A 
ATOM     80  H   UNL A   1      44.095  30.786  25.767  1.00  0.00     0.065 H 
ATOM     81  H   UNL A   1      37.119  28.296  29.926  1.00  0.00     0.065 H 
ATOM     82  C   UNL A   1      38.059  30.970  30.675  1.00  0.00     0.037 A 
ATOM     83  C   UNL A   1      44.864  31.726  29.888  1.00  0.00     0.049 A 
ATOM     84  C   UNL A   1      39.147  31.822  31.215  1.00  0.00     0.074 A 
ATOM     85  C   UNL A   1      45.597  30.891  30.705  1.00  0.00    -0.036 A 
ATOM     86  N   UNL A   1      43.911  32.301  30.690  1.00  0.00    -0.354 N 
ATOM     87  N   UNL A   1      39.916  31.478  32.212  1.00  0.00    -0.248 NA
ATOM     88  C   UNL A   1      39.667  32.873  30.359  1.00  0.00    -0.034 C 
ATOM     89  C   UNL A   1      44.776  30.676  31.854  1.00  0.00    -0.036 A 
ATOM     90  H   UNL A   1      46.537  30.504  30.526  1.00  0.00     0.065 H 
ATOM     91  C   UNL A   1      43.612  31.434  31.710  1.00  0.00     0.049 A 
ATOM     92  H   UNL A   1      43.507  33.189  30.556  1.00  0.00     0.167 HD
ATOM     93  C   UNL A   1      41.173  31.957  31.873  1.00  0.00     0.074 A 
ATOM     94  C   UNL A   1      40.933  32.896  30.780  1.00  0.00    -0.034 C 
ATOM     95  H   UNL A   1      39.195  33.439  29.636  1.00  0.00     0.065 H 
ATOM     96  H   UNL A   1      45.004  30.065  32.654  1.00  0.00     0.065 H 
ATOM     97  C   UNL A   1      42.303  31.335  32.323  1.00  0.00     0.037 A 
ATOM     98  H   UNL A   1      41.662  33.508  30.379  1.00  0.00     0.065 H 
BRANCH  79  99
ATOM     99  C   UNL A   1      44.849  33.174  27.749  1.00  0.00     0.064 A 
ATOM    100  C   UNL A   1      46.111  33.518  27.224  1.00  0.00     0.173 A 
ATOM    101  C   UNL A   1      43.909  34.226  27.801  1.00  0.00     0.173 A 
ATOM    102  F   UNL A   1      47.092  32.606  27.151  1.00  0.00    -0.203 F 
ATOM    103  C   UNL A   1      46.421  34.825  26.835  1.00  0.00     0.198 A 
ATOM    104  C   UNL A   1      44.203  35.516  27.362  1.00  0.00     0.198 A 
ATOM    105  F   UNL A   1      42.709  34.082  28.376  1.00  0.00    -0.203 F 
ATOM    106  F   UNL A   1      47.668  35.127  26.449  1.00  0.00    -0.200 F 
ATOM    107  C   UNL A   1      45.466  35.824  26.906  1.00  0.00     0.200 A 
ATOM    108  F   UNL A   1      43.270  36.473  27.459  1.00  0.00    -0.200 F 
ATOM    109  F   UNL A   1      45.774  37.086  26.583  1.00  0.00    -0.200 F 
ENDBRANCH  79  99
BRANCH  82 110
ATOM    110  C   UNL A   1      36.706  31.505  30.391  1.00  0.00     0.064 A 
ATOM    111  C   UNL A   1      35.869  31.920  31.440  1.00  0.00     0.173 A 
ATOM    112  C   UNL A   1      36.340  31.916  29.094  1.00  0.00     0.173 A 
ATOM    113  F   UNL A   1      36.170  31.602  32.707  1.00  0.00    -0.203 F 
ATOM    114  C   UNL A   1      34.759  32.741  31.211  1.00  0.00     0.198 A 
ATOM    115  C   UNL A   1      35.230  32.733  28.868  1.00  0.00     0.198 A 
ATOM    116  F   UNL A   1      37.109  31.621  28.037  1.00  0.00    -0.203 F 
ATOM    117  F   UNL A   1      34.028  33.182  32.245  1.00  0.00    -0.200 F 
ATOM    118  C   UNL A   1      34.451  33.161  29.927  1.00  0.00     0.200 A 
ATOM    119  F   UNL A   1      34.964  33.163  27.626  1.00  0.00    -0.200 F 
ATOM    120  F   UNL A   1      33.435  34.009  29.716  1.00  0.00    -0.200 F 
ENDBRANCH  82 110
BRANCH  97 121
ATOM    121  C   UNL A   1      42.139  30.308  33.415  1.00  0.00     0.064 A 
ATOM    122  C   UNL A   1      41.986  28.927  33.194  1.00  0.00     0.173 A 
ATOM    123  C   UNL A   1      42.273  30.727  34.746  1.00  0.00     0.173 A 
ATOM    124  F   UNL A   1      41.939  28.428  31.955  1.00  0.00    -0.203 F 
ATOM    125  C   UNL A   1      41.933  28.019  34.253  1.00  0.00     0.198 A 
ATOM    126  C   UNL A   1      42.257  29.816  35.801  1.00  0.00     0.198 A 
ATOM    127  F   UNL A   1      42.470  32.025  35.022  1.00  0.00    -0.203 F 
ATOM    128  F   UNL A   1      41.775  26.709  34.011  1.00  0.00    -0.200 F 
ATOM    129  C   UNL A   1      42.078  28.465  35.555  1.00  0.00     0.200 A 
ATOM    130  F   UNL A   1      42.445  30.248  37.055  1.00  0.00    -0.200 F 
ATOM    131  F   UNL A   1      42.071  27.590  36.572  1.00  0.00    -0.200 F 
ENDBRANCH  97 121
ENDBRANCH  62  65
ENDBRANCH  52  55
ENDBRANCH  48  51
ENDBRANCH  45  48
ENDBRANCH  42  45
ENDBRANCH  39  42
ENDBRANCH   1  39
TORSDOF 18
ENDMDL
MODEL 6
REMARK VINA RESULT:     -11.0      3.078      8.975
REMARK SMILES Cc1cc(C)c2c(=O)n(CCCC(=O)NCCCCCCNC(=O)c3ccc(-c4c5nc(c(-c6c(F)c(F)c(F)c(F)c6F)c6ccc([nH]6)c(-c6c(F)c(F)c(F)c(F)c6F)c6nc(c(-c7c(F)c(F)c(F)c(F)c7F)c7ccc4[nH]7)C=C6)C=C5)cc3)sc2n1
REMARK SMILES IDX 17 1 16 4 15 7 13 8 14 9 12 11 11 14 10 17 9 20 2 21 3 22
REMARK SMILES IDX 90 23 4 24 89 26 6 27 88 28 7 29 8 30 1 31 5 35 18 39 19 42
REMARK SMILES IDX 20 45 21 48 22 51 23 52 24 54 25 55 26 56 87 57 27 58 86 60
REMARK SMILES IDX 28 62 29 65 30 66 80 67 31 68 85 69 79 70 81 71 32 72 84 73
REMARK SMILES IDX 78 75 77 77 33 79 65 82 45 83 64 84 46 85 49 86 63 87 82 88
REMARK SMILES IDX 47 89 48 91 62 93 83 94 50 97 34 99 35 100 43 101 36 102
REMARK SMILES IDX 37 103 41 104 44 105 38 106 39 107 42 108 40 109 66 110
REMARK SMILES IDX 67 111 75 112 68 113 69 114 73 115 76 116 70 117 71 118
REMARK SMILES IDX 74 119 72 120 51 121 52 122 60 123 53 124 54 125 58 126
REMARK SMILES IDX 61 127 55 128 56 129 59 130 57 131
REMARK H PARENT 17 2 17 3 16 5 16 6 15 10 12 12 12 13 11 15 11 16 10 18 10 19
REMARK H PARENT 3 25 1 32 1 33 1 34 5 36 5 37 5 38 18 40 18 41 19 43 19 44
REMARK H PARENT 20 46 20 47 21 49 21 50 22 53 26 59 87 61 27 63 86 64 85 74
REMARK H PARENT 79 76 81 78 84 80 78 81 46 90 49 92 82 95 47 96 83 98
REMARK Flexibility Score: inf
ROOT
ATOM      1  C   UNL A   1      33.716  29.072  23.642  1.00  0.00    -0.036 C 
ATOM      2  H   UNL A   1      33.594  30.110  23.412  1.00  0.00     0.028 H 
ATOM      3  H   UNL A   1      34.720  28.740  23.483  1.00  0.00     0.028 H 
ENDROOT
BRANCH   1   4
ATOM      4  C   UNL A   1      32.817  28.258  22.710  1.00  0.00     0.017 C 
ATOM      5  H   UNL A   1      33.412  27.829  21.931  1.00  0.00     0.049 H 
ATOM      6  H   UNL A   1      32.340  27.484  23.274  1.00  0.00     0.049 H 
BRANCH   4   7
ATOM      7  N   UNL A   1      31.805  29.105  22.124  1.00  0.00    -0.356 N 
ATOM      8  C   UNL A   1      30.473  29.194  22.367  1.00  0.00     0.220 C 
ATOM      9  O   UNL A   1      29.808  29.927  21.633  1.00  0.00    -0.275 OA
ATOM     10  H   UNL A   1      32.137  29.722  21.432  1.00  0.00     0.163 HD
BRANCH   8  11
ATOM     11  C   UNL A   1      29.832  28.521  23.567  1.00  0.00     0.028 C 
ATOM     12  H   UNL A   1      30.525  28.614  24.377  1.00  0.00     0.037 H 
ATOM     13  H   UNL A   1      28.894  29.027  23.656  1.00  0.00     0.037 H 
BRANCH  11  14
ATOM     14  C   UNL A   1      29.426  27.044  23.501  1.00  0.00    -0.025 C 
ATOM     15  H   UNL A   1      28.399  27.028  23.205  1.00  0.00     0.029 H 
ATOM     16  H   UNL A   1      30.163  26.637  22.839  1.00  0.00     0.029 H 
BRANCH  14  17
ATOM     17  C   UNL A   1      29.537  26.113  24.721  1.00  0.00     0.037 C 
ATOM     18  H   UNL A   1      29.462  26.738  25.586  1.00  0.00     0.051 H 
ATOM     19  H   UNL A   1      28.762  25.398  24.539  1.00  0.00     0.051 H 
BRANCH  17  20
ATOM     20  N   UNL A   1      30.708  25.266  24.925  1.00  0.00    -0.262 N 
ATOM     21  C   UNL A   1      35.080  23.514  24.772  1.00  0.00     0.039 A 
ATOM     22  C   UNL A   1      34.470  22.619  23.883  1.00  0.00    -0.037 A 
ATOM     23  N   UNL A   1      34.386  24.465  25.439  1.00  0.00    -0.241 NA
ATOM     24  C   UNL A   1      33.090  22.712  23.624  1.00  0.00    -0.033 A 
ATOM     25  H   UNL A   1      35.033  21.890  23.418  1.00  0.00     0.064 H 
ATOM     26  C   UNL A   1      33.073  24.532  25.164  1.00  0.00     0.146 A 
ATOM     27  C   UNL A   1      32.405  23.749  24.244  1.00  0.00     0.081 A 
ATOM     28  S   UNL A   1      31.976  25.626  26.013  1.00  0.00    -0.035 S 
ATOM     29  C   UNL A   1      31.016  24.227  24.040  1.00  0.00     0.270 A 
ATOM     30  O   UNL A   1      30.303  23.811  23.136  1.00  0.00    -0.268 OA
BRANCH  21  31
ATOM     31  C   UNL A   1      36.561  23.485  25.006  1.00  0.00    -0.022 C 
ATOM     32  H   UNL A   1      36.879  22.475  25.153  1.00  0.00     0.030 H 
ATOM     33  H   UNL A   1      36.796  24.064  25.874  1.00  0.00     0.030 H 
ATOM     34  H   UNL A   1      37.064  23.897  24.156  1.00  0.00     0.030 H 
ENDBRANCH  21  31
BRANCH  24  35
ATOM     35  C   UNL A   1      32.405  21.711  22.748  1.00  0.00    -0.039 C 
ATOM     36  H   UNL A   1      31.573  22.173  22.261  1.00  0.00     0.028 H 
ATOM     37  H   UNL A   1      32.061  20.892  23.345  1.00  0.00     0.028 H 
ATOM     38  H   UNL A   1      33.094  21.351  22.012  1.00  0.00     0.028 H 
ENDBRANCH  24  35
ENDBRANCH  17  20
ENDBRANCH  14  17
ENDBRANCH  11  14
ENDBRANCH   8  11
ENDBRANCH   4   7
ENDBRANCH   1   4
BRANCH   1  39
ATOM     39  C   UNL A   1      33.397  28.862  25.125  1.00  0.00    -0.052 C 
ATOM     40  H   UNL A   1      34.316  28.676  25.638  1.00  0.00     0.027 H 
ATOM     41  H   UNL A   1      32.710  28.043  25.169  1.00  0.00     0.027 H 
BRANCH  39  42
ATOM     42  C   UNL A   1      32.695  30.044  25.817  1.00  0.00    -0.052 C 
ATOM     43  H   UNL A   1      31.647  29.831  25.841  1.00  0.00     0.027 H 
ATOM     44  H   UNL A   1      32.960  30.907  25.243  1.00  0.00     0.027 H 
BRANCH  42  45
ATOM     45  C   UNL A   1      33.143  30.355  27.253  1.00  0.00    -0.036 C 
ATOM     46  H   UNL A   1      33.027  29.472  27.846  1.00  0.00     0.028 H 
ATOM     47  H   UNL A   1      32.534  31.161  27.609  1.00  0.00     0.028 H 
BRANCH  45  48
ATOM     48  C   UNL A   1      34.588  30.809  27.343  1.00  0.00     0.018 C 
ATOM     49  H   UNL A   1      34.927  31.067  26.361  1.00  0.00     0.049 H 
ATOM     50  H   UNL A   1      35.156  30.003  27.759  1.00  0.00     0.049 H 
BRANCH  48  51
ATOM     51  N   UNL A   1      34.762  31.972  28.218  1.00  0.00    -0.352 N 
ATOM     52  C   UNL A   1      35.571  32.113  29.334  1.00  0.00     0.251 C 
ATOM     53  H   UNL A   1      34.230  32.765  27.979  1.00  0.00     0.163 HD
ATOM     54  O   UNL A   1      35.387  33.007  30.140  1.00  0.00    -0.269 OA
BRANCH  52  55
ATOM     55  C   UNL A   1      36.672  31.153  29.522  1.00  0.00     0.039 A 
ATOM     56  C   UNL A   1      36.451  29.791  29.740  1.00  0.00    -0.049 A 
ATOM     57  C   UNL A   1      37.964  31.658  29.463  1.00  0.00    -0.049 A 
ATOM     58  C   UNL A   1      37.557  28.953  29.858  1.00  0.00    -0.053 A 
ATOM     59  H   UNL A   1      35.492  29.416  29.813  1.00  0.00     0.063 H 
ATOM     60  C   UNL A   1      39.018  30.812  29.304  1.00  0.00    -0.053 A 
ATOM     61  H   UNL A   1      38.125  32.674  29.541  1.00  0.00     0.063 H 
ATOM     62  C   UNL A   1      38.837  29.484  29.639  1.00  0.00    -0.014 A 
ATOM     63  H   UNL A   1      37.437  27.957  30.102  1.00  0.00     0.063 H 
ATOM     64  H   UNL A   1      39.923  31.153  28.945  1.00  0.00     0.063 H 
BRANCH  62  65
ATOM     65  C   UNL A   1      40.043  28.681  29.745  1.00  0.00     0.031 A 
ATOM     66  C   UNL A   1      40.526  28.482  31.131  1.00  0.00     0.074 A 
ATOM     67  C   UNL A   1      40.538  28.004  28.685  1.00  0.00     0.049 A 
ATOM     68  N   UNL A   1      41.620  28.922  31.655  1.00  0.00    -0.248 NA
ATOM     69  C   UNL A   1      39.620  27.832  32.090  1.00  0.00    -0.034 C 
ATOM     70  C   UNL A   1      39.968  27.843  27.337  1.00  0.00    -0.036 A 
ATOM     71  N   UNL A   1      41.649  27.228  28.624  1.00  0.00    -0.354 N 
ATOM     72  C   UNL A   1      41.628  28.462  32.969  1.00  0.00     0.074 A 
ATOM     73  C   UNL A   1      40.309  27.945  33.226  1.00  0.00    -0.034 C 
ATOM     74  H   UNL A   1      38.696  27.402  31.927  1.00  0.00     0.065 H 
ATOM     75  C   UNL A   1      40.615  26.857  26.678  1.00  0.00    -0.036 A 
ATOM     76  H   UNL A   1      39.189  28.401  26.952  1.00  0.00     0.065 H 
ATOM     77  C   UNL A   1      41.756  26.455  27.474  1.00  0.00     0.049 A 
ATOM     78  H   UNL A   1      42.327  27.214  29.338  1.00  0.00     0.167 HD
ATOM     79  C   UNL A   1      42.792  28.352  33.665  1.00  0.00     0.037 A 
ATOM     80  H   UNL A   1      39.948  27.695  34.161  1.00  0.00     0.065 H 
ATOM     81  H   UNL A   1      40.344  26.460  25.765  1.00  0.00     0.065 H 
ATOM     82  C   UNL A   1      42.719  25.539  27.217  1.00  0.00     0.037 A 
ATOM     83  C   UNL A   1      43.849  29.086  33.016  1.00  0.00     0.049 A 
ATOM     84  C   UNL A   1      43.858  25.861  28.111  1.00  0.00     0.074 A 
ATOM     85  C   UNL A   1      44.112  30.421  32.789  1.00  0.00    -0.036 A 
ATOM     86  N   UNL A   1      44.637  28.388  32.138  1.00  0.00    -0.354 N 
ATOM     87  N   UNL A   1      44.564  26.955  28.027  1.00  0.00    -0.248 NA
ATOM     88  C   UNL A   1      43.930  25.167  29.385  1.00  0.00    -0.034 C 
ATOM     89  C   UNL A   1      44.716  30.468  31.495  1.00  0.00    -0.036 A 
ATOM     90  H   UNL A   1      43.916  31.216  33.417  1.00  0.00     0.065 H 
ATOM     91  C   UNL A   1      44.845  29.160  31.023  1.00  0.00     0.049 A 
ATOM     92  H   UNL A   1      44.995  27.482  32.282  1.00  0.00     0.167 HD
ATOM     93  C   UNL A   1      44.830  27.310  29.342  1.00  0.00     0.074 A 
ATOM     94  C   UNL A   1      44.507  26.118  30.123  1.00  0.00    -0.034 C 
ATOM     95  H   UNL A   1      43.624  24.216  29.644  1.00  0.00     0.065 H 
ATOM     96  H   UNL A   1      45.008  31.323  30.995  1.00  0.00     0.065 H 
ATOM     97  C   UNL A   1      45.012  28.618  29.689  1.00  0.00     0.037 A 
ATOM     98  H   UNL A   1      44.705  26.022  31.132  1.00  0.00     0.065 H 
BRANCH  79  99
ATOM     99  C   UNL A   1      43.068  27.307  34.718  1.00  0.00     0.064 A 
ATOM    100  C   UNL A   1      43.266  27.708  36.054  1.00  0.00     0.173 A 
ATOM    101  C   UNL A   1      43.423  25.970  34.429  1.00  0.00     0.173 A 
ATOM    102  F   UNL A   1      42.990  28.963  36.439  1.00  0.00    -0.203 F 
ATOM    103  C   UNL A   1      43.826  26.854  37.010  1.00  0.00     0.198 A 
ATOM    104  C   UNL A   1      43.930  25.105  35.396  1.00  0.00     0.198 A 
ATOM    105  F   UNL A   1      43.398  25.480  33.184  1.00  0.00    -0.203 F 
ATOM    106  F   UNL A   1      44.099  27.316  38.237  1.00  0.00    -0.200 F 
ATOM    107  C   UNL A   1      44.160  25.553  36.679  1.00  0.00     0.200 A 
ATOM    108  F   UNL A   1      44.266  23.854  35.050  1.00  0.00    -0.200 F 
ATOM    109  F   UNL A   1      44.743  24.749  37.577  1.00  0.00    -0.200 F 
ENDBRANCH  79  99
BRANCH  82 110
ATOM    110  C   UNL A   1      42.570  24.208  26.579  1.00  0.00     0.064 A 
ATOM    111  C   UNL A   1      43.333  23.867  25.451  1.00  0.00     0.173 A 
ATOM    112  C   UNL A   1      41.927  23.147  27.248  1.00  0.00     0.173 A 
ATOM    113  F   UNL A   1      44.007  24.815  24.784  1.00  0.00    -0.203 F 
ATOM    114  C   UNL A   1      43.486  22.537  25.044  1.00  0.00     0.198 A 
ATOM    115  C   UNL A   1      42.078  21.820  26.837  1.00  0.00     0.198 A 
ATOM    116  F   UNL A   1      41.227  23.365  28.369  1.00  0.00    -0.203 F 
ATOM    117  F   UNL A   1      44.286  22.243  24.008  1.00  0.00    -0.200 F 
ATOM    118  C   UNL A   1      42.872  21.514  25.748  1.00  0.00     0.200 A 
ATOM    119  F   UNL A   1      41.510  20.836  27.549  1.00  0.00    -0.200 F 
ATOM    120  F   UNL A   1      43.081  20.235  25.405  1.00  0.00    -0.200 F 
ENDBRANCH  82 110
BRANCH  97 121
ATOM    121  C   UNL A   1      45.205  29.611  28.570  1.00  0.00     0.064 A 
ATOM    122  C   UNL A   1      44.162  30.323  27.949  1.00  0.00     0.173 A 
ATOM    123  C   UNL A   1      46.513  29.950  28.201  1.00  0.00     0.173 A 
ATOM    124  F   UNL A   1      42.888  30.128  28.303  1.00  0.00    -0.203 F 
ATOM    125  C   UNL A   1      44.417  31.297  26.982  1.00  0.00     0.198 A 
ATOM    126  C   UNL A   1      46.769  30.949  27.263  1.00  0.00     0.198 A 
ATOM    127  F   UNL A   1      47.554  29.342  28.791  1.00  0.00    -0.203 F 
ATOM    128  F   UNL A   1      43.402  31.951  26.400  1.00  0.00    -0.200 F 
ATOM    129  C   UNL A   1      45.722  31.615  26.648  1.00  0.00     0.200 A 
ATOM    130  F   UNL A   1      48.034  31.284  26.978  1.00  0.00    -0.200 F 
ATOM    131  F   UNL A   1      45.972  32.580  25.751  1.00  0.00    -0.200 F 
ENDBRANCH  97 121
ENDBRANCH  62  65
ENDBRANCH  52  55
ENDBRANCH  48  51
ENDBRANCH  45  48
ENDBRANCH  42  45
ENDBRANCH  39  42
ENDBRANCH   1  39
TORSDOF 18
ENDMDL
MODEL 7
REMARK VINA RESULT:     -11.0      3.040      8.963
REMARK SMILES Cc1cc(C)c2c(=O)n(CCCC(=O)NCCCCCCNC(=O)c3ccc(-c4c5nc(c(-c6c(F)c(F)c(F)c(F)c6F)c6ccc([nH]6)c(-c6c(F)c(F)c(F)c(F)c6F)c6nc(c(-c7c(F)c(F)c(F)c(F)c7F)c7ccc4[nH]7)C=C6)C=C5)cc3)sc2n1
REMARK SMILES IDX 17 1 16 4 15 7 13 8 14 9 12 11 11 14 10 17 9 20 2 21 3 22
REMARK SMILES IDX 90 23 4 24 89 26 6 27 88 28 7 29 8 30 1 31 5 35 18 39 19 42
REMARK SMILES IDX 20 45 21 48 22 51 23 52 24 54 25 55 26 56 87 57 27 58 86 60
REMARK SMILES IDX 28 62 29 65 30 66 80 67 31 68 85 69 79 70 81 71 32 72 84 73
REMARK SMILES IDX 78 75 77 77 33 79 65 82 45 83 64 84 46 85 49 86 63 87 82 88
REMARK SMILES IDX 47 89 48 91 62 93 83 94 50 97 34 99 35 100 43 101 36 102
REMARK SMILES IDX 37 103 41 104 44 105 38 106 39 107 42 108 40 109 66 110
REMARK SMILES IDX 67 111 75 112 68 113 69 114 73 115 76 116 70 117 71 118
REMARK SMILES IDX 74 119 72 120 51 121 52 122 60 123 53 124 54 125 58 126
REMARK SMILES IDX 61 127 55 128 56 129 59 130 57 131
REMARK H PARENT 17 2 17 3 16 5 16 6 15 10 12 12 12 13 11 15 11 16 10 18 10 19
REMARK H PARENT 3 25 1 32 1 33 1 34 5 36 5 37 5 38 18 40 18 41 19 43 19 44
REMARK H PARENT 20 46 20 47 21 49 21 50 22 53 26 59 87 61 27 63 86 64 85 74
REMARK H PARENT 79 76 81 78 84 80 78 81 46 90 49 92 82 95 47 96 83 98
REMARK Flexibility Score: inf
ROOT
ATOM      1  C   UNL A   1      32.289  28.475  27.201  1.00  0.00    -0.036 C 
ATOM      2  H   UNL A   1      32.076  28.008  28.140  1.00  0.00     0.028 H 
ATOM      3  H   UNL A   1      32.099  29.528  27.224  1.00  0.00     0.028 H 
ENDROOT
BRANCH   1   4
ATOM      4  C   UNL A   1      31.370  27.872  26.139  1.00  0.00     0.017 C 
ATOM      5  H   UNL A   1      31.597  26.832  26.024  1.00  0.00     0.049 H 
ATOM      6  H   UNL A   1      30.353  27.992  26.448  1.00  0.00     0.049 H 
BRANCH   4   7
ATOM      7  N   UNL A   1      31.559  28.541  24.874  1.00  0.00    -0.356 N 
ATOM      8  C   UNL A   1      30.919  28.391  23.687  1.00  0.00     0.220 C 
ATOM      9  O   UNL A   1      31.363  29.013  22.719  1.00  0.00    -0.275 OA
ATOM     10  H   UNL A   1      32.272  29.221  24.872  1.00  0.00     0.163 HD
BRANCH   8  11
ATOM     11  C   UNL A   1      29.635  27.592  23.565  1.00  0.00     0.028 C 
ATOM     12  H   UNL A   1      28.919  28.064  24.205  1.00  0.00     0.037 H 
ATOM     13  H   UNL A   1      29.442  27.602  22.513  1.00  0.00     0.037 H 
BRANCH  11  14
ATOM     14  C   UNL A   1      29.618  26.098  23.909  1.00  0.00    -0.025 C 
ATOM     15  H   UNL A   1      29.585  26.037  24.977  1.00  0.00     0.029 H 
ATOM     16  H   UNL A   1      28.781  25.746  23.343  1.00  0.00     0.029 H 
BRANCH  14  17
ATOM     17  C   UNL A   1      30.739  25.146  23.457  1.00  0.00     0.037 C 
ATOM     18  H   UNL A   1      30.295  24.176  23.368  1.00  0.00     0.051 H 
ATOM     19  H   UNL A   1      31.106  25.623  22.572  1.00  0.00     0.051 H 
BRANCH  17  20
ATOM     20  N   UNL A   1      31.952  24.972  24.249  1.00  0.00    -0.262 N 
ATOM     21  C   UNL A   1      36.123  23.443  25.822  1.00  0.00     0.039 A 
ATOM     22  C   UNL A   1      35.303  22.810  26.767  1.00  0.00    -0.037 A 
ATOM     23  N   UNL A   1      35.635  24.284  24.882  1.00  0.00    -0.241 NA
ATOM     24  C   UNL A   1      33.911  23.008  26.738  1.00  0.00    -0.033 A 
ATOM     25  H   UNL A   1      35.721  22.197  27.484  1.00  0.00     0.064 H 
ATOM     26  C   UNL A   1      34.301  24.447  24.877  1.00  0.00     0.146 A 
ATOM     27  C   UNL A   1      33.411  23.802  25.713  1.00  0.00     0.081 A 
ATOM     28  S   UNL A   1      33.484  25.589  23.806  1.00  0.00    -0.035 S 
ATOM     29  C   UNL A   1      32.010  24.050  25.299  1.00  0.00     0.270 A 
ATOM     30  O   UNL A   1      31.065  23.430  25.769  1.00  0.00    -0.268 OA
BRANCH  21  31
ATOM     31  C   UNL A   1      37.599  23.186  25.783  1.00  0.00    -0.022 C 
ATOM     32  H   UNL A   1      37.903  22.712  26.692  1.00  0.00     0.030 H 
ATOM     33  H   UNL A   1      38.119  24.115  25.673  1.00  0.00     0.030 H 
ATOM     34  H   UNL A   1      37.829  22.549  24.954  1.00  0.00     0.030 H 
ENDBRANCH  21  31
BRANCH  24  35
ATOM     35  C   UNL A   1      33.030  22.413  27.791  1.00  0.00    -0.039 C 
ATOM     36  H   UNL A   1      33.030  21.348  27.697  1.00  0.00     0.028 H 
ATOM     37  H   UNL A   1      32.033  22.782  27.672  1.00  0.00     0.028 H 
ATOM     38  H   UNL A   1      33.398  22.686  28.758  1.00  0.00     0.028 H 
ENDBRANCH  24  35
ENDBRANCH  17  20
ENDBRANCH  14  17
ENDBRANCH  11  14
ENDBRANCH   8  11
ENDBRANCH   4   7
ENDBRANCH   1   4
BRANCH   1  39
ATOM     39  C   UNL A   1      33.776  28.288  26.891  1.00  0.00    -0.052 C 
ATOM     40  H   UNL A   1      33.874  28.101  25.842  1.00  0.00     0.027 H 
ATOM     41  H   UNL A   1      34.109  27.477  27.503  1.00  0.00     0.027 H 
BRANCH  39  42
ATOM     42  C   UNL A   1      34.675  29.486  27.246  1.00  0.00    -0.052 C 
ATOM     43  H   UNL A   1      35.410  29.581  26.474  1.00  0.00     0.027 H 
ATOM     44  H   UNL A   1      35.074  29.265  28.213  1.00  0.00     0.027 H 
BRANCH  42  45
ATOM     45  C   UNL A   1      33.973  30.844  27.394  1.00  0.00    -0.036 C 
ATOM     46  H   UNL A   1      33.208  30.754  28.137  1.00  0.00     0.028 H 
ATOM     47  H   UNL A   1      33.571  31.101  26.435  1.00  0.00     0.028 H 
BRANCH  45  48
ATOM     48  C   UNL A   1      34.913  31.962  27.802  1.00  0.00     0.018 C 
ATOM     49  H   UNL A   1      34.760  32.794  27.146  1.00  0.00     0.049 H 
ATOM     50  H   UNL A   1      35.913  31.586  27.736  1.00  0.00     0.049 H 
BRANCH  48  51
ATOM     51  N   UNL A   1      34.698  32.407  29.182  1.00  0.00    -0.352 N 
ATOM     52  C   UNL A   1      35.361  32.027  30.337  1.00  0.00     0.251 C 
ATOM     53  H   UNL A   1      33.980  33.070  29.305  1.00  0.00     0.163 HD
ATOM     54  O   UNL A   1      34.883  32.232  31.438  1.00  0.00    -0.269 OA
BRANCH  52  55
ATOM     55  C   UNL A   1      36.673  31.372  30.203  1.00  0.00     0.039 A 
ATOM     56  C   UNL A   1      37.854  32.093  30.008  1.00  0.00    -0.049 A 
ATOM     57  C   UNL A   1      36.698  29.987  30.289  1.00  0.00    -0.049 A 
ATOM     58  C   UNL A   1      39.054  31.389  29.942  1.00  0.00    -0.053 A 
ATOM     59  H   UNL A   1      37.837  33.121  29.915  1.00  0.00     0.063 H 
ATOM     60  C   UNL A   1      37.876  29.339  30.498  1.00  0.00    -0.053 A 
ATOM     61  H   UNL A   1      35.822  29.449  30.194  1.00  0.00     0.063 H 
ATOM     62  C   UNL A   1      39.044  30.007  30.187  1.00  0.00    -0.014 A 
ATOM     63  H   UNL A   1      39.936  31.875  29.716  1.00  0.00     0.063 H 
ATOM     64  H   UNL A   1      37.895  28.379  30.877  1.00  0.00     0.063 H 
BRANCH  62  65
ATOM     65  C   UNL A   1      40.249  29.198  30.134  1.00  0.00     0.031 A 
ATOM     66  C   UNL A   1      40.878  28.949  31.451  1.00  0.00     0.074 A 
ATOM     67  C   UNL A   1      40.622  28.555  29.004  1.00  0.00     0.049 A 
ATOM     68  N   UNL A   1      42.026  29.368  31.868  1.00  0.00    -0.248 NA
ATOM     69  C   UNL A   1      40.078  28.269  32.480  1.00  0.00    -0.034 C 
ATOM     70  C   UNL A   1      39.908  28.443  27.721  1.00  0.00    -0.036 A 
ATOM     71  N   UNL A   1      41.715  27.779  28.796  1.00  0.00    -0.354 N 
ATOM     72  C   UNL A   1      42.173  28.863  33.157  1.00  0.00     0.074 A 
ATOM     73  C   UNL A   1      40.887  28.341  33.538  1.00  0.00    -0.034 C 
ATOM     74  H   UNL A   1      39.138  27.848  32.405  1.00  0.00     0.065 H 
ATOM     75  C   UNL A   1      40.473  27.478  26.963  1.00  0.00    -0.036 A 
ATOM     76  H   UNL A   1      39.095  29.016  27.442  1.00  0.00     0.065 H 
ATOM     77  C   UNL A   1      41.691  27.046  27.616  1.00  0.00     0.049 A 
ATOM     78  H   UNL A   1      42.466  27.739  29.431  1.00  0.00     0.167 HD
ATOM     79  C   UNL A   1      43.405  28.725  33.718  1.00  0.00     0.037 A 
ATOM     80  H   UNL A   1      40.628  28.060  34.497  1.00  0.00     0.065 H 
ATOM     81  H   UNL A   1      40.102  27.113  26.072  1.00  0.00     0.065 H 
ATOM     82  C   UNL A   1      42.615  26.136  27.224  1.00  0.00     0.037 A 
ATOM     83  C   UNL A   1      44.390  29.479  32.983  1.00  0.00     0.049 A 
ATOM     84  C   UNL A   1      43.846  26.424  28.000  1.00  0.00     0.074 A 
ATOM     85  C   UNL A   1      44.636  30.820  32.774  1.00  0.00    -0.036 A 
ATOM     86  N   UNL A   1      45.074  28.809  32.001  1.00  0.00    -0.354 N 
ATOM     87  N   UNL A   1      44.546  27.518  27.877  1.00  0.00    -0.248 NA
ATOM     88  C   UNL A   1      44.051  25.687  29.234  1.00  0.00    -0.034 C 
ATOM     89  C   UNL A   1      45.097  30.910  31.425  1.00  0.00    -0.036 A 
ATOM     90  H   UNL A   1      44.515  31.593  33.447  1.00  0.00     0.065 H 
ATOM     91  C   UNL A   1      45.165  29.619  30.897  1.00  0.00     0.049 A 
ATOM     92  H   UNL A   1      45.440  27.898  32.075  1.00  0.00     0.167 HD
ATOM     93  C   UNL A   1      44.955  27.827  29.166  1.00  0.00     0.074 A 
ATOM     94  C   UNL A   1      44.711  26.610  29.937  1.00  0.00    -0.034 C 
ATOM     95  H   UNL A   1      43.769  24.728  29.493  1.00  0.00     0.065 H 
ATOM     96  H   UNL A   1      45.338  31.780  30.925  1.00  0.00     0.065 H 
ATOM     97  C   UNL A   1      45.182  29.122  29.536  1.00  0.00     0.037 A 
ATOM     98  H   UNL A   1      45.016  26.479  30.914  1.00  0.00     0.065 H 
BRANCH  79  99
ATOM     99  C   UNL A   1      43.788  27.644  34.698  1.00  0.00     0.064 A 
ATOM    100  C   UNL A   1      43.749  26.296  34.290  1.00  0.00     0.173 A 
ATOM    101  C   UNL A   1      43.918  27.851  36.089  1.00  0.00     0.173 A 
ATOM    102  F   UNL A   1      43.601  25.977  32.996  1.00  0.00    -0.203 F 
ATOM    103  C   UNL A   1      43.783  25.242  35.209  1.00  0.00     0.198 A 
ATOM    104  C   UNL A   1      44.006  26.798  36.998  1.00  0.00     0.198 A 
ATOM    105  F   UNL A   1      43.855  29.070  36.637  1.00  0.00    -0.203 F 
ATOM    106  F   UNL A   1      43.629  23.981  34.782  1.00  0.00    -0.200 F 
ATOM    107  C   UNL A   1      43.909  25.494  36.563  1.00  0.00     0.200 A 
ATOM    108  F   UNL A   1      44.107  27.065  38.308  1.00  0.00    -0.200 F 
ATOM    109  F   UNL A   1      43.890  24.490  37.449  1.00  0.00    -0.200 F 
ENDBRANCH  79  99
BRANCH  82 110
ATOM    110  C   UNL A   1      42.388  24.829  26.562  1.00  0.00     0.064 A 
ATOM    111  C   UNL A   1      43.124  24.469  25.422  1.00  0.00     0.173 A 
ATOM    112  C   UNL A   1      41.692  23.792  27.214  1.00  0.00     0.173 A 
ATOM    113  F   UNL A   1      43.844  25.391  24.768  1.00  0.00    -0.203 F 
ATOM    114  C   UNL A   1      43.201  23.141  24.987  1.00  0.00     0.198 A 
ATOM    115  C   UNL A   1      41.768  22.467  26.777  1.00  0.00     0.198 A 
ATOM    116  F   UNL A   1      41.012  24.025  28.345  1.00  0.00    -0.203 F 
ATOM    117  F   UNL A   1      43.976  22.824  23.940  1.00  0.00    -0.200 F 
ATOM    118  C   UNL A   1      42.537  22.139  25.676  1.00  0.00     0.200 A 
ATOM    119  F   UNL A   1      41.151  21.501  27.473  1.00  0.00    -0.200 F 
ATOM    120  F   UNL A   1      42.672  20.858  25.307  1.00  0.00    -0.200 F 
ENDBRANCH  82 110
BRANCH  97 121
ATOM    121  C   UNL A   1      45.259  30.152  28.437  1.00  0.00     0.064 A 
ATOM    122  C   UNL A   1      44.169  30.922  27.990  1.00  0.00     0.173 A 
ATOM    123  C   UNL A   1      46.517  30.464  27.905  1.00  0.00     0.173 A 
ATOM    124  F   UNL A   1      42.948  30.754  28.507  1.00  0.00    -0.203 F 
ATOM    125  C   UNL A   1      44.327  31.925  27.032  1.00  0.00     0.198 A 
ATOM    126  C   UNL A   1      46.681  31.491  26.977  1.00  0.00     0.198 A 
ATOM    127  F   UNL A   1      47.605  29.799  28.325  1.00  0.00    -0.203 F 
ATOM    128  F   UNL A   1      43.268  32.634  26.617  1.00  0.00    -0.200 F 
ATOM    129  C   UNL A   1      45.586  32.214  26.534  1.00  0.00     0.200 A 
ATOM    130  F   UNL A   1      47.908  31.796  26.533  1.00  0.00    -0.200 F 
ATOM    131  F   UNL A   1      45.748  33.206  25.646  1.00  0.00    -0.200 F 
ENDBRANCH  97 121
ENDBRANCH  62  65
ENDBRANCH  52  55
ENDBRANCH  48  51
ENDBRANCH  45  48
ENDBRANCH  42  45
ENDBRANCH  39  42
ENDBRANCH   1  39
TORSDOF 18
ENDMDL
MODEL 8
REMARK VINA RESULT:     -10.9      4.674      9.019
REMARK SMILES Cc1cc(C)c2c(=O)n(CCCC(=O)NCCCCCCNC(=O)c3ccc(-c4c5nc(c(-c6c(F)c(F)c(F)c(F)c6F)c6ccc([nH]6)c(-c6c(F)c(F)c(F)c(F)c6F)c6nc(c(-c7c(F)c(F)c(F)c(F)c7F)c7ccc4[nH]7)C=C6)C=C5)cc3)sc2n1
REMARK SMILES IDX 17 1 16 4 15 7 13 8 14 9 12 11 11 14 10 17 9 20 2 21 3 22
REMARK SMILES IDX 90 23 4 24 89 26 6 27 88 28 7 29 8 30 1 31 5 35 18 39 19 42
REMARK SMILES IDX 20 45 21 48 22 51 23 52 24 54 25 55 26 56 87 57 27 58 86 60
REMARK SMILES IDX 28 62 29 65 30 66 80 67 31 68 85 69 79 70 81 71 32 72 84 73
REMARK SMILES IDX 78 75 77 77 33 79 65 82 45 83 64 84 46 85 49 86 63 87 82 88
REMARK SMILES IDX 47 89 48 91 62 93 83 94 50 97 34 99 35 100 43 101 36 102
REMARK SMILES IDX 37 103 41 104 44 105 38 106 39 107 42 108 40 109 66 110
REMARK SMILES IDX 67 111 75 112 68 113 69 114 73 115 76 116 70 117 71 118
REMARK SMILES IDX 74 119 72 120 51 121 52 122 60 123 53 124 54 125 58 126
REMARK SMILES IDX 61 127 55 128 56 129 59 130 57 131
REMARK H PARENT 17 2 17 3 16 5 16 6 15 10 12 12 12 13 11 15 11 16 10 18 10 19
REMARK H PARENT 3 25 1 32 1 33 1 34 5 36 5 37 5 38 18 40 18 41 19 43 19 44
REMARK H PARENT 20 46 20 47 21 49 21 50 22 53 26 59 87 61 27 63 86 64 85 74
REMARK H PARENT 79 76 81 78 84 80 78 81 46 90 49 92 82 95 47 96 83 98
REMARK Flexibility Score: inf
ROOT
ATOM      1  C   UNL A   1      44.872  26.762  27.237  1.00  0.00    -0.036 C 
ATOM      2  H   UNL A   1      44.077  27.378  26.873  1.00  0.00     0.028 H 
ATOM      3  H   UNL A   1      44.793  26.582  28.289  1.00  0.00     0.028 H 
ENDROOT
BRANCH   1   4
ATOM      4  C   UNL A   1      46.197  27.487  27.000  1.00  0.00     0.017 C 
ATOM      5  H   UNL A   1      46.343  28.217  27.769  1.00  0.00     0.049 H 
ATOM      6  H   UNL A   1      46.994  26.773  27.018  1.00  0.00     0.049 H 
BRANCH   4   7
ATOM      7  N   UNL A   1      46.185  28.146  25.715  1.00  0.00    -0.356 N 
ATOM      8  C   UNL A   1      46.770  27.807  24.539  1.00  0.00     0.220 C 
ATOM      9  O   UNL A   1      46.698  28.617  23.613  1.00  0.00    -0.275 OA
ATOM     10  H   UNL A   1      45.666  28.982  25.688  1.00  0.00     0.163 HD
BRANCH   8  11
ATOM     11  C   UNL A   1      47.384  26.437  24.316  1.00  0.00     0.028 C 
ATOM     12  H   UNL A   1      47.225  25.880  25.217  1.00  0.00     0.037 H 
ATOM     13  H   UNL A   1      46.895  26.093  23.429  1.00  0.00     0.037 H 
BRANCH  11  14
ATOM     14  C   UNL A   1      48.872  26.303  23.970  1.00  0.00    -0.025 C 
ATOM     15  H   UNL A   1      49.351  25.926  24.849  1.00  0.00     0.029 H 
ATOM     16  H   UNL A   1      48.845  25.692  23.091  1.00  0.00     0.029 H 
BRANCH  14  17
ATOM     17  C   UNL A   1      49.711  27.505  23.504  1.00  0.00     0.037 C 
ATOM     18  H   UNL A   1      49.240  28.377  23.906  1.00  0.00     0.051 H 
ATOM     19  H   UNL A   1      50.692  27.250  23.847  1.00  0.00     0.051 H 
BRANCH  17  20
ATOM     20  N   UNL A   1      49.930  27.772  22.086  1.00  0.00    -0.262 N 
ATOM     21  C   UNL A   1      51.732  27.780  17.732  1.00  0.00     0.039 A 
ATOM     22  C   UNL A   1      52.165  29.051  18.134  1.00  0.00    -0.037 A 
ATOM     23  N   UNL A   1      50.949  26.997  18.509  1.00  0.00    -0.241 NA
ATOM     24  C   UNL A   1      51.818  29.544  19.406  1.00  0.00    -0.033 A 
ATOM     25  H   UNL A   1      52.738  29.626  17.498  1.00  0.00     0.064 H 
ATOM     26  C   UNL A   1      50.641  27.494  19.718  1.00  0.00     0.146 A 
ATOM     27  C   UNL A   1      51.090  28.695  20.230  1.00  0.00     0.081 A 
ATOM     28  S   UNL A   1      49.538  26.679  20.831  1.00  0.00    -0.035 S 
ATOM     29  C   UNL A   1      50.735  28.835  21.662  1.00  0.00     0.270 A 
ATOM     30  O   UNL A   1      51.191  29.722  22.370  1.00  0.00    -0.268 OA
BRANCH  21  31
ATOM     31  C   UNL A   1      52.153  27.200  16.414  1.00  0.00    -0.022 C 
ATOM     32  H   UNL A   1      51.530  27.591  15.637  1.00  0.00     0.030 H 
ATOM     33  H   UNL A   1      52.057  26.135  16.447  1.00  0.00     0.030 H 
ATOM     34  H   UNL A   1      53.172  27.461  16.219  1.00  0.00     0.030 H 
ENDBRANCH  21  31
BRANCH  24  35
ATOM     35  C   UNL A   1      52.194  30.932  19.818  1.00  0.00    -0.039 C 
ATOM     36  H   UNL A   1      52.899  30.887  20.621  1.00  0.00     0.028 H 
ATOM     37  H   UNL A   1      51.319  31.457  20.139  1.00  0.00     0.028 H 
ATOM     38  H   UNL A   1      52.633  31.444  18.987  1.00  0.00     0.028 H 
ENDBRANCH  24  35
ENDBRANCH  17  20
ENDBRANCH  14  17
ENDBRANCH  11  14
ENDBRANCH   8  11
ENDBRANCH   4   7
ENDBRANCH   1   4
BRANCH   1  39
ATOM     39  C   UNL A   1      44.794  25.403  26.536  1.00  0.00    -0.052 C 
ATOM     40  H   UNL A   1      44.443  24.684  27.247  1.00  0.00     0.027 H 
ATOM     41  H   UNL A   1      45.779  25.198  26.172  1.00  0.00     0.027 H 
BRANCH  39  42
ATOM     42  C   UNL A   1      43.866  25.351  25.310  1.00  0.00    -0.052 C 
ATOM     43  H   UNL A   1      44.384  25.806  24.491  1.00  0.00     0.027 H 
ATOM     44  H   UNL A   1      42.973  25.859  25.607  1.00  0.00     0.027 H 
BRANCH  42  45
ATOM     45  C   UNL A   1      43.412  23.955  24.858  1.00  0.00    -0.036 C 
ATOM     46  H   UNL A   1      44.069  23.615  24.085  1.00  0.00     0.028 H 
ATOM     47  H   UNL A   1      42.402  24.045  24.515  1.00  0.00     0.028 H 
BRANCH  45  48
ATOM     48  C   UNL A   1      43.416  22.933  25.979  1.00  0.00     0.018 C 
ATOM     49  H   UNL A   1      43.693  23.426  26.889  1.00  0.00     0.049 H 
ATOM     50  H   UNL A   1      44.115  22.167  25.716  1.00  0.00     0.049 H 
BRANCH  48  51
ATOM     51  N   UNL A   1      42.111  22.296  26.170  1.00  0.00    -0.352 N 
ATOM     52  C   UNL A   1      41.016  22.744  26.891  1.00  0.00     0.251 C 
ATOM     53  H   UNL A   1      41.995  21.426  25.724  1.00  0.00     0.163 HD
ATOM     54  O   UNL A   1      40.123  21.986  27.223  1.00  0.00    -0.269 OA
BRANCH  52  55
ATOM     55  C   UNL A   1      40.951  24.173  27.242  1.00  0.00     0.039 A 
ATOM     56  C   UNL A   1      40.181  25.088  26.520  1.00  0.00    -0.049 A 
ATOM     57  C   UNL A   1      41.689  24.585  28.344  1.00  0.00    -0.049 A 
ATOM     58  C   UNL A   1      40.144  26.410  26.958  1.00  0.00    -0.053 A 
ATOM     59  H   UNL A   1      39.654  24.792  25.684  1.00  0.00     0.063 H 
ATOM     60  C   UNL A   1      41.435  25.792  28.919  1.00  0.00    -0.053 A 
ATOM     61  H   UNL A   1      42.429  23.976  28.726  1.00  0.00     0.063 H 
ATOM     62  C   UNL A   1      40.783  26.745  28.162  1.00  0.00    -0.014 A 
ATOM     63  H   UNL A   1      39.656  27.132  26.405  1.00  0.00     0.063 H 
ATOM     64  H   UNL A   1      41.722  25.988  29.891  1.00  0.00     0.063 H 
BRANCH  62  65
ATOM     65  C   UNL A   1      40.796  28.098  28.687  1.00  0.00     0.031 A 
ATOM     66  C   UNL A   1      41.897  28.945  28.172  1.00  0.00     0.074 A 
ATOM     67  C   UNL A   1      39.762  28.588  29.408  1.00  0.00     0.049 A 
ATOM     68  N   UNL A   1      42.892  29.432  28.834  1.00  0.00    -0.248 NA
ATOM     69  C   UNL A   1      41.978  29.162  26.720  1.00  0.00    -0.034 C 
ATOM     70  C   UNL A   1      38.460  27.968  29.705  1.00  0.00    -0.036 A 
ATOM     71  N   UNL A   1      39.632  29.816  29.970  1.00  0.00    -0.354 N 
ATOM     72  C   UNL A   1      43.641  30.164  27.917  1.00  0.00     0.074 A 
ATOM     73  C   UNL A   1      43.129  29.827  26.615  1.00  0.00    -0.034 C 
ATOM     74  H   UNL A   1      41.320  28.874  25.979  1.00  0.00     0.065 H 
ATOM     75  C   UNL A   1      37.608  28.896  30.192  1.00  0.00    -0.036 A 
ATOM     76  H   UNL A   1      38.232  26.971  29.561  1.00  0.00     0.065 H 
ATOM     77  C   UNL A   1      38.354  30.116  30.423  1.00  0.00     0.049 A 
ATOM     78  H   UNL A   1      40.386  30.445  30.051  1.00  0.00     0.167 HD
ATOM     79  C   UNL A   1      44.480  31.153  28.329  1.00  0.00     0.037 A 
ATOM     80  H   UNL A   1      43.590  30.069  25.722  1.00  0.00     0.065 H 
ATOM     81  H   UNL A   1      36.602  28.759  30.371  1.00  0.00     0.065 H 
ATOM     82  C   UNL A   1      37.948  31.302  30.938  1.00  0.00     0.037 A 
ATOM     83  C   UNL A   1      44.731  31.055  29.745  1.00  0.00     0.049 A 
ATOM     84  C   UNL A   1      39.174  32.012  31.376  1.00  0.00     0.074 A 
ATOM     85  C   UNL A   1      45.390  30.158  30.560  1.00  0.00    -0.036 A 
ATOM     86  N   UNL A   1      43.917  31.791  30.568  1.00  0.00    -0.354 N 
ATOM     87  N   UNL A   1      39.947  31.603  32.345  1.00  0.00    -0.248 NA
ATOM     88  C   UNL A   1      39.782  32.944  30.443  1.00  0.00    -0.034 C 
ATOM     89  C   UNL A   1      44.618  30.108  31.761  1.00  0.00    -0.036 A 
ATOM     90  H   UNL A   1      46.254  29.635  30.349  1.00  0.00     0.065 H 
ATOM     91  C   UNL A   1      43.564  31.017  31.644  1.00  0.00     0.049 A 
ATOM     92  H   UNL A   1      43.634  32.721  30.414  1.00  0.00     0.167 HD
ATOM     93  C   UNL A   1      41.236  31.886  31.915  1.00  0.00     0.074 A 
ATOM     94  C   UNL A   1      41.062  32.804  30.792  1.00  0.00    -0.034 C 
ATOM     95  H   UNL A   1      39.350  33.541  29.720  1.00  0.00     0.065 H 
ATOM     96  H   UNL A   1      44.807  29.503  32.576  1.00  0.00     0.065 H 
ATOM     97  C   UNL A   1      42.293  31.128  32.332  1.00  0.00     0.037 A 
ATOM     98  H   UNL A   1      41.843  33.290  30.323  1.00  0.00     0.065 H 
BRANCH  79  99
ATOM     99  C   UNL A   1      44.787  32.403  27.543  1.00  0.00     0.064 A 
ATOM    100  C   UNL A   1      46.012  32.502  26.852  1.00  0.00     0.173 A 
ATOM    101  C   UNL A   1      44.063  33.610  27.664  1.00  0.00     0.173 A 
ATOM    102  F   UNL A   1      46.798  31.426  26.697  1.00  0.00    -0.203 F 
ATOM    103  C   UNL A   1      46.496  33.723  26.372  1.00  0.00     0.198 A 
ATOM    104  C   UNL A   1      44.522  34.815  27.138  1.00  0.00     0.198 A 
ATOM    105  F   UNL A   1      42.941  33.697  28.389  1.00  0.00    -0.203 F 
ATOM    106  F   UNL A   1      47.716  33.786  25.823  1.00  0.00    -0.200 F 
ATOM    107  C   UNL A   1      45.751  34.880  26.518  1.00  0.00     0.200 A 
ATOM    108  F   UNL A   1      43.795  35.928  27.308  1.00  0.00    -0.200 F 
ATOM    109  F   UNL A   1      46.234  36.059  26.106  1.00  0.00    -0.200 F 
ENDBRANCH  79  99
BRANCH  82 110
ATOM    110  C   UNL A   1      36.667  32.011  30.703  1.00  0.00     0.064 A 
ATOM    111  C   UNL A   1      35.782  32.256  31.766  1.00  0.00     0.173 A 
ATOM    112  C   UNL A   1      36.441  32.736  29.517  1.00  0.00     0.173 A 
ATOM    113  F   UNL A   1      35.954  31.634  32.941  1.00  0.00    -0.203 F 
ATOM    114  C   UNL A   1      34.761  33.208  31.666  1.00  0.00     0.198 A 
ATOM    115  C   UNL A   1      35.419  33.683  29.417  1.00  0.00     0.198 A 
ATOM    116  F   UNL A   1      37.268  32.616  28.469  1.00  0.00    -0.203 F 
ATOM    117  F   UNL A   1      33.985  33.470  32.727  1.00  0.00    -0.200 F 
ATOM    118  C   UNL A   1      34.592  33.932  30.497  1.00  0.00     0.200 A 
ATOM    119  F   UNL A   1      35.289  34.405  28.295  1.00  0.00    -0.200 F 
ATOM    120  F   UNL A   1      33.665  34.898  30.426  1.00  0.00    -0.200 F 
ENDBRANCH  82 110
BRANCH  97 121
ATOM    121  C   UNL A   1      42.055  30.179  33.480  1.00  0.00     0.064 A 
ATOM    122  C   UNL A   1      41.700  28.826  33.335  1.00  0.00     0.173 A 
ATOM    123  C   UNL A   1      42.326  30.628  34.779  1.00  0.00     0.173 A 
ATOM    124  F   UNL A   1      41.509  28.289  32.125  1.00  0.00    -0.203 F 
ATOM    125  C   UNL A   1      41.585  27.978  34.437  1.00  0.00     0.198 A 
ATOM    126  C   UNL A   1      42.248  29.772  35.877  1.00  0.00     0.198 A 
ATOM    127  F   UNL A   1      42.716  31.897  34.982  1.00  0.00    -0.203 F 
ATOM    128  F   UNL A   1      41.234  26.695  34.268  1.00  0.00    -0.200 F 
ATOM    129  C   UNL A   1      41.869  28.451  35.706  1.00  0.00     0.200 A 
ATOM    130  F   UNL A   1      42.569  30.224  37.096  1.00  0.00    -0.200 F 
ATOM    131  F   UNL A   1      41.802  27.628  36.763  1.00  0.00    -0.200 F 
ENDBRANCH  97 121
ENDBRANCH  62  65
ENDBRANCH  52  55
ENDBRANCH  48  51
ENDBRANCH  45  48
ENDBRANCH  42  45
ENDBRANCH  39  42
ENDBRANCH   1  39
TORSDOF 18
ENDMDL
MODEL 9
REMARK VINA RESULT:     -10.8      3.262      9.220
REMARK SMILES Cc1cc(C)c2c(=O)n(CCCC(=O)NCCCCCCNC(=O)c3ccc(-c4c5nc(c(-c6c(F)c(F)c(F)c(F)c6F)c6ccc([nH]6)c(-c6c(F)c(F)c(F)c(F)c6F)c6nc(c(-c7c(F)c(F)c(F)c(F)c7F)c7ccc4[nH]7)C=C6)C=C5)cc3)sc2n1
REMARK SMILES IDX 17 1 16 4 15 7 13 8 14 9 12 11 11 14 10 17 9 20 2 21 3 22
REMARK SMILES IDX 90 23 4 24 89 26 6 27 88 28 7 29 8 30 1 31 5 35 18 39 19 42
REMARK SMILES IDX 20 45 21 48 22 51 23 52 24 54 25 55 26 56 87 57 27 58 86 60
REMARK SMILES IDX 28 62 29 65 30 66 80 67 31 68 85 69 79 70 81 71 32 72 84 73
REMARK SMILES IDX 78 75 77 77 33 79 65 82 45 83 64 84 46 85 49 86 63 87 82 88
REMARK SMILES IDX 47 89 48 91 62 93 83 94 50 97 34 99 35 100 43 101 36 102
REMARK SMILES IDX 37 103 41 104 44 105 38 106 39 107 42 108 40 109 66 110
REMARK SMILES IDX 67 111 75 112 68 113 69 114 73 115 76 116 70 117 71 118
REMARK SMILES IDX 74 119 72 120 51 121 52 122 60 123 53 124 54 125 58 126
REMARK SMILES IDX 61 127 55 128 56 129 59 130 57 131
REMARK H PARENT 17 2 17 3 16 5 16 6 15 10 12 12 12 13 11 15 11 16 10 18 10 19
REMARK H PARENT 3 25 1 32 1 33 1 34 5 36 5 37 5 38 18 40 18 41 19 43 19 44
REMARK H PARENT 20 46 20 47 21 49 21 50 22 53 26 59 87 61 27 63 86 64 85 74
REMARK H PARENT 79 76 81 78 84 80 78 81 46 90 49 92 82 95 47 96 83 98
REMARK Flexibility Score: inf
ROOT
ATOM      1  C   UNL A   1      31.274  28.774  24.294  1.00  0.00    -0.036 C 
ATOM      2  H   UNL A   1      30.412  29.004  24.884  1.00  0.00     0.028 H 
ATOM      3  H   UNL A   1      31.167  29.099  23.280  1.00  0.00     0.028 H 
ENDROOT
BRANCH   1   4
ATOM      4  C   UNL A   1      31.456  27.256  24.267  1.00  0.00     0.017 C 
ATOM      5  H   UNL A   1      32.059  26.957  25.099  1.00  0.00     0.049 H 
ATOM      6  H   UNL A   1      30.495  26.789  24.325  1.00  0.00     0.049 H 
BRANCH   4   7
ATOM      7  N   UNL A   1      32.102  26.850  23.041  1.00  0.00    -0.356 N 
ATOM      8  C   UNL A   1      33.266  26.187  22.830  1.00  0.00     0.220 C 
ATOM      9  O   UNL A   1      33.652  26.070  21.665  1.00  0.00    -0.275 OA
ATOM     10  H   UNL A   1      31.616  27.095  22.221  1.00  0.00     0.163 HD
BRANCH   8  11
ATOM     11  C   UNL A   1      34.014  25.503  23.960  1.00  0.00     0.028 C 
ATOM     12  H   UNL A   1      34.991  25.275  23.587  1.00  0.00     0.037 H 
ATOM     13  H   UNL A   1      33.942  26.209  24.761  1.00  0.00     0.037 H 
BRANCH  11  14
ATOM     14  C   UNL A   1      33.465  24.213  24.582  1.00  0.00    -0.025 C 
ATOM     15  H   UNL A   1      34.291  23.536  24.644  1.00  0.00     0.029 H 
ATOM     16  H   UNL A   1      33.017  24.571  25.485  1.00  0.00     0.029 H 
BRANCH  14  17
ATOM     17  C   UNL A   1      32.311  23.426  23.937  1.00  0.00     0.037 C 
ATOM     18  H   UNL A   1      31.405  23.866  24.299  1.00  0.00     0.051 H 
ATOM     19  H   UNL A   1      32.533  23.502  22.893  1.00  0.00     0.051 H 
BRANCH  17  20
ATOM     20  N   UNL A   1      32.175  21.985  24.129  1.00  0.00    -0.262 N 
ATOM     21  C   UNL A   1      33.134  17.433  24.875  1.00  0.00     0.039 A 
ATOM     22  C   UNL A   1      32.890  17.367  23.496  1.00  0.00    -0.037 A 
ATOM     23  N   UNL A   1      32.980  18.572  25.589  1.00  0.00    -0.241 NA
ATOM     24  C   UNL A   1      32.505  18.522  22.793  1.00  0.00    -0.033 A 
ATOM     25  H   UNL A   1      32.994  16.470  22.996  1.00  0.00     0.064 H 
ATOM     26  C   UNL A   1      32.616  19.657  24.886  1.00  0.00     0.146 A 
ATOM     27  C   UNL A   1      32.436  19.705  23.518  1.00  0.00     0.081 A 
ATOM     28  S   UNL A   1      32.252  21.208  25.649  1.00  0.00    -0.035 S 
ATOM     29  C   UNL A   1      32.247  21.098  23.050  1.00  0.00     0.270 A 
ATOM     30  O   UNL A   1      32.263  21.402  21.864  1.00  0.00    -0.268 OA
BRANCH  21  31
ATOM     31  C   UNL A   1      33.622  16.234  25.633  1.00  0.00    -0.022 C 
ATOM     32  H   UNL A   1      33.433  15.350  25.062  1.00  0.00     0.030 H 
ATOM     33  H   UNL A   1      33.108  16.171  26.569  1.00  0.00     0.030 H 
ATOM     34  H   UNL A   1      34.673  16.327  25.809  1.00  0.00     0.030 H 
ENDBRANCH  21  31
BRANCH  24  35
ATOM     35  C   UNL A   1      32.153  18.453  21.340  1.00  0.00    -0.039 C 
ATOM     36  H   UNL A   1      33.034  18.598  20.752  1.00  0.00     0.028 H 
ATOM     37  H   UNL A   1      31.439  19.217  21.109  1.00  0.00     0.028 H 
ATOM     38  H   UNL A   1      31.732  17.494  21.121  1.00  0.00     0.028 H 
ENDBRANCH  24  35
ENDBRANCH  17  20
ENDBRANCH  14  17
ENDBRANCH  11  14
ENDBRANCH   8  11
ENDBRANCH   4   7
ENDBRANCH   1   4
BRANCH   1  39
ATOM     39  C   UNL A   1      32.478  29.516  24.883  1.00  0.00    -0.052 C 
ATOM     40  H   UNL A   1      32.127  30.437  25.299  1.00  0.00     0.027 H 
ATOM     41  H   UNL A   1      33.170  29.647  24.078  1.00  0.00     0.027 H 
BRANCH  39  42
ATOM     42  C   UNL A   1      33.241  28.756  25.982  1.00  0.00    -0.052 C 
ATOM     43  H   UNL A   1      34.210  28.515  25.598  1.00  0.00     0.027 H 
ATOM     44  H   UNL A   1      32.633  27.907  26.215  1.00  0.00     0.027 H 
BRANCH  42  45
ATOM     45  C   UNL A   1      33.435  29.498  27.313  1.00  0.00    -0.036 C 
ATOM     46  H   UNL A   1      33.714  28.787  28.063  1.00  0.00     0.028 H 
ATOM     47  H   UNL A   1      32.510  29.983  27.545  1.00  0.00     0.028 H 
BRANCH  45  48
ATOM     48  C   UNL A   1      34.503  30.573  27.247  1.00  0.00     0.018 C 
ATOM     49  H   UNL A   1      34.399  31.102  26.322  1.00  0.00     0.049 H 
ATOM     50  H   UNL A   1      35.455  30.090  27.321  1.00  0.00     0.049 H 
BRANCH  48  51
ATOM     51  N   UNL A   1      34.408  31.534  28.349  1.00  0.00    -0.352 N 
ATOM     52  C   UNL A   1      35.191  31.641  29.487  1.00  0.00     0.251 C 
ATOM     53  H   UNL A   1      33.685  32.198  28.270  1.00  0.00     0.163 HD
ATOM     54  O   UNL A   1      34.815  32.272  30.458  1.00  0.00    -0.269 OA
BRANCH  52  55
ATOM     55  C   UNL A   1      36.505  30.975  29.493  1.00  0.00     0.039 A 
ATOM     56  C   UNL A   1      37.704  31.683  29.377  1.00  0.00    -0.049 A 
ATOM     57  C   UNL A   1      36.511  29.594  29.630  1.00  0.00    -0.049 A 
ATOM     58  C   UNL A   1      38.900  30.971  29.441  1.00  0.00    -0.053 A 
ATOM     59  H   UNL A   1      37.704  32.706  29.246  1.00  0.00     0.063 H 
ATOM     60  C   UNL A   1      37.661  28.948  29.964  1.00  0.00    -0.053 A 
ATOM     61  H   UNL A   1      35.642  29.057  29.477  1.00  0.00     0.063 H 
ATOM     62  C   UNL A   1      38.857  29.599  29.734  1.00  0.00    -0.014 A 
ATOM     63  H   UNL A   1      39.802  31.445  29.277  1.00  0.00     0.063 H 
ATOM     64  H   UNL A   1      37.638  28.003  30.377  1.00  0.00     0.063 H 
BRANCH  62  65
ATOM     65  C   UNL A   1      40.055  28.782  29.816  1.00  0.00     0.031 A 
ATOM     66  C   UNL A   1      40.558  28.569  31.193  1.00  0.00     0.074 A 
ATOM     67  C   UNL A   1      40.526  28.105  28.745  1.00  0.00     0.049 A 
ATOM     68  N   UNL A   1      41.665  28.995  31.702  1.00  0.00    -0.248 NA
ATOM     69  C   UNL A   1      39.661  27.923  32.162  1.00  0.00    -0.034 C 
ATOM     70  C   UNL A   1      39.933  27.959  27.405  1.00  0.00    -0.036 A 
ATOM     71  N   UNL A   1      41.628  27.318  28.661  1.00  0.00    -0.354 N 
ATOM     72  C   UNL A   1      41.688  28.527  33.013  1.00  0.00     0.074 A 
ATOM     73  C   UNL A   1      40.369  28.022  33.288  1.00  0.00    -0.034 C 
ATOM     74  H   UNL A   1      38.729  27.505  32.012  1.00  0.00     0.065 H 
ATOM     75  C   UNL A   1      40.559  26.970  26.730  1.00  0.00    -0.036 A 
ATOM     76  H   UNL A   1      39.155  28.528  27.036  1.00  0.00     0.065 H 
ATOM     77  C   UNL A   1      41.708  26.551  27.506  1.00  0.00     0.049 A 
ATOM     78  H   UNL A   1      42.317  27.292  29.364  1.00  0.00     0.167 HD
ATOM     79  C   UNL A   1      42.862  28.399  33.690  1.00  0.00     0.037 A 
ATOM     80  H   UNL A   1      40.020  27.771  34.227  1.00  0.00     0.065 H 
ATOM     81  H   UNL A   1      40.269  26.581  25.820  1.00  0.00     0.065 H 
ATOM     82  C   UNL A   1      42.657  25.625  27.228  1.00  0.00     0.037 A 
ATOM     83  C   UNL A   1      43.917  29.126  33.028  1.00  0.00     0.049 A 
ATOM     84  C   UNL A   1      43.813  25.930  28.106  1.00  0.00     0.074 A 
ATOM     85  C   UNL A   1      44.192  30.459  32.805  1.00  0.00    -0.036 A 
ATOM     86  N   UNL A   1      44.684  28.424  32.134  1.00  0.00    -0.354 N 
ATOM     87  N   UNL A   1      44.530  27.016  28.016  1.00  0.00    -0.248 NA
ATOM     88  C   UNL A   1      43.897  25.228  29.374  1.00  0.00    -0.034 C 
ATOM     89  C   UNL A   1      44.776  30.507  31.502  1.00  0.00    -0.036 A 
ATOM     90  H   UNL A   1      44.014  31.252  33.441  1.00  0.00     0.065 H 
ATOM     91  C   UNL A   1      44.882  29.201  31.020  1.00  0.00     0.049 A 
ATOM     92  H   UNL A   1      45.034  27.514  32.267  1.00  0.00     0.167 HD
ATOM     93  C   UNL A   1      44.820  27.361  29.329  1.00  0.00     0.074 A 
ATOM     94  C   UNL A   1      44.496  26.168  30.108  1.00  0.00    -0.034 C 
ATOM     95  H   UNL A   1      43.585  24.278  29.633  1.00  0.00     0.065 H 
ATOM     96  H   UNL A   1      45.068  31.361  31.002  1.00  0.00     0.065 H 
ATOM     97  C   UNL A   1      45.022  28.665  29.681  1.00  0.00     0.037 A 
ATOM     98  H   UNL A   1      44.709  26.064  31.113  1.00  0.00     0.065 H 
BRANCH  79  99
ATOM     99  C   UNL A   1      43.144  27.345  34.732  1.00  0.00     0.064 A 
ATOM    100  C   UNL A   1      43.374  27.737  36.066  1.00  0.00     0.173 A 
ATOM    101  C   UNL A   1      43.472  26.005  34.431  1.00  0.00     0.173 A 
ATOM    102  F   UNL A   1      43.124  28.994  36.462  1.00  0.00    -0.203 F 
ATOM    103  C   UNL A   1      43.940  26.870  37.006  1.00  0.00     0.198 A 
ATOM    104  C   UNL A   1      43.986  25.127  35.383  1.00  0.00     0.198 A 
ATOM    105  F   UNL A   1      43.416  25.521  33.184  1.00  0.00    -0.203 F 
ATOM    106  F   UNL A   1      44.244  27.322  38.230  1.00  0.00    -0.200 F 
ATOM    107  C   UNL A   1      44.247  25.566  36.663  1.00  0.00     0.200 A 
ATOM    108  F   UNL A   1      44.296  23.874  35.024  1.00  0.00    -0.200 F 
ATOM    109  F   UNL A   1      44.836  24.748  37.545  1.00  0.00    -0.200 F 
ENDBRANCH  79  99
BRANCH  82 110
ATOM    110  C   UNL A   1      42.482  24.300  26.585  1.00  0.00     0.064 A 
ATOM    111  C   UNL A   1      43.251  23.942  25.466  1.00  0.00     0.173 A 
ATOM    112  C   UNL A   1      41.804  23.254  27.242  1.00  0.00     0.173 A 
ATOM    113  F   UNL A   1      43.957  24.874  24.810  1.00  0.00    -0.203 F 
ATOM    114  C   UNL A   1      43.377  22.610  25.057  1.00  0.00     0.198 A 
ATOM    115  C   UNL A   1      41.928  21.925  26.831  1.00  0.00     0.198 A 
ATOM    116  F   UNL A   1      41.095  23.487  28.355  1.00  0.00    -0.203 F 
ATOM    117  F   UNL A   1      44.182  22.298  24.032  1.00  0.00    -0.200 F 
ATOM    118  C   UNL A   1      42.728  21.601  25.751  1.00  0.00     0.200 A 
ATOM    119  F   UNL A   1      41.326  20.954  27.532  1.00  0.00    -0.200 F 
ATOM    120  F   UNL A   1      42.909  20.318  25.408  1.00  0.00    -0.200 F 
ENDBRANCH  82 110
BRANCH  97 121
ATOM    121  C   UNL A   1      45.208  29.662  28.565  1.00  0.00     0.064 A 
ATOM    122  C   UNL A   1      44.167  30.407  27.981  1.00  0.00     0.173 A 
ATOM    123  C   UNL A   1      46.513  29.969  28.159  1.00  0.00     0.173 A 
ATOM    124  F   UNL A   1      42.899  30.243  28.372  1.00  0.00    -0.203 F 
ATOM    125  C   UNL A   1      44.419  31.383  27.015  1.00  0.00     0.198 A 
ATOM    126  C   UNL A   1      46.768  30.969  27.222  1.00  0.00     0.198 A 
ATOM    127  F   UNL A   1      47.555  29.328  28.712  1.00  0.00    -0.203 F 
ATOM    128  F   UNL A   1      43.405  32.069  26.469  1.00  0.00    -0.200 F 
ATOM    129  C   UNL A   1      45.722  31.668  26.644  1.00  0.00     0.200 A 
ATOM    130  F   UNL A   1      48.033  31.272  26.901  1.00  0.00    -0.200 F 
ATOM    131  F   UNL A   1      45.970  32.634  25.748  1.00  0.00    -0.200 F 
ENDBRANCH  97 121
ENDBRANCH  62  65
ENDBRANCH  52  55
ENDBRANCH  48  51
ENDBRANCH  45  48
ENDBRANCH  42  45
ENDBRANCH  39  42
ENDBRANCH   1  39
TORSDOF 18
ENDMDL
MODEL 10
REMARK VINA RESULT:     -10.8      1.274      2.160
REMARK SMILES Cc1cc(C)c2c(=O)n(CCCC(=O)NCCCCCCNC(=O)c3ccc(-c4c5nc(c(-c6c(F)c(F)c(F)c(F)c6F)c6ccc([nH]6)c(-c6c(F)c(F)c(F)c(F)c6F)c6nc(c(-c7c(F)c(F)c(F)c(F)c7F)c7ccc4[nH]7)C=C6)C=C5)cc3)sc2n1
REMARK SMILES IDX 17 1 16 4 15 7 13 8 14 9 12 11 11 14 10 17 9 20 2 21 3 22
REMARK SMILES IDX 90 23 4 24 89 26 6 27 88 28 7 29 8 30 1 31 5 35 18 39 19 42
REMARK SMILES IDX 20 45 21 48 22 51 23 52 24 54 25 55 26 56 87 57 27 58 86 60
REMARK SMILES IDX 28 62 29 65 30 66 80 67 31 68 85 69 79 70 81 71 32 72 84 73
REMARK SMILES IDX 78 75 77 77 33 79 65 82 45 83 64 84 46 85 49 86 63 87 82 88
REMARK SMILES IDX 47 89 48 91 62 93 83 94 50 97 34 99 35 100 43 101 36 102
REMARK SMILES IDX 37 103 41 104 44 105 38 106 39 107 42 108 40 109 66 110
REMARK SMILES IDX 67 111 75 112 68 113 69 114 73 115 76 116 70 117 71 118
REMARK SMILES IDX 74 119 72 120 51 121 52 122 60 123 53 124 54 125 58 126
REMARK SMILES IDX 61 127 55 128 56 129 59 130 57 131
REMARK H PARENT 17 2 17 3 16 5 16 6 15 10 12 12 12 13 11 15 11 16 10 18 10 19
REMARK H PARENT 3 25 1 32 1 33 1 34 5 36 5 37 5 38 18 40 18 41 19 43 19 44
REMARK H PARENT 20 46 20 47 21 49 21 50 22 53 26 59 87 61 27 63 86 64 85 74
REMARK H PARENT 79 76 81 78 84 80 78 81 46 90 49 92 82 95 47 96 83 98
REMARK Flexibility Score: inf
ROOT
ATOM      1  C   UNL A   1      39.454  22.910  26.602  1.00  0.00    -0.036 C 
ATOM      2  H   UNL A   1      39.493  23.034  27.664  1.00  0.00     0.028 H 
ATOM      3  H   UNL A   1      40.241  23.440  26.106  1.00  0.00     0.028 H 
ENDROOT
BRANCH   1   4
ATOM      4  C   UNL A   1      38.131  23.484  26.093  1.00  0.00     0.017 C 
ATOM      5  H   UNL A   1      37.794  24.245  26.765  1.00  0.00     0.049 H 
ATOM      6  H   UNL A   1      38.283  23.897  25.118  1.00  0.00     0.049 H 
BRANCH   4   7
ATOM      7  N   UNL A   1      37.132  22.444  26.013  1.00  0.00    -0.356 N 
ATOM      8  C   UNL A   1      35.778  22.517  25.978  1.00  0.00     0.220 C 
ATOM      9  O   UNL A   1      35.150  21.457  26.029  1.00  0.00    -0.275 OA
ATOM     10  H   UNL A   1      37.494  21.530  25.977  1.00  0.00     0.163 HD
BRANCH   8  11
ATOM     11  C   UNL A   1      35.052  23.832  25.759  1.00  0.00     0.028 C 
ATOM     12  H   UNL A   1      35.517  24.549  26.403  1.00  0.00     0.037 H 
ATOM     13  H   UNL A   1      35.138  23.984  24.704  1.00  0.00     0.037 H 
BRANCH  11  14
ATOM     14  C   UNL A   1      33.542  23.932  26.004  1.00  0.00    -0.025 C 
ATOM     15  H   UNL A   1      33.071  23.464  25.164  1.00  0.00     0.029 H 
ATOM     16  H   UNL A   1      33.440  23.485  26.971  1.00  0.00     0.029 H 
BRANCH  14  17
ATOM     17  C   UNL A   1      32.836  25.285  26.196  1.00  0.00     0.037 C 
ATOM     18  H   UNL A   1      32.122  25.146  26.981  1.00  0.00     0.051 H 
ATOM     19  H   UNL A   1      33.656  25.952  26.363  1.00  0.00     0.051 H 
BRANCH  17  20
ATOM     20  N   UNL A   1      32.121  25.930  25.099  1.00  0.00    -0.262 N 
ATOM     21  C   UNL A   1      29.918  29.118  22.418  1.00  0.00     0.039 A 
ATOM     22  C   UNL A   1      28.792  28.408  22.858  1.00  0.00    -0.037 A 
ATOM     23  N   UNL A   1      31.181  28.746  22.728  1.00  0.00    -0.241 NA
ATOM     24  C   UNL A   1      28.949  27.282  23.687  1.00  0.00    -0.033 A 
ATOM     25  H   UNL A   1      27.848  28.712  22.574  1.00  0.00     0.064 H 
ATOM     26  C   UNL A   1      31.295  27.671  23.525  1.00  0.00     0.146 A 
ATOM     27  C   UNL A   1      30.244  26.962  24.072  1.00  0.00     0.081 A 
ATOM     28  S   UNL A   1      32.856  26.960  23.949  1.00  0.00    -0.035 S 
ATOM     29  C   UNL A   1      30.723  25.974  25.067  1.00  0.00     0.270 A 
ATOM     30  O   UNL A   1      29.965  25.372  25.815  1.00  0.00    -0.268 OA
BRANCH  21  31
ATOM     31  C   UNL A   1      29.775  30.366  21.599  1.00  0.00    -0.022 C 
ATOM     32  H   UNL A   1      28.858  30.856  21.852  1.00  0.00     0.030 H 
ATOM     33  H   UNL A   1      29.769  30.112  20.560  1.00  0.00     0.030 H 
ATOM     34  H   UNL A   1      30.596  31.022  21.802  1.00  0.00     0.030 H 
ENDBRANCH  21  31
BRANCH  24  35
ATOM     35  C   UNL A   1      27.767  26.459  24.092  1.00  0.00    -0.039 C 
ATOM     36  H   UNL A   1      28.049  25.429  24.141  1.00  0.00     0.028 H 
ATOM     37  H   UNL A   1      26.984  26.581  23.374  1.00  0.00     0.028 H 
ATOM     38  H   UNL A   1      27.423  26.780  25.053  1.00  0.00     0.028 H 
ENDBRANCH  24  35
ENDBRANCH  17  20
ENDBRANCH  14  17
ENDBRANCH  11  14
ENDBRANCH   8  11
ENDBRANCH   4   7
ENDBRANCH   1   4
BRANCH   1  39
ATOM     39  C   UNL A   1      39.633  21.425  26.278  1.00  0.00    -0.052 C 
ATOM     40  H   UNL A   1      39.683  21.322  25.214  1.00  0.00     0.027 H 
ATOM     41  H   UNL A   1      38.798  20.921  26.717  1.00  0.00     0.027 H 
BRANCH  39  42
ATOM     42  C   UNL A   1      40.890  20.770  26.879  1.00  0.00    -0.052 C 
ATOM     43  H   UNL A   1      40.630  20.399  27.849  1.00  0.00     0.027 H 
ATOM     44  H   UNL A   1      41.635  21.537  26.883  1.00  0.00     0.027 H 
BRANCH  42  45
ATOM     45  C   UNL A   1      41.501  19.609  26.081  1.00  0.00    -0.036 C 
ATOM     46  H   UNL A   1      41.495  19.868  25.043  1.00  0.00     0.028 H 
ATOM     47  H   UNL A   1      40.909  18.739  26.281  1.00  0.00     0.028 H 
BRANCH  45  48
ATOM     48  C   UNL A   1      42.926  19.288  26.490  1.00  0.00     0.018 C 
ATOM     49  H   UNL A   1      42.946  18.304  26.913  1.00  0.00     0.049 H 
ATOM     50  H   UNL A   1      43.235  20.029  27.197  1.00  0.00     0.049 H 
BRANCH  48  51
ATOM     51  N   UNL A   1      43.862  19.332  25.363  1.00  0.00    -0.352 N 
ATOM     52  C   UNL A   1      44.315  20.427  24.645  1.00  0.00     0.251 C 
ATOM     53  H   UNL A   1      44.218  18.461  25.075  1.00  0.00     0.163 HD
ATOM     54  O   UNL A   1      44.835  20.297  23.553  1.00  0.00    -0.269 OA
BRANCH  52  55
ATOM     55  C   UNL A   1      44.161  21.764  25.244  1.00  0.00     0.039 A 
ATOM     56  C   UNL A   1      43.185  22.668  24.817  1.00  0.00    -0.049 A 
ATOM     57  C   UNL A   1      45.029  22.097  26.274  1.00  0.00    -0.049 A 
ATOM     58  C   UNL A   1      43.084  23.891  25.476  1.00  0.00    -0.053 A 
ATOM     59  H   UNL A   1      42.556  22.436  24.033  1.00  0.00     0.063 H 
ATOM     60  C   UNL A   1      44.752  23.157  27.081  1.00  0.00    -0.053 A 
ATOM     61  H   UNL A   1      45.885  21.541  26.428  1.00  0.00     0.063 H 
ATOM     62  C   UNL A   1      43.881  24.119  26.608  1.00  0.00    -0.014 A 
ATOM     63  H   UNL A   1      42.433  24.617  25.137  1.00  0.00     0.063 H 
ATOM     64  H   UNL A   1      45.180  23.238  28.017  1.00  0.00     0.063 H 
BRANCH  62  65
ATOM     65  C   UNL A   1      43.841  25.366  27.351  1.00  0.00     0.031 A 
ATOM     66  C   UNL A   1      44.967  26.285  27.068  1.00  0.00     0.074 A 
ATOM     67  C   UNL A   1      42.752  25.730  28.065  1.00  0.00     0.049 A 
ATOM     68  N   UNL A   1      45.906  26.654  27.873  1.00  0.00    -0.248 NA
ATOM     69  C   UNL A   1      45.152  26.742  25.682  1.00  0.00    -0.034 C 
ATOM     70  C   UNL A   1      41.439  25.071  28.158  1.00  0.00    -0.036 A 
ATOM     71  N   UNL A   1      42.568  26.847  28.813  1.00  0.00    -0.354 N 
ATOM     72  C   UNL A   1      46.712  27.528  27.148  1.00  0.00     0.074 A 
ATOM     73  C   UNL A   1      46.300  27.414  25.774  1.00  0.00    -0.034 C 
ATOM     74  H   UNL A   1      44.553  26.583  24.856  1.00  0.00     0.065 H 
ATOM     75  C   UNL A   1      40.543  25.906  28.729  1.00  0.00    -0.036 A 
ATOM     76  H   UNL A   1      41.233  24.112  27.833  1.00  0.00     0.065 H 
ATOM     77  C   UNL A   1      41.256  27.069  29.214  1.00  0.00     0.049 A 
ATOM     78  H   UNL A   1      43.306  27.453  29.053  1.00  0.00     0.167 HD
ATOM     79  C   UNL A   1      47.507  28.433  27.780  1.00  0.00     0.037 A 
ATOM     80  H   UNL A   1      46.822  27.800  24.971  1.00  0.00     0.065 H 
ATOM     81  H   UNL A   1      39.528  25.742  28.807  1.00  0.00     0.065 H 
ATOM     82  C   UNL A   1      40.801  28.152  29.887  1.00  0.00     0.037 A 
ATOM     83  C   UNL A   1      47.655  28.100  29.175  1.00  0.00     0.049 A 
ATOM     84  C   UNL A   1      41.983  28.778  30.528  1.00  0.00     0.074 A 
ATOM     85  C   UNL A   1      48.262  27.078  29.876  1.00  0.00    -0.036 A 
ATOM     86  N   UNL A   1      46.776  28.689  30.047  1.00  0.00    -0.354 N 
ATOM     87  N   UNL A   1      42.688  28.212  31.469  1.00  0.00    -0.248 NA
ATOM     88  C   UNL A   1      42.648  29.852  29.810  1.00  0.00    -0.034 C 
ATOM     89  C   UNL A   1      47.405  26.830  30.991  1.00  0.00    -0.036 A 
ATOM     90  H   UNL A   1      49.145  26.597  29.644  1.00  0.00     0.065 H 
ATOM     91  C   UNL A   1      46.353  27.746  30.950  1.00  0.00     0.049 A 
ATOM     92  H   UNL A   1      46.493  29.632  30.029  1.00  0.00     0.167 HD
ATOM     93  C   UNL A   1      44.002  28.561  31.189  1.00  0.00     0.074 A 
ATOM     94  C   UNL A   1      43.901  29.654  30.225  1.00  0.00    -0.034 C 
ATOM     95  H   UNL A   1      42.263  30.562  29.167  1.00  0.00     0.065 H 
ATOM     96  H   UNL A   1      47.541  26.097  31.706  1.00  0.00     0.065 H 
ATOM     97  C   UNL A   1      45.034  27.743  31.550  1.00  0.00     0.037 A 
ATOM     98  H   UNL A   1      44.708  30.211  29.902  1.00  0.00     0.065 H 
BRANCH  79  99
ATOM     99  C   UNL A   1      47.857  29.797  27.238  1.00  0.00     0.064 A 
ATOM    100  C   UNL A   1      49.207  30.201  27.204  1.00  0.00     0.173 A 
ATOM    101  C   UNL A   1      46.913  30.822  27.013  1.00  0.00     0.173 A 
ATOM    102  F   UNL A   1      50.191  29.319  27.430  1.00  0.00    -0.203 F 
ATOM    103  C   UNL A   1      49.575  31.537  27.015  1.00  0.00     0.198 A 
ATOM    104  C   UNL A   1      47.285  32.143  26.772  1.00  0.00     0.198 A 
ATOM    105  F   UNL A   1      45.595  30.615  27.127  1.00  0.00    -0.203 F 
ATOM    106  F   UNL A   1      50.865  31.891  27.104  1.00  0.00    -0.200 F 
ATOM    107  C   UNL A   1      48.613  32.508  26.801  1.00  0.00     0.200 A 
ATOM    108  F   UNL A   1      46.336  33.072  26.587  1.00  0.00    -0.200 F 
ATOM    109  F   UNL A   1      48.959  33.795  26.671  1.00  0.00    -0.200 F 
ENDBRANCH  79  99
BRANCH  82 110
ATOM    110  C   UNL A   1      39.532  28.892  29.680  1.00  0.00     0.064 A 
ATOM    111  C   UNL A   1      39.146  29.300  28.394  1.00  0.00     0.173 A 
ATOM    112  C   UNL A   1      38.536  28.925  30.676  1.00  0.00     0.173 A 
ATOM    113  F   UNL A   1      40.026  29.261  27.383  1.00  0.00    -0.203 F 
ATOM    114  C   UNL A   1      37.828  29.672  28.106  1.00  0.00     0.198 A 
ATOM    115  C   UNL A   1      37.221  29.299  30.388  1.00  0.00     0.198 A 
ATOM    116  F   UNL A   1      38.792  28.496  31.919  1.00  0.00    -0.203 F 
ATOM    117  F   UNL A   1      37.479  29.981  26.850  1.00  0.00    -0.200 F 
ATOM    118  C   UNL A   1      36.863  29.655  29.101  1.00  0.00     0.200 A 
ATOM    119  F   UNL A   1      36.289  29.242  31.350  1.00  0.00    -0.200 F 
ATOM    120  F   UNL A   1      35.586  29.935  28.811  1.00  0.00    -0.200 F 
ENDBRANCH  82 110
BRANCH  97 121
ATOM    121  C   UNL A   1      44.723  26.616  32.504  1.00  0.00     0.064 A 
ATOM    122  C   UNL A   1      44.564  26.770  33.893  1.00  0.00     0.173 A 
ATOM    123  C   UNL A   1      44.447  25.351  31.969  1.00  0.00     0.173 A 
ATOM    124  F   UNL A   1      44.721  27.962  34.478  1.00  0.00    -0.203 F 
ATOM    125  C   UNL A   1      44.184  25.702  34.708  1.00  0.00     0.198 A 
ATOM    126  C   UNL A   1      44.031  24.294  32.778  1.00  0.00     0.198 A 
ATOM    127  F   UNL A   1      44.533  25.150  30.645  1.00  0.00    -0.203 F 
ATOM    128  F   UNL A   1      44.052  25.877  36.031  1.00  0.00    -0.200 F 
ATOM    129  C   UNL A   1      43.909  24.468  34.146  1.00  0.00     0.200 A 
ATOM    130  F   UNL A   1      43.722  23.115  32.222  1.00  0.00    -0.200 F 
ATOM    131  F   UNL A   1      43.503  23.451  34.920  1.00  0.00    -0.200 F 
ENDBRANCH  97 121
ENDBRANCH  62  65
ENDBRANCH  52  55
ENDBRANCH  48  51
ENDBRANCH  45  48
ENDBRANCH  42  45
ENDBRANCH  39  42
ENDBRANCH   1  39
TORSDOF 18
ENDMDL
