REMARK SMILES C[C@H](C(=O)NCCCCCCNC(=O)c1ccc(-c2c3nc(c(-c4c(F)c(F)c(F)c(F)c4F)c4ccc([nH]4)c(-c4c(F)c(F)c(F)c(F)c4F)c4nc(c(-c5c(F)c(F)c(F)c(F)c5F)c5ccc2[nH]5)C=C4)C=C3)cc1)c1ccc2c(c1)[nH]c1ccc(Cl)cc12
REMARK SMILES IDX 9 1 8 4 7 7 6 10 5 13 3 14 4 15 2 17 1 19 78 23 79 24 83 25
REMARK SMILES IDX 80 26 82 28 81 30 84 32 91 33 85 34 90 36 86 37 88 38 87 40
REMARK SMILES IDX 89 42 10 44 11 47 12 50 13 51 14 53 15 54 16 55 77 56 17 57
REMARK SMILES IDX 76 59 18 61 19 64 20 65 70 66 21 67 75 68 69 69 71 70 22 71
REMARK SMILES IDX 74 72 68 74 67 76 23 78 55 81 35 82 54 83 36 84 39 85 53 86
REMARK SMILES IDX 72 87 37 88 38 90 52 92 73 93 40 96 24 98 25 99 33 100
REMARK SMILES IDX 26 101 27 102 31 103 34 104 28 105 29 106 32 107 30 108
REMARK SMILES IDX 56 109 57 110 65 111 58 112 59 113 63 114 66 115 60 116
REMARK SMILES IDX 61 117 64 118 62 119 41 120 42 121 50 122 43 123 44 124
REMARK SMILES IDX 48 125 51 126 45 127 46 128 49 129 47 130
REMARK H PARENT 9 2 9 3 8 5 8 6 7 8 7 9 6 11 6 12 5 16 2 18 1 20 1 21 1 22
REMARK H PARENT 79 27 83 29 80 31 84 35 90 39 86 41 87 43 10 45 10 46 11 48
REMARK H PARENT 11 49 12 52 16 58 77 60 17 62 76 63 75 73 69 75 71 77 74 79
REMARK H PARENT 68 80 36 89 39 91 72 94 37 95 73 97
REMARK Flexibility Score: inf
ROOT
ATOM      1  C   UNL     1      -1.765   4.229   0.559  1.00  0.00    -0.052 C 
ATOM      2  H   UNL     1      -1.111   3.921  -0.231  1.00  0.00     0.027 H 
ATOM      3  H   UNL     1      -1.631   5.239   0.888  1.00  0.00     0.027 H 
ENDROOT
BRANCH   1   4
ATOM      4  C   UNL     1      -1.447   3.368   1.783  1.00  0.00    -0.052 C 
ATOM      5  H   UNL     1      -0.388   3.404   1.933  1.00  0.00     0.027 H 
ATOM      6  H   UNL     1      -2.038   3.788   2.570  1.00  0.00     0.027 H 
BRANCH   4   7
ATOM      7  C   UNL     1      -1.853   1.893   1.740  1.00  0.00    -0.036 C 
ATOM      8  H   UNL     1      -1.427   1.419   2.599  1.00  0.00     0.028 H 
ATOM      9  H   UNL     1      -2.922   1.908   1.704  1.00  0.00     0.028 H 
BRANCH   7  10
ATOM     10  C   UNL     1      -1.439   1.079   0.519  1.00  0.00     0.017 C 
ATOM     11  H   UNL     1      -1.813   0.084   0.641  1.00  0.00     0.049 H 
ATOM     12  H   UNL     1      -1.847   1.585  -0.331  1.00  0.00     0.049 H 
BRANCH  10  13
ATOM     13  N   UNL     1      -0.016   0.998   0.297  1.00  0.00    -0.356 N 
ATOM     14  C   UNL     1       0.704   0.163  -0.497  1.00  0.00     0.227 C 
ATOM     15  O   UNL     1       1.851   0.560  -0.756  1.00  0.00    -0.274 OA
ATOM     16  H   UNL     1       0.520   1.652   0.802  1.00  0.00     0.163 HD
BRANCH  14  17
ATOM     17  C   UNL     1       0.283  -1.238  -0.984  1.00  0.00     0.060 C 
ATOM     18  H   UNL     1       0.421  -1.242  -2.045  1.00  0.00     0.045 H 
BRANCH  17  19
ATOM     19  C   UNL     1       1.188  -2.218  -0.205  1.00  0.00    -0.049 C 
ATOM     20  H   UNL     1       0.955  -3.223  -0.490  1.00  0.00     0.024 H 
ATOM     21  H   UNL     1       1.023  -2.099   0.846  1.00  0.00     0.024 H 
ATOM     22  H   UNL     1       2.214  -2.013  -0.429  1.00  0.00     0.024 H 
ENDBRANCH  17  19
BRANCH  17  23
ATOM     23  C   UNL     1      -1.189  -1.653  -1.011  1.00  0.00    -0.034 A 
ATOM     24  C   UNL     1      -2.142  -0.914  -1.734  1.00  0.00    -0.057 A 
ATOM     25  C   UNL     1      -1.625  -2.817  -0.350  1.00  0.00    -0.034 A 
ATOM     26  C   UNL     1      -3.521  -1.211  -1.665  1.00  0.00    -0.052 A 
ATOM     27  H   UNL     1      -1.825  -0.134  -2.331  1.00  0.00     0.063 H 
ATOM     28  C   UNL     1      -2.990  -3.115  -0.313  1.00  0.00     0.047 A 
ATOM     29  H   UNL     1      -0.943  -3.444   0.104  1.00  0.00     0.065 H 
ATOM     30  C   UNL     1      -3.961  -2.319  -0.909  1.00  0.00     0.007 A 
ATOM     31  H   UNL     1      -4.204  -0.620  -2.164  1.00  0.00     0.063 H 
ATOM     32  N   UNL     1      -3.630  -4.168   0.288  1.00  0.00    -0.355 N 
ATOM     33  C   UNL     1      -5.237  -2.864  -0.530  1.00  0.00     0.009 A 
ATOM     34  C   UNL     1      -4.990  -3.999   0.245  1.00  0.00     0.047 A 
ATOM     35  H   UNL     1      -3.175  -4.941   0.695  1.00  0.00     0.167 HD
ATOM     36  C   UNL     1      -6.580  -2.485  -0.738  1.00  0.00    -0.033 A 
ATOM     37  C   UNL     1      -5.998  -4.765   0.841  1.00  0.00    -0.036 A 
ATOM     38  C   UNL     1      -7.600  -3.236  -0.137  1.00  0.00     0.041 A 
ATOM     39  H   UNL     1      -6.809  -1.667  -1.325  1.00  0.00     0.065 H 
ATOM     40  C   UNL     1      -7.316  -4.353   0.645  1.00  0.00    -0.041 A 
ATOM     41  H   UNL     1      -5.775  -5.602   1.402  1.00  0.00     0.065 H 
ATOM     42  Cl  UNL     1      -9.242  -2.760  -0.352  1.00  0.00    -0.084 Cl
ATOM     43  H   UNL     1      -8.088  -4.880   1.084  1.00  0.00     0.064 H 
ENDBRANCH  17  23
ENDBRANCH  14  17
ENDBRANCH  10  13
ENDBRANCH   7  10
ENDBRANCH   4   7
ENDBRANCH   1   4
BRANCH   1  44
ATOM     44  C   UNL     1      -3.194   4.174   0.023  1.00  0.00    -0.036 C 
ATOM     45  H   UNL     1      -3.340   3.210  -0.419  1.00  0.00     0.028 H 
ATOM     46  H   UNL     1      -3.274   4.990  -0.665  1.00  0.00     0.028 H 
BRANCH  44  47
ATOM     47  C   UNL     1      -4.303   4.390   1.043  1.00  0.00     0.018 C 
ATOM     48  H   UNL     1      -4.224   3.633   1.796  1.00  0.00     0.049 H 
ATOM     49  H   UNL     1      -5.233   4.339   0.515  1.00  0.00     0.049 H 
BRANCH  47  50
ATOM     50  N   UNL     1      -4.248   5.689   1.689  1.00  0.00    -0.352 N 
ATOM     51  C   UNL     1      -5.250   6.617   1.861  1.00  0.00     0.251 C 
ATOM     52  H   UNL     1      -3.370   5.942   2.056  1.00  0.00     0.163 HD
ATOM     53  O   UNL     1      -5.008   7.717   2.332  1.00  0.00    -0.269 OA
BRANCH  51  54
ATOM     54  C   UNL     1      -6.630   6.282   1.441  1.00  0.00     0.039 A 
ATOM     55  C   UNL     1      -7.345   7.202   0.670  1.00  0.00    -0.049 A 
ATOM     56  C   UNL     1      -7.208   5.061   1.798  1.00  0.00    -0.049 A 
ATOM     57  C   UNL     1      -8.619   6.871   0.200  1.00  0.00    -0.053 A 
ATOM     58  H   UNL     1      -6.934   8.123   0.448  1.00  0.00     0.063 H 
ATOM     59  C   UNL     1      -8.441   4.702   1.266  1.00  0.00    -0.053 A 
ATOM     60  H   UNL     1      -6.721   4.429   2.452  1.00  0.00     0.063 H 
ATOM     61  C   UNL     1      -9.163   5.606   0.468  1.00  0.00    -0.014 A 
ATOM     62  H   UNL     1      -9.162   7.559  -0.346  1.00  0.00     0.063 H 
ATOM     63  H   UNL     1      -8.829   3.766   1.459  1.00  0.00     0.063 H 
BRANCH  61  64
ATOM     64  C   UNL     1     -10.498   5.198  -0.037  1.00  0.00     0.031 A 
ATOM     65  C   UNL     1     -11.592   4.882   0.942  1.00  0.00     0.074 A 
ATOM     66  C   UNL     1     -10.694   5.010  -1.356  1.00  0.00     0.049 A 
ATOM     67  N   UNL     1     -12.767   4.345   0.733  1.00  0.00    -0.248 NA
ATOM     68  C   UNL     1     -11.307   5.177   2.354  1.00  0.00    -0.034 C 
ATOM     69  C   UNL     1      -9.703   5.254  -2.402  1.00  0.00    -0.036 A 
ATOM     70  N   UNL     1     -11.790   4.538  -2.036  1.00  0.00    -0.354 N 
ATOM     71  C   UNL     1     -13.344   4.208   1.988  1.00  0.00     0.074 A 
ATOM     72  C   UNL     1     -12.372   4.670   2.955  1.00  0.00    -0.034 C 
ATOM     73  H   UNL     1     -10.491   5.654   2.768  1.00  0.00     0.065 H 
ATOM     74  C   UNL     1     -10.234   4.931  -3.593  1.00  0.00    -0.036 A 
ATOM     75  H   UNL     1      -8.749   5.617  -2.251  1.00  0.00     0.065 H 
ATOM     76  C   UNL     1     -11.584   4.412  -3.388  1.00  0.00     0.049 A 
ATOM     77  H   UNL     1     -12.641   4.311  -1.597  1.00  0.00     0.167 HD
ATOM     78  C   UNL     1     -14.580   3.752   2.304  1.00  0.00     0.037 A 
ATOM     79  H   UNL     1     -12.493   4.613   3.978  1.00  0.00     0.065 H 
ATOM     80  H   UNL     1      -9.764   5.034  -4.506  1.00  0.00     0.065 H 
ATOM     81  C   UNL     1     -12.383   3.912  -4.350  1.00  0.00     0.037 A 
ATOM     82  C   UNL     1     -15.548   3.316   1.333  1.00  0.00     0.049 A 
ATOM     83  C   UNL     1     -13.750   3.400  -3.979  1.00  0.00     0.074 A 
ATOM     84  C   UNL     1     -16.849   2.893   1.541  1.00  0.00    -0.036 A 
ATOM     85  N   UNL     1     -15.315   3.239  -0.033  1.00  0.00    -0.354 N 
ATOM     86  N   UNL     1     -14.311   3.325  -2.797  1.00  0.00    -0.248 NA
ATOM     87  C   UNL     1     -14.596   2.909  -5.076  1.00  0.00    -0.034 C 
ATOM     88  C   UNL     1     -17.384   2.507   0.307  1.00  0.00    -0.036 A 
ATOM     89  H   UNL     1     -17.339   2.867   2.448  1.00  0.00     0.065 H 
ATOM     90  C   UNL     1     -16.441   2.754  -0.678  1.00  0.00     0.049 A 
ATOM     91  H   UNL     1     -14.474   3.492  -0.478  1.00  0.00     0.167 HD
ATOM     92  C   UNL     1     -15.585   2.816  -3.008  1.00  0.00     0.074 A 
ATOM     93  C   UNL     1     -15.715   2.597  -4.434  1.00  0.00    -0.034 C 
ATOM     94  H   UNL     1     -14.378   2.829  -6.081  1.00  0.00     0.065 H 
ATOM     95  H   UNL     1     -18.323   2.107   0.157  1.00  0.00     0.065 H 
ATOM     96  C   UNL     1     -16.561   2.561  -2.102  1.00  0.00     0.037 A 
ATOM     97  H   UNL     1     -16.569   2.244  -4.893  1.00  0.00     0.065 H 
BRANCH  78  98
ATOM     98  C   UNL     1     -14.940   3.688   3.762  1.00  0.00     0.064 A 
ATOM     99  C   UNL     1     -15.087   4.846   4.542  1.00  0.00     0.173 A 
ATOM    100  C   UNL     1     -15.138   2.449   4.390  1.00  0.00     0.173 A 
ATOM    101  F   UNL     1     -14.900   6.057   3.995  1.00  0.00    -0.203 F 
ATOM    102  C   UNL     1     -15.366   4.764   5.904  1.00  0.00     0.198 A 
ATOM    103  C   UNL     1     -15.456   2.372   5.744  1.00  0.00     0.198 A 
ATOM    104  F   UNL     1     -15.021   1.309   3.693  1.00  0.00    -0.203 F 
ATOM    105  F   UNL     1     -15.426   5.882   6.642  1.00  0.00    -0.200 F 
ATOM    106  C   UNL     1     -15.555   3.529   6.503  1.00  0.00     0.200 A 
ATOM    107  F   UNL     1     -15.655   1.177   6.317  1.00  0.00    -0.200 F 
ATOM    108  F   UNL     1     -15.821   3.451   7.814  1.00  0.00    -0.200 F 
ENDBRANCH  78  98
BRANCH  81 109
ATOM    109  C   UNL     1     -11.909   3.891  -5.758  1.00  0.00     0.064 A 
ATOM    110  C   UNL     1     -12.459   4.755  -6.715  1.00  0.00     0.173 A 
ATOM    111  C   UNL     1     -10.877   3.035  -6.169  1.00  0.00     0.173 A 
ATOM    112  F   UNL     1     -13.461   5.580  -6.375  1.00  0.00    -0.203 F 
ATOM    113  C   UNL     1     -12.001   4.758  -8.031  1.00  0.00     0.198 A 
ATOM    114  C   UNL     1     -10.401   3.058  -7.479  1.00  0.00     0.198 A 
ATOM    115  F   UNL     1     -10.311   2.194  -5.290  1.00  0.00    -0.203 F 
ATOM    116  F   UNL     1     -12.565   5.573  -8.933  1.00  0.00    -0.200 F 
ATOM    117  C   UNL     1     -10.966   3.916  -8.409  1.00  0.00     0.200 A 
ATOM    118  F   UNL     1      -9.389   2.256  -7.835  1.00  0.00    -0.200 F 
ATOM    119  F   UNL     1     -10.515   3.930  -9.671  1.00  0.00    -0.200 F 
ENDBRANCH  81 109
BRANCH  96 120
ATOM    120  C   UNL     1     -17.885   2.075  -2.619  1.00  0.00     0.064 A 
ATOM    121  C   UNL     1     -18.060   0.772  -3.104  1.00  0.00     0.173 A 
ATOM    122  C   UNL     1     -19.014   2.907  -2.546  1.00  0.00     0.173 A 
ATOM    123  F   UNL     1     -17.011  -0.058  -3.207  1.00  0.00    -0.203 F 
ATOM    124  C   UNL     1     -19.315   0.323  -3.508  1.00  0.00     0.198 A 
ATOM    125  C   UNL     1     -20.271   2.445  -2.922  1.00  0.00     0.198 A 
ATOM    126  F   UNL     1     -18.900   4.161  -2.083  1.00  0.00    -0.203 F 
ATOM    127  F   UNL     1     -19.455  -0.916  -3.999  1.00  0.00    -0.200 F 
ATOM    128  C   UNL     1     -20.421   1.155  -3.405  1.00  0.00     0.200 A 
ATOM    129  F   UNL     1     -21.340   3.246  -2.805  1.00  0.00    -0.200 F 
ATOM    130  F   UNL     1     -21.631   0.713  -3.775  1.00  0.00    -0.200 F 
ENDBRANCH  96 120
ENDBRANCH  61  64
ENDBRANCH  51  54
ENDBRANCH  47  50
ENDBRANCH  44  47
ENDBRANCH   1  44
TORSDOF 15
