REMARK SMILES O=C(Cc1cccn1-c1ccccc1F)NCCCCCCNC(=O)c1ccc(-c2c3nc(c(-c4c(F)c(F)c(F)c(F)c4F)c4ccc([nH]4)c(-c4c(F)c(F)c(F)c(F)c4F)c4nc(c(-c5c(F)c(F)c(F)c(F)c5F)c5ccc2[nH]5)C=C4)C=C3)cc1
REMARK SMILES IDX 19 1 18 4 17 7 16 10 1 11 2 12 3 14 4 17 5 18 8 19 6 20 7 22
REMARK SMILES IDX 9 25 10 26 14 27 11 28 13 30 15 31 12 32 20 36 21 39 22 42
REMARK SMILES IDX 23 45 24 46 25 48 26 49 27 50 88 51 28 52 87 54 29 56 30 59
REMARK SMILES IDX 31 60 81 61 32 62 86 63 80 64 82 65 33 66 85 67 79 69 78 71
REMARK SMILES IDX 34 73 66 76 46 77 65 78 47 79 50 80 64 81 83 82 48 83 49 85
REMARK SMILES IDX 63 87 84 88 51 91 35 93 36 94 44 95 37 96 38 97 42 98 45 99
REMARK SMILES IDX 39 100 40 101 43 102 41 103 67 104 68 105 76 106 69 107
REMARK SMILES IDX 70 108 74 109 77 110 71 111 72 112 75 113 73 114 52 115
REMARK SMILES IDX 53 116 61 117 54 118 55 119 59 120 62 121 56 122 57 123
REMARK SMILES IDX 60 124 58 125
REMARK H PARENT 19 2 19 3 18 5 18 6 17 8 17 9 16 13 3 15 3 16 5 21 6 23 7 24
REMARK H PARENT 10 29 11 33 13 34 12 35 20 37 20 38 21 40 21 41 22 43 22 44
REMARK H PARENT 23 47 27 53 88 55 28 57 87 58 86 68 80 70 82 72 85 74 79 75
REMARK H PARENT 47 84 50 86 83 89 48 90 84 92
REMARK Flexibility Score: inf
ROOT
ATOM      1  C   UNL     1       3.797  -3.428  -2.254  1.00  0.00    -0.052 C 
ATOM      2  H   UNL     1       4.417  -2.558  -2.198  1.00  0.00     0.027 H 
ATOM      3  H   UNL     1       3.811  -3.942  -3.193  1.00  0.00     0.027 H 
ENDROOT
BRANCH   1   4
ATOM      4  C   UNL     1       2.343  -2.968  -2.084  1.00  0.00    -0.036 C 
ATOM      5  H   UNL     1       2.115  -2.314  -2.900  1.00  0.00     0.028 H 
ATOM      6  H   UNL     1       1.770  -3.871  -2.053  1.00  0.00     0.028 H 
BRANCH   4   7
ATOM      7  C   UNL     1       1.987  -2.230  -0.789  1.00  0.00     0.017 C 
ATOM      8  H   UNL     1       0.929  -2.074  -0.771  1.00  0.00     0.049 H 
ATOM      9  H   UNL     1       2.329  -2.842   0.019  1.00  0.00     0.049 H 
BRANCH   7  10
ATOM     10  N   UNL     1       2.640  -0.942  -0.644  1.00  0.00    -0.356 N 
ATOM     11  O   UNL     1       1.091  -0.098   0.834  1.00  0.00    -0.275 OA
ATOM     12  C   UNL     1       2.140   0.033   0.208  1.00  0.00     0.225 C 
ATOM     13  H   UNL     1       3.456  -0.755  -1.161  1.00  0.00     0.163 HD
BRANCH  12  14
ATOM     14  C   UNL     1       3.002   1.286   0.299  1.00  0.00     0.067 C 
ATOM     15  H   UNL     1       2.378   2.129   0.088  1.00  0.00     0.043 H 
ATOM     16  H   UNL     1       3.795   1.145  -0.405  1.00  0.00     0.043 H 
BRANCH  14  17
ATOM     17  C   UNL     1       3.670   1.525   1.628  1.00  0.00     0.032 A 
ATOM     18  C   UNL     1       4.149   2.740   2.106  1.00  0.00    -0.040 A 
ATOM     19  N   UNL     1       3.952   0.576   2.598  1.00  0.00    -0.318 N 
ATOM     20  C   UNL     1       4.719   2.528   3.380  1.00  0.00    -0.044 A 
ATOM     21  H   UNL     1       4.097   3.644   1.612  1.00  0.00     0.064 H 
ATOM     22  C   UNL     1       4.547   1.199   3.676  1.00  0.00     0.009 A 
ATOM     23  H   UNL     1       5.177   3.237   3.974  1.00  0.00     0.064 H 
ATOM     24  H   UNL     1       4.818   0.741   4.560  1.00  0.00     0.082 H 
BRANCH  19  25
ATOM     25  C   UNL     1       3.927  -0.821   2.489  1.00  0.00     0.081 A 
ATOM     26  C   UNL     1       3.011  -1.566   3.237  1.00  0.00    -0.035 A 
ATOM     27  C   UNL     1       4.925  -1.443   1.750  1.00  0.00     0.147 A 
ATOM     28  C   UNL     1       3.078  -2.959   3.191  1.00  0.00    -0.060 A 
ATOM     29  H   UNL     1       2.297  -1.094   3.813  1.00  0.00     0.065 H 
ATOM     30  C   UNL     1       5.040  -2.824   1.777  1.00  0.00    -0.024 A 
ATOM     31  F   UNL     1       5.795  -0.732   1.018  1.00  0.00    -0.205 F 
ATOM     32  C   UNL     1       4.097  -3.587   2.471  1.00  0.00    -0.059 A 
ATOM     33  H   UNL     1       2.374  -3.526   3.689  1.00  0.00     0.062 H 
ATOM     34  H   UNL     1       5.820  -3.287   1.286  1.00  0.00     0.065 H 
ATOM     35  H   UNL     1       4.155  -4.618   2.452  1.00  0.00     0.062 H 
ENDBRANCH  19  25
ENDBRANCH  14  17
ENDBRANCH  12  14
ENDBRANCH   7  10
ENDBRANCH   4   7
ENDBRANCH   1   4
BRANCH   1  36
ATOM     36  C   UNL     1       4.342  -4.444  -1.248  1.00  0.00    -0.052 C 
ATOM     37  H   UNL     1       4.444  -3.934  -0.313  1.00  0.00     0.027 H 
ATOM     38  H   UNL     1       5.244  -4.796  -1.703  1.00  0.00     0.027 H 
BRANCH  36  39
ATOM     39  C   UNL     1       3.545  -5.724  -0.977  1.00  0.00    -0.036 C 
ATOM     40  H   UNL     1       2.504  -5.502  -1.085  1.00  0.00     0.028 H 
ATOM     41  H   UNL     1       3.796  -6.043   0.013  1.00  0.00     0.028 H 
BRANCH  39  42
ATOM     42  C   UNL     1       3.890  -6.875  -1.914  1.00  0.00     0.018 C 
ATOM     43  H   UNL     1       3.750  -6.554  -2.925  1.00  0.00     0.049 H 
ATOM     44  H   UNL     1       3.248  -7.699  -1.683  1.00  0.00     0.049 H 
BRANCH  42  45
ATOM     45  N   UNL     1       5.273  -7.309  -1.741  1.00  0.00    -0.352 N 
ATOM     46  C   UNL     1       6.060  -8.080  -2.566  1.00  0.00     0.251 C 
ATOM     47  H   UNL     1       5.707  -7.006  -0.912  1.00  0.00     0.163 HD
ATOM     48  O   UNL     1       7.095  -8.575  -2.160  1.00  0.00    -0.269 OA
BRANCH  46  49
ATOM     49  C   UNL     1       5.608  -8.341  -3.943  1.00  0.00     0.039 A 
ATOM     50  C   UNL     1       5.600  -9.662  -4.400  1.00  0.00    -0.049 A 
ATOM     51  C   UNL     1       5.176  -7.289  -4.755  1.00  0.00    -0.049 A 
ATOM     52  C   UNL     1       5.054  -9.941  -5.644  1.00  0.00    -0.053 A 
ATOM     53  H   UNL     1       5.996 -10.419  -3.821  1.00  0.00     0.063 H 
ATOM     54  C   UNL     1       4.579  -7.569  -5.972  1.00  0.00    -0.053 A 
ATOM     55  H   UNL     1       5.301  -6.311  -4.450  1.00  0.00     0.063 H 
ATOM     56  C   UNL     1       4.502  -8.898  -6.402  1.00  0.00    -0.014 A 
ATOM     57  H   UNL     1       5.053 -10.906  -6.008  1.00  0.00     0.063 H 
ATOM     58  H   UNL     1       4.197  -6.807  -6.555  1.00  0.00     0.063 H 
BRANCH  56  59
ATOM     59  C   UNL     1       3.726  -9.240  -7.609  1.00  0.00     0.031 A 
ATOM     60  C   UNL     1       2.356  -9.846  -7.263  1.00  0.00     0.074 A 
ATOM     61  C   UNL     1       4.347  -8.993  -8.800  1.00  0.00     0.049 A 
ATOM     62  N   UNL     1       1.625 -10.691  -7.922  1.00  0.00    -0.248 NA
ATOM     63  C   UNL     1       1.732  -9.514  -5.951  1.00  0.00    -0.034 C 
ATOM     64  C   UNL     1       5.671  -8.349  -8.922  1.00  0.00    -0.036 A 
ATOM     65  N   UNL     1       4.030  -9.220 -10.123  1.00  0.00    -0.354 N 
ATOM     66  C   UNL     1       0.413 -10.861  -7.214  1.00  0.00     0.074 A 
ATOM     67  C   UNL     1       0.586 -10.200  -5.957  1.00  0.00    -0.034 C 
ATOM     68  H   UNL     1       2.101  -8.898  -5.210  1.00  0.00     0.065 H 
ATOM     69  C   UNL     1       6.071  -8.312 -10.207  1.00  0.00    -0.036 A 
ATOM     70  H   UNL     1       6.216  -7.978  -8.129  1.00  0.00     0.065 H 
ATOM     71  C   UNL     1       5.066  -8.924 -11.049  1.00  0.00     0.049 A 
ATOM     72  H   UNL     1       3.151  -9.562 -10.405  1.00  0.00     0.167 HD
ATOM     73  C   UNL     1      -0.699 -11.434  -7.769  1.00  0.00     0.037 A 
ATOM     74  H   UNL     1      -0.079 -10.246  -5.169  1.00  0.00     0.065 H 
ATOM     75  H   UNL     1       6.961  -7.908 -10.541  1.00  0.00     0.065 H 
ATOM     76  C   UNL     1       5.140  -9.211 -12.385  1.00  0.00     0.037 A 
ATOM     77  C   UNL     1      -0.415 -11.842  -9.103  1.00  0.00     0.049 A 
ATOM     78  C   UNL     1       3.824  -9.772 -12.735  1.00  0.00     0.074 A 
ATOM     79  C   UNL     1       0.326 -12.876  -9.610  1.00  0.00    -0.036 A 
ATOM     80  N   UNL     1      -0.632 -10.916 -10.094  1.00  0.00    -0.354 N 
ATOM     81  N   UNL     1       2.719  -9.089 -12.807  1.00  0.00    -0.248 NA
ATOM     82  C   UNL     1       3.703 -11.227 -12.893  1.00  0.00    -0.034 C 
ATOM     83  C   UNL     1       0.935 -12.313 -10.750  1.00  0.00    -0.036 A 
ATOM     84  H   UNL     1       0.417 -13.837  -9.245  1.00  0.00     0.065 H 
ATOM     85  C   UNL     1       0.382 -11.054 -11.008  1.00  0.00     0.049 A 
ATOM     86  H   UNL     1      -1.376 -10.273 -10.139  1.00  0.00     0.167 HD
ATOM     87  C   UNL     1       1.762 -10.070 -12.687  1.00  0.00     0.074 A 
ATOM     88  C   UNL     1       2.388 -11.317 -13.060  1.00  0.00    -0.034 C 
ATOM     89  H   UNL     1       4.426 -11.963 -12.879  1.00  0.00     0.065 H 
ATOM     90  H   UNL     1       1.676 -12.763 -11.310  1.00  0.00     0.065 H 
ATOM     91  C   UNL     1       0.744  -9.906 -11.805  1.00  0.00     0.037 A 
ATOM     92  H   UNL     1       1.888 -12.152 -13.404  1.00  0.00     0.065 H 
BRANCH  73  93
ATOM     93  C   UNL     1      -2.141 -11.498  -7.340  1.00  0.00     0.064 A 
ATOM     94  C   UNL     1      -2.792 -10.465  -6.656  1.00  0.00     0.173 A 
ATOM     95  C   UNL     1      -2.980 -12.470  -7.944  1.00  0.00     0.173 A 
ATOM     96  F   UNL     1      -2.100  -9.483  -6.065  1.00  0.00    -0.203 F 
ATOM     97  C   UNL     1      -4.189 -10.362  -6.652  1.00  0.00     0.198 A 
ATOM     98  C   UNL     1      -4.367 -12.338  -7.979  1.00  0.00     0.198 A 
ATOM     99  F   UNL     1      -2.457 -13.529  -8.583  1.00  0.00    -0.203 F 
ATOM    100  F   UNL     1      -4.774  -9.328  -6.030  1.00  0.00    -0.200 F 
ATOM    101  C   UNL     1      -4.971 -11.271  -7.346  1.00  0.00     0.200 A 
ATOM    102  F   UNL     1      -5.106 -13.209  -8.682  1.00  0.00    -0.200 F 
ATOM    103  F   UNL     1      -6.297 -11.098  -7.433  1.00  0.00    -0.200 F 
ENDBRANCH  73  93
BRANCH  76 104
ATOM    104  C   UNL     1       6.218  -9.237 -13.450  1.00  0.00     0.064 A 
ATOM    105  C   UNL     1       5.995  -9.947 -14.665  1.00  0.00     0.173 A 
ATOM    106  C   UNL     1       7.508  -8.703 -13.339  1.00  0.00     0.173 A 
ATOM    107  F   UNL     1       4.773 -10.363 -15.022  1.00  0.00    -0.203 F 
ATOM    108  C   UNL     1       7.009 -10.271 -15.567  1.00  0.00     0.198 A 
ATOM    109  C   UNL     1       8.523  -8.989 -14.272  1.00  0.00     0.198 A 
ATOM    110  F   UNL     1       7.834  -7.866 -12.351  1.00  0.00    -0.203 F 
ATOM    111  F   UNL     1       6.734 -11.052 -16.622  1.00  0.00    -0.200 F 
ATOM    112  C   UNL     1       8.285  -9.812 -15.357  1.00  0.00     0.200 A 
ATOM    113  F   UNL     1       9.747  -8.470 -14.099  1.00  0.00    -0.200 F 
ATOM    114  F   UNL     1       9.271 -10.142 -16.201  1.00  0.00    -0.200 F 
ENDBRANCH  76 104
BRANCH  91 115
ATOM    115  C   UNL     1       0.411  -8.460 -11.503  1.00  0.00     0.064 A 
ATOM    116  C   UNL     1       0.649  -7.837 -10.267  1.00  0.00     0.173 A 
ATOM    117  C   UNL     1      -0.071  -7.630 -12.526  1.00  0.00     0.173 A 
ATOM    118  F   UNL     1       1.105  -8.537  -9.231  1.00  0.00    -0.203 F 
ATOM    119  C   UNL     1       0.424  -6.475 -10.057  1.00  0.00     0.198 A 
ATOM    120  C   UNL     1      -0.291  -6.264 -12.324  1.00  0.00     0.198 A 
ATOM    121  F   UNL     1      -0.339  -8.148 -13.735  1.00  0.00    -0.203 F 
ATOM    122  F   UNL     1       0.654  -5.934  -8.850  1.00  0.00    -0.200 F 
ATOM    123  C   UNL     1      -0.043  -5.687 -11.089  1.00  0.00     0.200 A 
ATOM    124  F   UNL     1      -0.754  -5.508 -13.328  1.00  0.00    -0.200 F 
ATOM    125  F   UNL     1      -0.270  -4.380 -10.891  1.00  0.00    -0.200 F 
ENDBRANCH  91 115
ENDBRANCH  56  59
ENDBRANCH  46  49
ENDBRANCH  42  45
ENDBRANCH  39  42
ENDBRANCH  36  39
ENDBRANCH   1  36
TORSDOF 15
