REMARK SMILES C[C@@H](C(=O)NCCCCCCNC(=O)c1ccc(-c2c3nc(c(-c4c(F)c(F)c(F)c(F)c4F)c4ccc([nH]4)c(-c4c(F)c(F)c(F)c(F)c4F)c4nc(c(-c5c(F)c(F)c(F)c(F)c5F)c5ccc2[nH]5)C=C4)C=C3)cc1)c1ccc(Cc2ccco2)cc1F
REMARK SMILES IDX 8 1 7 4 6 7 5 10 3 11 4 12 2 14 1 16 78 20 79 21 89 22 80 23
REMARK SMILES IDX 88 25 90 26 81 27 82 30 83 33 84 34 87 35 85 36 86 38 9 41
REMARK SMILES IDX 10 44 11 47 12 50 13 51 14 53 15 54 16 55 77 56 17 57 76 59
REMARK SMILES IDX 18 61 19 64 20 65 70 66 21 67 75 68 69 69 71 70 22 71 74 72
REMARK SMILES IDX 68 74 67 76 23 78 55 81 35 82 54 83 36 84 39 85 53 86 72 87
REMARK SMILES IDX 37 88 38 90 52 92 73 93 40 96 24 98 25 99 33 100 26 101
REMARK SMILES IDX 27 102 31 103 34 104 28 105 29 106 32 107 30 108 56 109
REMARK SMILES IDX 57 110 65 111 58 112 59 113 63 114 66 115 60 116 61 117
REMARK SMILES IDX 64 118 62 119 41 120 42 121 50 122 43 123 44 124 48 125
REMARK SMILES IDX 51 126 45 127 46 128 49 129 47 130
REMARK H PARENT 8 2 8 3 7 5 7 6 6 8 6 9 5 13 2 15 1 17 1 18 1 19 79 24 80 28
REMARK H PARENT 88 29 82 31 82 32 84 37 85 39 86 40 9 42 9 43 10 45 10 46
REMARK H PARENT 11 48 11 49 12 52 16 58 77 60 17 62 76 63 75 73 69 75 71 77
REMARK H PARENT 74 79 68 80 36 89 39 91 72 94 37 95 73 97
REMARK Flexibility Score: inf
ROOT
ATOM      1  C   UNL     1       4.958  -2.164  -1.937  1.00  0.00    -0.052 C 
ATOM      2  H   UNL     1       4.215  -2.767  -2.415  1.00  0.00     0.027 H 
ATOM      3  H   UNL     1       5.587  -2.708  -1.264  1.00  0.00     0.027 H 
ENDROOT
BRANCH   1   4
ATOM      4  C   UNL     1       4.237  -1.112  -1.083  1.00  0.00    -0.036 C 
ATOM      5  H   UNL     1       3.582  -1.622  -0.408  1.00  0.00     0.028 H 
ATOM      6  H   UNL     1       4.999  -0.551  -0.584  1.00  0.00     0.028 H 
BRANCH   4   7
ATOM      7  C   UNL     1       3.409  -0.105  -1.883  1.00  0.00     0.017 C 
ATOM      8  H   UNL     1       2.999   0.621  -1.212  1.00  0.00     0.049 H 
ATOM      9  H   UNL     1       4.048   0.364  -2.602  1.00  0.00     0.049 H 
BRANCH   7  10
ATOM     10  N   UNL     1       2.328  -0.759  -2.589  1.00  0.00    -0.356 N 
ATOM     11  C   UNL     1       0.985  -0.769  -2.350  1.00  0.00     0.227 C 
ATOM     12  O   UNL     1       0.296  -1.417  -3.141  1.00  0.00    -0.274 OA
ATOM     13  H   UNL     1       2.609  -1.284  -3.373  1.00  0.00     0.163 HD
BRANCH  11  14
ATOM     14  C   UNL     1       0.397   0.065  -1.200  1.00  0.00     0.063 C 
ATOM     15  H   UNL     1       0.795   1.046  -1.351  1.00  0.00     0.045 H 
BRANCH  14  16
ATOM     16  C   UNL     1       0.837  -0.404   0.192  1.00  0.00    -0.049 C 
ATOM     17  H   UNL     1       1.905  -0.448   0.232  1.00  0.00     0.024 H 
ATOM     18  H   UNL     1       0.433  -1.376   0.385  1.00  0.00     0.024 H 
ATOM     19  H   UNL     1       0.481   0.284   0.929  1.00  0.00     0.024 H 
ENDBRANCH  14  16
BRANCH  14  20
ATOM     20  C   UNL     1      -1.124   0.127  -1.253  1.00  0.00    -0.000 A 
ATOM     21  C   UNL     1      -1.776   1.337  -1.525  1.00  0.00    -0.055 A 
ATOM     22  C   UNL     1      -1.909  -1.009  -1.014  1.00  0.00     0.127 A 
ATOM     23  C   UNL     1      -3.173   1.404  -1.529  1.00  0.00    -0.058 A 
ATOM     24  H   UNL     1      -1.222   2.185  -1.722  1.00  0.00     0.063 H 
ATOM     25  C   UNL     1      -3.300  -0.946  -1.006  1.00  0.00    -0.022 A 
ATOM     26  F   UNL     1      -1.326  -2.188  -0.756  1.00  0.00    -0.207 F 
ATOM     27  C   UNL     1      -3.950   0.268  -1.254  1.00  0.00    -0.038 A 
ATOM     28  H   UNL     1      -3.639   2.301  -1.737  1.00  0.00     0.063 H 
ATOM     29  H   UNL     1      -3.852  -1.797  -0.817  1.00  0.00     0.066 H 
BRANCH  27  30
ATOM     30  C   UNL     1      -5.458   0.354  -1.203  1.00  0.00     0.031 C 
ATOM     31  H   UNL     1      -5.858  -0.637  -1.252  1.00  0.00     0.040 H 
ATOM     32  H   UNL     1      -5.771   0.955  -2.031  1.00  0.00     0.040 H 
BRANCH  30  33
ATOM     33  C   UNL     1      -5.966   1.008   0.037  1.00  0.00     0.108 A 
ATOM     34  C   UNL     1      -5.830   2.274   0.572  1.00  0.00    -0.020 A 
ATOM     35  O   UNL     1      -6.763   0.250   0.845  1.00  0.00    -0.469 OA
ATOM     36  C   UNL     1      -6.577   2.286   1.774  1.00  0.00    -0.024 A 
ATOM     37  H   UNL     1      -5.290   3.058   0.173  1.00  0.00     0.066 H 
ATOM     38  C   UNL     1      -7.126   1.032   1.894  1.00  0.00     0.091 A 
ATOM     39  H   UNL     1      -6.686   3.077   2.428  1.00  0.00     0.066 H 
ATOM     40  H   UNL     1      -7.731   0.728   2.673  1.00  0.00     0.104 H 
ENDBRANCH  30  33
ENDBRANCH  27  30
ENDBRANCH  14  20
ENDBRANCH  11  14
ENDBRANCH   7  10
ENDBRANCH   4   7
ENDBRANCH   1   4
BRANCH   1  41
ATOM     41  C   UNL     1       5.885  -1.607  -3.023  1.00  0.00    -0.052 C 
ATOM     42  H   UNL     1       5.279  -1.113  -3.753  1.00  0.00     0.027 H 
ATOM     43  H   UNL     1       6.424  -2.446  -3.410  1.00  0.00     0.027 H 
BRANCH  41  44
ATOM     44  C   UNL     1       6.941  -0.614  -2.534  1.00  0.00    -0.036 C 
ATOM     45  H   UNL     1       6.435   0.237  -2.128  1.00  0.00     0.028 H 
ATOM     46  H   UNL     1       7.549  -0.380  -3.383  1.00  0.00     0.028 H 
BRANCH  44  47
ATOM     47  C   UNL     1       7.887  -1.156  -1.468  1.00  0.00     0.018 C 
ATOM     48  H   UNL     1       7.306  -1.516  -0.644  1.00  0.00     0.049 H 
ATOM     49  H   UNL     1       8.535  -0.358  -1.170  1.00  0.00     0.049 H 
BRANCH  47  50
ATOM     50  N   UNL     1       8.717  -2.239  -1.964  1.00  0.00    -0.352 N 
ATOM     51  C   UNL     1      10.065  -2.437  -1.817  1.00  0.00     0.251 C 
ATOM     52  H   UNL     1       8.243  -2.931  -2.480  1.00  0.00     0.163 HD
ATOM     53  O   UNL     1      10.628  -3.329  -2.450  1.00  0.00    -0.269 OA
BRANCH  51  54
ATOM     54  C   UNL     1      10.856  -1.575  -0.911  1.00  0.00     0.039 A 
ATOM     55  C   UNL     1      12.119  -1.145  -1.329  1.00  0.00    -0.049 A 
ATOM     56  C   UNL     1      10.385  -1.230   0.359  1.00  0.00    -0.049 A 
ATOM     57  C   UNL     1      12.898  -0.349  -0.486  1.00  0.00    -0.053 A 
ATOM     58  H   UNL     1      12.476  -1.415  -2.259  1.00  0.00     0.063 H 
ATOM     59  C   UNL     1      11.133  -0.381   1.173  1.00  0.00    -0.053 A 
ATOM     60  H   UNL     1       9.483  -1.604   0.695  1.00  0.00     0.063 H 
ATOM     61  C   UNL     1      12.406   0.048   0.768  1.00  0.00    -0.014 A 
ATOM     62  H   UNL     1      13.839  -0.052  -0.786  1.00  0.00     0.063 H 
ATOM     63  H   UNL     1      10.749  -0.067   2.077  1.00  0.00     0.063 H 
BRANCH  61  64
ATOM     64  C   UNL     1      13.236   0.864   1.688  1.00  0.00     0.031 A 
ATOM     65  C   UNL     1      13.724   0.270   2.982  1.00  0.00     0.074 A 
ATOM     66  C   UNL     1      13.518   2.145   1.384  1.00  0.00     0.049 A 
ATOM     67  N   UNL     1      14.430   0.825   3.936  1.00  0.00    -0.248 NA
ATOM     68  C   UNL     1      13.345  -1.125   3.252  1.00  0.00    -0.034 C 
ATOM     69  C   UNL     1      13.066   2.848   0.183  1.00  0.00    -0.036 A 
ATOM     70  N   UNL     1      14.250   3.084   2.065  1.00  0.00    -0.354 N 
ATOM     71  C   UNL     1      14.555  -0.143   4.924  1.00  0.00     0.074 A 
ATOM     72  C   UNL     1      13.816  -1.303   4.478  1.00  0.00    -0.034 C 
ATOM     73  H   UNL     1      12.843  -1.792   2.645  1.00  0.00     0.065 H 
ATOM     74  C   UNL     1      13.552   4.099   0.199  1.00  0.00    -0.036 A 
ATOM     75  H   UNL     1      12.468   2.446  -0.556  1.00  0.00     0.065 H 
ATOM     76  C   UNL     1      14.328   4.294   1.420  1.00  0.00     0.049 A 
ATOM     77  H   UNL     1      14.679   2.908   2.933  1.00  0.00     0.167 HD
ATOM     78  C   UNL     1      15.245  -0.079   6.088  1.00  0.00     0.037 A 
ATOM     79  H   UNL     1      13.673  -2.156   5.040  1.00  0.00     0.065 H 
ATOM     80  H   UNL     1      13.402   4.809  -0.535  1.00  0.00     0.065 H 
ATOM     81  C   UNL     1      14.962   5.428   1.774  1.00  0.00     0.037 A 
ATOM     82  C   UNL     1      16.018   1.059   6.508  1.00  0.00     0.049 A 
ATOM     83  C   UNL     1      15.750   5.462   3.056  1.00  0.00     0.074 A 
ATOM     84  C   UNL     1      16.807   1.200   7.637  1.00  0.00    -0.036 A 
ATOM     85  N   UNL     1      16.103   2.254   5.810  1.00  0.00    -0.354 N 
ATOM     86  N   UNL     1      15.918   4.518   3.950  1.00  0.00    -0.248 NA
ATOM     87  C   UNL     1      16.447   6.717   3.370  1.00  0.00    -0.034 C 
ATOM     88  C   UNL     1      17.342   2.492   7.638  1.00  0.00    -0.036 A 
ATOM     89  H   UNL     1      16.971   0.476   8.354  1.00  0.00     0.065 H 
ATOM     90  C   UNL     1      16.922   3.142   6.489  1.00  0.00     0.049 A 
ATOM     91  H   UNL     1      15.649   2.444   4.957  1.00  0.00     0.167 HD
ATOM     92  C   UNL     1      16.768   5.049   4.910  1.00  0.00     0.074 A 
ATOM     93  C   UNL     1      17.086   6.397   4.487  1.00  0.00    -0.034 C 
ATOM     94  H   UNL     1      16.440   7.612   2.857  1.00  0.00     0.065 H 
ATOM     95  H   UNL     1      17.948   2.894   8.371  1.00  0.00     0.065 H 
ATOM     96  C   UNL     1      17.244   4.472   6.041  1.00  0.00     0.037 A 
ATOM     97  H   UNL     1      17.729   7.028   4.990  1.00  0.00     0.065 H 
BRANCH  78  98
ATOM     98  C   UNL     1      15.197  -1.279   6.988  1.00  0.00     0.064 A 
ATOM     99  C   UNL     1      15.846  -2.477   6.654  1.00  0.00     0.173 A 
ATOM    100  C   UNL     1      14.513  -1.223   8.212  1.00  0.00     0.173 A 
ATOM    101  F   UNL     1      16.503  -2.587   5.489  1.00  0.00    -0.203 F 
ATOM    102  C   UNL     1      15.786  -3.584   7.497  1.00  0.00     0.198 A 
ATOM    103  C   UNL     1      14.479  -2.322   9.066  1.00  0.00     0.198 A 
ATOM    104  F   UNL     1      13.879  -0.100   8.582  1.00  0.00    -0.203 F 
ATOM    105  F   UNL     1      16.369  -4.734   7.132  1.00  0.00    -0.200 F 
ATOM    106  C   UNL     1      15.108  -3.504   8.704  1.00  0.00     0.200 A 
ATOM    107  F   UNL     1      13.834  -2.240  10.237  1.00  0.00    -0.200 F 
ATOM    108  F   UNL     1      15.053  -4.569   9.515  1.00  0.00    -0.200 F 
ENDBRANCH  78  98
BRANCH  81 109
ATOM    109  C   UNL     1      14.923   6.611   0.877  1.00  0.00     0.064 A 
ATOM    110  C   UNL     1      16.065   7.010   0.169  1.00  0.00     0.173 A 
ATOM    111  C   UNL     1      13.754   7.366   0.711  1.00  0.00     0.173 A 
ATOM    112  F   UNL     1      17.212   6.330   0.312  1.00  0.00    -0.203 F 
ATOM    113  C   UNL     1      16.046   8.134  -0.654  1.00  0.00     0.198 A 
ATOM    114  C   UNL     1      13.728   8.475  -0.132  1.00  0.00     0.198 A 
ATOM    115  F   UNL     1      12.633   7.022   1.362  1.00  0.00    -0.203 F 
ATOM    116  F   UNL     1      17.164   8.519  -1.284  1.00  0.00    -0.200 F 
ATOM    117  C   UNL     1      14.876   8.863  -0.808  1.00  0.00     0.200 A 
ATOM    118  F   UNL     1      12.594   9.170  -0.288  1.00  0.00    -0.200 F 
ATOM    119  F   UNL     1      14.857   9.942  -1.601  1.00  0.00    -0.200 F 
ENDBRANCH  81 109
BRANCH  96 120
ATOM    120  C   UNL     1      18.200   5.275   6.872  1.00  0.00     0.064 A 
ATOM    121  C   UNL     1      17.772   6.365   7.643  1.00  0.00     0.173 A 
ATOM    122  C   UNL     1      19.559   4.926   6.921  1.00  0.00     0.173 A 
ATOM    123  F   UNL     1      16.486   6.746   7.617  1.00  0.00    -0.203 F 
ATOM    124  C   UNL     1      18.675   7.094   8.413  1.00  0.00     0.198 A 
ATOM    125  C   UNL     1      20.453   5.640   7.713  1.00  0.00     0.198 A 
ATOM    126  F   UNL     1      20.016   3.887   6.206  1.00  0.00    -0.203 F 
ATOM    127  F   UNL     1      18.253   8.161   9.105  1.00  0.00    -0.200 F 
ATOM    128  C   UNL     1      20.012   6.727   8.452  1.00  0.00     0.200 A 
ATOM    129  F   UNL     1      21.742   5.277   7.759  1.00  0.00    -0.200 F 
ATOM    130  F   UNL     1      20.878   7.428   9.197  1.00  0.00    -0.200 F 
ENDBRANCH  96 120
ENDBRANCH  61  64
ENDBRANCH  51  54
ENDBRANCH  47  50
ENDBRANCH  44  47
ENDBRANCH  41  44
ENDBRANCH   1  41
TORSDOF 17
