REMARK SMILES O=C(CCCc1nc(-c2ccc(Cl)c(Cl)c2)c(-c2ccccc2)o1)NCCCCCCNC(=O)c1ccc(-c2c3nc(c(-c4c(F)c(F)c(F)c(F)c4F)c4ccc([nH]4)c(-c4c(F)c(F)c(F)c(F)c4F)c4nc(c(-c5c(F)c(F)c(F)c(F)c5F)c5ccc2[nH]5)C=C4)C=C3)cc1
REMARK SMILES IDX 27 1 26 4 25 7 1 8 2 9 3 11 4 14 5 17 6 20 7 21 24 22 8 23
REMARK SMILES IDX 17 24 9 25 10 26 16 27 11 28 14 30 12 32 15 34 13 35 18 36
REMARK SMILES IDX 19 37 23 38 20 39 22 41 21 43 28 47 29 50 30 53 31 56 32 59
REMARK SMILES IDX 33 60 34 62 35 63 36 64 97 65 37 66 96 68 38 70 39 73 40 74
REMARK SMILES IDX 90 75 41 76 95 77 89 78 91 79 42 80 94 81 88 83 87 85 43 87
REMARK SMILES IDX 75 90 55 91 74 92 56 93 59 94 73 95 92 96 57 97 58 99 72 101
REMARK SMILES IDX 93 102 60 105 44 107 45 108 53 109 46 110 47 111 51 112
REMARK SMILES IDX 54 113 48 114 49 115 52 116 50 117 76 118 77 119 85 120
REMARK SMILES IDX 78 121 79 122 83 123 86 124 80 125 81 126 84 127 82 128
REMARK SMILES IDX 61 129 62 130 70 131 63 132 64 133 68 134 71 135 65 136
REMARK SMILES IDX 66 137 69 138 67 139
REMARK H PARENT 27 2 27 3 26 5 26 6 25 10 3 12 3 13 4 15 4 16 5 18 5 19 10 29
REMARK H PARENT 16 31 11 33 19 40 23 42 20 44 22 45 21 46 28 48 28 49 29 51
REMARK H PARENT 29 52 30 54 30 55 31 57 31 58 32 61 36 67 97 69 37 71 96 72
REMARK H PARENT 95 82 89 84 91 86 94 88 88 89 56 98 59 100 92 103 57 104
REMARK H PARENT 93 106
REMARK Flexibility Score: inf
ROOT
ATOM      1  C   UNL     1       2.639  -3.241   1.462  1.00  0.00    -0.036 C 
ATOM      2  H   UNL     1       2.440  -3.630   0.486  1.00  0.00     0.028 H 
ATOM      3  H   UNL     1       2.122  -3.763   2.240  1.00  0.00     0.028 H 
ENDROOT
BRANCH   1   4
ATOM      4  C   UNL     1       2.140  -1.798   1.509  1.00  0.00     0.017 C 
ATOM      5  H   UNL     1       1.081  -1.793   1.353  1.00  0.00     0.049 H 
ATOM      6  H   UNL     1       2.391  -1.391   2.467  1.00  0.00     0.049 H 
BRANCH   4   7
ATOM      7  N   UNL     1       2.766  -0.977   0.496  1.00  0.00    -0.356 N 
ATOM      8  O   UNL     1       1.036   0.518   0.298  1.00  0.00    -0.275 OA
ATOM      9  C   UNL     1       2.157   0.138  -0.025  1.00  0.00     0.220 C 
ATOM     10  H   UNL     1       3.660  -1.227   0.168  1.00  0.00     0.163 HD
BRANCH   9  11
ATOM     11  C   UNL     1       2.996   0.881  -1.043  1.00  0.00     0.027 C 
ATOM     12  H   UNL     1       2.342   1.430  -1.687  1.00  0.00     0.037 H 
ATOM     13  H   UNL     1       3.567   0.151  -1.578  1.00  0.00     0.037 H 
BRANCH  11  14
ATOM     14  C   UNL     1       3.989   1.860  -0.406  1.00  0.00    -0.036 C 
ATOM     15  H   UNL     1       3.440   2.492   0.260  1.00  0.00     0.028 H 
ATOM     16  H   UNL     1       4.448   2.373  -1.226  1.00  0.00     0.028 H 
BRANCH  14  17
ATOM     17  C   UNL     1       5.144   1.238   0.385  1.00  0.00     0.025 C 
ATOM     18  H   UNL     1       4.751   0.802   1.280  1.00  0.00     0.037 H 
ATOM     19  H   UNL     1       5.846   2.017   0.599  1.00  0.00     0.037 H 
BRANCH  17  20
ATOM     20  C   UNL     1       5.861   0.186  -0.380  1.00  0.00     0.195 A 
ATOM     21  N   UNL     1       5.601  -1.108  -0.396  1.00  0.00    -0.213 NA
ATOM     22  O   UNL     1       6.853   0.585  -1.233  1.00  0.00    -0.440 OA
ATOM     23  C   UNL     1       6.515  -1.608  -1.289  1.00  0.00     0.117 A 
ATOM     24  C   UNL     1       7.251  -0.578  -1.839  1.00  0.00     0.162 A 
BRANCH  23  25
ATOM     25  C   UNL     1       6.653  -3.009  -1.617  1.00  0.00     0.006 A 
ATOM     26  C   UNL     1       5.564  -3.724  -2.123  1.00  0.00    -0.051 A 
ATOM     27  C   UNL     1       7.889  -3.652  -1.459  1.00  0.00    -0.032 A 
ATOM     28  C   UNL     1       5.718  -5.060  -2.503  1.00  0.00    -0.041 A 
ATOM     29  H   UNL     1       4.644  -3.264  -2.216  1.00  0.00     0.063 H 
ATOM     30  C   UNL     1       8.042  -4.992  -1.830  1.00  0.00     0.060 A 
ATOM     31  H   UNL     1       8.690  -3.134  -1.066  1.00  0.00     0.065 H 
ATOM     32  C   UNL     1       6.957  -5.695  -2.362  1.00  0.00     0.059 A 
ATOM     33  H   UNL     1       4.915  -5.581  -2.889  1.00  0.00     0.064 H 
ATOM     34  Cl  UNL     1       9.598  -5.710  -1.614  1.00  0.00    -0.083 Cl
ATOM     35  Cl  UNL     1       7.080  -7.342  -2.870  1.00  0.00    -0.083 Cl
ENDBRANCH  23  25
BRANCH  24  36
ATOM     36  C   UNL     1       8.242  -0.477  -2.890  1.00  0.00     0.020 A 
ATOM     37  C   UNL     1       9.495   0.093  -2.646  1.00  0.00    -0.051 A 
ATOM     38  C   UNL     1       7.966  -1.006  -4.160  1.00  0.00    -0.051 A 
ATOM     39  C   UNL     1      10.464   0.115  -3.653  1.00  0.00    -0.062 A 
ATOM     40  H   UNL     1       9.706   0.498  -1.721  1.00  0.00     0.063 H 
ATOM     41  C   UNL     1       8.930  -0.974  -5.167  1.00  0.00    -0.062 A 
ATOM     42  H   UNL     1       7.040  -1.422  -4.350  1.00  0.00     0.063 H 
ATOM     43  C   UNL     1      10.181  -0.419  -4.910  1.00  0.00    -0.062 A 
ATOM     44  H   UNL     1      11.391   0.528  -3.466  1.00  0.00     0.062 H 
ATOM     45  H   UNL     1       8.717  -1.362  -6.099  1.00  0.00     0.062 H 
ATOM     46  H   UNL     1      10.899  -0.402  -5.651  1.00  0.00     0.062 H 
ENDBRANCH  24  36
ENDBRANCH  17  20
ENDBRANCH  14  17
ENDBRANCH  11  14
ENDBRANCH   9  11
ENDBRANCH   4   7
ENDBRANCH   1   4
BRANCH   1  47
ATOM     47  C   UNL     1       4.135  -3.417   1.749  1.00  0.00    -0.052 C 
ATOM     48  H   UNL     1       4.680  -2.894   0.990  1.00  0.00     0.027 H 
ATOM     49  H   UNL     1       4.311  -4.472   1.756  1.00  0.00     0.027 H 
BRANCH  47  50
ATOM     50  C   UNL     1       4.610  -2.902   3.109  1.00  0.00    -0.052 C 
ATOM     51  H   UNL     1       4.394  -1.856   3.164  1.00  0.00     0.027 H 
ATOM     52  H   UNL     1       5.657  -3.118   3.167  1.00  0.00     0.027 H 
BRANCH  50  53
ATOM     53  C   UNL     1       3.959  -3.588   4.310  1.00  0.00    -0.036 C 
ATOM     54  H   UNL     1       2.915  -3.354   4.302  1.00  0.00     0.028 H 
ATOM     55  H   UNL     1       4.463  -3.222   5.179  1.00  0.00     0.028 H 
BRANCH  53  56
ATOM     56  C   UNL     1       4.107  -5.105   4.329  1.00  0.00     0.018 C 
ATOM     57  H   UNL     1       3.682  -5.502   3.431  1.00  0.00     0.049 H 
ATOM     58  H   UNL     1       3.602  -5.468   5.200  1.00  0.00     0.049 H 
BRANCH  56  59
ATOM     59  N   UNL     1       5.495  -5.531   4.416  1.00  0.00    -0.352 N 
ATOM     60  C   UNL     1       6.048  -6.504   5.209  1.00  0.00     0.251 C 
ATOM     61  H   UNL     1       6.124  -5.056   3.825  1.00  0.00     0.163 HD
ATOM     62  O   UNL     1       7.269  -6.631   5.278  1.00  0.00    -0.269 OA
BRANCH  60  63
ATOM     63  C   UNL     1       5.170  -7.387   6.004  1.00  0.00     0.039 A 
ATOM     64  C   UNL     1       5.504  -7.652   7.334  1.00  0.00    -0.049 A 
ATOM     65  C   UNL     1       4.023  -7.954   5.441  1.00  0.00    -0.049 A 
ATOM     66  C   UNL     1       4.663  -8.450   8.113  1.00  0.00    -0.053 A 
ATOM     67  H   UNL     1       6.369  -7.260   7.740  1.00  0.00     0.063 H 
ATOM     68  C   UNL     1       3.145  -8.681   6.240  1.00  0.00    -0.053 A 
ATOM     69  H   UNL     1       3.828  -7.834   4.435  1.00  0.00     0.063 H 
ATOM     70  C   UNL     1       3.464  -8.950   7.580  1.00  0.00    -0.014 A 
ATOM     71  H   UNL     1       4.924  -8.673   9.086  1.00  0.00     0.063 H 
ATOM     72  H   UNL     1       2.256  -9.024   5.845  1.00  0.00     0.063 H 
BRANCH  70  73
ATOM     73  C   UNL     1       2.553  -9.793   8.396  1.00  0.00     0.031 A 
ATOM     74  C   UNL     1       2.300 -11.223   8.000  1.00  0.00     0.074 A 
ATOM     75  C   UNL     1       1.924  -9.266   9.465  1.00  0.00     0.049 A 
ATOM     76  N   UNL     1       1.492 -12.103   8.537  1.00  0.00    -0.248 NA
ATOM     77  C   UNL     1       3.034 -11.724   6.826  1.00  0.00    -0.034 C 
ATOM     78  C   UNL     1       2.052  -7.883   9.926  1.00  0.00    -0.036 A 
ATOM     79  N   UNL     1       1.043  -9.831  10.353  1.00  0.00    -0.354 N 
ATOM     80  C   UNL     1       1.622 -13.253   7.769  1.00  0.00     0.074 A 
ATOM     81  C   UNL     1       2.529 -12.940   6.686  1.00  0.00    -0.034 C 
ATOM     82  H   UNL     1       3.756 -11.251   6.260  1.00  0.00     0.065 H 
ATOM     83  C   UNL     1       1.291  -7.712  11.020  1.00  0.00    -0.036 A 
ATOM     84  H   UNL     1       2.633  -7.155   9.481  1.00  0.00     0.065 H 
ATOM     85  C   UNL     1       0.595  -8.960  11.316  1.00  0.00     0.049 A 
ATOM     86  H   UNL     1       0.758 -10.773  10.304  1.00  0.00     0.167 HD
ATOM     87  C   UNL     1       1.065 -14.471   7.967  1.00  0.00     0.037 A 
ATOM     88  H   UNL     1       2.752 -13.580   5.908  1.00  0.00     0.065 H 
ATOM     89  H   UNL     1       1.212  -6.838  11.563  1.00  0.00     0.065 H 
ATOM     90  C   UNL     1      -0.284  -9.148  12.319  1.00  0.00     0.037 A 
ATOM     91  C   UNL     1       0.174 -14.786   9.052  1.00  0.00     0.049 A 
ATOM     92  C   UNL     1      -0.901 -10.510  12.507  1.00  0.00     0.074 A 
ATOM     93  C   UNL     1      -0.438 -15.992   9.346  1.00  0.00    -0.036 A 
ATOM     94  N   UNL     1      -0.226 -13.886  10.029  1.00  0.00    -0.354 N 
ATOM     95  N   UNL     1      -0.733 -11.602  11.801  1.00  0.00    -0.248 NA
ATOM     96  C   UNL     1      -1.818 -10.670  13.644  1.00  0.00    -0.034 C 
ATOM     97  C   UNL     1      -1.236 -15.812  10.480  1.00  0.00    -0.036 A 
ATOM     98  H   UNL     1      -0.325 -16.872   8.819  1.00  0.00     0.065 H 
ATOM     99  C   UNL     1      -1.077 -14.510  10.926  1.00  0.00     0.049 A 
ATOM    100  H   UNL     1       0.053 -12.943  10.077  1.00  0.00     0.167 HD
ATOM    101  C   UNL     1      -1.485 -12.584  12.432  1.00  0.00     0.074 A 
ATOM    102  C   UNL     1      -2.099 -11.963  13.586  1.00  0.00    -0.034 C 
ATOM    103  H   UNL     1      -2.155  -9.960  14.314  1.00  0.00     0.065 H 
ATOM    104  H   UNL     1      -1.841 -16.529  10.912  1.00  0.00     0.065 H 
ATOM    105  C   UNL     1      -1.654 -13.884  12.087  1.00  0.00     0.037 A 
ATOM    106  H   UNL     1      -2.681 -12.463  14.275  1.00  0.00     0.065 H 
BRANCH  87 107
ATOM    107  C   UNL     1       1.422 -15.563   7.001  1.00  0.00     0.064 A 
ATOM    108  C   UNL     1       2.712 -16.118   6.971  1.00  0.00     0.173 A 
ATOM    109  C   UNL     1       0.460 -16.096   6.130  1.00  0.00     0.173 A 
ATOM    110  F   UNL     1       3.672 -15.636   7.774  1.00  0.00    -0.203 F 
ATOM    111  C   UNL     1       3.030 -17.148   6.091  1.00  0.00     0.198 A 
ATOM    112  C   UNL     1       0.774 -17.149   5.274  1.00  0.00     0.198 A 
ATOM    113  F   UNL     1      -0.789 -15.607   6.120  1.00  0.00    -0.203 F 
ATOM    114  F   UNL     1       4.280 -17.630   6.050  1.00  0.00    -0.200 F 
ATOM    115  C   UNL     1       2.059 -17.669   5.250  1.00  0.00     0.200 A 
ATOM    116  F   UNL     1      -0.170 -17.662   4.471  1.00  0.00    -0.200 F 
ATOM    117  F   UNL     1       2.363 -18.671   4.413  1.00  0.00    -0.200 F 
ENDBRANCH  87 107
BRANCH  90 118
ATOM    118  C   UNL     1      -0.631  -8.028  13.236  1.00  0.00     0.064 A 
ATOM    119  C   UNL     1      -0.276  -8.066  14.593  1.00  0.00     0.173 A 
ATOM    120  C   UNL     1      -1.364  -6.920  12.787  1.00  0.00     0.173 A 
ATOM    121  F   UNL     1       0.410  -9.113  15.076  1.00  0.00    -0.203 F 
ATOM    122  C   UNL     1      -0.678  -7.063  15.472  1.00  0.00     0.198 A 
ATOM    123  C   UNL     1      -1.735  -5.900  13.661  1.00  0.00     0.198 A 
ATOM    124  F   UNL     1      -1.723  -6.829  11.498  1.00  0.00    -0.203 F 
ATOM    125  F   UNL     1      -0.387  -7.162  16.776  1.00  0.00    -0.200 F 
ATOM    126  C   UNL     1      -1.406  -5.979  15.005  1.00  0.00     0.200 A 
ATOM    127  F   UNL     1      -2.424  -4.846  13.202  1.00  0.00    -0.200 F 
ATOM    128  F   UNL     1      -1.800  -5.019  15.852  1.00  0.00    -0.200 F 
ENDBRANCH  90 118
BRANCH 105 129
ATOM    129  C   UNL     1      -2.475 -14.741  13.008  1.00  0.00     0.064 A 
ATOM    130  C   UNL     1      -3.863 -14.581  13.133  1.00  0.00     0.173 A 
ATOM    131  C   UNL     1      -1.861 -15.757  13.757  1.00  0.00     0.173 A 
ATOM    132  F   UNL     1      -4.496 -13.617  12.448  1.00  0.00    -0.203 F 
ATOM    133  C   UNL     1      -4.599 -15.381  14.003  1.00  0.00     0.198 A 
ATOM    134  C   UNL     1      -2.606 -16.578  14.599  1.00  0.00     0.198 A 
ATOM    135  F   UNL     1      -0.538 -15.960  13.667  1.00  0.00    -0.203 F 
ATOM    136  F   UNL     1      -5.914 -15.170  14.152  1.00  0.00    -0.200 F 
ATOM    137  C   UNL     1      -3.972 -16.382  14.730  1.00  0.00     0.200 A 
ATOM    138  F   UNL     1      -2.000 -17.556  15.287  1.00  0.00    -0.200 F 
ATOM    139  F   UNL     1      -4.684 -17.153  15.563  1.00  0.00    -0.200 F 
ENDBRANCH 105 129
ENDBRANCH  70  73
ENDBRANCH  60  63
ENDBRANCH  56  59
ENDBRANCH  53  56
ENDBRANCH  50  53
ENDBRANCH  47  50
ENDBRANCH   1  47
TORSDOF 18
