REMARK SMILES CCc1cc(/C=C/C(=O)NCCCCCCNC(=O)c2ccc(-c3c4nc(c(-c5c(F)c(F)c(F)c(F)c5F)c5ccc([nH]5)c(-c5c(F)c(F)c(F)c(F)c5F)c5nc(c(-c6c(F)c(F)c(F)c(F)c6F)c6ccc3[nH]6)C=C5)C=C4)cc2)cc(C(=O)c2ccccc2)c1
REMARK SMILES IDX 13 1 12 4 11 7 10 10 8 11 9 12 7 14 6 15 5 18 3 19 4 20
REMARK SMILES IDX 93 21 84 23 83 25 2 27 1 30 85 34 86 35 87 36 88 37 92 38
REMARK SMILES IDX 89 39 91 41 90 43 14 47 15 50 16 53 17 56 18 57 19 59 20 60
REMARK SMILES IDX 21 61 82 62 22 63 81 65 23 67 24 70 25 71 75 72 26 73 80 74
REMARK SMILES IDX 74 75 76 76 27 77 79 78 73 80 72 82 28 84 60 87 40 88 59 89
REMARK SMILES IDX 41 90 44 91 58 92 77 93 42 94 43 96 57 98 78 99 45 102
REMARK SMILES IDX 29 104 30 105 38 106 31 107 32 108 36 109 39 110 33 111
REMARK SMILES IDX 34 112 37 113 35 114 61 115 62 116 70 117 63 118 64 119
REMARK SMILES IDX 68 120 71 121 65 122 66 123 69 124 67 125 46 126 47 127
REMARK SMILES IDX 55 128 48 129 49 130 53 131 56 132 50 133 51 134 54 135
REMARK SMILES IDX 52 136
REMARK H PARENT 13 2 13 3 12 5 12 6 11 8 11 9 10 13 6 16 7 17 4 22 93 24 83 26
REMARK H PARENT 2 28 2 29 1 31 1 32 1 33 88 40 92 42 89 44 91 45 90 46 14 48
REMARK H PARENT 14 49 15 51 15 52 16 54 16 55 17 58 21 64 82 66 22 68 81 69
REMARK H PARENT 80 79 74 81 76 83 79 85 73 86 41 95 44 97 77 100 42 101 78 103
REMARK Flexibility Score: inf
ROOT
ATOM      1  C   UNL     1       1.515  -9.576  -1.591  1.00  0.00    -0.052 C 
ATOM      2  H   UNL     1       0.811  -9.677  -0.791  1.00  0.00     0.027 H 
ATOM      3  H   UNL     1       2.503  -9.882  -1.319  1.00  0.00     0.027 H 
ENDROOT
BRANCH   1   4
ATOM      4  C   UNL     1       1.605  -8.090  -1.965  1.00  0.00    -0.036 C 
ATOM      5  H   UNL     1       1.920  -7.540  -1.103  1.00  0.00     0.028 H 
ATOM      6  H   UNL     1       2.305  -8.005  -2.770  1.00  0.00     0.028 H 
BRANCH   4   7
ATOM      7  C   UNL     1       0.274  -7.515  -2.451  1.00  0.00     0.018 C 
ATOM      8  H   UNL     1       0.457  -6.615  -3.001  1.00  0.00     0.049 H 
ATOM      9  H   UNL     1      -0.210  -8.232  -3.081  1.00  0.00     0.049 H 
BRANCH   7  10
ATOM     10  N   UNL     1      -0.582  -7.222  -1.319  1.00  0.00    -0.353 N 
ATOM     11  C   UNL     1      -1.000  -6.051  -0.781  1.00  0.00     0.243 C 
ATOM     12  O   UNL     1      -1.758  -6.077   0.188  1.00  0.00    -0.270 OA
ATOM     13  H   UNL     1      -0.922  -8.021  -0.856  1.00  0.00     0.163 HD
BRANCH  11  14
ATOM     14  C   UNL     1      -0.640  -4.738  -1.364  1.00  0.00     0.003 C 
ATOM     15  C   UNL     1       0.538  -4.400  -1.907  1.00  0.00    -0.049 C 
ATOM     16  H   UNL     1       1.259  -5.135  -1.977  1.00  0.00     0.063 H 
ATOM     17  H   UNL     1      -1.371  -4.009  -1.351  1.00  0.00     0.068 H 
BRANCH  15  18
ATOM     18  C   UNL     1       0.881  -3.063  -2.409  1.00  0.00    -0.024 A 
ATOM     19  C   UNL     1       0.877  -0.636  -2.168  1.00  0.00    -0.047 A 
ATOM     20  C   UNL     1       0.401  -1.902  -1.797  1.00  0.00    -0.052 A 
ATOM     21  C   UNL     1       1.812  -0.533  -3.206  1.00  0.00    -0.048 A 
ATOM     22  H   UNL     1      -0.316  -1.977  -1.058  1.00  0.00     0.063 H 
ATOM     23  C   UNL     1       2.300  -1.686  -3.833  1.00  0.00     0.023 A 
ATOM     24  H   UNL     1       2.141   0.396  -3.510  1.00  0.00     0.063 H 
ATOM     25  C   UNL     1       1.824  -2.944  -3.437  1.00  0.00    -0.044 A 
ATOM     26  H   UNL     1       2.173  -3.793  -3.909  1.00  0.00     0.064 H 
BRANCH  19  27
ATOM     27  C   UNL     1       0.443   0.581  -1.389  1.00  0.00    -0.031 C 
ATOM     28  H   UNL     1       0.831   1.458  -1.865  1.00  0.00     0.031 H 
ATOM     29  H   UNL     1      -0.627   0.610  -1.369  1.00  0.00     0.031 H 
BRANCH  27  30
ATOM     30  C   UNL     1       0.956   0.522   0.046  1.00  0.00    -0.061 C 
ATOM     31  H   UNL     1       0.635   1.394   0.576  1.00  0.00     0.023 H 
ATOM     32  H   UNL     1       2.025   0.481   0.041  1.00  0.00     0.023 H 
ATOM     33  H   UNL     1       0.568  -0.351   0.527  1.00  0.00     0.023 H 
ENDBRANCH  27  30
ENDBRANCH  19  27
BRANCH  23  34
ATOM     34  C   UNL     1       3.328  -1.636  -4.912  1.00  0.00     0.193 C 
ATOM     35  O   UNL     1       3.477  -2.595  -5.665  1.00  0.00    -0.289 OA
BRANCH  34  36
ATOM     36  C   UNL     1       4.178  -0.442  -5.112  1.00  0.00     0.022 A 
ATOM     37  C   UNL     1       4.296   0.084  -6.402  1.00  0.00    -0.051 A 
ATOM     38  C   UNL     1       4.868   0.146  -4.045  1.00  0.00    -0.051 A 
ATOM     39  C   UNL     1       5.060   1.230  -6.616  1.00  0.00    -0.062 A 
ATOM     40  H   UNL     1       3.819  -0.376  -7.194  1.00  0.00     0.063 H 
ATOM     41  C   UNL     1       5.632   1.293  -4.265  1.00  0.00    -0.062 A 
ATOM     42  H   UNL     1       4.812  -0.267  -3.101  1.00  0.00     0.063 H 
ATOM     43  C   UNL     1       5.719   1.839  -5.546  1.00  0.00    -0.062 A 
ATOM     44  H   UNL     1       5.138   1.629  -7.564  1.00  0.00     0.062 H 
ATOM     45  H   UNL     1       6.132   1.738  -3.479  1.00  0.00     0.062 H 
ATOM     46  H   UNL     1       6.273   2.696  -5.704  1.00  0.00     0.062 H 
ENDBRANCH  34  36
ENDBRANCH  23  34
ENDBRANCH  15  18
ENDBRANCH  11  14
ENDBRANCH   7  10
ENDBRANCH   4   7
ENDBRANCH   1   4
BRANCH   1  47
ATOM     47  C   UNL     1       1.073 -10.496  -2.736  1.00  0.00    -0.052 C 
ATOM     48  H   UNL     1       0.055 -10.267  -2.975  1.00  0.00     0.027 H 
ATOM     49  H   UNL     1       1.206 -11.499  -2.389  1.00  0.00     0.027 H 
BRANCH  47  50
ATOM     50  C   UNL     1       1.905 -10.365  -4.014  1.00  0.00    -0.036 C 
ATOM     51  H   UNL     1       1.843  -9.352  -4.355  1.00  0.00     0.028 H 
ATOM     52  H   UNL     1       1.502 -11.059  -4.722  1.00  0.00     0.028 H 
BRANCH  50  53
ATOM     53  C   UNL     1       3.374 -10.722  -3.828  1.00  0.00     0.018 C 
ATOM     54  H   UNL     1       3.786 -10.110  -3.053  1.00  0.00     0.049 H 
ATOM     55  H   UNL     1       3.882 -10.552  -4.755  1.00  0.00     0.049 H 
BRANCH  53  56
ATOM     56  N   UNL     1       3.538 -12.121  -3.465  1.00  0.00    -0.352 N 
ATOM     57  C   UNL     1       4.231 -13.108  -4.118  1.00  0.00     0.251 C 
ATOM     58  H   UNL     1       3.088 -12.398  -2.634  1.00  0.00     0.163 HD
ATOM     59  O   UNL     1       4.061 -14.286  -3.831  1.00  0.00    -0.269 OA
BRANCH  57  60
ATOM     60  C   UNL     1       5.187 -12.734  -5.178  1.00  0.00     0.039 A 
ATOM     61  C   UNL     1       5.193 -13.453  -6.376  1.00  0.00    -0.049 A 
ATOM     62  C   UNL     1       6.078 -11.675  -4.982  1.00  0.00    -0.049 A 
ATOM     63  C   UNL     1       6.061 -13.074  -7.400  1.00  0.00    -0.053 A 
ATOM     64  H   UNL     1       4.560 -14.258  -6.502  1.00  0.00     0.063 H 
ATOM     65  C   UNL     1       6.885 -11.251  -6.029  1.00  0.00    -0.053 A 
ATOM     66  H   UNL     1       6.136 -11.211  -4.062  1.00  0.00     0.063 H 
ATOM     67  C   UNL     1       6.891 -11.951  -7.245  1.00  0.00    -0.014 A 
ATOM     68  H   UNL     1       6.092 -13.620  -8.276  1.00  0.00     0.063 H 
ATOM     69  H   UNL     1       7.482 -10.418  -5.913  1.00  0.00     0.063 H 
BRANCH  67  70
ATOM     70  C   UNL     1       7.788 -11.496  -8.334  1.00  0.00     0.031 A 
ATOM     71  C   UNL     1       9.277 -11.515  -8.133  1.00  0.00     0.074 A 
ATOM     72  C   UNL     1       7.261 -10.995  -9.467  1.00  0.00     0.049 A 
ATOM     73  N   UNL     1      10.226 -11.067  -8.916  1.00  0.00    -0.248 NA
ATOM     74  C   UNL     1       9.764 -12.089  -6.869  1.00  0.00    -0.034 C 
ATOM     75  C   UNL     1       5.831 -10.890  -9.760  1.00  0.00    -0.036 A 
ATOM     76  N   UNL     1       7.867 -10.465 -10.578  1.00  0.00    -0.354 N 
ATOM     77  C   UNL     1      11.414 -11.290  -8.233  1.00  0.00     0.074 A 
ATOM     78  C   UNL     1      11.065 -11.860  -6.950  1.00  0.00    -0.034 C 
ATOM     79  H   UNL     1       9.230 -12.550  -6.115  1.00  0.00     0.065 H 
ATOM     80  C   UNL     1       5.670 -10.347 -10.977  1.00  0.00    -0.036 A 
ATOM     81  H   UNL     1       5.068 -11.185  -9.131  1.00  0.00     0.065 H 
ATOM     82  C   UNL     1       6.981 -10.024 -11.530  1.00  0.00     0.049 A 
ATOM     83  H   UNL     1       8.845 -10.407 -10.683  1.00  0.00     0.167 HD
ATOM     84  C   UNL     1      12.681 -11.060  -8.649  1.00  0.00     0.037 A 
ATOM     85  H   UNL     1      11.742 -12.061  -6.197  1.00  0.00     0.065 H 
ATOM     86  H   UNL     1       4.765 -10.184 -11.446  1.00  0.00     0.065 H 
ATOM     87  C   UNL     1       7.204  -9.414 -12.710  1.00  0.00     0.037 A 
ATOM     88  C   UNL     1      13.019 -10.509  -9.935  1.00  0.00     0.049 A 
ATOM     89  C   UNL     1       8.622  -9.145 -13.138  1.00  0.00     0.074 A 
ATOM     90  C   UNL     1      14.273 -10.288 -10.477  1.00  0.00    -0.036 A 
ATOM     91  N   UNL     1      12.094 -10.086 -10.880  1.00  0.00    -0.354 N 
ATOM     92  N   UNL     1       9.742  -9.421 -12.515  1.00  0.00    -0.248 NA
ATOM     93  C   UNL     1       8.807  -8.484 -14.438  1.00  0.00    -0.034 C 
ATOM     94  C   UNL     1      14.107  -9.680 -11.725  1.00  0.00    -0.036 A 
ATOM     95  H   UNL     1      15.174 -10.530 -10.036  1.00  0.00     0.065 H 
ATOM     96  C   UNL     1      12.751  -9.580 -11.990  1.00  0.00     0.049 A 
ATOM     97  H   UNL     1      11.116 -10.138 -10.776  1.00  0.00     0.167 HD
ATOM     98  C   UNL     1      10.762  -9.000 -13.357  1.00  0.00     0.074 A 
ATOM     99  C   UNL     1      10.129  -8.459 -14.541  1.00  0.00    -0.034 C 
ATOM    100  H   UNL     1       8.095  -8.132 -15.096  1.00  0.00     0.065 H 
ATOM    101  H   UNL     1      14.868  -9.359 -12.344  1.00  0.00     0.065 H 
ATOM    102  C   UNL     1      12.103  -9.059 -13.168  1.00  0.00     0.037 A 
ATOM    103  H   UNL     1      10.640  -8.100 -15.362  1.00  0.00     0.065 H 
BRANCH  84 104
ATOM    104  C   UNL     1      13.797 -11.402  -7.702  1.00  0.00     0.064 A 
ATOM    105  C   UNL     1      14.096 -12.731  -7.363  1.00  0.00     0.173 A 
ATOM    106  C   UNL     1      14.596 -10.390  -7.149  1.00  0.00     0.173 A 
ATOM    107  F   UNL     1      13.357 -13.737  -7.855  1.00  0.00    -0.203 F 
ATOM    108  C   UNL     1      15.130 -13.031  -6.480  1.00  0.00     0.198 A 
ATOM    109  C   UNL     1      15.652 -10.696  -6.294  1.00  0.00     0.198 A 
ATOM    110  F   UNL     1      14.360  -9.103  -7.444  1.00  0.00    -0.203 F 
ATOM    111  F   UNL     1      15.359 -14.303  -6.127  1.00  0.00    -0.200 F 
ATOM    112  C   UNL     1      15.911 -12.014  -5.952  1.00  0.00     0.200 A 
ATOM    113  F   UNL     1      16.416  -9.713  -5.797  1.00  0.00    -0.200 F 
ATOM    114  F   UNL     1      16.910 -12.305  -5.108  1.00  0.00    -0.200 F 
ENDBRANCH  84 104
BRANCH  87 115
ATOM    115  C   UNL     1       6.058  -9.033 -13.577  1.00  0.00     0.064 A 
ATOM    116  C   UNL     1       5.835  -9.682 -14.799  1.00  0.00     0.173 A 
ATOM    117  C   UNL     1       5.166  -8.015 -13.207  1.00  0.00     0.173 A 
ATOM    118  F   UNL     1       6.671 -10.649 -15.206  1.00  0.00    -0.203 F 
ATOM    119  C   UNL     1       4.777  -9.315 -15.628  1.00  0.00     0.198 A 
ATOM    120  C   UNL     1       4.090  -7.669 -14.022  1.00  0.00     0.198 A 
ATOM    121  F   UNL     1       5.332  -7.366 -12.046  1.00  0.00    -0.203 F 
ATOM    122  F   UNL     1       4.615  -9.920 -16.812  1.00  0.00    -0.200 F 
ATOM    123  C   UNL     1       3.902  -8.313 -15.236  1.00  0.00     0.200 A 
ATOM    124  F   UNL     1       3.238  -6.712 -13.633  1.00  0.00    -0.200 F 
ATOM    125  F   UNL     1       2.882  -7.962 -16.031  1.00  0.00    -0.200 F 
ENDBRANCH  87 115
BRANCH 102 126
ATOM    126  C   UNL     1      12.983  -8.572 -14.283  1.00  0.00     0.064 A 
ATOM    127  C   UNL     1      13.101  -7.210 -14.591  1.00  0.00     0.173 A 
ATOM    128  C   UNL     1      13.764  -9.482 -15.013  1.00  0.00     0.173 A 
ATOM    129  F   UNL     1      12.365  -6.302 -13.933  1.00  0.00    -0.203 F 
ATOM    130  C   UNL     1      13.953  -6.777 -15.604  1.00  0.00     0.198 A 
ATOM    131  C   UNL     1      14.640  -9.043 -16.002  1.00  0.00     0.198 A 
ATOM    132  F   UNL     1      13.694 -10.796 -14.753  1.00  0.00    -0.203 F 
ATOM    133  F   UNL     1      14.018  -5.474 -15.912  1.00  0.00    -0.200 F 
ATOM    134  C   UNL     1      14.729  -7.692 -16.301  1.00  0.00     0.200 A 
ATOM    135  F   UNL     1      15.401  -9.927 -16.662  1.00  0.00    -0.200 F 
ATOM    136  F   UNL     1      15.560  -7.271 -17.264  1.00  0.00    -0.200 F 
ENDBRANCH 102 126
ENDBRANCH  67  70
ENDBRANCH  57  60
ENDBRANCH  53  56
ENDBRANCH  50  53
ENDBRANCH  47  50
ENDBRANCH   1  47
TORSDOF 18
