REMARK SMILES C[C@H]1[C@H](C)CC[C@@]2(C(=O)NCCCCCCNC(=O)c3ccc(-c4c5nc(c(-c6c(F)c(F)c(F)c(F)c6F)c6ccc([nH]6)c(-c6c(F)c(F)c(F)c(F)c6F)c6nc(c(-c7c(F)c(F)c(F)c(F)c7F)c7ccc4[nH]7)C=C6)C=C5)cc3)CC[C@@]3(C)C(=CC[C@@H]4[C@@]5(C)CC[C@H](O)C(C)(C)[C@@H]5CC[C@]43C)[C@H]12
REMARK SMILES IDX 14 1 13 4 12 7 11 10 10 13 8 14 9 15 7 17 2 18 3 19 105 20
REMARK SMILES IDX 5 22 87 24 6 26 83 29 85 30 88 31 84 34 103 37 89 38 90 42
REMARK SMILES IDX 102 43 91 46 101 48 93 51 100 52 94 55 97 58 95 60 1 64 4 68
REMARK SMILES IDX 86 72 104 76 92 80 98 84 99 88 96 92 15 94 16 97 17 100
REMARK SMILES IDX 18 101 19 103 20 104 21 105 82 106 22 107 81 109 23 111
REMARK SMILES IDX 24 114 25 115 75 116 26 117 80 118 74 119 76 120 27 121
REMARK SMILES IDX 79 122 73 124 72 126 28 128 60 131 40 132 59 133 41 134
REMARK SMILES IDX 44 135 58 136 77 137 42 138 43 140 57 142 78 143 45 146
REMARK SMILES IDX 29 148 30 149 38 150 31 151 32 152 36 153 39 154 33 155
REMARK SMILES IDX 34 156 37 157 35 158 61 159 62 160 70 161 63 162 64 163
REMARK SMILES IDX 68 164 71 165 65 166 66 167 69 168 67 169 46 170 47 171
REMARK SMILES IDX 55 172 48 173 49 174 53 175 56 176 50 177 51 178 54 179
REMARK SMILES IDX 52 180
REMARK H PARENT 14 2 14 3 13 5 13 6 12 8 12 9 11 11 11 12 10 16 2 21 3 23
REMARK H PARENT 105 25 5 27 5 28 6 32 6 33 83 35 83 36 88 39 84 40 84 41 89 44
REMARK H PARENT 89 45 90 47 102 49 102 50 101 53 101 54 93 56 93 57 100 59
REMARK H PARENT 94 61 94 62 95 63 1 65 1 66 1 67 4 69 4 70 4 71 86 73 86 74
REMARK H PARENT 86 75 104 77 104 78 104 79 92 81 92 82 92 83 98 85 98 86 98 87
REMARK H PARENT 99 89 99 90 99 91 96 93 15 95 15 96 16 98 16 99 17 102 21 108
REMARK H PARENT 82 110 22 112 81 113 80 123 74 125 76 127 79 129 73 130 41 139
REMARK H PARENT 44 141 77 144 42 145 78 147
REMARK Flexibility Score: inf
ROOT
ATOM      1  C   UNL     1      -1.155  -1.733  -0.636  1.00  0.00    -0.052 C 
ATOM      2  H   UNL     1      -0.257  -1.172  -0.489  1.00  0.00     0.027 H 
ATOM      3  H   UNL     1      -1.042  -2.692  -1.099  1.00  0.00     0.027 H 
ENDROOT
BRANCH   1   4
ATOM      4  C   UNL     1      -2.026  -0.943  -1.619  1.00  0.00    -0.052 C 
ATOM      5  H   UNL     1      -1.402  -0.686  -2.449  1.00  0.00     0.027 H 
ATOM      6  H   UNL     1      -2.847  -1.603  -1.810  1.00  0.00     0.027 H 
BRANCH   4   7
ATOM      7  C   UNL     1      -2.712   0.353  -1.159  1.00  0.00    -0.036 C 
ATOM      8  H   UNL     1      -3.258   0.735  -1.997  1.00  0.00     0.028 H 
ATOM      9  H   UNL     1      -3.292   0.053  -0.312  1.00  0.00     0.028 H 
BRANCH   7  10
ATOM     10  C   UNL     1      -1.844   1.499  -0.628  1.00  0.00     0.017 C 
ATOM     11  H   UNL     1      -2.493   2.243  -0.215  1.00  0.00     0.049 H 
ATOM     12  H   UNL     1      -1.183   1.064   0.092  1.00  0.00     0.049 H 
BRANCH  10  13
ATOM     13  N   UNL     1      -0.999   2.140  -1.620  1.00  0.00    -0.356 N 
ATOM     14  C   UNL     1      -0.216   3.264  -1.539  1.00  0.00     0.226 C 
ATOM     15  O   UNL     1      -0.254   3.975  -2.552  1.00  0.00    -0.274 OA
ATOM     16  H   UNL     1      -0.985   1.693  -2.497  1.00  0.00     0.163 HD
BRANCH  14  17
ATOM     17  C   UNL     1       0.735   3.631  -0.333  1.00  0.00     0.056 C 
ATOM     18  C   UNL     1       1.319   1.310   0.655  1.00  0.00    -0.034 C 
ATOM     19  C   UNL     1       0.697   1.750   2.023  1.00  0.00    -0.041 C 
ATOM     20  C   UNL     1       1.845   2.560  -0.110  1.00  0.00    -0.002 C 
ATOM     21  H   UNL     1       0.554   0.848   0.067  1.00  0.00     0.031 H 
ATOM     22  C   UNL     1      -0.322   2.902   1.941  1.00  0.00    -0.049 C 
ATOM     23  H   UNL     1       1.583   2.064   2.535  1.00  0.00     0.030 H 
ATOM     24  C   UNL     1       2.549   2.433  -1.482  1.00  0.00    -0.063 C 
ATOM     25  H   UNL     1       2.616   2.816   0.587  1.00  0.00     0.036 H 
ATOM     26  C   UNL     1      -0.071   3.989   0.924  1.00  0.00    -0.038 C 
ATOM     27  H   UNL     1      -0.358   3.366   2.904  1.00  0.00     0.027 H 
ATOM     28  H   UNL     1      -1.231   2.437   1.620  1.00  0.00     0.027 H 
ATOM     29  C   UNL     1       1.505   4.969  -0.661  1.00  0.00    -0.037 C 
ATOM     30  C   UNL     1       3.434   3.648  -1.897  1.00  0.00    -0.006 C 
ATOM     31  C   UNL     1       2.169   1.496  -2.376  1.00  0.00    -0.084 C 
ATOM     32  H   UNL     1       0.454   4.776   1.425  1.00  0.00     0.028 H 
ATOM     33  H   UNL     1      -1.044   4.239   0.555  1.00  0.00     0.028 H 
ATOM     34  C   UNL     1       2.561   4.941  -1.769  1.00  0.00    -0.043 C 
ATOM     35  H   UNL     1       1.996   5.282   0.237  1.00  0.00     0.028 H 
ATOM     36  H   UNL     1       0.748   5.628  -1.032  1.00  0.00     0.028 H 
ATOM     37  C   UNL     1       3.990   3.504  -3.423  1.00  0.00    -0.020 C 
ATOM     38  C   UNL     1       2.341   1.641  -3.869  1.00  0.00    -0.031 C 
ATOM     39  H   UNL     1       1.735   0.630  -2.019  1.00  0.00     0.058 H 
ATOM     40  H   UNL     1       3.225   5.763  -1.601  1.00  0.00     0.028 H 
ATOM     41  H   UNL     1       2.002   4.986  -2.681  1.00  0.00     0.028 H 
ATOM     42  C   UNL     1       2.740   3.085  -4.280  1.00  0.00    -0.026 C 
ATOM     43  C   UNL     1       4.631   4.818  -3.945  1.00  0.00    -0.046 C 
ATOM     44  H   UNL     1       1.417   1.391  -4.347  1.00  0.00     0.031 H 
ATOM     45  H   UNL     1       3.129   0.985  -4.172  1.00  0.00     0.031 H 
ATOM     46  C   UNL     1       2.712   3.416  -5.831  1.00  0.00    -0.025 C 
ATOM     47  H   UNL     1       1.958   3.770  -4.026  1.00  0.00     0.032 H 
ATOM     48  C   UNL     1       4.818   4.844  -5.463  1.00  0.00    -0.049 C 
ATOM     49  H   UNL     1       4.001   5.637  -3.667  1.00  0.00     0.027 H 
ATOM     50  H   UNL     1       5.605   4.889  -3.506  1.00  0.00     0.027 H 
ATOM     51  C   UNL     1       1.223   3.671  -6.243  1.00  0.00    -0.045 C 
ATOM     52  C   UNL     1       3.445   4.777  -6.139  1.00  0.00    -0.028 C 
ATOM     53  H   UNL     1       5.313   5.749  -5.748  1.00  0.00     0.027 H 
ATOM     54  H   UNL     1       5.411   4.007  -5.768  1.00  0.00     0.027 H 
ATOM     55  C   UNL     1       1.044   4.119  -7.694  1.00  0.00    -0.026 C 
ATOM     56  H   UNL     1       0.823   4.431  -5.605  1.00  0.00     0.027 H 
ATOM     57  H   UNL     1       0.711   2.736  -6.144  1.00  0.00     0.027 H 
ATOM     58  C   UNL     1       3.408   5.248  -7.644  1.00  0.00    -0.006 C 
ATOM     59  H   UNL     1       2.850   5.536  -5.677  1.00  0.00     0.031 H 
ATOM     60  C   UNL     1       1.913   5.317  -8.088  1.00  0.00     0.059 C 
ATOM     61  H   UNL     1       0.018   4.385  -7.839  1.00  0.00     0.029 H 
ATOM     62  H   UNL     1       1.350   3.299  -8.310  1.00  0.00     0.029 H 
ATOM     63  H   UNL     1       1.531   6.155  -7.542  1.00  0.00     0.061 H 
BRANCH  18  64
ATOM     64  C   UNL     1       2.421   0.255   0.843  1.00  0.00    -0.062 C 
ATOM     65  H   UNL     1       2.023  -0.586   1.371  1.00  0.00     0.023 H 
ATOM     66  H   UNL     1       3.229   0.678   1.403  1.00  0.00     0.023 H 
ATOM     67  H   UNL     1       2.779  -0.062  -0.115  1.00  0.00     0.023 H 
ENDBRANCH  18  64
BRANCH  19  68
ATOM     68  C   UNL     1      -0.022   0.634   2.800  1.00  0.00    -0.062 C 
ATOM     69  H   UNL     1      -0.903   0.340   2.268  1.00  0.00     0.023 H 
ATOM     70  H   UNL     1      -0.295   0.993   3.770  1.00  0.00     0.023 H 
ATOM     71  H   UNL     1       0.631  -0.207   2.901  1.00  0.00     0.023 H 
ENDBRANCH  19  68
BRANCH  30  72
ATOM     72  C   UNL     1       4.630   3.777  -0.916  1.00  0.00    -0.055 C 
ATOM     73  H   UNL     1       4.261   3.871   0.084  1.00  0.00     0.024 H 
ATOM     74  H   UNL     1       5.206   4.642  -1.168  1.00  0.00     0.024 H 
ATOM     75  H   UNL     1       5.245   2.905  -0.989  1.00  0.00     0.024 H 
ENDBRANCH  30  72
BRANCH  37  76
ATOM     76  C   UNL     1       5.122   2.433  -3.505  1.00  0.00    -0.059 C 
ATOM     77  H   UNL     1       4.749   1.492  -3.157  1.00  0.00     0.024 H 
ATOM     78  H   UNL     1       5.946   2.738  -2.893  1.00  0.00     0.024 H 
ATOM     79  H   UNL     1       5.448   2.335  -4.519  1.00  0.00     0.024 H 
ENDBRANCH  37  76
BRANCH  46  80
ATOM     80  C   UNL     1       3.238   2.207  -6.625  1.00  0.00    -0.059 C 
ATOM     81  H   UNL     1       2.684   1.333  -6.352  1.00  0.00     0.024 H 
ATOM     82  H   UNL     1       4.274   2.057  -6.402  1.00  0.00     0.024 H 
ATOM     83  H   UNL     1       3.121   2.390  -7.673  1.00  0.00     0.024 H 
ENDBRANCH  46  80
BRANCH  58  84
ATOM     84  C   UNL     1       4.272   4.397  -8.600  1.00  0.00    -0.057 C 
ATOM     85  H   UNL     1       4.189   4.784  -9.594  1.00  0.00     0.024 H 
ATOM     86  H   UNL     1       3.931   3.383  -8.582  1.00  0.00     0.024 H 
ATOM     87  H   UNL     1       5.294   4.435  -8.286  1.00  0.00     0.024 H 
ENDBRANCH  58  84
BRANCH  58  88
ATOM     88  C   UNL     1       3.979   6.691  -7.772  1.00  0.00    -0.057 C 
ATOM     89  H   UNL     1       3.948   6.997  -8.797  1.00  0.00     0.024 H 
ATOM     90  H   UNL     1       4.991   6.706  -7.426  1.00  0.00     0.024 H 
ATOM     91  H   UNL     1       3.390   7.362  -7.182  1.00  0.00     0.024 H 
ENDBRANCH  58  88
BRANCH  60  92
ATOM     92  O   UNL     1       1.799   5.524  -9.497  1.00  0.00    -0.393 OA
ATOM     93  H   UNL     1       2.151   4.752  -9.966  1.00  0.00     0.210 HD
ENDBRANCH  60  92
ENDBRANCH  14  17
ENDBRANCH  10  13
ENDBRANCH   7  10
ENDBRANCH   4   7
ENDBRANCH   1   4
BRANCH   1  94
ATOM     94  C   UNL     1      -1.721  -2.050   0.745  1.00  0.00    -0.036 C 
ATOM     95  H   UNL     1      -1.710  -1.140   1.308  1.00  0.00     0.028 H 
ATOM     96  H   UNL     1      -1.094  -2.834   1.116  1.00  0.00     0.028 H 
BRANCH  94  97
ATOM     97  C   UNL     1      -3.128  -2.617   0.828  1.00  0.00     0.018 C 
ATOM     98  H   UNL     1      -3.801  -1.910   0.389  1.00  0.00     0.049 H 
ATOM     99  H   UNL     1      -3.328  -2.791   1.865  1.00  0.00     0.049 H 
BRANCH  97 100
ATOM    100  N   UNL     1      -3.298  -3.886   0.153  1.00  0.00    -0.352 N 
ATOM    101  C   UNL     1      -3.958  -5.017   0.580  1.00  0.00     0.251 C 
ATOM    102  H   UNL     1      -2.883  -3.950  -0.738  1.00  0.00     0.163 HD
ATOM    103  O   UNL     1      -3.935  -6.033  -0.100  1.00  0.00    -0.269 OA
BRANCH 101 104
ATOM    104  C   UNL     1      -4.664  -5.023   1.886  1.00  0.00     0.039 A 
ATOM    105  C   UNL     1      -4.521  -6.139   2.716  1.00  0.00    -0.049 A 
ATOM    106  C   UNL     1      -5.462  -3.951   2.296  1.00  0.00    -0.049 A 
ATOM    107  C   UNL     1      -5.127  -6.154   3.975  1.00  0.00    -0.053 A 
ATOM    108  H   UNL     1      -3.968  -6.950   2.398  1.00  0.00     0.063 H 
ATOM    109  C   UNL     1      -5.991  -3.930   3.586  1.00  0.00    -0.053 A 
ATOM    110  H   UNL     1      -5.659  -3.176   1.645  1.00  0.00     0.063 H 
ATOM    111  C   UNL     1      -5.840  -5.036   4.435  1.00  0.00    -0.014 A 
ATOM    112  H   UNL     1      -5.050  -6.994   4.570  1.00  0.00     0.063 H 
ATOM    113  H   UNL     1      -6.498  -3.094   3.917  1.00  0.00     0.063 H 
BRANCH 111 114
ATOM    114  C   UNL     1      -6.449  -5.018   5.791  1.00  0.00     0.031 A 
ATOM    115  C   UNL     1      -7.942  -4.907   5.947  1.00  0.00     0.074 A 
ATOM    116  C   UNL     1      -5.659  -5.056   6.882  1.00  0.00     0.049 A 
ATOM    117  N   UNL     1      -8.659  -4.832   7.040  1.00  0.00    -0.248 NA
ATOM    118  C   UNL     1      -8.734  -4.846   4.708  1.00  0.00    -0.034 C 
ATOM    119  C   UNL     1      -4.196  -5.117   6.864  1.00  0.00    -0.036 A 
ATOM    120  N   UNL     1      -5.972  -5.043   8.219  1.00  0.00    -0.354 N 
ATOM    121  C   UNL     1      -9.977  -4.702   6.620  1.00  0.00     0.074 A 
ATOM    122  C   UNL     1      -9.956  -4.644   5.176  1.00  0.00    -0.034 C 
ATOM    123  H   UNL     1      -8.418  -4.936   3.730  1.00  0.00     0.065 H 
ATOM    124  C   UNL     1      -3.742  -5.167   8.126  1.00  0.00    -0.036 A 
ATOM    125  H   UNL     1      -3.608  -5.122   6.016  1.00  0.00     0.065 H 
ATOM    126  C   UNL     1      -4.875  -5.098   9.044  1.00  0.00     0.049 A 
ATOM    127  H   UNL     1      -6.897  -5.000   8.555  1.00  0.00     0.167 HD
ATOM    128  C   UNL     1     -11.104  -4.663   7.370  1.00  0.00     0.037 A 
ATOM    129  H   UNL     1     -10.785  -4.469   4.586  1.00  0.00     0.065 H 
ATOM    130  H   UNL     1      -2.750  -5.242   8.403  1.00  0.00     0.065 H 
ATOM    131  C   UNL     1      -4.792  -5.087  10.388  1.00  0.00     0.037 A 
ATOM    132  C   UNL     1     -11.121  -4.742   8.807  1.00  0.00     0.049 A 
ATOM    133  C   UNL     1      -6.059  -5.025  11.199  1.00  0.00     0.074 A 
ATOM    134  C   UNL     1     -12.211  -4.768   9.658  1.00  0.00    -0.036 A 
ATOM    135  N   UNL     1      -9.988  -4.804   9.607  1.00  0.00    -0.354 N 
ATOM    136  N   UNL     1      -7.303  -4.975  10.789  1.00  0.00    -0.248 NA
ATOM    137  C   UNL     1      -5.911  -5.025  12.661  1.00  0.00    -0.034 C 
ATOM    138  C   UNL     1     -11.739  -4.785  10.974  1.00  0.00    -0.036 A 
ATOM    139  H   UNL     1     -13.203  -4.774   9.370  1.00  0.00     0.065 H 
ATOM    140  C   UNL     1     -10.355  -4.838  10.943  1.00  0.00     0.049 A 
ATOM    141  H   UNL     1      -9.062  -4.821   9.274  1.00  0.00     0.167 HD
ATOM    142  C   UNL     1      -8.085  -4.971  11.936  1.00  0.00     0.074 A 
ATOM    143  C   UNL     1      -7.174  -5.040  13.060  1.00  0.00    -0.034 C 
ATOM    144  H   UNL     1      -5.049  -5.016  13.228  1.00  0.00     0.065 H 
ATOM    145  H   UNL     1     -12.323  -4.762  11.824  1.00  0.00     0.065 H 
ATOM    146  C   UNL     1      -9.435  -4.915  12.050  1.00  0.00     0.037 A 
ATOM    147  H   UNL     1      -7.472  -5.094  14.047  1.00  0.00     0.065 H 
BRANCH 128 148
ATOM    148  C   UNL     1     -12.416  -4.528   6.648  1.00  0.00     0.064 A 
ATOM    149  C   UNL     1     -12.927  -5.558   5.843  1.00  0.00     0.173 A 
ATOM    150  C   UNL     1     -13.191  -3.366   6.791  1.00  0.00     0.173 A 
ATOM    151  F   UNL     1     -12.223  -6.686   5.663  1.00  0.00    -0.203 F 
ATOM    152  C   UNL     1     -14.144  -5.417   5.181  1.00  0.00     0.198 A 
ATOM    153  C   UNL     1     -14.425  -3.243   6.156  1.00  0.00     0.198 A 
ATOM    154  F   UNL     1     -12.756  -2.351   7.553  1.00  0.00    -0.203 F 
ATOM    155  F   UNL     1     -14.582  -6.392   4.372  1.00  0.00    -0.200 F 
ATOM    156  C   UNL     1     -14.895  -4.263   5.344  1.00  0.00     0.200 A 
ATOM    157  F   UNL     1     -15.156  -2.133   6.327  1.00  0.00    -0.200 F 
ATOM    158  F   UNL     1     -16.070  -4.132   4.713  1.00  0.00    -0.200 F 
ENDBRANCH 128 148
BRANCH 131 159
ATOM    159  C   UNL     1      -3.463  -5.154  11.055  1.00  0.00     0.064 A 
ATOM    160  C   UNL     1      -3.086  -6.279  11.802  1.00  0.00     0.173 A 
ATOM    161  C   UNL     1      -2.548  -4.094  10.969  1.00  0.00     0.173 A 
ATOM    162  F   UNL     1      -3.932  -7.311  11.931  1.00  0.00    -0.203 F 
ATOM    163  C   UNL     1      -1.857  -6.331  12.458  1.00  0.00     0.198 A 
ATOM    164  C   UNL     1      -1.306  -4.161  11.598  1.00  0.00     0.198 A 
ATOM    165  F   UNL     1      -2.855  -2.996  10.263  1.00  0.00    -0.203 F 
ATOM    166  F   UNL     1      -1.546  -7.396  13.209  1.00  0.00    -0.200 F 
ATOM    167  C   UNL     1      -0.966  -5.275  12.351  1.00  0.00     0.200 A 
ATOM    168  F   UNL     1      -0.442  -3.144  11.478  1.00  0.00    -0.200 F 
ATOM    169  F   UNL     1       0.217  -5.326  12.978  1.00  0.00    -0.200 F 
ENDBRANCH 131 159
BRANCH 146 170
ATOM    170  C   UNL     1     -10.014  -4.966  13.435  1.00  0.00     0.064 A 
ATOM    171  C   UNL     1      -9.880  -3.898  14.334  1.00  0.00     0.173 A 
ATOM    172  C   UNL     1     -10.749  -6.087  13.853  1.00  0.00     0.173 A 
ATOM    173  F   UNL     1      -9.175  -2.810  13.989  1.00  0.00    -0.203 F 
ATOM    174  C   UNL     1     -10.434  -3.962  15.610  1.00  0.00     0.198 A 
ATOM    175  C   UNL     1     -11.333  -6.132  15.116  1.00  0.00     0.198 A 
ATOM    176  F   UNL     1     -10.916  -7.133  13.030  1.00  0.00    -0.203 F 
ATOM    177  F   UNL     1     -10.247  -2.952  16.471  1.00  0.00    -0.200 F 
ATOM    178  C   UNL     1     -11.167  -5.074  15.996  1.00  0.00     0.200 A 
ATOM    179  F   UNL     1     -12.056  -7.200  15.481  1.00  0.00    -0.200 F 
ATOM    180  F   UNL     1     -11.709  -5.129  17.221  1.00  0.00    -0.200 F 
ENDBRANCH 146 170
ENDBRANCH 111 114
ENDBRANCH 101 104
ENDBRANCH  97 100
ENDBRANCH  94  97
ENDBRANCH   1  94
TORSDOF 21
