REMARK SMILES CCCCCCNC(=O)Oc1cccc(-c2ccc([C@@H](C)C(=O)NCCCCCCNC(=O)c3ccc(-c4c5nc(c(-c6c(F)c(F)c(F)c(F)c6F)c6ccc([nH]6)c(-c6c(F)c(F)c(F)c(F)c6F)c6nc(c(-c7c(F)c(F)c(F)c(F)c7F)c7ccc4[nH]7)C=C6)C=C5)cc3)cc2[N+](=O)[O-])c1
REMARK SMILES IDX 22 1 23 2 24 3 20 5 19 7 16 8 17 9 98 10 18 11 97 13 15 16
REMARK SMILES IDX 11 17 12 18 102 19 13 20 14 23 10 26 8 27 7 28 9 30 6 31
REMARK SMILES IDX 5 34 4 37 3 40 2 43 1 46 99 50 100 51 101 52 21 53 25 57
REMARK SMILES IDX 26 60 27 63 28 66 29 69 30 72 31 75 32 76 33 78 34 79 35 80
REMARK SMILES IDX 96 81 36 82 95 84 37 86 38 89 39 90 89 91 40 92 94 93 88 94
REMARK SMILES IDX 90 95 41 96 93 97 87 99 86 101 42 103 74 106 54 107 73 108
REMARK SMILES IDX 55 109 58 110 72 111 91 112 56 113 57 115 71 117 92 118
REMARK SMILES IDX 59 121 43 123 44 124 52 125 45 126 46 127 50 128 53 129
REMARK SMILES IDX 47 130 48 131 51 132 49 133 75 134 76 135 84 136 77 137
REMARK SMILES IDX 78 138 82 139 85 140 79 141 80 142 83 143 81 144 60 145
REMARK SMILES IDX 61 146 69 147 62 148 63 149 67 150 70 151 64 152 65 153
REMARK SMILES IDX 68 154 66 155
REMARK H PARENT 24 4 20 6 17 12 18 14 97 15 12 21 102 22 13 24 14 25 7 29 6 32
REMARK H PARENT 6 33 5 35 5 36 4 38 4 39 3 41 3 42 2 44 2 45 1 47 1 48 1 49
REMARK H PARENT 21 54 21 55 21 56 25 58 25 59 26 61 26 62 27 64 27 65 28 67
REMARK H PARENT 28 68 29 70 29 71 30 73 30 74 31 77 35 83 96 85 36 87 95 88
REMARK H PARENT 94 98 88 100 90 102 93 104 87 105 55 114 58 116 91 119 56 120
REMARK H PARENT 92 122
REMARK Flexibility Score: inf
ROOT
ATOM      1  C   UNL     1      -3.081 -10.237  -9.689  1.00  0.00     0.227 C 
ATOM      2  O   UNL     1      -2.177 -10.781  -9.042  1.00  0.00    -0.274 OA
ATOM      3  N   UNL     1      -2.766  -9.859 -10.957  1.00  0.00    -0.356 N 
ATOM      4  H   UNL     1      -1.865 -10.131 -11.245  1.00  0.00     0.163 HD
ENDROOT
BRANCH   1   5
ATOM      5  C   UNL     1      -4.468 -10.048  -9.053  1.00  0.00     0.060 C 
ATOM      6  H   UNL     1      -4.423 -10.581  -8.127  1.00  0.00     0.045 H 
BRANCH   5   7
ATOM      7  C   UNL     1      -4.759  -8.620  -8.616  1.00  0.00    -0.029 A 
ATOM      8  C   UNL     1      -5.109  -5.901  -7.766  1.00  0.00     0.060 A 
ATOM      9  C   UNL     1      -5.427  -6.324  -9.069  1.00  0.00    -0.047 A 
ATOM     10  C   UNL     1      -4.690  -6.901  -6.867  1.00  0.00     0.277 A 
ATOM     11  C   UNL     1      -5.298  -7.657  -9.470  1.00  0.00    -0.057 A 
ATOM     12  H   UNL     1      -5.767  -5.627  -9.751  1.00  0.00     0.063 H 
ATOM     13  C   UNL     1      -4.474  -8.226  -7.299  1.00  0.00     0.021 A 
ATOM     14  H   UNL     1      -5.607  -7.934 -10.415  1.00  0.00     0.063 H 
ATOM     15  H   UNL     1      -4.099  -8.920  -6.634  1.00  0.00     0.070 H 
BRANCH   8  16
ATOM     16  C   UNL     1      -5.189  -4.459  -7.448  1.00  0.00    -0.008 A 
ATOM     17  C   UNL     1      -4.235  -2.431  -6.507  1.00  0.00     0.133 A 
ATOM     18  C   UNL     1      -5.356  -1.693  -6.876  1.00  0.00    -0.019 A 
ATOM     19  C   UNL     1      -4.136  -3.793  -6.797  1.00  0.00    -0.011 A 
ATOM     20  C   UNL     1      -6.394  -2.327  -7.548  1.00  0.00    -0.058 A 
ATOM     21  H   UNL     1      -5.415  -0.687  -6.653  1.00  0.00     0.066 H 
ATOM     22  H   UNL     1      -3.286  -4.315  -6.531  1.00  0.00     0.067 H 
ATOM     23  C   UNL     1      -6.315  -3.697  -7.819  1.00  0.00    -0.054 A 
ATOM     24  H   UNL     1      -7.222  -1.788  -7.847  1.00  0.00     0.062 H 
ATOM     25  H   UNL     1      -7.100  -4.161  -8.303  1.00  0.00     0.063 H 
BRANCH  17  26
ATOM     26  O   UNL     1      -3.292  -1.782  -5.692  1.00  0.00    -0.410 OA
BRANCH  26  27
ATOM     27  C   UNL     1      -1.942  -1.900  -5.984  1.00  0.00     0.412 C 
ATOM     28  N   UNL     1      -1.141  -1.385  -5.000  1.00  0.00    -0.321 N 
ATOM     29  H   UNL     1      -0.171  -1.411  -5.163  1.00  0.00     0.167 HD
ATOM     30  O   UNL     1      -1.466  -2.395  -6.997  1.00  0.00    -0.224 OA
BRANCH  28  31
ATOM     31  C   UNL     1      -1.575  -0.806  -3.744  1.00  0.00     0.021 C 
ATOM     32  H   UNL     1      -1.265   0.218  -3.711  1.00  0.00     0.049 H 
ATOM     33  H   UNL     1      -2.641  -0.890  -3.693  1.00  0.00     0.049 H 
BRANCH  31  34
ATOM     34  C   UNL     1      -0.987  -1.539  -2.538  1.00  0.00    -0.036 C 
ATOM     35  H   UNL     1      -1.403  -1.108  -1.652  1.00  0.00     0.028 H 
ATOM     36  H   UNL     1      -1.237  -2.572  -2.665  1.00  0.00     0.028 H 
BRANCH  34  37
ATOM     37  C   UNL     1       0.541  -1.477  -2.427  1.00  0.00    -0.052 C 
ATOM     38  H   UNL     1       0.828  -1.995  -1.536  1.00  0.00     0.027 H 
ATOM     39  H   UNL     1       0.919  -1.921  -3.325  1.00  0.00     0.027 H 
BRANCH  37  40
ATOM     40  C   UNL     1       1.143  -0.069  -2.369  1.00  0.00    -0.054 C 
ATOM     41  H   UNL     1       2.204  -0.167  -2.282  1.00  0.00     0.027 H 
ATOM     42  H   UNL     1       0.828   0.423  -3.266  1.00  0.00     0.027 H 
BRANCH  40  43
ATOM     43  C   UNL     1       0.653   0.808  -1.214  1.00  0.00    -0.056 C 
ATOM     44  H   UNL     1       1.090   1.779  -1.316  1.00  0.00     0.026 H 
ATOM     45  H   UNL     1      -0.415   0.838  -1.270  1.00  0.00     0.026 H 
BRANCH  43  46
ATOM     46  C   UNL     1       1.016   0.256   0.155  1.00  0.00    -0.065 C 
ATOM     47  H   UNL     1       0.646   0.913   0.914  1.00  0.00     0.023 H 
ATOM     48  H   UNL     1       2.080   0.179   0.238  1.00  0.00     0.023 H 
ATOM     49  H   UNL     1       0.578  -0.713   0.278  1.00  0.00     0.023 H 
ENDBRANCH  43  46
ENDBRANCH  40  43
ENDBRANCH  37  40
ENDBRANCH  34  37
ENDBRANCH  31  34
ENDBRANCH  28  31
ENDBRANCH  26  27
ENDBRANCH  17  26
ENDBRANCH   8  16
BRANCH  10  50
ATOM     50  N   UNL     1      -4.522  -6.628  -5.457  1.00  0.00     0.063 N 
ATOM     51  O   UNL     1      -3.699  -7.234  -4.803  1.00  0.00    -0.258 OA
ATOM     52  O   UNL     1      -5.377  -5.785  -4.787  1.00  0.00    -0.258 OA
ENDBRANCH  10  50
ENDBRANCH   5   7
BRANCH   5  53
ATOM     53  C   UNL     1      -5.599 -10.754  -9.800  1.00  0.00    -0.049 C 
ATOM     54  H   UNL     1      -5.734 -10.296 -10.758  1.00  0.00     0.024 H 
ATOM     55  H   UNL     1      -6.504 -10.674  -9.235  1.00  0.00     0.024 H 
ATOM     56  H   UNL     1      -5.350 -11.787  -9.931  1.00  0.00     0.024 H 
ENDBRANCH   5  53
ENDBRANCH   1   5
BRANCH   3  57
ATOM     57  C   UNL     1      -3.510  -9.131 -11.962  1.00  0.00     0.017 C 
ATOM     58  H   UNL     1      -4.552  -9.172 -11.720  1.00  0.00     0.049 H 
ATOM     59  H   UNL     1      -3.321  -9.584 -12.912  1.00  0.00     0.049 H 
BRANCH  57  60
ATOM     60  C   UNL     1      -3.075  -7.665 -12.036  1.00  0.00    -0.036 C 
ATOM     61  H   UNL     1      -2.753  -7.360 -11.062  1.00  0.00     0.028 H 
ATOM     62  H   UNL     1      -3.920  -7.107 -12.383  1.00  0.00     0.028 H 
BRANCH  60  63
ATOM     63  C   UNL     1      -1.934  -7.406 -13.025  1.00  0.00    -0.052 C 
ATOM     64  H   UNL     1      -1.110  -8.031 -12.751  1.00  0.00     0.027 H 
ATOM     65  H   UNL     1      -1.716  -6.361 -12.961  1.00  0.00     0.027 H 
BRANCH  63  66
ATOM     66  C   UNL     1      -2.272  -7.683 -14.496  1.00  0.00    -0.052 C 
ATOM     67  H   UNL     1      -2.442  -8.734 -14.602  1.00  0.00     0.027 H 
ATOM     68  H   UNL     1      -1.439  -7.320 -15.061  1.00  0.00     0.027 H 
BRANCH  66  69
ATOM     69  C   UNL     1      -3.502  -6.949 -15.041  1.00  0.00    -0.036 C 
ATOM     70  H   UNL     1      -4.354  -7.261 -14.474  1.00  0.00     0.028 H 
ATOM     71  H   UNL     1      -3.568  -7.202 -16.078  1.00  0.00     0.028 H 
BRANCH  69  72
ATOM     72  C   UNL     1      -3.419  -5.426 -14.975  1.00  0.00     0.018 C 
ATOM     73  H   UNL     1      -3.257  -5.131 -13.959  1.00  0.00     0.049 H 
ATOM     74  H   UNL     1      -4.339  -5.027 -15.350  1.00  0.00     0.049 H 
BRANCH  72  75
ATOM     75  N   UNL     1      -2.335  -4.906 -15.794  1.00  0.00    -0.352 N 
ATOM     76  C   UNL     1      -2.374  -4.050 -16.866  1.00  0.00     0.251 C 
ATOM     77  H   UNL     1      -1.436  -5.216 -15.541  1.00  0.00     0.163 HD
ATOM     78  O   UNL     1      -1.382  -3.904 -17.573  1.00  0.00    -0.269 OA
BRANCH  76  79
ATOM     79  C   UNL     1      -3.611  -3.305 -17.181  1.00  0.00     0.039 A 
ATOM     80  C   UNL     1      -4.014  -3.198 -18.515  1.00  0.00    -0.049 A 
ATOM     81  C   UNL     1      -4.349  -2.677 -16.174  1.00  0.00    -0.049 A 
ATOM     82  C   UNL     1      -5.186  -2.508 -18.834  1.00  0.00    -0.053 A 
ATOM     83  H   UNL     1      -3.447  -3.628 -19.263  1.00  0.00     0.063 H 
ATOM     84  C   UNL     1      -5.551  -2.045 -16.485  1.00  0.00    -0.053 A 
ATOM     85  H   UNL     1      -4.005  -2.681 -15.201  1.00  0.00     0.063 H 
ATOM     86  C   UNL     1      -5.978  -1.950 -17.819  1.00  0.00    -0.014 A 
ATOM     87  H   UNL     1      -5.470  -2.408 -19.821  1.00  0.00     0.063 H 
ATOM     88  H   UNL     1      -6.130  -1.643 -15.731  1.00  0.00     0.063 H 
BRANCH  86  89
ATOM     89  C   UNL     1      -7.258  -1.266 -18.131  1.00  0.00     0.031 A 
ATOM     90  C   UNL     1      -7.416   0.205 -17.866  1.00  0.00     0.074 A 
ATOM     91  C   UNL     1      -8.302  -1.986 -18.583  1.00  0.00     0.049 A 
ATOM     92  N   UNL     1      -8.476   0.962 -18.002  1.00  0.00    -0.248 NA
ATOM     93  C   UNL     1      -6.234   0.913 -17.352  1.00  0.00    -0.034 C 
ATOM     94  C   UNL     1      -8.289  -3.429 -18.825  1.00  0.00    -0.036 A 
ATOM     95  N   UNL     1      -9.582  -1.606 -18.900  1.00  0.00    -0.354 N 
ATOM     96  C   UNL     1      -8.094   2.226 -17.571  1.00  0.00     0.074 A 
ATOM     97  C   UNL     1      -6.721   2.125 -17.128  1.00  0.00    -0.034 C 
ATOM     98  H   UNL     1      -5.276   0.559 -17.205  1.00  0.00     0.065 H 
ATOM     99  C   UNL     1      -9.500  -3.812 -19.260  1.00  0.00    -0.036 A 
ATOM    100  H   UNL     1      -7.479  -4.053 -18.683  1.00  0.00     0.065 H 
ATOM    101  C   UNL     1     -10.382  -2.649 -19.298  1.00  0.00     0.049 A 
ATOM    102  H   UNL     1      -9.897  -0.675 -18.848  1.00  0.00     0.167 HD
ATOM    103  C   UNL     1      -8.820   3.370 -17.564  1.00  0.00     0.037 A 
ATOM    104  H   UNL     1      -6.189   2.896 -16.693  1.00  0.00     0.065 H 
ATOM    105  H   UNL     1      -9.765  -4.773 -19.526  1.00  0.00     0.065 H 
ATOM    106  C   UNL     1     -11.683  -2.668 -19.643  1.00  0.00     0.037 A 
ATOM    107  C   UNL     1     -10.176   3.472 -18.037  1.00  0.00     0.049 A 
ATOM    108  C   UNL     1     -12.460  -1.381 -19.650  1.00  0.00     0.074 A 
ATOM    109  C   UNL     1     -10.967   4.601 -18.152  1.00  0.00    -0.036 A 
ATOM    110  N   UNL     1     -10.944   2.400 -18.468  1.00  0.00    -0.354 N 
ATOM    111  N   UNL     1     -12.066  -0.175 -19.320  1.00  0.00    -0.248 NA
ATOM    112  C   UNL     1     -13.861  -1.454 -20.087  1.00  0.00    -0.034 C 
ATOM    113  C   UNL     1     -12.229   4.206 -18.609  1.00  0.00    -0.036 A 
ATOM    114  H   UNL     1     -10.677   5.568 -17.938  1.00  0.00     0.065 H 
ATOM    115  C   UNL     1     -12.209   2.837 -18.825  1.00  0.00     0.049 A 
ATOM    116  H   UNL     1     -10.635   1.466 -18.514  1.00  0.00     0.167 HD
ATOM    117  C   UNL     1     -13.158   0.655 -19.527  1.00  0.00     0.074 A 
ATOM    118  C   UNL     1     -14.229  -0.182 -20.029  1.00  0.00    -0.034 C 
ATOM    119  H   UNL     1     -14.414  -2.280 -20.367  1.00  0.00     0.065 H 
ATOM    120  H   UNL     1     -13.039   4.829 -18.760  1.00  0.00     0.065 H 
ATOM    121  C   UNL     1     -13.265   1.991 -19.320  1.00  0.00     0.037 A 
ATOM    122  H   UNL     1     -15.159   0.168 -20.305  1.00  0.00     0.065 H 
BRANCH 103 123
ATOM    123  C   UNL     1      -8.160   4.607 -17.025  1.00  0.00     0.064 A 
ATOM    124  C   UNL     1      -7.118   5.247 -17.712  1.00  0.00     0.173 A 
ATOM    125  C   UNL     1      -8.597   5.176 -15.819  1.00  0.00     0.173 A 
ATOM    126  F   UNL     1      -6.657   4.738 -18.865  1.00  0.00    -0.203 F 
ATOM    127  C   UNL     1      -6.516   6.392 -17.197  1.00  0.00     0.198 A 
ATOM    128  C   UNL     1      -8.013   6.338 -15.322  1.00  0.00     0.198 A 
ATOM    129  F   UNL     1      -9.595   4.609 -15.125  1.00  0.00    -0.203 F 
ATOM    130  F   UNL     1      -5.487   6.956 -17.845  1.00  0.00    -0.200 F 
ATOM    131  C   UNL     1      -6.967   6.940 -16.006  1.00  0.00     0.200 A 
ATOM    132  F   UNL     1      -8.459   6.874 -14.177  1.00  0.00    -0.200 F 
ATOM    133  F   UNL     1      -6.390   8.044 -15.513  1.00  0.00    -0.200 F 
ENDBRANCH 103 123
BRANCH 106 134
ATOM    134  C   UNL     1     -12.322  -3.951 -20.031  1.00  0.00     0.064 A 
ATOM    135  C   UNL     1     -12.677  -4.207 -21.362  1.00  0.00     0.173 A 
ATOM    136  C   UNL     1     -12.573  -4.954 -19.083  1.00  0.00     0.173 A 
ATOM    137  F   UNL     1     -12.474  -3.270 -22.300  1.00  0.00    -0.203 F 
ATOM    138  C   UNL     1     -13.274  -5.411 -21.729  1.00  0.00     0.198 A 
ATOM    139  C   UNL     1     -13.145  -6.168 -19.455  1.00  0.00     0.198 A 
ATOM    140  F   UNL     1     -12.245  -4.760 -17.797  1.00  0.00    -0.203 F 
ATOM    141  F   UNL     1     -13.637  -5.616 -23.002  1.00  0.00    -0.200 F 
ATOM    142  C   UNL     1     -13.501  -6.394 -20.776  1.00  0.00     0.200 A 
ATOM    143  F   UNL     1     -13.348  -7.121 -18.535  1.00  0.00    -0.200 F 
ATOM    144  F   UNL     1     -14.065  -7.556 -21.131  1.00  0.00    -0.200 F 
ENDBRANCH 106 134
BRANCH 121 145
ATOM    145  C   UNL     1     -14.579   2.634 -19.654  1.00  0.00     0.064 A 
ATOM    146  C   UNL     1     -15.715   2.440 -18.856  1.00  0.00     0.173 A 
ATOM    147  C   UNL     1     -14.691   3.487 -20.763  1.00  0.00     0.173 A 
ATOM    148  F   UNL     1     -15.663   1.621 -17.795  1.00  0.00    -0.203 F 
ATOM    149  C   UNL     1     -16.923   3.059 -19.168  1.00  0.00     0.198 A 
ATOM    150  C   UNL     1     -15.892   4.127 -21.056  1.00  0.00     0.198 A 
ATOM    151  F   UNL     1     -13.631   3.710 -21.555  1.00  0.00    -0.203 F 
ATOM    152  F   UNL     1     -18.008   2.824 -18.417  1.00  0.00    -0.200 F 
ATOM    153  C   UNL     1     -17.008   3.907 -20.263  1.00  0.00     0.200 A 
ATOM    154  F   UNL     1     -15.970   4.955 -22.106  1.00  0.00    -0.200 F 
ATOM    155  F   UNL     1     -18.169   4.507 -20.557  1.00  0.00    -0.200 F 
ENDBRANCH 121 145
ENDBRANCH  86  89
ENDBRANCH  76  79
ENDBRANCH  72  75
ENDBRANCH  69  72
ENDBRANCH  66  69
ENDBRANCH  63  66
ENDBRANCH  60  63
ENDBRANCH  57  60
ENDBRANCH   3  57
TORSDOF 25
