REMARK SMILES O=C(NCCCCCCNC(=O)[C@H](CO)NC(=O)[C@H](Cc1c[nH]c2ccccc12)NC(=O)c1ccc(F)cc1)c1ccc(-c2c3nc(c(-c4c(F)c(F)c(F)c(F)c4F)c4ccc([nH]4)c(-c4c(F)c(F)c(F)c(F)c4F)c4nc(c(-c5c(F)c(F)c(F)c(F)c5F)c5ccc2[nH]5)C=C4)C=C3)cc1
REMARK SMILES IDX 7 1 6 4 5 7 4 10 3 13 1 14 2 15 40 17 41 18 102 19 42 20
REMARK SMILES IDX 101 22 43 24 44 27 45 28 95 29 46 30 100 31 94 32 96 33
REMARK SMILES IDX 47 34 99 35 93 37 92 39 48 41 80 44 60 45 79 46 61 47 64 48
REMARK SMILES IDX 78 49 97 50 62 51 63 53 77 55 98 56 65 59 49 61 50 62 58 63
REMARK SMILES IDX 51 64 52 65 56 66 59 67 53 68 54 69 57 70 55 71 81 72 82 73
REMARK SMILES IDX 90 74 83 75 84 76 88 77 91 78 85 79 86 80 89 81 87 82 66 83
REMARK SMILES IDX 67 84 75 85 68 86 69 87 73 88 76 89 70 90 71 91 74 92 72 93
REMARK SMILES IDX 8 94 9 97 10 100 11 101 12 103 13 104 16 106 17 107 18 109
REMARK SMILES IDX 19 110 30 112 31 113 32 115 33 116 34 117 39 118 35 119
REMARK SMILES IDX 38 121 36 123 37 126 20 127 21 130 22 131 29 132 23 133
REMARK SMILES IDX 24 135 28 136 25 138 27 139 26 141 14 145 15 148
REMARK H PARENT 7 2 7 3 6 5 6 6 5 8 5 9 4 11 4 12 3 16 41 21 102 23 42 25
REMARK H PARENT 101 26 100 36 94 38 96 40 99 42 93 43 61 52 64 54 97 57 62 58
REMARK H PARENT 98 60 8 95 8 96 9 98 9 99 10 102 13 105 16 108 19 111 30 114
REMARK H PARENT 34 120 39 122 35 124 38 125 20 128 20 129 22 134 23 137 28 140
REMARK H PARENT 25 142 27 143 26 144 14 146 14 147 15 149
REMARK Flexibility Score: inf
ROOT
ATOM      1  C   UNL     1       9.306  -9.306 -12.510  1.00  0.00    -0.052 C 
ATOM      2  H   UNL     1       8.406  -9.399 -13.081  1.00  0.00     0.027 H 
ATOM      3  H   UNL     1       9.701  -8.313 -12.461  1.00  0.00     0.027 H 
ENDROOT
BRANCH   1   4
ATOM      4  C   UNL     1      10.387 -10.137 -13.208  1.00  0.00    -0.052 C 
ATOM      5  H   UNL     1      10.408  -9.847 -14.238  1.00  0.00     0.027 H 
ATOM      6  H   UNL     1      11.292  -9.935 -12.674  1.00  0.00     0.027 H 
BRANCH   4   7
ATOM      7  C   UNL     1      10.212 -11.653 -13.155  1.00  0.00    -0.036 C 
ATOM      8  H   UNL     1      10.932 -12.090 -13.815  1.00  0.00     0.028 H 
ATOM      9  H   UNL     1      10.342 -11.925 -12.128  1.00  0.00     0.028 H 
BRANCH   7  10
ATOM     10  C   UNL     1       8.839 -12.178 -13.550  1.00  0.00     0.018 C 
ATOM     11  H   UNL     1       8.844 -13.243 -13.453  1.00  0.00     0.049 H 
ATOM     12  H   UNL     1       8.129 -11.711 -12.901  1.00  0.00     0.049 H 
BRANCH  10  13
ATOM     13  N   UNL     1       8.454 -11.844 -14.909  1.00  0.00    -0.352 N 
ATOM     14  O   UNL     1       7.667 -12.230 -16.992  1.00  0.00    -0.269 OA
ATOM     15  C   UNL     1       7.862 -12.647 -15.854  1.00  0.00     0.251 C 
ATOM     16  H   UNL     1       8.643 -10.920 -15.191  1.00  0.00     0.163 HD
BRANCH  15  17
ATOM     17  C   UNL     1       7.502 -14.038 -15.505  1.00  0.00     0.039 A 
ATOM     18  C   UNL     1       6.828 -14.326 -14.316  1.00  0.00    -0.049 A 
ATOM     19  C   UNL     1       7.877 -15.071 -16.369  1.00  0.00    -0.049 A 
ATOM     20  C   UNL     1       6.670 -15.649 -13.919  1.00  0.00    -0.053 A 
ATOM     21  H   UNL     1       6.449 -13.561 -13.736  1.00  0.00     0.063 H 
ATOM     22  C   UNL     1       7.638 -16.399 -16.008  1.00  0.00    -0.053 A 
ATOM     23  H   UNL     1       8.329 -14.852 -17.271  1.00  0.00     0.063 H 
ATOM     24  C   UNL     1       7.069 -16.700 -14.762  1.00  0.00    -0.014 A 
ATOM     25  H   UNL     1       6.257 -15.860 -12.997  1.00  0.00     0.063 H 
ATOM     26  H   UNL     1       7.882 -17.161 -16.660  1.00  0.00     0.063 H 
BRANCH  24  27
ATOM     27  C   UNL     1       6.838 -18.102 -14.330  1.00  0.00     0.031 A 
ATOM     28  C   UNL     1       7.985 -19.031 -14.050  1.00  0.00     0.074 A 
ATOM     29  C   UNL     1       5.571 -18.518 -14.145  1.00  0.00     0.049 A 
ATOM     30  N   UNL     1       7.956 -20.270 -13.626  1.00  0.00    -0.248 NA
ATOM     31  C   UNL     1       9.341 -18.509 -14.280  1.00  0.00    -0.034 C 
ATOM     32  C   UNL     1       4.378 -17.706 -14.394  1.00  0.00    -0.036 A 
ATOM     33  N   UNL     1       5.073 -19.708 -13.679  1.00  0.00    -0.354 N 
ATOM     34  C   UNL     1       9.281 -20.680 -13.555  1.00  0.00     0.074 A 
ATOM     35  C   UNL     1      10.091 -19.567 -14.002  1.00  0.00    -0.034 C 
ATOM     36  H   UNL     1       9.632 -17.565 -14.578  1.00  0.00     0.065 H 
ATOM     37  C   UNL     1       3.292 -18.396 -14.020  1.00  0.00    -0.036 A 
ATOM     38  H   UNL     1       4.375 -16.755 -14.793  1.00  0.00     0.065 H 
ATOM     39  C   UNL     1       3.706 -19.718 -13.561  1.00  0.00     0.049 A 
ATOM     40  H   UNL     1       5.641 -20.479 -13.452  1.00  0.00     0.167 HD
ATOM     41  C   UNL     1       9.773 -21.874 -13.143  1.00  0.00     0.037 A 
ATOM     42  H   UNL     1      11.118 -19.594 -14.094  1.00  0.00     0.065 H 
ATOM     43  H   UNL     1       2.321 -18.049 -14.051  1.00  0.00     0.065 H 
ATOM     44  C   UNL     1       2.873 -20.685 -13.134  1.00  0.00     0.037 A 
ATOM     45  C   UNL     1       8.962 -22.972 -12.683  1.00  0.00     0.049 A 
ATOM     46  C   UNL     1       3.443 -21.999 -12.690  1.00  0.00     0.074 A 
ATOM     47  C   UNL     1       9.370 -24.216 -12.232  1.00  0.00    -0.036 A 
ATOM     48  N   UNL     1       7.577 -22.957 -12.611  1.00  0.00    -0.354 N 
ATOM     49  N   UNL     1       4.698 -22.371 -12.622  1.00  0.00    -0.248 NA
ATOM     50  C   UNL     1       2.485 -23.029 -12.268  1.00  0.00    -0.034 C 
ATOM     51  C   UNL     1       8.231 -24.966 -11.923  1.00  0.00    -0.036 A 
ATOM     52  H   UNL     1      10.347 -24.535 -12.140  1.00  0.00     0.065 H 
ATOM     53  C   UNL     1       7.114 -24.175 -12.137  1.00  0.00     0.049 A 
ATOM     54  H   UNL     1       7.006 -22.195 -12.861  1.00  0.00     0.167 HD
ATOM     55  C   UNL     1       4.683 -23.673 -12.146  1.00  0.00     0.074 A 
ATOM     56  C   UNL     1       3.295 -24.020 -11.920  1.00  0.00    -0.034 C 
ATOM     57  H   UNL     1       1.454 -22.991 -12.248  1.00  0.00     0.065 H 
ATOM     58  H   UNL     1       8.224 -25.944 -11.591  1.00  0.00     0.065 H 
ATOM     59  C   UNL     1       5.728 -24.506 -11.922  1.00  0.00     0.037 A 
ATOM     60  H   UNL     1       2.976 -24.924 -11.537  1.00  0.00     0.065 H 
BRANCH  41  61
ATOM     61  C   UNL     1      11.261 -22.065 -13.176  1.00  0.00     0.064 A 
ATOM     62  C   UNL     1      11.847 -22.936 -14.108  1.00  0.00     0.173 A 
ATOM     63  C   UNL     1      12.103 -21.438 -12.246  1.00  0.00     0.173 A 
ATOM     64  F   UNL     1      11.085 -23.567 -15.015  1.00  0.00    -0.203 F 
ATOM     65  C   UNL     1      13.218 -23.177 -14.102  1.00  0.00     0.198 A 
ATOM     66  C   UNL     1      13.478 -21.662 -12.259  1.00  0.00     0.198 A 
ATOM     67  F   UNL     1      11.595 -20.587 -11.342  1.00  0.00    -0.203 F 
ATOM     68  F   UNL     1      13.751 -24.033 -14.985  1.00  0.00    -0.200 F 
ATOM     69  C   UNL     1      14.033 -22.537 -13.181  1.00  0.00     0.200 A 
ATOM     70  F   UNL     1      14.267 -21.025 -11.383  1.00  0.00    -0.200 F 
ATOM     71  F   UNL     1      15.355 -22.761 -13.183  1.00  0.00    -0.200 F 
ENDBRANCH  41  61
BRANCH  44  72
ATOM     72  C   UNL     1       1.414 -20.415 -13.092  1.00  0.00     0.064 A 
ATOM     73  C   UNL     1       0.667 -20.272 -14.270  1.00  0.00     0.173 A 
ATOM     74  C   UNL     1       0.756 -20.226 -11.870  1.00  0.00     0.173 A 
ATOM     75  F   UNL     1       1.257 -20.434 -15.463  1.00  0.00    -0.203 F 
ATOM     76  C   UNL     1      -0.680 -19.919 -14.227  1.00  0.00     0.198 A 
ATOM     77  C   UNL     1      -0.598 -19.898 -11.829  1.00  0.00     0.198 A 
ATOM     78  F   UNL     1       1.428 -20.368 -10.718  1.00  0.00    -0.203 F 
ATOM     79  F   UNL     1      -1.360 -19.741 -15.368  1.00  0.00    -0.200 F 
ATOM     80  C   UNL     1      -1.311 -19.734 -13.007  1.00  0.00     0.200 A 
ATOM     81  F   UNL     1      -1.209 -19.737 -10.647  1.00  0.00    -0.200 F 
ATOM     82  F   UNL     1      -2.606 -19.394 -12.966  1.00  0.00    -0.200 F 
ENDBRANCH  44  72
BRANCH  59  83
ATOM     83  C   UNL     1       5.415 -25.875 -11.397  1.00  0.00     0.064 A 
ATOM     84  C   UNL     1       5.720 -26.215 -10.070  1.00  0.00     0.173 A 
ATOM     85  C   UNL     1       4.865 -26.866 -12.222  1.00  0.00     0.173 A 
ATOM     86  F   UNL     1       6.252 -25.302  -9.244  1.00  0.00    -0.203 F 
ATOM     87  C   UNL     1       5.493 -27.502  -9.592  1.00  0.00     0.198 A 
ATOM     88  C   UNL     1       4.617 -28.146 -11.733  1.00  0.00     0.198 A 
ATOM     89  F   UNL     1       4.544 -26.584 -13.494  1.00  0.00    -0.203 F 
ATOM     90  F   UNL     1       5.814 -27.811  -8.328  1.00  0.00    -0.200 F 
ATOM     91  C   UNL     1       4.939 -28.465 -10.422  1.00  0.00     0.200 A 
ATOM     92  F   UNL     1       4.060 -29.069 -12.529  1.00  0.00    -0.200 F 
ATOM     93  F   UNL     1       4.709 -29.700  -9.956  1.00  0.00    -0.200 F 
ENDBRANCH  59  83
ENDBRANCH  24  27
ENDBRANCH  15  17
ENDBRANCH  10  13
ENDBRANCH   7  10
ENDBRANCH   4   7
ENDBRANCH   1   4
BRANCH   1  94
ATOM     94  C   UNL     1       8.981  -9.685 -11.061  1.00  0.00    -0.036 C 
ATOM     95  H   UNL     1       8.514 -10.648 -11.069  1.00  0.00     0.028 H 
ATOM     96  H   UNL     1       8.352  -8.904 -10.688  1.00  0.00     0.028 H 
BRANCH  94  97
ATOM     97  C   UNL     1      10.174  -9.749 -10.117  1.00  0.00     0.017 C 
ATOM     98  H   UNL     1      10.890 -10.438 -10.514  1.00  0.00     0.049 H 
ATOM     99  H   UNL     1       9.816 -10.066  -9.160  1.00  0.00     0.049 H 
BRANCH  97 100
ATOM    100  N   UNL     1      10.811  -8.463  -9.948  1.00  0.00    -0.354 N 
ATOM    101  C   UNL     1      11.479  -7.935  -8.888  1.00  0.00     0.244 C 
ATOM    102  H   UNL     1      10.751  -7.870 -10.731  1.00  0.00     0.163 HD
ATOM    103  O   UNL     1      11.879  -6.774  -9.011  1.00  0.00    -0.273 OA
BRANCH 101 104
ATOM    104  C   UNL     1      11.660  -8.693  -7.563  1.00  0.00     0.131 C 
ATOM    105  H   UNL     1      12.394  -8.155  -7.001  1.00  0.00     0.066 H 
BRANCH 104 106
ATOM    106  N   UNL     1      10.393  -8.707  -6.829  1.00  0.00    -0.340 N 
ATOM    107  C   UNL     1       9.976  -8.088  -5.691  1.00  0.00     0.243 C 
ATOM    108  H   UNL     1       9.706  -9.279  -7.241  1.00  0.00     0.164 HD
ATOM    109  O   UNL     1       8.822  -8.380  -5.354  1.00  0.00    -0.273 OA
BRANCH 107 110
ATOM    110  C   UNL     1      10.909  -7.279  -4.748  1.00  0.00     0.112 C 
ATOM    111  H   UNL     1      11.462  -8.046  -4.247  1.00  0.00     0.064 H 
BRANCH 110 112
ATOM    112  N   UNL     1      11.970  -6.475  -5.354  1.00  0.00    -0.340 N 
ATOM    113  C   UNL     1      13.337  -6.479  -5.262  1.00  0.00     0.251 C 
ATOM    114  H   UNL     1      11.627  -5.780  -5.962  1.00  0.00     0.164 HD
ATOM    115  O   UNL     1      13.925  -5.482  -5.686  1.00  0.00    -0.269 OA
BRANCH 113 116
ATOM    116  C   UNL     1      14.162  -7.612  -4.740  1.00  0.00     0.040 A 
ATOM    117  C   UNL     1      13.740  -8.945  -4.667  1.00  0.00    -0.047 A 
ATOM    118  C   UNL     1      15.509  -7.329  -4.444  1.00  0.00    -0.047 A 
ATOM    119  C   UNL     1      14.631  -9.964  -4.309  1.00  0.00    -0.026 A 
ATOM    120  H   UNL     1      12.758  -9.180  -4.880  1.00  0.00     0.063 H 
ATOM    121  C   UNL     1      16.402  -8.345  -4.090  1.00  0.00    -0.026 A 
ATOM    122  H   UNL     1      15.844  -6.354  -4.490  1.00  0.00     0.063 H 
ATOM    123  C   UNL     1      15.954  -9.656  -4.029  1.00  0.00     0.123 A 
ATOM    124  H   UNL     1      14.304 -10.941  -4.254  1.00  0.00     0.065 H 
ATOM    125  H   UNL     1      17.387  -8.121  -3.875  1.00  0.00     0.065 H 
ATOM    126  F   UNL     1      16.809 -10.637  -3.716  1.00  0.00    -0.207 F 
ENDBRANCH 113 116
ENDBRANCH 110 112
BRANCH 110 127
ATOM    127  C   UNL     1      10.083  -6.449  -3.741  1.00  0.00     0.004 C 
ATOM    128  H   UNL     1      10.710  -6.287  -2.889  1.00  0.00     0.034 H 
ATOM    129  H   UNL     1       9.202  -7.040  -3.603  1.00  0.00     0.034 H 
BRANCH 127 130
ATOM    130  C   UNL     1       9.531  -5.099  -4.136  1.00  0.00    -0.020 A 
ATOM    131  C   UNL     1       9.266  -4.118  -3.193  1.00  0.00     0.005 A 
ATOM    132  C   UNL     1       9.139  -4.545  -5.409  1.00  0.00     0.003 A 
ATOM    133  N   UNL     1       8.755  -3.021  -3.820  1.00  0.00    -0.361 N 
ATOM    134  H   UNL     1       9.429  -4.205  -2.177  1.00  0.00     0.082 H 
ATOM    135  C   UNL     1       8.667  -3.249  -5.170  1.00  0.00     0.046 A 
ATOM    136  C   UNL     1       9.132  -4.989  -6.750  1.00  0.00    -0.053 A 
ATOM    137  H   UNL     1       8.489  -2.187  -3.370  1.00  0.00     0.166 HD
ATOM    138  C   UNL     1       8.203  -2.396  -6.181  1.00  0.00    -0.038 A 
ATOM    139  C   UNL     1       8.680  -4.148  -7.776  1.00  0.00    -0.062 A 
ATOM    140  H   UNL     1       9.461  -5.941  -6.976  1.00  0.00     0.063 H 
ATOM    141  C   UNL     1       8.221  -2.868  -7.493  1.00  0.00    -0.060 A 
ATOM    142  H   UNL     1       7.859  -1.448  -5.961  1.00  0.00     0.064 H 
ATOM    143  H   UNL     1       8.689  -4.482  -8.752  1.00  0.00     0.062 H 
ATOM    144  H   UNL     1       7.890  -2.262  -8.259  1.00  0.00     0.062 H 
ENDBRANCH 127 130
ENDBRANCH 110 127
ENDBRANCH 107 110
ENDBRANCH 104 106
BRANCH 104 145
ATOM    145  C   UNL     1      12.268 -10.098  -7.700  1.00  0.00     0.072 C 
ATOM    146  H   UNL     1      11.743 -10.626  -8.469  1.00  0.00     0.059 H 
ATOM    147  H   UNL     1      12.175 -10.587  -6.753  1.00  0.00     0.059 H 
BRANCH 145 148
ATOM    148  O   UNL     1      13.651 -10.061  -8.035  1.00  0.00    -0.394 OA
ATOM    149  H   UNL     1      13.765  -9.622  -8.892  1.00  0.00     0.210 HD
ENDBRANCH 145 148
ENDBRANCH 104 145
ENDBRANCH 101 104
ENDBRANCH  97 100
ENDBRANCH  94  97
ENDBRANCH   1  94
TORSDOF 21
