REMARK SMILES CC(C)C[C@H](NC(=O)CNC(=O)[C@@H]([NH3+])C(C)C)C(=O)NCCCCCCNC(=O)c1ccc(-c2c3nc(c(-c4c(F)c(F)c(F)c(F)c4F)c4ccc([nH]4)c(-c4c(F)c(F)c(F)c(F)c4F)c4nc(c(-c5c(F)c(F)c(F)c(F)c5F)c5ccc2[nH]5)C=C4)C=C3)cc1
REMARK SMILES IDX 21 1 20 4 18 5 19 6 5 8 4 10 2 13 1 15 3 19 6 23 7 24 8 26
REMARK SMILES IDX 9 27 10 30 11 31 12 33 13 34 14 36 15 40 16 42 17 46 22 50
REMARK SMILES IDX 23 53 24 56 25 59 26 62 27 65 28 66 29 68 30 69 31 70 92 71
REMARK SMILES IDX 32 72 91 74 33 76 34 79 35 80 85 81 36 82 90 83 84 84 86 85
REMARK SMILES IDX 37 86 89 87 83 89 82 91 38 93 70 96 50 97 69 98 51 99 54 100
REMARK SMILES IDX 68 101 87 102 52 103 53 105 67 107 88 108 55 111 39 113
REMARK SMILES IDX 40 114 48 115 41 116 42 117 46 118 49 119 43 120 44 121
REMARK SMILES IDX 47 122 45 123 71 124 72 125 80 126 73 127 74 128 78 129
REMARK SMILES IDX 81 130 75 131 76 132 79 133 77 134 56 135 57 136 65 137
REMARK SMILES IDX 58 138 59 139 63 140 66 141 60 142 61 143 64 144 62 145
REMARK H PARENT 21 2 21 3 20 7 5 9 4 11 4 12 2 14 1 16 1 17 1 18 3 20 3 21
REMARK H PARENT 3 22 6 25 9 28 9 29 10 32 13 35 14 37 14 38 14 39 15 41 16 43
REMARK H PARENT 16 44 16 45 17 47 17 48 17 49 22 51 22 52 23 54 23 55 24 57
REMARK H PARENT 24 58 25 60 25 61 26 63 26 64 27 67 31 73 92 75 32 77 91 78
REMARK H PARENT 90 88 84 90 86 92 89 94 83 95 51 104 54 106 87 109 52 110
REMARK H PARENT 88 112
REMARK Flexibility Score: inf
ROOT
ATOM      1  C   UNL     1      -3.203  -2.756  -2.439  1.00  0.00     0.017 C 
ATOM      2  H   UNL     1      -2.138  -2.811  -2.358  1.00  0.00     0.049 H 
ATOM      3  H   UNL     1      -3.511  -2.915  -3.451  1.00  0.00     0.049 H 
ENDROOT
BRANCH   1   4
ATOM      4  N   UNL     1      -3.643  -1.443  -2.024  1.00  0.00    -0.354 N 
ATOM      5  C   UNL     1      -2.929  -0.308  -1.797  1.00  0.00     0.242 C 
ATOM      6  O   UNL     1      -3.561   0.732  -1.585  1.00  0.00    -0.273 OA
ATOM      7  H   UNL     1      -4.613  -1.357  -1.884  1.00  0.00     0.163 HD
BRANCH   5   8
ATOM      8  C   UNL     1      -1.396  -0.284  -1.928  1.00  0.00     0.108 C 
ATOM      9  H   UNL     1      -1.083   0.694  -1.627  1.00  0.00     0.063 H 
BRANCH   8  10
ATOM     10  C   UNL     1      -0.926  -0.446  -3.381  1.00  0.00    -0.021 C 
ATOM     11  H   UNL     1       0.138  -0.340  -3.403  1.00  0.00     0.030 H 
ATOM     12  H   UNL     1      -1.257  -1.411  -3.703  1.00  0.00     0.030 H 
BRANCH  10  13
ATOM     13  C   UNL     1      -1.534   0.580  -4.370  1.00  0.00    -0.045 C 
ATOM     14  H   UNL     1      -2.597   0.500  -4.277  1.00  0.00     0.030 H 
BRANCH  13  15
ATOM     15  C   UNL     1      -1.153   2.023  -4.048  1.00  0.00    -0.063 C 
ATOM     16  H   UNL     1      -1.602   2.679  -4.765  1.00  0.00     0.023 H 
ATOM     17  H   UNL     1      -0.089   2.129  -4.087  1.00  0.00     0.023 H 
ATOM     18  H   UNL     1      -1.501   2.274  -3.068  1.00  0.00     0.023 H 
ENDBRANCH  13  15
BRANCH  13  19
ATOM     19  C   UNL     1      -1.082   0.255  -5.794  1.00  0.00    -0.063 C 
ATOM     20  H   UNL     1      -0.018   0.343  -5.859  1.00  0.00     0.023 H 
ATOM     21  H   UNL     1      -1.539   0.940  -6.478  1.00  0.00     0.023 H 
ATOM     22  H   UNL     1      -1.373  -0.744  -6.042  1.00  0.00     0.023 H 
ENDBRANCH  13  19
ENDBRANCH  10  13
ENDBRANCH   8  10
BRANCH   8  23
ATOM     23  N   UNL     1      -0.740  -1.216  -1.010  1.00  0.00    -0.343 N 
ATOM     24  C   UNL     1       0.089  -0.972   0.043  1.00  0.00     0.240 C 
ATOM     25  H   UNL     1      -0.927  -2.167  -1.179  1.00  0.00     0.164 HD
ATOM     26  O   UNL     1       0.311  -1.926   0.798  1.00  0.00    -0.273 OA
BRANCH  24  27
ATOM     27  C   UNL     1       0.616   0.428   0.387  1.00  0.00     0.097 C 
ATOM     28  H   UNL     1       1.451   0.314   1.045  1.00  0.00     0.059 H 
ATOM     29  H   UNL     1      -0.209   0.953   0.823  1.00  0.00     0.059 H 
BRANCH  27  30
ATOM     30  N   UNL     1       1.045   1.231  -0.744  1.00  0.00    -0.342 N 
ATOM     31  C   UNL     1       0.657   2.474  -1.142  1.00  0.00     0.278 C 
ATOM     32  H   UNL     1       1.726   0.809  -1.315  1.00  0.00     0.164 HD
ATOM     33  O   UNL     1       1.246   2.947  -2.120  1.00  0.00    -0.268 OA
BRANCH  31  34
ATOM     34  C   UNL     1      -0.419   3.312  -0.399  1.00  0.00     0.166 C 
ATOM     35  H   UNL     1      -0.775   4.058  -1.078  1.00  0.00     0.107 H 
BRANCH  34  36
ATOM     36  N   UNL     1      -1.601   2.507  -0.028  1.00  0.00    -0.347 N 
ATOM     37  H   UNL     1      -1.323   1.774   0.624  1.00  0.00     0.345 HD
ATOM     38  H   UNL     1      -2.001   2.084  -0.865  1.00  0.00     0.345 HD
ATOM     39  H   UNL     1      -2.297   3.108   0.414  1.00  0.00     0.345 HD
ENDBRANCH  34  36
BRANCH  34  40
ATOM     40  C   UNL     1       0.199   4.041   0.814  1.00  0.00     0.015 C 
ATOM     41  H   UNL     1       0.592   3.285   1.462  1.00  0.00     0.036 H 
BRANCH  40  42
ATOM     42  C   UNL     1       1.319   4.986   0.358  1.00  0.00    -0.057 C 
ATOM     43  H   UNL     1       0.912   5.736  -0.288  1.00  0.00     0.024 H 
ATOM     44  H   UNL     1       2.065   4.428  -0.168  1.00  0.00     0.024 H 
ATOM     45  H   UNL     1       1.761   5.454   1.213  1.00  0.00     0.024 H 
ENDBRANCH  40  42
BRANCH  40  46
ATOM     46  C   UNL     1      -0.846   4.856   1.586  1.00  0.00    -0.057 C 
ATOM     47  H   UNL     1      -1.248   5.616   0.949  1.00  0.00     0.024 H 
ATOM     48  H   UNL     1      -0.385   5.312   2.438  1.00  0.00     0.024 H 
ATOM     49  H   UNL     1      -1.635   4.210   1.911  1.00  0.00     0.024 H 
ENDBRANCH  40  46
ENDBRANCH  34  40
ENDBRANCH  31  34
ENDBRANCH  27  30
ENDBRANCH  24  27
ENDBRANCH   8  23
ENDBRANCH   5   8
ENDBRANCH   1   4
BRANCH   1  50
ATOM     50  C   UNL     1      -3.824  -3.840  -1.567  1.00  0.00    -0.036 C 
ATOM     51  H   UNL     1      -3.642  -3.594  -0.541  1.00  0.00     0.028 H 
ATOM     52  H   UNL     1      -3.371  -4.767  -1.851  1.00  0.00     0.028 H 
BRANCH  50  53
ATOM     53  C   UNL     1      -5.335  -4.001  -1.765  1.00  0.00    -0.052 C 
ATOM     54  H   UNL     1      -5.815  -3.121  -1.391  1.00  0.00     0.027 H 
ATOM     55  H   UNL     1      -5.614  -4.890  -1.240  1.00  0.00     0.027 H 
BRANCH  53  56
ATOM     56  C   UNL     1      -5.774  -4.202  -3.220  1.00  0.00    -0.052 C 
ATOM     57  H   UNL     1      -5.609  -3.286  -3.747  1.00  0.00     0.027 H 
ATOM     58  H   UNL     1      -6.804  -4.491  -3.185  1.00  0.00     0.027 H 
BRANCH  56  59
ATOM     59  C   UNL     1      -5.040  -5.319  -3.966  1.00  0.00    -0.036 C 
ATOM     60  H   UNL     1      -4.012  -5.037  -4.061  1.00  0.00     0.028 H 
ATOM     61  H   UNL     1      -5.530  -5.430  -4.910  1.00  0.00     0.028 H 
BRANCH  59  62
ATOM     62  C   UNL     1      -5.100  -6.676  -3.279  1.00  0.00     0.018 C 
ATOM     63  H   UNL     1      -4.665  -6.592  -2.306  1.00  0.00     0.049 H 
ATOM     64  H   UNL     1      -4.562  -7.377  -3.883  1.00  0.00     0.049 H 
BRANCH  62  65
ATOM     65  N   UNL     1      -6.465  -7.155  -3.143  1.00  0.00    -0.352 N 
ATOM     66  C   UNL     1      -7.006  -8.346  -3.549  1.00  0.00     0.251 C 
ATOM     67  H   UNL     1      -7.089  -6.536  -2.698  1.00  0.00     0.163 HD
ATOM     68  O   UNL     1      -8.223  -8.511  -3.546  1.00  0.00    -0.269 OA
BRANCH  66  69
ATOM     69  C   UNL     1      -6.114  -9.426  -4.014  1.00  0.00     0.039 A 
ATOM     70  C   UNL     1      -6.437 -10.106  -5.189  1.00  0.00    -0.049 A 
ATOM     71  C   UNL     1      -4.954  -9.751  -3.303  1.00  0.00    -0.049 A 
ATOM     72  C   UNL     1      -5.564 -11.072  -5.686  1.00  0.00    -0.053 A 
ATOM     73  H   UNL     1      -7.317  -9.895  -5.687  1.00  0.00     0.063 H 
ATOM     74  C   UNL     1      -4.046 -10.656  -3.842  1.00  0.00    -0.053 A 
ATOM     75  H   UNL     1      -4.773  -9.320  -2.383  1.00  0.00     0.063 H 
ATOM     76  C   UNL     1      -4.343 -11.325  -5.038  1.00  0.00    -0.014 A 
ATOM     77  H   UNL     1      -5.815 -11.604  -6.535  1.00  0.00     0.063 H 
ATOM     78  H   UNL     1      -3.152 -10.836  -3.360  1.00  0.00     0.063 H 
BRANCH  76  79
ATOM     79  C   UNL     1      -3.356 -12.271  -5.615  1.00  0.00     0.031 A 
ATOM     80  C   UNL     1      -2.976 -13.520  -4.875  1.00  0.00     0.074 A 
ATOM     81  C   UNL     1      -2.756 -11.966  -6.781  1.00  0.00     0.049 A 
ATOM     82  N   UNL     1      -2.100 -14.438  -5.197  1.00  0.00    -0.248 NA
ATOM     83  C   UNL     1      -3.649 -13.755  -3.589  1.00  0.00    -0.034 C 
ATOM     84  C   UNL     1      -3.000 -10.752  -7.562  1.00  0.00    -0.036 A 
ATOM     85  N   UNL     1      -1.807 -12.643  -7.505  1.00  0.00    -0.354 N 
ATOM     86  C   UNL     1      -2.116 -15.355  -4.155  1.00  0.00     0.074 A 
ATOM     87  C   UNL     1      -3.036 -14.848  -3.160  1.00  0.00    -0.034 C 
ATOM     88  H   UNL     1      -4.402 -13.211  -3.139  1.00  0.00     0.065 H 
ATOM     89  C   UNL     1      -2.237 -10.780  -8.665  1.00  0.00    -0.036 A 
ATOM     90  H   UNL     1      -3.655  -9.997  -7.306  1.00  0.00     0.065 H 
ATOM     91  C   UNL     1      -1.419 -11.989  -8.648  1.00  0.00     0.049 A 
ATOM     92  H   UNL     1      -1.440 -13.515  -7.231  1.00  0.00     0.167 HD
ATOM     93  C   UNL     1      -1.444 -16.527  -4.050  1.00  0.00     0.037 A 
ATOM     94  H   UNL     1      -3.195 -15.280  -2.237  1.00  0.00     0.065 H 
ATOM     95  H   UNL     1      -2.229 -10.062  -9.407  1.00  0.00     0.065 H 
ATOM     96  C   UNL     1      -0.497 -12.319  -9.572  1.00  0.00     0.037 A 
ATOM     97  C   UNL     1      -0.527 -17.023  -5.044  1.00  0.00     0.049 A 
ATOM     98  C   UNL     1       0.258 -13.610  -9.424  1.00  0.00     0.074 A 
ATOM     99  C   UNL     1       0.163 -18.222  -5.062  1.00  0.00    -0.036 A 
ATOM    100  N   UNL     1      -0.161 -16.336  -6.194  1.00  0.00    -0.354 N 
ATOM    101  N   UNL     1       0.176 -14.511  -8.475  1.00  0.00    -0.248 NA
ATOM    102  C   UNL     1       1.228 -13.934 -10.477  1.00  0.00    -0.034 C 
ATOM    103  C   UNL     1       0.994 -18.232  -6.188  1.00  0.00    -0.036 A 
ATOM    104  H   UNL     1       0.081 -18.977  -4.364  1.00  0.00     0.065 H 
ATOM    105  C   UNL     1       0.774 -17.069  -6.909  1.00  0.00     0.049 A 
ATOM    106  H   UNL     1      -0.514 -15.457  -6.463  1.00  0.00     0.167 HD
ATOM    107  C   UNL     1       1.070 -15.515  -8.822  1.00  0.00     0.074 A 
ATOM    108  C   UNL     1       1.667 -15.121 -10.083  1.00  0.00    -0.034 C 
ATOM    109  H   UNL     1       1.498 -13.382 -11.307  1.00  0.00     0.065 H 
ATOM    110  H   UNL     1       1.658 -18.981  -6.440  1.00  0.00     0.065 H 
ATOM    111  C   UNL     1       1.371 -16.657  -8.156  1.00  0.00     0.037 A 
ATOM    112  H   UNL     1       2.347 -15.693 -10.607  1.00  0.00     0.065 H 
BRANCH  93 113
ATOM    113  C   UNL     1      -1.672 -17.343  -2.808  1.00  0.00     0.064 A 
ATOM    114  C   UNL     1      -2.914 -17.939  -2.534  1.00  0.00     0.173 A 
ATOM    115  C   UNL     1      -0.638 -17.538  -1.881  1.00  0.00     0.173 A 
ATOM    116  F   UNL     1      -3.942 -17.778  -3.382  1.00  0.00    -0.203 F 
ATOM    117  C   UNL     1      -3.125 -18.656  -1.359  1.00  0.00     0.198 A 
ATOM    118  C   UNL     1      -0.841 -18.288  -0.725  1.00  0.00     0.198 A 
ATOM    119  F   UNL     1       0.573 -17.000  -2.093  1.00  0.00    -0.203 F 
ATOM    120  F   UNL     1      -4.339 -19.154  -1.089  1.00  0.00    -0.200 F 
ATOM    121  C   UNL     1      -2.087 -18.834  -0.458  1.00  0.00     0.200 A 
ATOM    122  F   UNL     1       0.169 -18.473   0.138  1.00  0.00    -0.200 F 
ATOM    123  F   UNL     1      -2.290 -19.524   0.673  1.00  0.00    -0.200 F 
ENDBRANCH  93 113
BRANCH  96 124
ATOM    124  C   UNL     1      -0.252 -11.406 -10.718  1.00  0.00     0.064 A 
ATOM    125  C   UNL     1      -0.637 -11.757 -12.019  1.00  0.00     0.173 A 
ATOM    126  C   UNL     1       0.343 -10.149 -10.530  1.00  0.00     0.173 A 
ATOM    127  F   UNL     1      -1.194 -12.955 -12.252  1.00  0.00    -0.203 F 
ATOM    128  C   UNL     1      -0.427 -10.891 -13.090  1.00  0.00     0.198 A 
ATOM    129  C   UNL     1       0.525  -9.271 -11.597  1.00  0.00     0.198 A 
ATOM    130  F   UNL     1       0.722  -9.762  -9.304  1.00  0.00    -0.203 F 
ATOM    131  F   UNL     1      -0.773 -11.265 -14.329  1.00  0.00    -0.200 F 
ATOM    132  C   UNL     1       0.145  -9.645 -12.877  1.00  0.00     0.200 A 
ATOM    133  F   UNL     1       1.060  -8.062 -11.382  1.00  0.00    -0.200 F 
ATOM    134  F   UNL     1       0.332  -8.806 -13.905  1.00  0.00    -0.200 F 
ENDBRANCH  96 124
BRANCH 111 135
ATOM    135  C   UNL     1       2.387 -17.570  -8.782  1.00  0.00     0.064 A 
ATOM    136  C   UNL     1       3.746 -17.226  -8.845  1.00  0.00     0.173 A 
ATOM    137  C   UNL     1       2.004 -18.820  -9.292  1.00  0.00     0.173 A 
ATOM    138  F   UNL     1       4.163 -16.036  -8.387  1.00  0.00    -0.203 F 
ATOM    139  C   UNL     1       4.678 -18.088  -9.419  1.00  0.00     0.198 A 
ATOM    140  C   UNL     1       2.943 -19.693  -9.834  1.00  0.00     0.198 A 
ATOM    141  F   UNL     1       0.718 -19.202  -9.252  1.00  0.00    -0.203 F 
ATOM    142  F   UNL     1       5.961 -17.715  -9.515  1.00  0.00    -0.200 F 
ATOM    143  C   UNL     1       4.277 -19.323  -9.904  1.00  0.00     0.200 A 
ATOM    144  F   UNL     1       2.556 -20.893 -10.288  1.00  0.00    -0.200 F 
ATOM    145  F   UNL     1       5.176 -20.155 -10.448  1.00  0.00    -0.200 F 
ENDBRANCH 111 135
ENDBRANCH  76  79
ENDBRANCH  66  69
ENDBRANCH  62  65
ENDBRANCH  59  62
ENDBRANCH  56  59
ENDBRANCH  53  56
ENDBRANCH  50  53
ENDBRANCH   1  50
TORSDOF 25
