REMARK SMILES CC(C)Cc1ccc([C@H](CF)C(=O)NCCCCCCNC(=O)c2ccc(-c3c4nc(c(-c5c(F)c(F)c(F)c(F)c5F)c5ccc([nH]5)c(-c5c(F)c(F)c(F)c(F)c5F)c5nc(c(-c6c(F)c(F)c(F)c(F)c6F)c6ccc3[nH]6)C=C5)C=C4)cc2)cc1
REMARK SMILES IDX 16 1 15 4 14 7 12 8 13 9 9 11 8 13 5 14 6 15 88 16 7 17
REMARK SMILES IDX 87 19 4 23 2 26 1 28 3 32 10 36 11 37 17 40 18 43 19 46
REMARK SMILES IDX 20 49 21 52 22 53 23 55 24 56 25 57 86 58 26 59 85 61 27 63
REMARK SMILES IDX 28 66 29 67 79 68 30 69 84 70 78 71 80 72 31 73 83 74 77 76
REMARK SMILES IDX 76 78 32 80 64 83 44 84 63 85 45 86 48 87 62 88 81 89 46 90
REMARK SMILES IDX 47 92 61 94 82 95 49 98 33 100 34 101 42 102 35 103 36 104
REMARK SMILES IDX 40 105 43 106 37 107 38 108 41 109 39 110 65 111 66 112
REMARK SMILES IDX 74 113 67 114 68 115 72 116 75 117 69 118 70 119 73 120
REMARK SMILES IDX 71 121 50 122 51 123 59 124 52 125 53 126 57 127 60 128
REMARK SMILES IDX 54 129 55 130 58 131 56 132
REMARK H PARENT 16 2 16 3 15 5 15 6 14 10 9 12 6 18 88 20 7 21 87 22 4 24 4 25
REMARK H PARENT 2 27 1 29 1 30 1 31 3 33 3 34 3 35 10 38 10 39 17 41 17 42
REMARK H PARENT 18 44 18 45 19 47 19 48 20 50 20 51 21 54 25 60 86 62 26 64
REMARK H PARENT 85 65 84 75 78 77 80 79 83 81 77 82 45 91 48 93 81 96 46 97
REMARK H PARENT 82 99
REMARK Flexibility Score: inf
ROOT
ATOM      1  C   UNL     1      -2.329   1.004  -3.686  1.00  0.00    -0.036 C 
ATOM      2  H   UNL     1      -1.477   0.594  -3.186  1.00  0.00     0.028 H 
ATOM      3  H   UNL     1      -2.985   1.537  -3.030  1.00  0.00     0.028 H 
ENDROOT
BRANCH   1   4
ATOM      4  C   UNL     1      -3.142  -0.150  -4.266  1.00  0.00     0.017 C 
ATOM      5  H   UNL     1      -3.620  -0.675  -3.465  1.00  0.00     0.049 H 
ATOM      6  H   UNL     1      -3.865   0.257  -4.942  1.00  0.00     0.049 H 
BRANCH   4   7
ATOM      7  N   UNL     1      -2.304  -1.077  -5.003  1.00  0.00    -0.355 N 
ATOM      8  C   UNL     1      -2.188  -2.433  -4.908  1.00  0.00     0.230 C 
ATOM      9  O   UNL     1      -1.432  -2.994  -5.707  1.00  0.00    -0.274 OA
ATOM     10  H   UNL     1      -1.726  -0.661  -5.682  1.00  0.00     0.163 HD
BRANCH   8  11
ATOM     11  C   UNL     1      -2.938  -3.243  -3.847  1.00  0.00     0.091 C 
ATOM     12  H   UNL     1      -2.797  -4.297  -3.961  1.00  0.00     0.048 H 
BRANCH  11  13
ATOM     13  C   UNL     1      -4.449  -3.147  -4.023  1.00  0.00    -0.033 A 
ATOM     14  C   UNL     1      -7.194  -2.769  -4.580  1.00  0.00    -0.048 A 
ATOM     15  C   UNL     1      -6.356  -3.362  -5.528  1.00  0.00    -0.059 A 
ATOM     16  C   UNL     1      -6.668  -2.436  -3.327  1.00  0.00    -0.059 A 
ATOM     17  C   UNL     1      -5.001  -3.546  -5.253  1.00  0.00    -0.058 A 
ATOM     18  H   UNL     1      -6.742  -3.665  -6.436  1.00  0.00     0.063 H 
ATOM     19  C   UNL     1      -5.314  -2.642  -3.044  1.00  0.00    -0.058 A 
ATOM     20  H   UNL     1      -7.285  -2.033  -2.604  1.00  0.00     0.063 H 
ATOM     21  H   UNL     1      -4.394  -3.983  -5.964  1.00  0.00     0.063 H 
ATOM     22  H   UNL     1      -4.948  -2.420  -2.104  1.00  0.00     0.063 H 
BRANCH  14  23
ATOM     23  C   UNL     1      -8.629  -2.449  -4.924  1.00  0.00    -0.026 C 
ATOM     24  H   UNL     1      -8.921  -3.051  -5.759  1.00  0.00     0.032 H 
ATOM     25  H   UNL     1      -9.220  -2.655  -4.056  1.00  0.00     0.032 H 
BRANCH  23  26
ATOM     26  C   UNL     1      -8.846  -0.965  -5.289  1.00  0.00    -0.043 C 
ATOM     27  H   UNL     1      -8.442  -0.381  -4.488  1.00  0.00     0.030 H 
BRANCH  26  28
ATOM     28  C   UNL     1      -8.109  -0.563  -6.571  1.00  0.00    -0.062 C 
ATOM     29  H   UNL     1      -8.291   0.471  -6.778  1.00  0.00     0.023 H 
ATOM     30  H   UNL     1      -8.462  -1.158  -7.387  1.00  0.00     0.023 H 
ATOM     31  H   UNL     1      -7.058  -0.721  -6.443  1.00  0.00     0.023 H 
ENDBRANCH  26  28
BRANCH  26  32
ATOM     32  C   UNL     1     -10.341  -0.682  -5.450  1.00  0.00    -0.062 C 
ATOM     33  H   UNL     1     -10.731  -1.272  -6.253  1.00  0.00     0.023 H 
ATOM     34  H   UNL     1     -10.486   0.356  -5.666  1.00  0.00     0.023 H 
ATOM     35  H   UNL     1     -10.851  -0.932  -4.543  1.00  0.00     0.023 H 
ENDBRANCH  26  32
ENDBRANCH  23  26
ENDBRANCH  14  23
ENDBRANCH  11  13
BRANCH  11  36
ATOM     36  C   UNL     1      -2.335  -2.925  -2.482  1.00  0.00     0.105 C 
ATOM     37  F   UNL     1      -2.728  -3.865  -1.577  1.00  0.00    -0.250 F 
ATOM     38  H   UNL     1      -2.669  -1.960  -2.161  1.00  0.00     0.064 H 
ATOM     39  H   UNL     1      -1.267  -2.928  -2.555  1.00  0.00     0.064 H 
ENDBRANCH  11  36
ENDBRANCH   8  11
ENDBRANCH   4   7
ENDBRANCH   1   4
BRANCH   1  40
ATOM     40  C   UNL     1      -1.833   2.019  -4.720  1.00  0.00    -0.052 C 
ATOM     41  H   UNL     1      -1.181   1.508  -5.397  1.00  0.00     0.027 H 
ATOM     42  H   UNL     1      -1.351   2.796  -4.163  1.00  0.00     0.027 H 
BRANCH  40  43
ATOM     43  C   UNL     1      -2.926   2.707  -5.545  1.00  0.00    -0.052 C 
ATOM     44  H   UNL     1      -3.369   1.970  -6.183  1.00  0.00     0.027 H 
ATOM     45  H   UNL     1      -2.438   3.500  -6.072  1.00  0.00     0.027 H 
BRANCH  43  46
ATOM     46  C   UNL     1      -4.048   3.369  -4.740  1.00  0.00    -0.036 C 
ATOM     47  H   UNL     1      -4.582   2.599  -4.223  1.00  0.00     0.028 H 
ATOM     48  H   UNL     1      -4.644   3.903  -5.450  1.00  0.00     0.028 H 
BRANCH  46  49
ATOM     49  C   UNL     1      -3.594   4.400  -3.710  1.00  0.00     0.018 C 
ATOM     50  H   UNL     1      -2.935   3.923  -3.015  1.00  0.00     0.049 H 
ATOM     51  H   UNL     1      -4.469   4.781  -3.227  1.00  0.00     0.049 H 
BRANCH  49  52
ATOM     52  N   UNL     1      -2.899   5.525  -4.314  1.00  0.00    -0.352 N 
ATOM     53  C   UNL     1      -3.088   6.869  -4.132  1.00  0.00     0.251 C 
ATOM     54  H   UNL     1      -2.186   5.284  -4.948  1.00  0.00     0.163 HD
ATOM     55  O   UNL     1      -2.494   7.674  -4.851  1.00  0.00    -0.269 OA
BRANCH  53  56
ATOM     56  C   UNL     1      -4.017   7.368  -3.096  1.00  0.00     0.039 A 
ATOM     57  C   UNL     1      -4.877   8.422  -3.420  1.00  0.00    -0.049 A 
ATOM     58  C   UNL     1      -4.027   6.831  -1.804  1.00  0.00    -0.049 A 
ATOM     59  C   UNL     1      -5.781   8.901  -2.470  1.00  0.00    -0.053 A 
ATOM     60  H   UNL     1      -4.843   8.846  -4.360  1.00  0.00     0.063 H 
ATOM     61  C   UNL     1      -4.971   7.268  -0.876  1.00  0.00    -0.053 A 
ATOM     62  H   UNL     1      -3.336   6.112  -1.539  1.00  0.00     0.063 H 
ATOM     63  C   UNL     1      -5.855   8.309  -1.198  1.00  0.00    -0.014 A 
ATOM     64  H   UNL     1      -6.399   9.694  -2.703  1.00  0.00     0.063 H 
ATOM     65  H   UNL     1      -5.021   6.822   0.053  1.00  0.00     0.063 H 
BRANCH  63  66
ATOM     66  C   UNL     1      -6.855   8.769  -0.202  1.00  0.00     0.031 A 
ATOM     67  C   UNL     1      -6.413   9.441   1.067  1.00  0.00     0.074 A 
ATOM     68  C   UNL     1      -8.163   8.531  -0.417  1.00  0.00     0.049 A 
ATOM     69  N   UNL     1      -7.136   9.877   2.068  1.00  0.00    -0.248 NA
ATOM     70  C   UNL     1      -4.965   9.623   1.248  1.00  0.00    -0.034 C 
ATOM     71  C   UNL     1      -8.714   7.839  -1.583  1.00  0.00    -0.036 A 
ATOM     72  N   UNL     1      -9.265   8.838   0.341  1.00  0.00    -0.354 N 
ATOM     73  C   UNL     1      -6.232  10.370   3.001  1.00  0.00     0.074 A 
ATOM     74  C   UNL     1      -4.907  10.137   2.468  1.00  0.00    -0.034 C 
ATOM     75  H   UNL     1      -4.195   9.407   0.596  1.00  0.00     0.065 H 
ATOM     76  C   UNL     1     -10.051   7.790  -1.472  1.00  0.00    -0.036 A 
ATOM     77  H   UNL     1      -8.163   7.450  -2.364  1.00  0.00     0.065 H 
ATOM     78  C   UNL     1     -10.449   8.422  -0.218  1.00  0.00     0.049 A 
ATOM     79  H   UNL     1      -9.212   9.310   1.203  1.00  0.00     0.167 HD
ATOM     80  C   UNL     1      -6.487  10.980   4.184  1.00  0.00     0.037 A 
ATOM     81  H   UNL     1      -4.031  10.343   2.973  1.00  0.00     0.065 H 
ATOM     82  H   UNL     1     -10.694   7.372  -2.163  1.00  0.00     0.065 H 
ATOM     83  C   UNL     1     -11.713   8.539   0.231  1.00  0.00     0.037 A 
ATOM     84  C   UNL     1      -7.806  11.238   4.698  1.00  0.00     0.049 A 
ATOM     85  C   UNL     1     -11.970   9.241   1.535  1.00  0.00     0.074 A 
ATOM     86  C   UNL     1      -8.168  11.915   5.850  1.00  0.00    -0.036 A 
ATOM     87  N   UNL     1      -8.984  10.827   4.090  1.00  0.00    -0.354 N 
ATOM     88  N   UNL     1     -11.111   9.771   2.372  1.00  0.00    -0.248 NA
ATOM     89  C   UNL     1     -13.373   9.372   1.951  1.00  0.00    -0.034 C 
ATOM     90  C   UNL     1      -9.563  11.879   5.960  1.00  0.00    -0.036 A 
ATOM     91  H   UNL     1      -7.520  12.368   6.513  1.00  0.00     0.065 H 
ATOM     92  C   UNL     1     -10.072  11.217   4.854  1.00  0.00     0.049 A 
ATOM     93  H   UNL     1      -9.039  10.331   3.242  1.00  0.00     0.167 HD
ATOM     94  C   UNL     1     -11.868  10.315   3.401  1.00  0.00     0.074 A 
ATOM     95  C   UNL     1     -13.257  10.066   3.074  1.00  0.00    -0.034 C 
ATOM     96  H   UNL     1     -14.225   9.016   1.490  1.00  0.00     0.065 H 
ATOM     97  H   UNL     1     -10.117  12.277   6.734  1.00  0.00     0.065 H 
ATOM     98  C   UNL     1     -11.449  10.961   4.517  1.00  0.00     0.037 A 
ATOM     99  H   UNL     1     -14.055  10.389   3.643  1.00  0.00     0.065 H 
BRANCH  80 100
ATOM    100  C   UNL     1      -5.308  11.414   5.005  1.00  0.00     0.064 A 
ATOM    101  C   UNL     1      -4.494  12.488   4.614  1.00  0.00     0.173 A 
ATOM    102  C   UNL     1      -5.004  10.767   6.213  1.00  0.00     0.173 A 
ATOM    103  F   UNL     1      -4.735  13.133   3.462  1.00  0.00    -0.203 F 
ATOM    104  C   UNL     1      -3.403  12.879   5.385  1.00  0.00     0.198 A 
ATOM    105  C   UNL     1      -3.929  11.179   6.996  1.00  0.00     0.198 A 
ATOM    106  F   UNL     1      -5.753   9.738   6.636  1.00  0.00    -0.203 F 
ATOM    107  F   UNL     1      -2.611  13.876   4.966  1.00  0.00    -0.200 F 
ATOM    108  C   UNL     1      -3.125  12.229   6.578  1.00  0.00     0.200 A 
ATOM    109  F   UNL     1      -3.668  10.557   8.154  1.00  0.00    -0.200 F 
ATOM    110  F   UNL     1      -2.076  12.609   7.321  1.00  0.00    -0.200 F 
ENDBRANCH  80 100
BRANCH  83 111
ATOM    111  C   UNL     1     -12.834   8.004  -0.582  1.00  0.00     0.064 A 
ATOM    112  C   UNL     1     -13.714   8.868  -1.248  1.00  0.00     0.173 A 
ATOM    113  C   UNL     1     -13.043   6.625  -0.718  1.00  0.00     0.173 A 
ATOM    114  F   UNL     1     -13.565  10.196  -1.129  1.00  0.00    -0.203 F 
ATOM    115  C   UNL     1     -14.770   8.373  -2.009  1.00  0.00     0.198 A 
ATOM    116  C   UNL     1     -14.085   6.130  -1.500  1.00  0.00     0.198 A 
ATOM    117  F   UNL     1     -12.225   5.757  -0.105  1.00  0.00    -0.203 F 
ATOM    118  F   UNL     1     -15.619   9.221  -2.605  1.00  0.00    -0.200 F 
ATOM    119  C   UNL     1     -14.951   7.004  -2.139  1.00  0.00     0.200 A 
ATOM    120  F   UNL     1     -14.249   4.807  -1.635  1.00  0.00    -0.200 F 
ATOM    121  F   UNL     1     -15.963   6.528  -2.877  1.00  0.00    -0.200 F 
ENDBRANCH  83 111
BRANCH  98 122
ATOM    122  C   UNL     1     -12.508  11.461   5.455  1.00  0.00     0.064 A 
ATOM    123  C   UNL     1     -13.246  10.584   6.263  1.00  0.00     0.173 A 
ATOM    124  C   UNL     1     -12.767  12.835   5.566  1.00  0.00     0.173 A 
ATOM    125  F   UNL     1     -13.046   9.260   6.180  1.00  0.00    -0.203 F 
ATOM    126  C   UNL     1     -14.225  11.063   7.129  1.00  0.00     0.198 A 
ATOM    127  C   UNL     1     -13.728  13.313   6.453  1.00  0.00     0.198 A 
ATOM    128  F   UNL     1     -12.084  13.716   4.819  1.00  0.00    -0.203 F 
ATOM    129  F   UNL     1     -14.952  10.204   7.857  1.00  0.00    -0.200 F 
ATOM    130  C   UNL     1     -14.461  12.427   7.228  1.00  0.00     0.200 A 
ATOM    131  F   UNL     1     -13.947  14.631   6.555  1.00  0.00    -0.200 F 
ATOM    132  F   UNL     1     -15.402  12.886   8.064  1.00  0.00    -0.200 F 
ENDBRANCH  98 122
ENDBRANCH  63  66
ENDBRANCH  53  56
ENDBRANCH  49  52
ENDBRANCH  46  49
ENDBRANCH  43  46
ENDBRANCH  40  43
ENDBRANCH   1  40
TORSDOF 19
