REMARK SMILES COc1ccc2cc([C@H](C)C(=O)NCCCCCCNC(=O)c3ccc(-c4c5nc(c(-c6c(F)c(F)c(F)c(F)c6F)c6ccc([nH]6)c(-c6c(F)c(F)c(F)c(F)c6F)c6nc(c(-c7c(F)c(F)c(F)c(F)c7F)c7ccc4[nH]7)C=C6)C=C5)cc3)ccc2c1
REMARK SMILES IDX 16 1 15 4 14 7 13 10 11 11 12 12 9 14 8 16 3 17 4 18 89 19
REMARK SMILES IDX 5 20 88 22 6 24 87 26 7 27 86 28 2 32 1 33 10 37 17 41 18 44
REMARK SMILES IDX 19 47 20 50 21 51 22 53 23 54 24 55 85 56 25 57 84 59 26 61
REMARK SMILES IDX 27 64 28 65 78 66 29 67 83 68 77 69 79 70 30 71 82 72 76 74
REMARK SMILES IDX 75 76 31 78 63 81 43 82 62 83 44 84 47 85 61 86 80 87 45 88
REMARK SMILES IDX 46 90 60 92 81 93 48 96 32 98 33 99 41 100 34 101 35 102
REMARK SMILES IDX 39 103 42 104 36 105 37 106 40 107 38 108 64 109 65 110
REMARK SMILES IDX 73 111 66 112 67 113 71 114 74 115 68 116 69 117 72 118
REMARK SMILES IDX 70 119 49 120 50 121 58 122 51 123 52 124 56 125 59 126
REMARK SMILES IDX 53 127 54 128 57 129 55 130
REMARK H PARENT 16 2 16 3 15 5 15 6 14 8 14 9 13 13 9 15 4 21 89 23 5 25 87 29
REMARK H PARENT 7 30 86 31 1 34 1 35 1 36 10 38 10 39 10 40 17 42 17 43 18 45
REMARK H PARENT 18 46 19 48 19 49 20 52 24 58 85 60 25 62 84 63 83 73 77 75
REMARK H PARENT 79 77 82 79 76 80 44 89 47 91 80 94 45 95 81 97
REMARK Flexibility Score: inf
ROOT
ATOM      1  C   UNL     1       5.352   5.476   4.719  1.00  0.00    -0.052 C 
ATOM      2  H   UNL     1       5.131   6.424   5.162  1.00  0.00     0.027 H 
ATOM      3  H   UNL     1       5.674   5.533   3.700  1.00  0.00     0.027 H 
ENDROOT
BRANCH   1   4
ATOM      4  C   UNL     1       4.062   4.655   4.700  1.00  0.00    -0.036 C 
ATOM      5  H   UNL     1       3.320   5.221   4.177  1.00  0.00     0.028 H 
ATOM      6  H   UNL     1       4.311   3.728   4.228  1.00  0.00     0.028 H 
BRANCH   4   7
ATOM      7  C   UNL     1       3.497   4.290   6.068  1.00  0.00     0.017 C 
ATOM      8  H   UNL     1       2.748   3.538   5.936  1.00  0.00     0.049 H 
ATOM      9  H   UNL     1       4.314   3.945   6.667  1.00  0.00     0.049 H 
BRANCH   7  10
ATOM     10  N   UNL     1       2.903   5.414   6.760  1.00  0.00    -0.356 N 
ATOM     11  C   UNL     1       1.770   5.460   7.523  1.00  0.00     0.227 C 
ATOM     12  O   UNL     1       1.526   6.517   8.114  1.00  0.00    -0.274 OA
ATOM     13  H   UNL     1       3.384   6.268   6.667  1.00  0.00     0.163 HD
BRANCH  11  14
ATOM     14  C   UNL     1       0.816   4.258   7.645  1.00  0.00     0.060 C 
ATOM     15  H   UNL     1      -0.036   4.536   8.230  1.00  0.00     0.045 H 
BRANCH  14  16
ATOM     16  C   UNL     1       1.427   3.129   8.471  1.00  0.00    -0.035 A 
ATOM     17  C   UNL     1       3.471   0.466  12.286  1.00  0.00     0.119 A 
ATOM     18  C   UNL     1       2.776   1.509  12.890  1.00  0.00    -0.019 A 
ATOM     19  C   UNL     1       3.478   0.330  10.900  1.00  0.00    -0.012 A 
ATOM     20  C   UNL     1       2.087   2.430  12.097  1.00  0.00    -0.051 A 
ATOM     21  H   UNL     1       2.771   1.603  13.918  1.00  0.00     0.066 H 
ATOM     22  C   UNL     1       2.763   1.230  10.097  1.00  0.00    -0.015 A 
ATOM     23  H   UNL     1       4.012  -0.436  10.462  1.00  0.00     0.067 H 
ATOM     24  C   UNL     1       2.084   2.312  10.696  1.00  0.00    -0.018 A 
ATOM     25  H   UNL     1       1.573   3.205  12.544  1.00  0.00     0.063 H 
ATOM     26  C   UNL     1       2.710   1.075   8.707  1.00  0.00    -0.054 A 
ATOM     27  C   UNL     1       1.444   3.256   9.874  1.00  0.00    -0.050 A 
ATOM     28  C   UNL     1       2.024   1.994   7.910  1.00  0.00    -0.058 A 
ATOM     29  H   UNL     1       3.184   0.271   8.265  1.00  0.00     0.063 H 
ATOM     30  H   UNL     1       0.974   4.065  10.310  1.00  0.00     0.063 H 
ATOM     31  H   UNL     1       1.956   1.834   6.893  1.00  0.00     0.063 H 
BRANCH  17  32
ATOM     32  O   UNL     1       4.235  -0.411  13.007  1.00  0.00    -0.497 OA
BRANCH  32  33
ATOM     33  C   UNL     1       3.431  -1.226  13.857  1.00  0.00     0.078 C 
ATOM     34  H   UNL     1       4.058  -1.899  14.404  1.00  0.00     0.067 H 
ATOM     35  H   UNL     1       2.739  -1.787  13.263  1.00  0.00     0.067 H 
ATOM     36  H   UNL     1       2.892  -0.605  14.541  1.00  0.00     0.067 H 
ENDBRANCH  32  33
ENDBRANCH  17  32
ENDBRANCH  14  16
BRANCH  14  37
ATOM     37  C   UNL     1       0.178   3.891   6.298  1.00  0.00    -0.049 C 
ATOM     38  H   UNL     1       0.942   3.589   5.612  1.00  0.00     0.024 H 
ATOM     39  H   UNL     1      -0.339   4.741   5.905  1.00  0.00     0.024 H 
ATOM     40  H   UNL     1      -0.513   3.087   6.439  1.00  0.00     0.024 H 
ENDBRANCH  14  37
ENDBRANCH  11  14
ENDBRANCH   7  10
ENDBRANCH   4   7
ENDBRANCH   1   4
BRANCH   1  41
ATOM     41  C   UNL     1       6.525   4.861   5.489  1.00  0.00    -0.052 C 
ATOM     42  H   UNL     1       6.281   4.886   6.531  1.00  0.00     0.027 H 
ATOM     43  H   UNL     1       7.380   5.446   5.223  1.00  0.00     0.027 H 
BRANCH  41  44
ATOM     44  C   UNL     1       6.888   3.418   5.130  1.00  0.00    -0.036 C 
ATOM     45  H   UNL     1       6.079   2.789   5.438  1.00  0.00     0.028 H 
ATOM     46  H   UNL     1       7.811   3.217   5.632  1.00  0.00     0.028 H 
BRANCH  44  47
ATOM     47  C   UNL     1       7.154   3.148   3.651  1.00  0.00     0.018 C 
ATOM     48  H   UNL     1       6.266   3.373   3.098  1.00  0.00     0.049 H 
ATOM     49  H   UNL     1       7.431   2.119   3.557  1.00  0.00     0.049 H 
BRANCH  47  50
ATOM     50  N   UNL     1       8.245   3.944   3.118  1.00  0.00    -0.352 N 
ATOM     51  C   UNL     1       9.362   3.554   2.422  1.00  0.00     0.251 C 
ATOM     52  H   UNL     1       8.173   4.912   3.281  1.00  0.00     0.163 HD
ATOM     53  O   UNL     1      10.246   4.367   2.173  1.00  0.00    -0.269 OA
BRANCH  51  54
ATOM     54  C   UNL     1       9.523   2.147   1.992  1.00  0.00     0.039 A 
ATOM     55  C   UNL     1      10.761   1.527   2.184  1.00  0.00    -0.049 A 
ATOM     56  C   UNL     1       8.477   1.446   1.386  1.00  0.00    -0.049 A 
ATOM     57  C   UNL     1      10.929   0.185   1.836  1.00  0.00    -0.053 A 
ATOM     58  H   UNL     1      11.550   2.060   2.583  1.00  0.00     0.063 H 
ATOM     59  C   UNL     1       8.626   0.090   1.096  1.00  0.00    -0.053 A 
ATOM     60  H   UNL     1       7.596   1.931   1.154  1.00  0.00     0.063 H 
ATOM     61  C   UNL     1       9.851  -0.555   1.324  1.00  0.00    -0.014 A 
ATOM     62  H   UNL     1      11.850  -0.266   1.955  1.00  0.00     0.063 H 
ATOM     63  H   UNL     1       7.830  -0.442   0.712  1.00  0.00     0.063 H 
BRANCH  61  64
ATOM     64  C   UNL     1       9.980  -2.009   1.044  1.00  0.00     0.031 A 
ATOM     65  C   UNL     1       9.862  -2.525  -0.362  1.00  0.00     0.074 A 
ATOM     66  C   UNL     1      10.135  -2.870   2.068  1.00  0.00     0.049 A 
ATOM     67  N   UNL     1       9.854  -3.762  -0.792  1.00  0.00    -0.248 NA
ATOM     68  C   UNL     1       9.713  -1.519  -1.425  1.00  0.00    -0.034 C 
ATOM     69  C   UNL     1      10.227  -2.496   3.481  1.00  0.00    -0.036 A 
ATOM     70  N   UNL     1      10.227  -4.240   2.082  1.00  0.00    -0.354 N 
ATOM     71  C   UNL     1       9.689  -3.684  -2.169  1.00  0.00     0.074 A 
ATOM     72  C   UNL     1       9.555  -2.281  -2.498  1.00  0.00    -0.034 C 
ATOM     73  H   UNL     1       9.727  -0.490  -1.353  1.00  0.00     0.065 H 
ATOM     74  C   UNL     1      10.373  -3.606   4.221  1.00  0.00    -0.036 A 
ATOM     75  H   UNL     1      10.185  -1.533   3.848  1.00  0.00     0.065 H 
ATOM     76  C   UNL     1      10.344  -4.772   3.343  1.00  0.00     0.049 A 
ATOM     77  H   UNL     1      10.211  -4.790   1.265  1.00  0.00     0.167 HD
ATOM     78  C   UNL     1       9.672  -4.689  -3.076  1.00  0.00     0.037 A 
ATOM     79  H   UNL     1       9.361  -1.920  -3.446  1.00  0.00     0.065 H 
ATOM     80  H   UNL     1      10.487  -3.632   5.247  1.00  0.00     0.065 H 
ATOM     81  C   UNL     1      10.405  -6.055   3.748  1.00  0.00     0.037 A 
ATOM     82  C   UNL     1       9.825  -6.083  -2.747  1.00  0.00     0.049 A 
ATOM     83  C   UNL     1      10.361  -7.153   2.719  1.00  0.00     0.074 A 
ATOM     84  C   UNL     1       9.870  -7.171  -3.602  1.00  0.00    -0.036 A 
ATOM     85  N   UNL     1       9.955  -6.582  -1.460  1.00  0.00    -0.354 N 
ATOM     86  N   UNL     1      10.263  -7.062   1.415  1.00  0.00    -0.248 NA
ATOM     87  C   UNL     1      10.442  -8.532   3.220  1.00  0.00    -0.034 C 
ATOM     88  C   UNL     1       9.983  -8.332  -2.829  1.00  0.00    -0.036 A 
ATOM     89  H   UNL     1       9.828  -7.133  -4.632  1.00  0.00     0.065 H 
ATOM     90  C   UNL     1      10.059  -7.963  -1.496  1.00  0.00     0.049 A 
ATOM     91  H   UNL     1       9.972  -6.035  -0.641  1.00  0.00     0.167 HD
ATOM     92  C   UNL     1      10.297  -8.366   0.939  1.00  0.00     0.074 A 
ATOM     93  C   UNL     1      10.443  -9.229   2.092  1.00  0.00    -0.034 C 
ATOM     94  H   UNL     1      10.486  -8.870   4.194  1.00  0.00     0.065 H 
ATOM     95  H   UNL     1      10.005  -9.298  -3.190  1.00  0.00     0.065 H 
ATOM     96  C   UNL     1      10.212  -8.808  -0.339  1.00  0.00     0.037 A 
ATOM     97  H   UNL     1      10.537 -10.255   2.042  1.00  0.00     0.065 H 
BRANCH  78  98
ATOM     98  C   UNL     1       9.486  -4.323  -4.520  1.00  0.00     0.064 A 
ATOM     99  C   UNL     1      10.496  -3.678  -5.249  1.00  0.00     0.173 A 
ATOM    100  C   UNL     1       8.308  -4.670  -5.199  1.00  0.00     0.173 A 
ATOM    101  F   UNL     1      11.638  -3.315  -4.644  1.00  0.00    -0.203 F 
ATOM    102  C   UNL     1      10.326  -3.374  -6.597  1.00  0.00     0.198 A 
ATOM    103  C   UNL     1       8.152  -4.392  -6.554  1.00  0.00     0.198 A 
ATOM    104  F   UNL     1       7.313  -5.295  -4.550  1.00  0.00    -0.203 F 
ATOM    105  F   UNL     1      11.289  -2.722  -7.263  1.00  0.00    -0.200 F 
ATOM    106  C   UNL     1       9.158  -3.739  -7.250  1.00  0.00     0.200 A 
ATOM    107  F   UNL     1       7.029  -4.757  -7.187  1.00  0.00    -0.200 F 
ATOM    108  F   UNL     1       9.001  -3.458  -8.551  1.00  0.00    -0.200 F 
ENDBRANCH  78  98
BRANCH  81 109
ATOM    109  C   UNL     1      10.517  -6.376   5.195  1.00  0.00     0.064 A 
ATOM    110  C   UNL     1      11.688  -6.941   5.720  1.00  0.00     0.173 A 
ATOM    111  C   UNL     1       9.451  -6.146   6.078  1.00  0.00     0.173 A 
ATOM    112  F   UNL     1      12.725  -7.201   4.910  1.00  0.00    -0.203 F 
ATOM    113  C   UNL     1      11.780  -7.288   7.066  1.00  0.00     0.198 A 
ATOM    114  C   UNL     1       9.556  -6.465   7.430  1.00  0.00     0.198 A 
ATOM    115  F   UNL     1       8.310  -5.605   5.628  1.00  0.00    -0.203 F 
ATOM    116  F   UNL     1      12.891  -7.876   7.529  1.00  0.00    -0.200 F 
ATOM    117  C   UNL     1      10.716  -7.045   7.921  1.00  0.00     0.200 A 
ATOM    118  F   UNL     1       8.530  -6.216   8.256  1.00  0.00    -0.200 F 
ATOM    119  F   UNL     1      10.804  -7.380   9.216  1.00  0.00    -0.200 F 
ENDBRANCH  81 109
BRANCH  96 120
ATOM    120  C   UNL     1      10.308 -10.290  -0.561  1.00  0.00     0.064 A 
ATOM    121  C   UNL     1       9.267 -11.158  -0.200  1.00  0.00     0.173 A 
ATOM    122  C   UNL     1      11.443 -10.844  -1.174  1.00  0.00     0.173 A 
ATOM    123  F   UNL     1       8.169 -10.679   0.404  1.00  0.00    -0.203 F 
ATOM    124  C   UNL     1       9.370 -12.529  -0.419  1.00  0.00     0.198 A 
ATOM    125  C   UNL     1      11.529 -12.211  -1.420  1.00  0.00     0.198 A 
ATOM    126  F   UNL     1      12.463 -10.056  -1.545  1.00  0.00    -0.203 F 
ATOM    127  F   UNL     1       8.384 -13.345  -0.020  1.00  0.00    -0.200 F 
ATOM    128  C   UNL     1      10.496 -13.053  -1.036  1.00  0.00     0.200 A 
ATOM    129  F   UNL     1      12.612 -12.714  -2.028  1.00  0.00    -0.200 F 
ATOM    130  F   UNL     1      10.590 -14.372  -1.252  1.00  0.00    -0.200 F 
ENDBRANCH  96 120
ENDBRANCH  61  64
ENDBRANCH  51  54
ENDBRANCH  47  50
ENDBRANCH  44  47
ENDBRANCH  41  44
ENDBRANCH   1  41
TORSDOF 17
