REMARK SMILES Cc1c(CC(=O)NCCCCCCNC(=O)c2ccc(-c3c4nc(c(-c5c(F)c(F)c(F)c(F)c5F)c5ccc([nH]5)c(-c5c(F)c(F)c(F)c(F)c5F)c5nc(c(-c6c(F)c(F)c(F)c(F)c6F)c6ccc3[nH]6)C=C5)C=C4)cc2)cc(-c2ccccc2)cc1-c1ccccc1
REMARK SMILES IDX 10 1 9 4 8 7 7 10 5 11 6 12 4 14 3 17 2 18 89 19 80 20 88 21
REMARK SMILES IDX 81 22 1 25 90 29 91 30 95 31 92 32 94 34 93 36 82 40 83 41
REMARK SMILES IDX 87 42 84 43 86 45 85 47 11 51 12 54 13 57 14 60 15 61 16 63
REMARK SMILES IDX 17 64 18 65 79 66 19 67 78 69 20 71 21 74 22 75 72 76 23 77
REMARK SMILES IDX 77 78 71 79 73 80 24 81 76 82 70 84 69 86 25 88 57 91 37 92
REMARK SMILES IDX 56 93 38 94 41 95 55 96 74 97 39 98 40 100 54 102 75 103
REMARK SMILES IDX 42 106 26 108 27 109 35 110 28 111 29 112 33 113 36 114
REMARK SMILES IDX 30 115 31 116 34 117 32 118 58 119 59 120 67 121 60 122
REMARK SMILES IDX 61 123 65 124 68 125 62 126 63 127 66 128 64 129 43 130
REMARK SMILES IDX 44 131 52 132 45 133 46 134 50 135 53 136 47 137 48 138
REMARK SMILES IDX 51 139 49 140
REMARK H PARENT 10 2 10 3 9 5 9 6 8 8 8 9 7 13 4 15 4 16 80 23 88 24 1 26 1 27
REMARK H PARENT 1 28 91 33 95 35 92 37 94 38 93 39 83 44 87 46 84 48 86 49
REMARK H PARENT 85 50 11 52 11 53 12 55 12 56 13 58 13 59 14 62 18 68 79 70
REMARK H PARENT 19 72 78 73 77 83 71 85 73 87 76 89 70 90 38 99 41 101 74 104
REMARK H PARENT 39 105 75 107
REMARK Flexibility Score: inf
ROOT
ATOM      1  C   UNL     1       0.384  -1.448   5.088  1.00  0.00    -0.052 C 
ATOM      2  H   UNL     1      -0.251  -2.308   5.039  1.00  0.00     0.027 H 
ATOM      3  H   UNL     1      -0.044  -0.606   5.590  1.00  0.00     0.027 H 
ENDROOT
BRANCH   1   4
ATOM      4  C   UNL     1       0.640  -0.975   3.651  1.00  0.00    -0.036 C 
ATOM      5  H   UNL     1      -0.305  -0.890   3.156  1.00  0.00     0.028 H 
ATOM      6  H   UNL     1       1.163  -0.045   3.730  1.00  0.00     0.028 H 
BRANCH   4   7
ATOM      7  C   UNL     1       1.531  -1.896   2.817  1.00  0.00     0.017 C 
ATOM      8  H   UNL     1       1.900  -1.347   1.976  1.00  0.00     0.049 H 
ATOM      9  H   UNL     1       2.326  -2.235   3.448  1.00  0.00     0.049 H 
BRANCH   7  10
ATOM     10  N   UNL     1       0.828  -3.065   2.334  1.00  0.00    -0.356 N 
ATOM     11  C   UNL     1       0.548  -3.425   1.046  1.00  0.00     0.224 C 
ATOM     12  O   UNL     1      -0.044  -4.491   0.856  1.00  0.00    -0.275 OA
ATOM     13  H   UNL     1       0.508  -3.685   3.028  1.00  0.00     0.163 HD
BRANCH  11  14
ATOM     14  C   UNL     1       0.995  -2.550  -0.120  1.00  0.00     0.052 C 
ATOM     15  H   UNL     1       2.052  -2.401  -0.042  1.00  0.00     0.042 H 
ATOM     16  H   UNL     1       0.715  -3.064  -1.016  1.00  0.00     0.042 H 
BRANCH  14  17
ATOM     17  C   UNL     1       0.323  -1.189  -0.168  1.00  0.00    -0.035 A 
ATOM     18  C   UNL     1       1.034   0.038  -0.244  1.00  0.00    -0.040 A 
ATOM     19  C   UNL     1       0.309   1.260  -0.231  1.00  0.00    -0.015 A 
ATOM     20  C   UNL     1      -1.086  -1.173  -0.144  1.00  0.00    -0.050 A 
ATOM     21  C   UNL     1      -1.101   1.220  -0.184  1.00  0.00    -0.046 A 
ATOM     22  C   UNL     1      -1.817   0.018  -0.154  1.00  0.00    -0.017 A 
ATOM     23  H   UNL     1      -1.595  -2.071  -0.117  1.00  0.00     0.063 H 
ATOM     24  H   UNL     1      -1.624   2.110  -0.171  1.00  0.00     0.064 H 
BRANCH  18  25
ATOM     25  C   UNL     1       2.541   0.045  -0.394  1.00  0.00    -0.039 C 
ATOM     26  H   UNL     1       2.905  -0.961  -0.382  1.00  0.00     0.028 H 
ATOM     27  H   UNL     1       2.977   0.593   0.414  1.00  0.00     0.028 H 
ATOM     28  H   UNL     1       2.804   0.508  -1.322  1.00  0.00     0.028 H 
ENDBRANCH  18  25
BRANCH  19  29
ATOM     29  C   UNL     1       0.959   2.587  -0.233  1.00  0.00    -0.018 A 
ATOM     30  C   UNL     1       0.824   3.444   0.874  1.00  0.00    -0.054 A 
ATOM     31  C   UNL     1       1.720   3.033  -1.325  1.00  0.00    -0.054 A 
ATOM     32  C   UNL     1       1.442   4.696   0.896  1.00  0.00    -0.062 A 
ATOM     33  H   UNL     1       0.258   3.143   1.683  1.00  0.00     0.063 H 
ATOM     34  C   UNL     1       2.351   4.279  -1.298  1.00  0.00    -0.062 A 
ATOM     35  H   UNL     1       1.814   2.432  -2.159  1.00  0.00     0.063 H 
ATOM     36  C   UNL     1       2.212   5.109  -0.188  1.00  0.00    -0.062 A 
ATOM     37  H   UNL     1       1.329   5.314   1.715  1.00  0.00     0.062 H 
ATOM     38  H   UNL     1       2.921   4.585  -2.102  1.00  0.00     0.062 H 
ATOM     39  H   UNL     1       2.679   6.029  -0.169  1.00  0.00     0.062 H 
ENDBRANCH  19  29
BRANCH  22  40
ATOM     40  C   UNL     1      -3.287  -0.002  -0.151  1.00  0.00    -0.018 A 
ATOM     41  C   UNL     1      -4.003  -0.682   0.848  1.00  0.00    -0.054 A 
ATOM     42  C   UNL     1      -4.016   0.635  -1.169  1.00  0.00    -0.054 A 
ATOM     43  C   UNL     1      -5.399  -0.728   0.827  1.00  0.00    -0.062 A 
ATOM     44  H   UNL     1      -3.490  -1.154   1.609  1.00  0.00     0.063 H 
ATOM     45  C   UNL     1      -5.412   0.588  -1.193  1.00  0.00    -0.062 A 
ATOM     46  H   UNL     1      -3.512   1.147  -1.911  1.00  0.00     0.063 H 
ATOM     47  C   UNL     1      -6.103  -0.095  -0.195  1.00  0.00    -0.062 A 
ATOM     48  H   UNL     1      -5.910  -1.231   1.570  1.00  0.00     0.062 H 
ATOM     49  H   UNL     1      -5.931   1.059  -1.950  1.00  0.00     0.062 H 
ATOM     50  H   UNL     1      -7.134  -0.133  -0.213  1.00  0.00     0.062 H 
ENDBRANCH  22  40
ENDBRANCH  14  17
ENDBRANCH  11  14
ENDBRANCH   7  10
ENDBRANCH   4   7
ENDBRANCH   1   4
BRANCH   1  51
ATOM     51  C   UNL     1       1.623  -1.828   5.918  1.00  0.00    -0.052 C 
ATOM     52  H   UNL     1       1.970  -2.777   5.567  1.00  0.00     0.027 H 
ATOM     53  H   UNL     1       1.294  -1.825   6.936  1.00  0.00     0.027 H 
BRANCH  51  54
ATOM     54  C   UNL     1       2.803  -0.852   5.869  1.00  0.00    -0.036 C 
ATOM     55  H   UNL     1       3.033  -0.655   4.842  1.00  0.00     0.028 H 
ATOM     56  H   UNL     1       3.611  -1.320   6.392  1.00  0.00     0.028 H 
BRANCH  54  57
ATOM     57  C   UNL     1       2.542   0.477   6.563  1.00  0.00     0.018 C 
ATOM     58  H   UNL     1       1.488   0.576   6.717  1.00  0.00     0.049 H 
ATOM     59  H   UNL     1       2.938   1.243   5.929  1.00  0.00     0.049 H 
BRANCH  57  60
ATOM     60  N   UNL     1       3.209   0.610   7.853  1.00  0.00    -0.352 N 
ATOM     61  C   UNL     1       3.093   1.612   8.800  1.00  0.00     0.251 C 
ATOM     62  H   UNL     1       3.830  -0.118   8.084  1.00  0.00     0.163 HD
ATOM     63  O   UNL     1       3.766   1.585   9.818  1.00  0.00    -0.269 OA
BRANCH  61  64
ATOM     64  C   UNL     1       2.048   2.648   8.627  1.00  0.00     0.039 A 
ATOM     65  C   UNL     1       1.191   2.896   9.706  1.00  0.00    -0.049 A 
ATOM     66  C   UNL     1       1.791   3.211   7.380  1.00  0.00    -0.049 A 
ATOM     67  C   UNL     1      -0.041   3.501   9.473  1.00  0.00    -0.053 A 
ATOM     68  H   UNL     1       1.470   2.633  10.665  1.00  0.00     0.063 H 
ATOM     69  C   UNL     1       0.537   3.732   7.127  1.00  0.00    -0.053 A 
ATOM     70  H   UNL     1       2.526   3.239   6.656  1.00  0.00     0.063 H 
ATOM     71  C   UNL     1      -0.401   3.811   8.160  1.00  0.00    -0.014 A 
ATOM     72  H   UNL     1      -0.677   3.717  10.256  1.00  0.00     0.063 H 
ATOM     73  H   UNL     1       0.293   4.061   6.180  1.00  0.00     0.063 H 
BRANCH  71  74
ATOM     74  C   UNL     1      -1.775   4.100   7.771  1.00  0.00     0.031 A 
ATOM     75  C   UNL     1      -2.219   5.488   7.545  1.00  0.00     0.074 A 
ATOM     76  C   UNL     1      -2.631   3.072   7.580  1.00  0.00     0.049 A 
ATOM     77  N   UNL     1      -3.430   5.900   7.718  1.00  0.00    -0.248 NA
ATOM     78  C   UNL     1      -1.301   6.541   7.133  1.00  0.00    -0.034 C 
ATOM     79  C   UNL     1      -3.966   3.127   6.991  1.00  0.00    -0.036 A 
ATOM     80  N   UNL     1      -2.522   1.765   8.085  1.00  0.00    -0.354 N 
ATOM     81  C   UNL     1      -3.514   7.177   7.211  1.00  0.00     0.074 A 
ATOM     82  C   UNL     1      -2.149   7.551   6.914  1.00  0.00    -0.034 C 
ATOM     83  H   UNL     1      -0.274   6.515   7.037  1.00  0.00     0.065 H 
ATOM     84  C   UNL     1      -4.663   2.056   7.405  1.00  0.00    -0.036 A 
ATOM     85  H   UNL     1      -4.316   3.866   6.361  1.00  0.00     0.065 H 
ATOM     86  C   UNL     1      -3.843   1.362   8.383  1.00  0.00     0.049 A 
ATOM     87  H   UNL     1      -1.698   1.240   8.205  1.00  0.00     0.167 HD
ATOM     88  C   UNL     1      -4.741   7.726   6.970  1.00  0.00     0.037 A 
ATOM     89  H   UNL     1      -1.865   8.483   6.574  1.00  0.00     0.065 H 
ATOM     90  H   UNL     1      -5.605   1.779   7.088  1.00  0.00     0.065 H 
ATOM     91  C   UNL     1      -4.227   1.069   9.659  1.00  0.00     0.037 A 
ATOM     92  C   UNL     1      -5.814   6.814   7.356  1.00  0.00     0.049 A 
ATOM     93  C   UNL     1      -5.366   1.921  10.163  1.00  0.00     0.074 A 
ATOM     94  C   UNL     1      -6.556   5.901   6.624  1.00  0.00    -0.036 A 
ATOM     95  N   UNL     1      -6.033   6.518   8.697  1.00  0.00    -0.354 N 
ATOM     96  N   UNL     1      -5.682   3.080   9.659  1.00  0.00    -0.248 NA
ATOM     97  C   UNL     1      -6.200   1.556  11.305  1.00  0.00    -0.034 C 
ATOM     98  C   UNL     1      -7.184   5.016   7.531  1.00  0.00    -0.036 A 
ATOM     99  H   UNL     1      -6.636   5.871   5.596  1.00  0.00     0.065 H 
ATOM    100  C   UNL     1      -6.842   5.403   8.815  1.00  0.00     0.049 A 
ATOM    101  H   UNL     1      -5.665   7.029   9.454  1.00  0.00     0.167 HD
ATOM    102  C   UNL     1      -6.704   3.626  10.390  1.00  0.00     0.074 A 
ATOM    103  C   UNL     1      -7.007   2.627  11.397  1.00  0.00    -0.034 C 
ATOM    104  H   UNL     1      -6.176   0.703  11.886  1.00  0.00     0.065 H 
ATOM    105  H   UNL     1      -7.792   4.221   7.280  1.00  0.00     0.065 H 
ATOM    106  C   UNL     1      -7.206   4.864  10.114  1.00  0.00     0.037 A 
ATOM    107  H   UNL     1      -7.755   2.726  12.102  1.00  0.00     0.065 H 
BRANCH  88 108
ATOM    108  C   UNL     1      -4.955   8.937   6.086  1.00  0.00     0.064 A 
ATOM    109  C   UNL     1      -6.112   9.057   5.283  1.00  0.00     0.173 A 
ATOM    110  C   UNL     1      -4.027   9.983   5.936  1.00  0.00     0.173 A 
ATOM    111  F   UNL     1      -7.145   8.215   5.410  1.00  0.00    -0.203 F 
ATOM    112  C   UNL     1      -6.252  10.050   4.310  1.00  0.00     0.198 A 
ATOM    113  C   UNL     1      -4.139  10.944   4.925  1.00  0.00     0.198 A 
ATOM    114  F   UNL     1      -3.010  10.134   6.795  1.00  0.00    -0.203 F 
ATOM    115  F   UNL     1      -7.366  10.099   3.566  1.00  0.00    -0.200 F 
ATOM    116  C   UNL     1      -5.244  10.966   4.099  1.00  0.00     0.200 A 
ATOM    117  F   UNL     1      -3.163  11.848   4.755  1.00  0.00    -0.200 F 
ATOM    118  F   UNL     1      -5.350  11.882   3.127  1.00  0.00    -0.200 F 
ENDBRANCH  88 108
BRANCH  91 119
ATOM    119  C   UNL     1      -3.124   0.556  10.512  1.00  0.00     0.064 A 
ATOM    120  C   UNL     1      -2.508  -0.660  10.158  1.00  0.00     0.173 A 
ATOM    121  C   UNL     1      -2.452   1.382  11.420  1.00  0.00     0.173 A 
ATOM    122  F   UNL     1      -3.111  -1.488   9.290  1.00  0.00    -0.203 F 
ATOM    123  C   UNL     1      -1.228  -0.980  10.604  1.00  0.00     0.198 A 
ATOM    124  C   UNL     1      -1.175   1.050  11.877  1.00  0.00     0.198 A 
ATOM    125  F   UNL     1      -2.978   2.560  11.785  1.00  0.00    -0.203 F 
ATOM    126  F   UNL     1      -0.626  -2.094  10.162  1.00  0.00    -0.200 F 
ATOM    127  C   UNL     1      -0.552  -0.112  11.443  1.00  0.00     0.200 A 
ATOM    128  F   UNL     1      -0.509   1.903  12.669  1.00  0.00    -0.200 F 
ATOM    129  F   UNL     1       0.712  -0.374  11.804  1.00  0.00    -0.200 F 
ENDBRANCH  91 119
BRANCH 106 130
ATOM    130  C   UNL     1      -8.168   5.627  10.985  1.00  0.00     0.064 A 
ATOM    131  C   UNL     1      -8.183   5.539  12.386  1.00  0.00     0.173 A 
ATOM    132  C   UNL     1      -9.028   6.598  10.421  1.00  0.00     0.173 A 
ATOM    133  F   UNL     1      -7.329   4.740  13.041  1.00  0.00    -0.203 F 
ATOM    134  C   UNL     1      -9.045   6.315  13.164  1.00  0.00     0.198 A 
ATOM    135  C   UNL     1      -9.848   7.409  11.204  1.00  0.00     0.198 A 
ATOM    136  F   UNL     1      -9.080   6.800   9.096  1.00  0.00    -0.203 F 
ATOM    137  F   UNL     1      -9.053   6.165  14.496  1.00  0.00    -0.200 F 
ATOM    138  C   UNL     1      -9.869   7.256  12.575  1.00  0.00     0.200 A 
ATOM    139  F   UNL     1     -10.604   8.351  10.622  1.00  0.00    -0.200 F 
ATOM    140  F   UNL     1     -10.665   8.026  13.328  1.00  0.00    -0.200 F 
ENDBRANCH 106 130
ENDBRANCH  71  74
ENDBRANCH  61  64
ENDBRANCH  57  60
ENDBRANCH  54  57
ENDBRANCH  51  54
ENDBRANCH   1  51
TORSDOF 17
