REMARK SMILES CC1(C)Cc2c(-c3ccccc3)c(-c3ccc(Cl)cc3)c(CC(=O)NCCCCCCNC(=O)c3ccc(-c4c5nc(c(-c6c(F)c(F)c(F)c(F)c6F)c6ccc([nH]6)c(-c6c(F)c(F)c(F)c(F)c6F)c6nc(c(-c7c(F)c(F)c(F)c(F)c7F)c7ccc4[nH]7)C=C6)C=C5)cc3)n2C1
REMARK SMILES IDX 28 1 27 4 26 7 25 10 23 11 24 12 22 14 21 17 2 18 4 19 99 20
REMARK SMILES IDX 5 21 98 24 6 27 13 28 1 29 3 33 7 37 8 38 12 39 9 40 11 42
REMARK SMILES IDX 10 44 14 48 15 49 20 50 16 51 19 53 17 55 18 58 29 59 30 62
REMARK SMILES IDX 31 65 32 68 33 69 34 71 35 72 36 73 97 74 37 75 96 77 38 79
REMARK SMILES IDX 39 82 40 83 90 84 41 85 95 86 89 87 91 88 42 89 94 90 88 92
REMARK SMILES IDX 87 94 43 96 75 99 55 100 74 101 56 102 59 103 73 104 92 105
REMARK SMILES IDX 57 106 58 108 72 110 93 111 60 114 44 116 45 117 53 118
REMARK SMILES IDX 46 119 47 120 51 121 54 122 48 123 49 124 52 125 50 126
REMARK SMILES IDX 76 127 77 128 85 129 78 130 79 131 83 132 86 133 80 134
REMARK SMILES IDX 81 135 84 136 82 137 61 138 62 139 70 140 63 141 64 142
REMARK SMILES IDX 68 143 71 144 65 145 66 146 69 147 67 148
REMARK H PARENT 28 2 28 3 27 5 27 6 26 8 26 9 25 13 22 15 22 16 4 22 4 23
REMARK H PARENT 99 25 99 26 1 30 1 31 1 32 3 34 3 35 3 36 8 41 12 43 9 45
REMARK H PARENT 11 46 10 47 15 52 20 54 16 56 19 57 29 60 29 61 30 63 30 64
REMARK H PARENT 31 66 31 67 32 70 36 76 97 78 37 80 96 81 95 91 89 93 91 95
REMARK H PARENT 94 97 88 98 56 107 59 109 92 112 57 113 93 115
REMARK Flexibility Score: inf
ROOT
ATOM      1  C   UNL     1      -2.546  -1.432   6.337  1.00  0.00    -0.052 C 
ATOM      2  H   UNL     1      -2.157  -1.915   7.209  1.00  0.00     0.027 H 
ATOM      3  H   UNL     1      -3.366  -1.949   5.886  1.00  0.00     0.027 H 
ENDROOT
BRANCH   1   4
ATOM      4  C   UNL     1      -1.437  -1.402   5.282  1.00  0.00    -0.036 C 
ATOM      5  H   UNL     1      -1.060  -2.397   5.166  1.00  0.00     0.028 H 
ATOM      6  H   UNL     1      -1.880  -1.015   4.388  1.00  0.00     0.028 H 
BRANCH   4   7
ATOM      7  C   UNL     1      -0.265  -0.484   5.618  1.00  0.00     0.017 C 
ATOM      8  H   UNL     1       0.324  -0.343   4.735  1.00  0.00     0.049 H 
ATOM      9  H   UNL     1      -0.670   0.440   5.975  1.00  0.00     0.049 H 
BRANCH   7  10
ATOM     10  N   UNL     1       0.582  -1.019   6.657  1.00  0.00    -0.356 N 
ATOM     11  C   UNL     1       1.864  -1.484   6.568  1.00  0.00     0.225 C 
ATOM     12  O   UNL     1       2.419  -1.822   7.617  1.00  0.00    -0.275 OA
ATOM     13  H   UNL     1       0.180  -1.054   7.555  1.00  0.00     0.163 HD
BRANCH  11  14
ATOM     14  C   UNL     1       2.606  -1.500   5.239  1.00  0.00     0.068 C 
ATOM     15  H   UNL     1       2.654  -0.496   4.870  1.00  0.00     0.043 H 
ATOM     16  H   UNL     1       3.571  -1.919   5.432  1.00  0.00     0.043 H 
BRANCH  14  17
ATOM     17  C   UNL     1       1.967  -2.358   4.185  1.00  0.00     0.036 A 
ATOM     18  C   UNL     1       0.710  -0.748   1.097  1.00  0.00    -0.012 C 
ATOM     19  C   UNL     1       0.713  -2.288   0.828  1.00  0.00    -0.005 C 
ATOM     20  C   UNL     1       1.688  -0.570   2.296  1.00  0.00     0.028 C 
ATOM     21  C   UNL     1       1.103  -2.834   2.149  1.00  0.00     0.027 A 
ATOM     22  H   UNL     1       1.426  -2.549   0.074  1.00  0.00     0.034 H 
ATOM     23  H   UNL     1      -0.222  -2.663   0.466  1.00  0.00     0.034 H 
ATOM     24  N   UNL     1       1.637  -1.872   2.953  1.00  0.00    -0.346 N 
ATOM     25  H   UNL     1       1.356   0.206   2.953  1.00  0.00     0.050 H 
ATOM     26  H   UNL     1       2.676  -0.286   1.997  1.00  0.00     0.050 H 
ATOM     27  C   UNL     1       1.083  -4.010   2.847  1.00  0.00     0.011 A 
ATOM     28  C   UNL     1       1.651  -3.721   4.141  1.00  0.00     0.011 A 
BRANCH  18  29
ATOM     29  C   UNL     1       1.179   0.043  -0.124  1.00  0.00    -0.058 C 
ATOM     30  H   UNL     1       0.488  -0.099  -0.928  1.00  0.00     0.024 H 
ATOM     31  H   UNL     1       2.148  -0.301  -0.421  1.00  0.00     0.024 H 
ATOM     32  H   UNL     1       1.230   1.083   0.123  1.00  0.00     0.024 H 
ENDBRANCH  18  29
BRANCH  18  33
ATOM     33  C   UNL     1      -0.713  -0.290   1.469  1.00  0.00    -0.058 C 
ATOM     34  H   UNL     1      -1.362  -0.424   0.629  1.00  0.00     0.024 H 
ATOM     35  H   UNL     1      -0.695   0.743   1.745  1.00  0.00     0.024 H 
ATOM     36  H   UNL     1      -1.071  -0.873   2.292  1.00  0.00     0.024 H 
ENDBRANCH  18  33
BRANCH  27  37
ATOM     37  C   UNL     1       0.559  -5.261   2.336  1.00  0.00    -0.016 A 
ATOM     38  C   UNL     1       1.089  -5.839   1.179  1.00  0.00    -0.054 A 
ATOM     39  C   UNL     1      -0.442  -5.931   3.049  1.00  0.00    -0.054 A 
ATOM     40  C   UNL     1       0.626  -7.083   0.748  1.00  0.00    -0.062 A 
ATOM     41  H   UNL     1       1.821  -5.346   0.644  1.00  0.00     0.063 H 
ATOM     42  C   UNL     1      -0.903  -7.174   2.618  1.00  0.00    -0.062 A 
ATOM     43  H   UNL     1      -0.842  -5.503   3.899  1.00  0.00     0.063 H 
ATOM     44  C   UNL     1      -0.364  -7.750   1.470  1.00  0.00    -0.062 A 
ATOM     45  H   UNL     1       1.017  -7.510  -0.107  1.00  0.00     0.062 H 
ATOM     46  H   UNL     1      -1.640  -7.665   3.147  1.00  0.00     0.062 H 
ATOM     47  H   UNL     1      -0.699  -8.674   1.152  1.00  0.00     0.062 H 
ENDBRANCH  27  37
BRANCH  28  48
ATOM     48  C   UNL     1       1.880  -4.693   5.204  1.00  0.00    -0.016 A 
ATOM     49  C   UNL     1       2.715  -5.793   4.962  1.00  0.00    -0.053 A 
ATOM     50  C   UNL     1       1.153  -4.643   6.398  1.00  0.00    -0.053 A 
ATOM     51  C   UNL     1       2.816  -6.829   5.896  1.00  0.00    -0.043 A 
ATOM     52  H   UNL     1       3.260  -5.839   4.087  1.00  0.00     0.063 H 
ATOM     53  C   UNL     1       1.269  -5.666   7.343  1.00  0.00    -0.043 A 
ATOM     54  H   UNL     1       0.525  -3.845   6.582  1.00  0.00     0.063 H 
ATOM     55  C   UNL     1       2.092  -6.760   7.083  1.00  0.00     0.041 A 
ATOM     56  H   UNL     1       3.425  -7.640   5.707  1.00  0.00     0.064 H 
ATOM     57  H   UNL     1       0.747  -5.611   8.232  1.00  0.00     0.064 H 
ATOM     58  Cl  UNL     1       2.184  -8.048   8.220  1.00  0.00    -0.084 Cl
ENDBRANCH  28  48
ENDBRANCH  14  17
ENDBRANCH  11  14
ENDBRANCH   7  10
ENDBRANCH   4   7
ENDBRANCH   1   4
BRANCH   1  59
ATOM     59  C   UNL     1      -3.095  -0.061   6.762  1.00  0.00    -0.052 C 
ATOM     60  H   UNL     1      -2.338   0.428   7.338  1.00  0.00     0.027 H 
ATOM     61  H   UNL     1      -3.996  -0.271   7.300  1.00  0.00     0.027 H 
BRANCH  59  62
ATOM     62  C   UNL     1      -3.508   0.891   5.629  1.00  0.00    -0.036 C 
ATOM     63  H   UNL     1      -2.669   1.027   4.979  1.00  0.00     0.028 H 
ATOM     64  H   UNL     1      -3.823   1.804   6.089  1.00  0.00     0.028 H 
BRANCH  62  65
ATOM     65  C   UNL     1      -4.679   0.388   4.800  1.00  0.00     0.018 C 
ATOM     66  H   UNL     1      -4.454  -0.598   4.450  1.00  0.00     0.049 H 
ATOM     67  H   UNL     1      -4.822   1.068   3.987  1.00  0.00     0.049 H 
BRANCH  65  68
ATOM     68  N   UNL     1      -5.918   0.341   5.566  1.00  0.00    -0.352 N 
ATOM     69  C   UNL     1      -7.174  -0.039   5.141  1.00  0.00     0.251 C 
ATOM     70  H   UNL     1      -5.851   0.617   6.509  1.00  0.00     0.163 HD
ATOM     71  O   UNL     1      -8.173   0.288   5.760  1.00  0.00    -0.269 OA
BRANCH  69  72
ATOM     72  C   UNL     1      -7.293  -0.838   3.907  1.00  0.00     0.039 A 
ATOM     73  C   UNL     1      -8.307  -0.564   2.986  1.00  0.00    -0.049 A 
ATOM     74  C   UNL     1      -6.375  -1.860   3.671  1.00  0.00    -0.049 A 
ATOM     75  C   UNL     1      -8.338  -1.274   1.790  1.00  0.00    -0.053 A 
ATOM     76  H   UNL     1      -9.020   0.154   3.190  1.00  0.00     0.063 H 
ATOM     77  C   UNL     1      -6.331  -2.474   2.441  1.00  0.00    -0.053 A 
ATOM     78  H   UNL     1      -5.729  -2.157   4.420  1.00  0.00     0.063 H 
ATOM     79  C   UNL     1      -7.331  -2.213   1.510  1.00  0.00    -0.014 A 
ATOM     80  H   UNL     1      -9.098  -1.111   1.111  1.00  0.00     0.063 H 
ATOM     81  H   UNL     1      -5.562  -3.122   2.210  1.00  0.00     0.063 H 
BRANCH  79  82
ATOM     82  C   UNL     1      -7.272  -2.844   0.194  1.00  0.00     0.031 A 
ATOM     83  C   UNL     1      -7.254  -1.900  -0.959  1.00  0.00     0.074 A 
ATOM     84  C   UNL     1      -7.062  -4.162   0.001  1.00  0.00     0.049 A 
ATOM     85  N   UNL     1      -8.146  -1.763  -1.885  1.00  0.00    -0.248 NA
ATOM     86  C   UNL     1      -6.160  -0.919  -1.039  1.00  0.00    -0.034 C 
ATOM     87  C   UNL     1      -6.739  -5.196   0.990  1.00  0.00    -0.036 A 
ATOM     88  N   UNL     1      -7.008  -4.846  -1.176  1.00  0.00    -0.354 N 
ATOM     89  C   UNL     1      -7.662  -0.792  -2.760  1.00  0.00     0.074 A 
ATOM     90  C   UNL     1      -6.510  -0.214  -2.117  1.00  0.00    -0.034 C 
ATOM     91  H   UNL     1      -5.339  -0.807  -0.424  1.00  0.00     0.065 H 
ATOM     92  C   UNL     1      -6.308  -6.309   0.357  1.00  0.00    -0.036 A 
ATOM     93  H   UNL     1      -6.827  -5.089   2.013  1.00  0.00     0.065 H 
ATOM     94  C   UNL     1      -6.495  -6.131  -1.071  1.00  0.00     0.049 A 
ATOM     95  H   UNL     1      -7.308  -4.460  -2.030  1.00  0.00     0.167 HD
ATOM     96  C   UNL     1      -8.142  -0.691  -4.032  1.00  0.00     0.037 A 
ATOM     97  H   UNL     1      -6.020   0.633  -2.446  1.00  0.00     0.065 H 
ATOM     98  H   UNL     1      -5.912  -7.146   0.812  1.00  0.00     0.065 H 
ATOM     99  C   UNL     1      -6.226  -6.982  -2.090  1.00  0.00     0.037 A 
ATOM    100  C   UNL     1      -9.405  -1.375  -4.159  1.00  0.00     0.049 A 
ATOM    101  C   UNL     1      -7.010  -6.528  -3.264  1.00  0.00     0.074 A 
ATOM    102  C   UNL     1     -10.648  -1.239  -3.573  1.00  0.00    -0.036 A 
ATOM    103  N   UNL     1      -9.409  -2.618  -4.743  1.00  0.00    -0.354 N 
ATOM    104  N   UNL     1      -8.309  -6.590  -3.340  1.00  0.00    -0.248 NA
ATOM    105  C   UNL     1      -6.372  -5.603  -4.187  1.00  0.00    -0.034 C 
ATOM    106  C   UNL     1     -11.123  -2.574  -3.402  1.00  0.00    -0.036 A 
ATOM    107  H   UNL     1     -11.129  -0.363  -3.314  1.00  0.00     0.065 H 
ATOM    108  C   UNL     1     -10.172  -3.436  -3.952  1.00  0.00     0.049 A 
ATOM    109  H   UNL     1      -8.950  -2.874  -5.575  1.00  0.00     0.167 HD
ATOM    110  C   UNL     1      -8.677  -5.420  -3.985  1.00  0.00     0.074 A 
ATOM    111  C   UNL     1      -7.443  -4.907  -4.575  1.00  0.00    -0.034 C 
ATOM    112  H   UNL     1      -5.381  -5.512  -4.462  1.00  0.00     0.065 H 
ATOM    113  H   UNL     1     -12.009  -2.853  -2.954  1.00  0.00     0.065 H 
ATOM    114  C   UNL     1      -9.886  -4.834  -3.740  1.00  0.00     0.037 A 
ATOM    115  H   UNL     1      -7.404  -4.100  -5.218  1.00  0.00     0.065 H 
BRANCH  96 116
ATOM    116  C   UNL     1      -7.323  -0.302  -5.245  1.00  0.00     0.064 A 
ATOM    117  C   UNL     1      -7.964  -0.213  -6.500  1.00  0.00     0.173 A 
ATOM    118  C   UNL     1      -5.913  -0.326  -5.291  1.00  0.00     0.173 A 
ATOM    119  F   UNL     1      -9.303  -0.175  -6.586  1.00  0.00    -0.203 F 
ATOM    120  C   UNL     1      -7.254  -0.267  -7.703  1.00  0.00     0.198 A 
ATOM    121  C   UNL     1      -5.205  -0.327  -6.493  1.00  0.00     0.198 A 
ATOM    122  F   UNL     1      -5.162  -0.460  -4.193  1.00  0.00    -0.203 F 
ATOM    123  F   UNL     1      -7.918  -0.327  -8.865  1.00  0.00    -0.200 F 
ATOM    124  C   UNL     1      -5.875  -0.338  -7.698  1.00  0.00     0.200 A 
ATOM    125  F   UNL     1      -3.867  -0.405  -6.467  1.00  0.00    -0.200 F 
ATOM    126  F   UNL     1      -5.194  -0.464  -8.844  1.00  0.00    -0.200 F 
ENDBRANCH  96 116
BRANCH  99 127
ATOM    127  C   UNL     1      -5.152  -7.993  -2.202  1.00  0.00     0.064 A 
ATOM    128  C   UNL     1      -5.215  -9.011  -3.167  1.00  0.00     0.173 A 
ATOM    129  C   UNL     1      -3.910  -7.804  -1.567  1.00  0.00     0.173 A 
ATOM    130  F   UNL     1      -6.351  -9.227  -3.846  1.00  0.00    -0.203 F 
ATOM    131  C   UNL     1      -4.092  -9.772  -3.505  1.00  0.00     0.198 A 
ATOM    132  C   UNL     1      -2.790  -8.566  -1.905  1.00  0.00     0.198 A 
ATOM    133  F   UNL     1      -3.734  -6.812  -0.683  1.00  0.00    -0.203 F 
ATOM    134  F   UNL     1      -4.172 -10.687  -4.481  1.00  0.00    -0.200 F 
ATOM    135  C   UNL     1      -2.877  -9.539  -2.883  1.00  0.00     0.200 A 
ATOM    136  F   UNL     1      -1.608  -8.306  -1.331  1.00  0.00    -0.200 F 
ATOM    137  F   UNL     1      -1.783 -10.217  -3.254  1.00  0.00    -0.200 F 
ENDBRANCH  99 127
BRANCH 114 138
ATOM    138  C   UNL     1     -10.912  -5.631  -2.983  1.00  0.00     0.064 A 
ATOM    139  C   UNL     1     -10.747  -6.083  -1.662  1.00  0.00     0.173 A 
ATOM    140  C   UNL     1     -12.167  -5.822  -3.576  1.00  0.00     0.173 A 
ATOM    141  F   UNL     1      -9.614  -5.852  -0.988  1.00  0.00    -0.203 F 
ATOM    142  C   UNL     1     -11.777  -6.736  -0.987  1.00  0.00     0.198 A 
ATOM    143  C   UNL     1     -13.207  -6.439  -2.886  1.00  0.00     0.198 A 
ATOM    144  F   UNL     1     -12.402  -5.364  -4.816  1.00  0.00    -0.203 F 
ATOM    145  F   UNL     1     -11.589  -7.172   0.268  1.00  0.00    -0.200 F 
ATOM    146  C   UNL     1     -13.009  -6.906  -1.597  1.00  0.00     0.200 A 
ATOM    147  F   UNL     1     -14.410  -6.557  -3.463  1.00  0.00    -0.200 F 
ATOM    148  F   UNL     1     -14.013  -7.497  -0.934  1.00  0.00    -0.200 F 
ENDBRANCH 114 138
ENDBRANCH  79  82
ENDBRANCH  69  72
ENDBRANCH  65  68
ENDBRANCH  62  65
ENDBRANCH  59  62
ENDBRANCH   1  59
TORSDOF 18
