REMARK SMILES C[C@@H](C(=O)NCCCCCCNC(=O)c1ccc(-c2c3nc(c(-c4c(F)c(F)c(F)c(F)c4F)c4ccc([nH]4)c(-c4c(F)c(F)c(F)c(F)c4F)c4nc(c(-c5c(F)c(F)c(F)c(F)c5F)c5ccc2[nH]5)C=C4)C=C3)cc1)c1ccc(C[C@H]2CCCC2=O)cc1[N+](=O)[O-]
REMARK SMILES IDX 8 1 7 4 6 7 5 10 3 11 4 12 2 14 1 16 78 20 79 21 90 22 80 23
REMARK SMILES IDX 89 25 81 26 91 29 92 30 93 31 82 32 83 35 84 36 87 37 85 39
REMARK SMILES IDX 86 42 88 43 9 48 10 51 11 54 12 57 13 58 14 60 15 61 16 62
REMARK SMILES IDX 77 63 17 64 76 66 18 68 19 71 20 72 70 73 21 74 75 75 69 76
REMARK SMILES IDX 71 77 22 78 74 79 68 81 67 83 23 85 55 88 35 89 54 90 36 91
REMARK SMILES IDX 39 92 53 93 72 94 37 95 38 97 52 99 73 100 40 103 24 105
REMARK SMILES IDX 25 106 33 107 26 108 27 109 31 110 34 111 28 112 29 113
REMARK SMILES IDX 32 114 30 115 56 116 57 117 65 118 58 119 59 120 63 121
REMARK SMILES IDX 66 122 60 123 61 124 64 125 62 126 41 127 42 128 50 129
REMARK SMILES IDX 43 130 44 131 48 132 51 133 45 134 46 135 49 136 47 137
REMARK H PARENT 8 2 8 3 7 5 7 6 6 8 6 9 5 13 2 15 1 17 1 18 1 19 79 24 80 27
REMARK H PARENT 89 28 82 33 82 34 83 38 84 40 84 41 85 44 85 45 86 46 86 47
REMARK H PARENT 9 49 9 50 10 52 10 53 11 55 11 56 12 59 16 65 77 67 17 69
REMARK H PARENT 76 70 75 80 69 82 71 84 74 86 68 87 36 96 39 98 72 101 37 102
REMARK H PARENT 73 104
REMARK Flexibility Score: inf
ROOT
ATOM      1  C   UNL     1       4.942   1.981  -2.103  1.00  0.00    -0.052 C 
ATOM      2  H   UNL     1       4.219   2.472  -2.721  1.00  0.00     0.027 H 
ATOM      3  H   UNL     1       5.497   1.228  -2.622  1.00  0.00     0.027 H 
ENDROOT
BRANCH   1   4
ATOM      4  C   UNL     1       4.196   1.266  -0.970  1.00  0.00    -0.036 C 
ATOM      5  H   UNL     1       3.568   0.514  -1.401  1.00  0.00     0.028 H 
ATOM      6  H   UNL     1       4.939   0.855  -0.319  1.00  0.00     0.028 H 
BRANCH   4   7
ATOM      7  C   UNL     1       3.322   2.197  -0.121  1.00  0.00     0.017 C 
ATOM      8  H   UNL     1       2.989   1.675   0.752  1.00  0.00     0.049 H 
ATOM      9  H   UNL     1       3.893   3.053   0.171  1.00  0.00     0.049 H 
BRANCH   7  10
ATOM     10  N   UNL     1       2.175   2.624  -0.895  1.00  0.00    -0.356 N 
ATOM     11  C   UNL     1       0.947   2.039  -1.013  1.00  0.00     0.227 C 
ATOM     12  O   UNL     1       0.288   2.342  -2.010  1.00  0.00    -0.274 OA
ATOM     13  H   UNL     1       2.299   3.454  -1.410  1.00  0.00     0.163 HD
BRANCH  11  14
ATOM     14  C   UNL     1       0.414   1.107   0.104  1.00  0.00     0.067 C 
ATOM     15  H   UNL     1       0.667   1.484   1.073  1.00  0.00     0.045 H 
BRANCH  14  16
ATOM     16  C   UNL     1       1.120  -0.247   0.030  1.00  0.00    -0.049 C 
ATOM     17  H   UNL     1       2.179  -0.096   0.010  1.00  0.00     0.024 H 
ATOM     18  H   UNL     1       0.816  -0.760  -0.858  1.00  0.00     0.024 H 
ATOM     19  H   UNL     1       0.859  -0.832   0.887  1.00  0.00     0.024 H 
ENDBRANCH  14  16
BRANCH  14  20
ATOM     20  C   UNL     1      -1.126   1.098   0.142  1.00  0.00     0.042 A 
ATOM     21  C   UNL     1      -1.762   2.360   0.174  1.00  0.00    -0.051 A 
ATOM     22  C   UNL     1      -1.981  -0.020   0.186  1.00  0.00     0.273 A 
ATOM     23  C   UNL     1      -3.154   2.499   0.211  1.00  0.00    -0.058 A 
ATOM     24  H   UNL     1      -1.178   3.211   0.169  1.00  0.00     0.063 H 
ATOM     25  C   UNL     1      -3.379   0.116   0.280  1.00  0.00     0.019 A 
ATOM     26  C   UNL     1      -3.977   1.377   0.299  1.00  0.00    -0.040 A 
ATOM     27  H   UNL     1      -3.575   3.440   0.174  1.00  0.00     0.063 H 
ATOM     28  H   UNL     1      -3.969  -0.728   0.336  1.00  0.00     0.070 H 
BRANCH  22  29
ATOM     29  N   UNL     1      -1.514  -1.373   0.126  1.00  0.00     0.063 N 
ATOM     30  O   UNL     1      -1.499  -2.060   1.126  1.00  0.00    -0.258 OA
ATOM     31  O   UNL     1      -1.200  -1.951  -1.079  1.00  0.00    -0.258 OA
ENDBRANCH  22  29
BRANCH  26  32
ATOM     32  C   UNL     1      -5.476   1.512   0.406  1.00  0.00    -0.018 C 
ATOM     33  H   UNL     1      -5.904   0.547   0.230  1.00  0.00     0.032 H 
ATOM     34  H   UNL     1      -5.747   2.255  -0.314  1.00  0.00     0.032 H 
BRANCH  32  35
ATOM     35  C   UNL     1      -6.022   2.026   1.744  1.00  0.00     0.022 C 
ATOM     36  C   UNL     1      -5.531   1.308   3.006  1.00  0.00    -0.043 C 
ATOM     37  C   UNL     1      -5.625   3.457   2.020  1.00  0.00     0.136 C 
ATOM     38  H   UNL     1      -7.069   1.865   1.596  1.00  0.00     0.039 H 
ATOM     39  C   UNL     1      -4.396   2.157   3.566  1.00  0.00    -0.046 C 
ATOM     40  H   UNL     1      -5.175   0.329   2.760  1.00  0.00     0.027 H 
ATOM     41  H   UNL     1      -6.319   1.192   3.720  1.00  0.00     0.027 H 
ATOM     42  C   UNL     1      -4.776   3.598   3.255  1.00  0.00     0.006 C 
ATOM     43  O   UNL     1      -5.968   4.406   1.324  1.00  0.00    -0.299 OA
ATOM     44  H   UNL     1      -3.470   1.904   3.094  1.00  0.00     0.027 H 
ATOM     45  H   UNL     1      -4.263   2.000   4.616  1.00  0.00     0.027 H 
ATOM     46  H   UNL     1      -3.907   4.192   3.060  1.00  0.00     0.035 H 
ATOM     47  H   UNL     1      -5.279   4.088   4.062  1.00  0.00     0.035 H 
ENDBRANCH  32  35
ENDBRANCH  26  32
ENDBRANCH  14  20
ENDBRANCH  11  14
ENDBRANCH   7  10
ENDBRANCH   4   7
ENDBRANCH   1   4
BRANCH   1  48
ATOM     48  C   UNL     1       5.960   3.026  -1.640  1.00  0.00    -0.052 C 
ATOM     49  H   UNL     1       5.427   3.821  -1.161  1.00  0.00     0.027 H 
ATOM     50  H   UNL     1       6.489   3.340  -2.515  1.00  0.00     0.027 H 
BRANCH  48  51
ATOM     51  C   UNL     1       7.016   2.504  -0.662  1.00  0.00    -0.036 C 
ATOM     52  H   UNL     1       6.517   2.176   0.225  1.00  0.00     0.028 H 
ATOM     53  H   UNL     1       7.694   3.314  -0.488  1.00  0.00     0.028 H 
BRANCH  51  54
ATOM     54  C   UNL     1       7.856   1.345  -1.192  1.00  0.00     0.018 C 
ATOM     55  H   UNL     1       7.204   0.542  -1.467  1.00  0.00     0.049 H 
ATOM     56  H   UNL     1       8.532   1.044  -0.419  1.00  0.00     0.049 H 
BRANCH  54  57
ATOM     57  N   UNL     1       8.641   1.731  -2.352  1.00  0.00    -0.352 N 
ATOM     58  C   UNL     1       9.991   1.631  -2.570  1.00  0.00     0.251 C 
ATOM     59  H   UNL     1       8.126   2.125  -3.093  1.00  0.00     0.163 HD
ATOM     60  O   UNL     1      10.501   2.210  -3.523  1.00  0.00    -0.269 OA
BRANCH  58  61
ATOM     61  C   UNL     1      10.841   0.836  -1.656  1.00  0.00     0.039 A 
ATOM     62  C   UNL     1      12.091   1.348  -1.296  1.00  0.00    -0.049 A 
ATOM     63  C   UNL     1      10.440  -0.421  -1.195  1.00  0.00    -0.049 A 
ATOM     64  C   UNL     1      12.918   0.619  -0.441  1.00  0.00    -0.053 A 
ATOM     65  H   UNL     1      12.400   2.262  -1.661  1.00  0.00     0.063 H 
ATOM     66  C   UNL     1      11.239  -1.120  -0.290  1.00  0.00    -0.053 A 
ATOM     67  H   UNL     1       9.552  -0.832  -1.523  1.00  0.00     0.063 H 
ATOM     68  C   UNL     1      12.489  -0.610   0.088  1.00  0.00    -0.014 A 
ATOM     69  H   UNL     1      13.851   0.985  -0.195  1.00  0.00     0.063 H 
ATOM     70  H   UNL     1      10.909  -2.016   0.101  1.00  0.00     0.063 H 
BRANCH  68  71
ATOM     71  C   UNL     1      13.349  -1.359   1.039  1.00  0.00     0.031 A 
ATOM     72  C   UNL     1      13.945  -2.684   0.651  1.00  0.00     0.074 A 
ATOM     73  C   UNL     1      13.573  -0.852   2.266  1.00  0.00     0.049 A 
ATOM     74  N   UNL     1      14.725  -3.475   1.346  1.00  0.00    -0.248 NA
ATOM     75  C   UNL     1      13.606  -3.199  -0.684  1.00  0.00    -0.034 C 
ATOM     76  C   UNL     1      13.002   0.395   2.780  1.00  0.00    -0.036 A 
ATOM     77  N   UNL     1      14.337  -1.320   3.305  1.00  0.00    -0.354 N 
ATOM     78  C   UNL     1      14.971  -4.574   0.533  1.00  0.00     0.074 A 
ATOM     79  C   UNL     1      14.210  -4.379  -0.682  1.00  0.00    -0.034 C 
ATOM     80  H   UNL     1      13.044  -2.757  -1.429  1.00  0.00     0.065 H 
ATOM     81  C   UNL     1      13.453   0.603   4.027  1.00  0.00    -0.036 A 
ATOM     82  H   UNL     1      12.356   1.014   2.266  1.00  0.00     0.065 H 
ATOM     83  C   UNL     1      14.324  -0.504   4.409  1.00  0.00     0.049 A 
ATOM     84  H   UNL     1      14.847  -2.162   3.262  1.00  0.00     0.167 HD
ATOM     85  C   UNL     1      15.780  -5.634   0.768  1.00  0.00     0.037 A 
ATOM     86  H   UNL     1      14.147  -5.068  -1.448  1.00  0.00     0.065 H 
ATOM     87  H   UNL     1      13.221   1.415   4.620  1.00  0.00     0.065 H 
ATOM     88  C   UNL     1      14.948  -0.633   5.595  1.00  0.00     0.037 A 
ATOM     89  C   UNL     1      16.545  -5.822   1.974  1.00  0.00     0.049 A 
ATOM     90  C   UNL     1      15.853  -1.813   5.822  1.00  0.00     0.074 A 
ATOM     91  C   UNL     1      17.416  -6.848   2.294  1.00  0.00    -0.036 A 
ATOM     92  N   UNL     1      16.529  -4.958   3.059  1.00  0.00    -0.354 N 
ATOM     93  N   UNL     1      16.126  -2.813   5.020  1.00  0.00    -0.248 NA
ATOM     94  C   UNL     1      16.548  -1.873   7.115  1.00  0.00    -0.034 C 
ATOM     95  C   UNL     1      17.903  -6.623   3.587  1.00  0.00    -0.036 A 
ATOM     96  H   UNL     1      17.665  -7.643   1.685  1.00  0.00     0.065 H 
ATOM     97  C   UNL     1      17.368  -5.434   4.054  1.00  0.00     0.049 A 
ATOM     98  H   UNL     1      16.000  -4.130   3.114  1.00  0.00     0.167 HD
ATOM     99  C   UNL     1      17.037  -3.610   5.701  1.00  0.00     0.074 A 
ATOM    100  C   UNL     1      17.291  -2.962   6.971  1.00  0.00    -0.034 C 
ATOM    101  H   UNL     1      16.478  -1.236   7.924  1.00  0.00     0.065 H 
ATOM    102  H   UNL     1      18.550  -7.239   4.104  1.00  0.00     0.065 H 
ATOM    103  C   UNL     1      17.608  -4.776   5.313  1.00  0.00     0.037 A 
ATOM    104  H   UNL     1      17.964  -3.304   7.674  1.00  0.00     0.065 H 
BRANCH  85 105
ATOM    105  C   UNL     1      15.897  -6.670  -0.313  1.00  0.00     0.064 A 
ATOM    106  C   UNL     1      16.581  -6.400  -1.509  1.00  0.00     0.173 A 
ATOM    107  C   UNL     1      15.367  -7.956  -0.136  1.00  0.00     0.173 A 
ATOM    108  F   UNL     1      17.096  -5.182  -1.732  1.00  0.00    -0.203 F 
ATOM    109  C   UNL     1      16.710  -7.373  -2.496  1.00  0.00     0.198 A 
ATOM    110  C   UNL     1      15.522  -8.935  -1.114  1.00  0.00     0.198 A 
ATOM    111  F   UNL     1      14.709  -8.268   0.990  1.00  0.00    -0.203 F 
ATOM    112  F   UNL     1      17.332  -7.080  -3.646  1.00  0.00    -0.200 F 
ATOM    113  C   UNL     1      16.188  -8.642  -2.295  1.00  0.00     0.200 A 
ATOM    114  F   UNL     1      15.027 -10.165  -0.914  1.00  0.00    -0.200 F 
ATOM    115  F   UNL     1      16.322  -9.581  -3.242  1.00  0.00    -0.200 F 
ENDBRANCH  85 105
BRANCH  88 116
ATOM    116  C   UNL     1      14.758   0.396   6.649  1.00  0.00     0.064 A 
ATOM    117  C   UNL     1      15.802   1.256   7.017  1.00  0.00     0.173 A 
ATOM    118  C   UNL     1      13.533   0.532   7.319  1.00  0.00     0.173 A 
ATOM    119  F   UNL     1      16.997   1.152   6.418  1.00  0.00    -0.203 F 
ATOM    120  C   UNL     1      15.636   2.196   8.032  1.00  0.00     0.198 A 
ATOM    121  C   UNL     1      13.360   1.492   8.313  1.00  0.00     0.198 A 
ATOM    122  F   UNL     1      12.501  -0.262   6.999  1.00  0.00    -0.203 F 
ATOM    123  F   UNL     1      16.666   2.971   8.398  1.00  0.00    -0.200 F 
ATOM    124  C   UNL     1      14.414   2.316   8.676  1.00  0.00     0.200 A 
ATOM    125  F   UNL     1      12.173   1.614   8.923  1.00  0.00    -0.200 F 
ATOM    126  F   UNL     1      14.255   3.220   9.652  1.00  0.00    -0.200 F 
ENDBRANCH  88 116
BRANCH 103 127
ATOM    127  C   UNL     1      18.575  -5.412   6.268  1.00  0.00     0.064 A 
ATOM    128  C   UNL     1      18.140  -6.016   7.457  1.00  0.00     0.173 A 
ATOM    129  C   UNL     1      19.948  -5.431   5.984  1.00  0.00     0.173 A 
ATOM    130  F   UNL     1      16.838  -6.010   7.781  1.00  0.00    -0.203 F 
ATOM    131  C   UNL     1      19.050  -6.586   8.343  1.00  0.00     0.198 A 
ATOM    132  C   UNL     1      20.852  -6.028   6.858  1.00  0.00     0.198 A 
ATOM    133  F   UNL     1      20.414  -4.873   4.856  1.00  0.00    -0.203 F 
ATOM    134  F   UNL     1      18.619  -7.108   9.500  1.00  0.00    -0.200 F 
ATOM    135  C   UNL     1      20.404  -6.596   8.041  1.00  0.00     0.200 A 
ATOM    136  F   UNL     1      22.158  -6.047   6.559  1.00  0.00    -0.200 F 
ATOM    137  F   UNL     1      21.278  -7.145   8.896  1.00  0.00    -0.200 F 
ENDBRANCH 103 127
ENDBRANCH  68  71
ENDBRANCH  58  61
ENDBRANCH  54  57
ENDBRANCH  51  54
ENDBRANCH  48  51
ENDBRANCH   1  48
TORSDOF 18
