REMARK SMILES C[C@@H](C(=O)NCCCCCCNC(=O)c1ccc(-c2c3nc(c(-c4c(F)c(F)c(F)c(F)c4F)c4ccc([nH]4)c(-c4c(F)c(F)c(F)c(F)c4F)c4nc(c(-c5c(F)c(F)c(F)c(F)c5F)c5ccc2[nH]5)C=C4)C=C3)cc1)c1ccc(C[SiH](C)C)cc1
REMARK SMILES IDX 7 1 6 4 5 7 3 8 4 9 2 11 1 13 78 17 79 18 87 19 80 20 86 22
REMARK SMILES IDX 81 24 82 27 83 30 84 32 85 36 8 40 9 43 10 46 11 49 12 52
REMARK SMILES IDX 13 53 14 55 15 56 16 57 77 58 17 59 76 61 18 63 19 66 20 67
REMARK SMILES IDX 70 68 21 69 75 70 69 71 71 72 22 73 74 74 68 76 67 78 23 80
REMARK SMILES IDX 55 83 35 84 54 85 36 86 39 87 53 88 72 89 37 90 38 92 52 94
REMARK SMILES IDX 73 95 40 98 24 100 25 101 33 102 26 103 27 104 31 105 34 106
REMARK SMILES IDX 28 107 29 108 32 109 30 110 56 111 57 112 65 113 58 114
REMARK SMILES IDX 59 115 63 116 66 117 60 118 61 119 64 120 62 121 41 122
REMARK SMILES IDX 42 123 50 124 43 125 44 126 48 127 51 128 45 129 46 130
REMARK SMILES IDX 49 131 47 132
REMARK H PARENT 7 2 7 3 6 5 6 6 5 10 2 12 1 14 1 15 1 16 79 21 87 23 80 25
REMARK H PARENT 86 26 82 28 82 29 83 31 84 33 84 34 84 35 85 37 85 38 85 39
REMARK H PARENT 8 41 8 42 9 44 9 45 10 47 10 48 11 50 11 51 12 54 16 60 77 62
REMARK H PARENT 17 64 76 65 75 75 69 77 71 79 74 81 68 82 36 91 39 93 72 96
REMARK H PARENT 37 97 73 99
REMARK Flexibility Score: inf
ROOT
ATOM      1  C   UNL     1       4.222   0.539   1.294  1.00  0.00    -0.036 C 
ATOM      2  H   UNL     1       3.544   1.221   0.824  1.00  0.00     0.028 H 
ATOM      3  H   UNL     1       4.963   0.167   0.618  1.00  0.00     0.028 H 
ENDROOT
BRANCH   1   4
ATOM      4  C   UNL     1       3.424  -0.670   1.790  1.00  0.00     0.017 C 
ATOM      5  H   UNL     1       3.029  -1.202   0.950  1.00  0.00     0.049 H 
ATOM      6  H   UNL     1       4.070  -1.310   2.354  1.00  0.00     0.049 H 
BRANCH   4   7
ATOM      7  N   UNL     1       2.336  -0.232   2.634  1.00  0.00    -0.356 N 
ATOM      8  C   UNL     1       1.011  -0.081   2.350  1.00  0.00     0.227 C 
ATOM      9  O   UNL     1       0.339   0.516   3.192  1.00  0.00    -0.274 OA
ATOM     10  H   UNL     1       2.591  -0.007   3.558  1.00  0.00     0.163 HD
BRANCH   8  11
ATOM     11  C   UNL     1       0.424  -0.685   1.060  1.00  0.00     0.060 C 
ATOM     12  H   UNL     1       0.811  -1.681   1.005  1.00  0.00     0.045 H 
BRANCH  11  13
ATOM     13  C   UNL     1       0.870   0.052  -0.209  1.00  0.00    -0.049 C 
ATOM     14  H   UNL     1       1.939   0.085  -0.245  1.00  0.00     0.024 H 
ATOM     15  H   UNL     1       0.484   1.050  -0.197  1.00  0.00     0.024 H 
ATOM     16  H   UNL     1       0.499  -0.463  -1.070  1.00  0.00     0.024 H 
ENDBRANCH  11  13
BRANCH  11  17
ATOM     17  C   UNL     1      -1.099  -0.733   1.115  1.00  0.00    -0.036 A 
ATOM     18  C   UNL     1      -1.851   0.446   1.009  1.00  0.00    -0.058 A 
ATOM     19  C   UNL     1      -1.775  -1.944   1.307  1.00  0.00    -0.058 A 
ATOM     20  C   UNL     1      -3.239   0.417   1.084  1.00  0.00    -0.059 A 
ATOM     21  H   UNL     1      -1.367   1.348   0.875  1.00  0.00     0.063 H 
ATOM     22  C   UNL     1      -3.171  -1.969   1.411  1.00  0.00    -0.059 A 
ATOM     23  H   UNL     1      -1.241  -2.825   1.372  1.00  0.00     0.063 H 
ATOM     24  C   UNL     1      -3.915  -0.786   1.315  1.00  0.00    -0.051 A 
ATOM     25  H   UNL     1      -3.776   1.290   0.967  1.00  0.00     0.063 H 
ATOM     26  H   UNL     1      -3.656  -2.868   1.560  1.00  0.00     0.063 H 
BRANCH  24  27
ATOM     27  C   UNL     1      -5.417  -0.793   1.474  1.00  0.00    -0.035 C 
ATOM     28  H   UNL     1      -5.744  -1.811   1.439  1.00  0.00     0.028 H 
ATOM     29  H   UNL     1      -5.792  -0.183   0.678  1.00  0.00     0.028 H 
BRANCH  27  30
ATOM     30  Si  UNL     1      -6.093  -0.021   3.068  1.00  0.00     0.035 Si
ATOM     31  H   UNL     1      -5.594  -0.766   4.168  1.00  0.00     0.014 H 
BRANCH  30  32
ATOM     32  C   UNL     1      -5.534   1.749   3.270  1.00  0.00    -0.072 C 
ATOM     33  H   UNL     1      -5.898   2.334   2.451  1.00  0.00     0.020 H 
ATOM     34  H   UNL     1      -4.465   1.785   3.286  1.00  0.00     0.020 H 
ATOM     35  H   UNL     1      -5.918   2.142   4.188  1.00  0.00     0.020 H 
ENDBRANCH  30  32
BRANCH  30  36
ATOM     36  C   UNL     1      -7.959  -0.075   3.027  1.00  0.00    -0.072 C 
ATOM     37  H   UNL     1      -8.315   0.492   2.192  1.00  0.00     0.020 H 
ATOM     38  H   UNL     1      -8.348   0.342   3.933  1.00  0.00     0.020 H 
ATOM     39  H   UNL     1      -8.284  -1.090   2.933  1.00  0.00     0.020 H 
ENDBRANCH  30  36
ENDBRANCH  27  30
ENDBRANCH  24  27
ENDBRANCH  11  17
ENDBRANCH   8  11
ENDBRANCH   4   7
ENDBRANCH   1   4
BRANCH   1  40
ATOM     40  C   UNL     1       4.968   1.288   2.408  1.00  0.00    -0.052 C 
ATOM     41  H   UNL     1       4.241   1.681   3.089  1.00  0.00     0.027 H 
ATOM     42  H   UNL     1       5.548   2.046   1.925  1.00  0.00     0.027 H 
BRANCH  40  43
ATOM     43  C   UNL     1       5.957   0.434   3.209  1.00  0.00    -0.052 C 
ATOM     44  H   UNL     1       5.399  -0.300   3.753  1.00  0.00     0.027 H 
ATOM     45  H   UNL     1       6.494   1.109   3.842  1.00  0.00     0.027 H 
BRANCH  43  46
ATOM     46  C   UNL     1       7.004  -0.292   2.363  1.00  0.00    -0.036 C 
ATOM     47  H   UNL     1       6.494  -0.960   1.700  1.00  0.00     0.028 H 
ATOM     48  H   UNL     1       7.652  -0.800   3.046  1.00  0.00     0.028 H 
BRANCH  46  49
ATOM     49  C   UNL     1       7.885   0.631   1.528  1.00  0.00     0.018 C 
ATOM     50  H   UNL     1       7.259   1.246   0.916  1.00  0.00     0.049 H 
ATOM     51  H   UNL     1       8.531   0.021   0.931  1.00  0.00     0.049 H 
BRANCH  49  52
ATOM     52  N   UNL     1       8.717   1.488   2.360  1.00  0.00    -0.352 N 
ATOM     53  C   UNL     1      10.084   1.603   2.393  1.00  0.00     0.251 C 
ATOM     54  H   UNL     1       8.230   2.067   2.988  1.00  0.00     0.163 HD
ATOM     55  O   UNL     1      10.636   2.220   3.300  1.00  0.00    -0.269 OA
BRANCH  53  56
ATOM     56  C   UNL     1      10.896   0.956   1.343  1.00  0.00     0.039 A 
ATOM     57  C   UNL     1      12.002   0.189   1.718  1.00  0.00    -0.049 A 
ATOM     58  C   UNL     1      10.552   1.087  -0.006  1.00  0.00    -0.049 A 
ATOM     59  C   UNL     1      12.713  -0.517   0.746  1.00  0.00    -0.053 A 
ATOM     60  H   UNL     1      12.291   0.145   2.707  1.00  0.00     0.063 H 
ATOM     61  C   UNL     1      11.219   0.329  -0.964  1.00  0.00    -0.053 A 
ATOM     62  H   UNL     1       9.807   1.743  -0.290  1.00  0.00     0.063 H 
ATOM     63  C   UNL     1      12.295  -0.493  -0.596  1.00  0.00    -0.014 A 
ATOM     64  H   UNL     1      13.549  -1.060   1.014  1.00  0.00     0.063 H 
ATOM     65  H   UNL     1      10.920   0.372  -1.951  1.00  0.00     0.063 H 
BRANCH  63  66
ATOM     66  C   UNL     1      12.933  -1.363  -1.617  1.00  0.00     0.031 A 
ATOM     67  C   UNL     1      13.653  -0.757  -2.789  1.00  0.00     0.074 A 
ATOM     68  C   UNL     1      12.776  -2.699  -1.534  1.00  0.00     0.049 A 
ATOM     69  N   UNL     1      14.175  -1.350  -3.833  1.00  0.00    -0.248 NA
ATOM     70  C   UNL     1      13.785   0.708  -2.803  1.00  0.00    -0.034 C 
ATOM     71  C   UNL     1      12.056  -3.401  -0.470  1.00  0.00    -0.036 A 
ATOM     72  N   UNL     1      13.190  -3.707  -2.372  1.00  0.00    -0.354 N 
ATOM     73  C   UNL     1      14.677  -0.333  -4.634  1.00  0.00     0.074 A 
ATOM     74  C   UNL     1      14.370   0.917  -3.974  1.00  0.00    -0.034 C 
ATOM     75  H   UNL     1      13.498   1.394  -2.087  1.00  0.00     0.065 H 
ATOM     76  C   UNL     1      12.083  -4.720  -0.714  1.00  0.00    -0.036 A 
ATOM     77  H   UNL     1      11.601  -2.952   0.340  1.00  0.00     0.065 H 
ATOM     78  C   UNL     1      12.776  -4.957  -1.977  1.00  0.00     0.049 A 
ATOM     79  H   UNL     1      13.732  -3.549  -3.178  1.00  0.00     0.167 HD
ATOM     80  C   UNL     1      15.343  -0.440  -5.808  1.00  0.00     0.037 A 
ATOM     81  H   UNL     1      14.578   1.850  -4.365  1.00  0.00     0.065 H 
ATOM     82  H   UNL     1      11.678  -5.450  -0.107  1.00  0.00     0.065 H 
ATOM     83  C   UNL     1      12.911  -6.154  -2.578  1.00  0.00     0.037 A 
ATOM     84  C   UNL     1      15.675  -1.690  -6.440  1.00  0.00     0.049 A 
ATOM     85  C   UNL     1      13.640  -6.235  -3.894  1.00  0.00     0.074 A 
ATOM     86  C   UNL     1      16.439  -1.902  -7.574  1.00  0.00    -0.036 A 
ATOM     87  N   UNL     1      15.250  -2.935  -6.004  1.00  0.00    -0.354 N 
ATOM     88  N   UNL     1      14.202  -5.276  -4.588  1.00  0.00    -0.248 NA
ATOM     89  C   UNL     1      13.752  -7.564  -4.512  1.00  0.00    -0.034 C 
ATOM     90  C   UNL     1      16.418  -3.269  -7.865  1.00  0.00    -0.036 A 
ATOM     91  H   UNL     1      16.938  -1.177  -8.112  1.00  0.00     0.065 H 
ATOM     92  C   UNL     1      15.693  -3.916  -6.877  1.00  0.00     0.049 A 
ATOM     93  H   UNL     1      14.714  -3.099  -5.194  1.00  0.00     0.167 HD
ATOM     94  C   UNL     1      14.749  -5.885  -5.709  1.00  0.00     0.074 A 
ATOM     95  C   UNL     1      14.474  -7.301  -5.592  1.00  0.00    -0.034 C 
ATOM     96  H   UNL     1      13.368  -8.466  -4.190  1.00  0.00     0.065 H 
ATOM     97  H   UNL     1      16.866  -3.720  -8.678  1.00  0.00     0.065 H 
ATOM     98  C   UNL     1      15.413  -5.322  -6.747  1.00  0.00     0.037 A 
ATOM     99  H   UNL     1      14.798  -8.014  -6.263  1.00  0.00     0.065 H 
BRANCH  80 100
ATOM    100  C   UNL     1      15.763   0.822  -6.504  1.00  0.00     0.064 A 
ATOM    101  C   UNL     1      16.801   1.627  -6.014  1.00  0.00     0.173 A 
ATOM    102  C   UNL     1      15.179   1.177  -7.730  1.00  0.00     0.173 A 
ATOM    103  F   UNL     1      17.388   1.335  -4.844  1.00  0.00    -0.203 F 
ATOM    104  C   UNL     1      17.231   2.748  -6.721  1.00  0.00     0.198 A 
ATOM    105  C   UNL     1      15.631   2.281  -8.447  1.00  0.00     0.198 A 
ATOM    106  F   UNL     1      14.186   0.436  -8.246  1.00  0.00    -0.203 F 
ATOM    107  F   UNL     1      18.206   3.519  -6.221  1.00  0.00    -0.200 F 
ATOM    108  C   UNL     1      16.654   3.067  -7.941  1.00  0.00     0.200 A 
ATOM    109  F   UNL     1      15.083   2.577  -9.634  1.00  0.00    -0.200 F 
ATOM    110  F   UNL     1      17.085   4.132  -8.630  1.00  0.00    -0.200 F 
ENDBRANCH  80 100
BRANCH  83 111
ATOM    111  C   UNL     1      12.320  -7.375  -1.964  1.00  0.00     0.064 A 
ATOM    112  C   UNL     1      13.133  -8.419  -1.502  1.00  0.00     0.173 A 
ATOM    113  C   UNL     1      10.930  -7.540  -1.864  1.00  0.00     0.173 A 
ATOM    114  F   UNL     1      14.467  -8.321  -1.595  1.00  0.00    -0.203 F 
ATOM    115  C   UNL     1      12.579  -9.594  -0.996  1.00  0.00     0.198 A 
ATOM    116  C   UNL     1      10.378  -8.699  -1.325  1.00  0.00     0.198 A 
ATOM    117  F   UNL     1      10.105  -6.570  -2.287  1.00  0.00    -0.203 F 
ATOM    118  F   UNL     1      13.379 -10.603  -0.623  1.00  0.00    -0.200 F 
ATOM    119  C   UNL     1      11.202  -9.732  -0.904  1.00  0.00     0.200 A 
ATOM    120  F   UNL     1       9.047  -8.820  -1.222  1.00  0.00    -0.200 F 
ATOM    121  F   UNL     1      10.670 -10.863  -0.422  1.00  0.00    -0.200 F 
ENDBRANCH  83 111
BRANCH  98 122
ATOM    122  C   UNL     1      15.902  -6.234  -7.834  1.00  0.00     0.064 A 
ATOM    123  C   UNL     1      15.015  -6.835  -8.739  1.00  0.00     0.173 A 
ATOM    124  C   UNL     1      17.276  -6.459  -8.011  1.00  0.00     0.173 A 
ATOM    125  F   UNL     1      13.692  -6.665  -8.601  1.00  0.00    -0.203 F 
ATOM    126  C   UNL     1      15.485  -7.641  -9.772  1.00  0.00     0.198 A 
ATOM    127  C   UNL     1      17.744  -7.239  -9.065  1.00  0.00     0.198 A 
ATOM    128  F   UNL     1      18.166  -5.902  -7.177  1.00  0.00    -0.203 F 
ATOM    129  F   UNL     1      14.617  -8.239 -10.600  1.00  0.00    -0.200 F 
ATOM    130  C   UNL     1      16.848  -7.833  -9.941  1.00  0.00     0.200 A 
ATOM    131  F   UNL     1      19.062  -7.409  -9.236  1.00  0.00    -0.200 F 
ATOM    132  F   UNL     1      17.299  -8.596 -10.946  1.00  0.00    -0.200 F 
ENDBRANCH  98 122
ENDBRANCH  63  66
ENDBRANCH  53  56
ENDBRANCH  49  52
ENDBRANCH  46  49
ENDBRANCH  43  46
ENDBRANCH  40  43
ENDBRANCH   1  40
TORSDOF 19
