REMARK SMILES O=C(Cn1cnc(-c2ccccc2)c1-c1ccccc1)NCCCCCCNC(=O)c1ccc(-c2c3nc(c(-c4c(F)c(F)c(F)c(F)c4F)c4ccc([nH]4)c(-c4c(F)c(F)c(F)c(F)c4F)c4nc(c(-c5c(F)c(F)c(F)c(F)c5F)c5ccc2[nH]5)C=C4)C=C3)cc1
REMARK SMILES IDX 24 1 23 4 22 7 21 10 1 11 2 12 3 14 4 17 5 18 14 19 6 20
REMARK SMILES IDX 7 22 15 23 16 24 20 25 17 26 19 28 18 30 8 34 9 35 13 36
REMARK SMILES IDX 10 37 12 39 11 41 25 45 26 48 27 51 28 54 29 55 30 57 31 58
REMARK SMILES IDX 32 59 93 60 33 61 92 63 34 65 35 68 36 69 86 70 37 71 91 72
REMARK SMILES IDX 85 73 87 74 38 75 90 76 84 78 83 80 39 82 71 85 51 86 70 87
REMARK SMILES IDX 52 88 55 89 69 90 88 91 53 92 54 94 68 96 89 97 56 100
REMARK SMILES IDX 40 102 41 103 49 104 42 105 43 106 47 107 50 108 44 109
REMARK SMILES IDX 45 110 48 111 46 112 72 113 73 114 81 115 74 116 75 117
REMARK SMILES IDX 79 118 82 119 76 120 77 121 80 122 78 123 57 124 58 125
REMARK SMILES IDX 66 126 59 127 60 128 64 129 67 130 61 131 62 132 65 133
REMARK SMILES IDX 63 134
REMARK H PARENT 24 2 24 3 23 5 23 6 22 8 22 9 21 13 3 15 3 16 5 21 16 27 20 29
REMARK H PARENT 17 31 19 32 18 33 9 38 13 40 10 42 12 43 11 44 25 46 25 47
REMARK H PARENT 26 49 26 50 27 52 27 53 28 56 32 62 93 64 33 66 92 67 91 77
REMARK H PARENT 85 79 87 81 90 83 84 84 52 93 55 95 88 98 53 99 89 101
REMARK Flexibility Score: inf
ROOT
ATOM      1  C   UNL     1       4.338   1.107  -3.533  1.00  0.00    -0.052 C 
ATOM      2  H   UNL     1       4.884   1.244  -2.622  1.00  0.00     0.027 H 
ATOM      3  H   UNL     1       4.544   1.835  -4.290  1.00  0.00     0.027 H 
ENDROOT
BRANCH   1   4
ATOM      4  C   UNL     1       2.849   1.270  -3.211  1.00  0.00    -0.036 C 
ATOM      5  H   UNL     1       2.715   2.214  -2.724  1.00  0.00     0.028 H 
ATOM      6  H   UNL     1       2.330   1.199  -4.144  1.00  0.00     0.028 H 
BRANCH   4   7
ATOM      7  C   UNL     1       2.265   0.187  -2.312  1.00  0.00     0.017 C 
ATOM      8  H   UNL     1       1.229   0.398  -2.151  1.00  0.00     0.049 H 
ATOM      9  H   UNL     1       2.409  -0.751  -2.807  1.00  0.00     0.049 H 
BRANCH   7  10
ATOM     10  N   UNL     1       2.926   0.103  -1.022  1.00  0.00    -0.355 N 
ATOM     11  O   UNL     1       1.152   0.910   0.179  1.00  0.00    -0.273 OA
ATOM     12  C   UNL     1       2.266   0.387   0.157  1.00  0.00     0.239 C 
ATOM     13  H   UNL     1       3.873  -0.163  -0.987  1.00  0.00     0.163 HD
BRANCH  12  14
ATOM     14  C   UNL     1       3.019   0.102   1.440  1.00  0.00     0.103 C 
ATOM     15  H   UNL     1       2.307   0.046   2.236  1.00  0.00     0.060 H 
ATOM     16  H   UNL     1       3.724   0.899   1.554  1.00  0.00     0.060 H 
BRANCH  14  17
ATOM     17  N   UNL     1       3.795  -1.128   1.441  1.00  0.00    -0.321 N 
ATOM     18  C   UNL     1       5.146  -1.170   1.674  1.00  0.00     0.096 A 
ATOM     19  C   UNL     1       3.344  -2.430   1.343  1.00  0.00     0.076 A 
ATOM     20  N   UNL     1       5.596  -2.400   1.722  1.00  0.00    -0.236 NA
ATOM     21  H   UNL     1       5.737  -0.333   1.798  1.00  0.00     0.104 H 
ATOM     22  C   UNL     1       4.495  -3.192   1.515  1.00  0.00     0.096 A 
BRANCH  19  23
ATOM     23  C   UNL     1       1.959  -2.861   1.165  1.00  0.00     0.000 A 
ATOM     24  C   UNL     1       1.293  -3.532   2.197  1.00  0.00    -0.053 A 
ATOM     25  C   UNL     1       1.317  -2.717  -0.068  1.00  0.00    -0.053 A 
ATOM     26  C   UNL     1      -0.000  -4.023   2.003  1.00  0.00    -0.062 A 
ATOM     27  H   UNL     1       1.761  -3.664   3.108  1.00  0.00     0.063 H 
ATOM     28  C   UNL     1       0.015  -3.182  -0.256  1.00  0.00    -0.062 A 
ATOM     29  H   UNL     1       1.812  -2.261  -0.850  1.00  0.00     0.063 H 
ATOM     30  C   UNL     1      -0.643  -3.838   0.781  1.00  0.00    -0.062 A 
ATOM     31  H   UNL     1      -0.480  -4.525   2.767  1.00  0.00     0.062 H 
ATOM     32  H   UNL     1      -0.460  -3.041  -1.161  1.00  0.00     0.062 H 
ATOM     33  H   UNL     1      -1.605  -4.186   0.644  1.00  0.00     0.062 H 
ENDBRANCH  19  23
BRANCH  22  34
ATOM     34  C   UNL     1       4.542  -4.641   1.521  1.00  0.00     0.002 A 
ATOM     35  C   UNL     1       5.013  -5.319   2.650  1.00  0.00    -0.053 A 
ATOM     36  C   UNL     1       4.075  -5.373   0.422  1.00  0.00    -0.053 A 
ATOM     37  C   UNL     1       4.982  -6.715   2.692  1.00  0.00    -0.062 A 
ATOM     38  H   UNL     1       5.382  -4.788   3.454  1.00  0.00     0.063 H 
ATOM     39  C   UNL     1       4.051  -6.768   0.463  1.00  0.00    -0.062 A 
ATOM     40  H   UNL     1       3.747  -4.879  -0.422  1.00  0.00     0.063 H 
ATOM     41  C   UNL     1       4.498  -7.437   1.601  1.00  0.00    -0.062 A 
ATOM     42  H   UNL     1       5.319  -7.213   3.531  1.00  0.00     0.062 H 
ATOM     43  H   UNL     1       3.704  -7.302  -0.348  1.00  0.00     0.062 H 
ATOM     44  H   UNL     1       4.470  -8.468   1.636  1.00  0.00     0.062 H 
ENDBRANCH  22  34
ENDBRANCH  14  17
ENDBRANCH  12  14
ENDBRANCH   7  10
ENDBRANCH   4   7
ENDBRANCH   1   4
BRANCH   1  45
ATOM     45  C   UNL     1       4.769  -0.237  -4.136  1.00  0.00    -0.052 C 
ATOM     46  H   UNL     1       4.609  -0.991  -3.393  1.00  0.00     0.027 H 
ATOM     47  H   UNL     1       5.790  -0.097  -4.425  1.00  0.00     0.027 H 
BRANCH  45  48
ATOM     48  C   UNL     1       4.053  -0.691  -5.416  1.00  0.00    -0.036 C 
ATOM     49  H   UNL     1       3.007  -0.770  -5.202  1.00  0.00     0.028 H 
ATOM     50  H   UNL     1       4.498  -1.622  -5.696  1.00  0.00     0.028 H 
BRANCH  48  51
ATOM     51  C   UNL     1       4.223   0.242  -6.607  1.00  0.00     0.018 C 
ATOM     52  H   UNL     1       3.903   1.222  -6.321  1.00  0.00     0.049 H 
ATOM     53  H   UNL     1       3.635  -0.155  -7.408  1.00  0.00     0.049 H 
BRANCH  51  54
ATOM     54  N   UNL     1       5.604   0.324  -7.082  1.00  0.00    -0.352 N 
ATOM     55  C   UNL     1       6.125   1.155  -8.060  1.00  0.00     0.251 C 
ATOM     56  H   UNL     1       6.244  -0.288  -6.653  1.00  0.00     0.163 HD
ATOM     57  O   UNL     1       7.171   0.891  -8.626  1.00  0.00    -0.269 OA
BRANCH  55  58
ATOM     58  C   UNL     1       5.380   2.379  -8.407  1.00  0.00     0.039 A 
ATOM     59  C   UNL     1       5.224   2.789  -9.734  1.00  0.00    -0.049 A 
ATOM     60  C   UNL     1       4.798   3.096  -7.368  1.00  0.00    -0.049 A 
ATOM     61  C   UNL     1       4.398   3.877 -10.008  1.00  0.00    -0.053 A 
ATOM     62  H   UNL     1       5.712   2.294 -10.498  1.00  0.00     0.063 H 
ATOM     63  C   UNL     1       3.859   4.053  -7.649  1.00  0.00    -0.053 A 
ATOM     64  H   UNL     1       5.072   2.908  -6.391  1.00  0.00     0.063 H 
ATOM     65  C   UNL     1       3.697   4.493  -8.959  1.00  0.00    -0.014 A 
ATOM     66  H   UNL     1       4.302   4.228 -10.974  1.00  0.00     0.063 H 
ATOM     67  H   UNL     1       3.276   4.446  -6.894  1.00  0.00     0.063 H 
BRANCH  65  68
ATOM     68  C   UNL     1       2.714   5.540  -9.222  1.00  0.00     0.031 A 
ATOM     69  C   UNL     1       1.634   5.172 -10.181  1.00  0.00     0.074 A 
ATOM     70  C   UNL     1       2.640   6.666  -8.478  1.00  0.00     0.049 A 
ATOM     71  N   UNL     1       1.360   5.720 -11.319  1.00  0.00    -0.248 NA
ATOM     72  C   UNL     1       0.817   3.985  -9.883  1.00  0.00    -0.034 C 
ATOM     73  C   UNL     1       3.423   7.019  -7.285  1.00  0.00    -0.036 A 
ATOM     74  N   UNL     1       1.752   7.695  -8.562  1.00  0.00    -0.354 N 
ATOM     75  C   UNL     1       0.225   5.069 -11.801  1.00  0.00     0.074 A 
ATOM     76  C   UNL     1       0.035   3.915 -10.962  1.00  0.00    -0.034 C 
ATOM     77  H   UNL     1       0.841   3.368  -9.056  1.00  0.00     0.065 H 
ATOM     78  C   UNL     1       2.821   8.034  -6.629  1.00  0.00    -0.036 A 
ATOM     79  H   UNL     1       4.300   6.560  -6.994  1.00  0.00     0.065 H 
ATOM     80  C   UNL     1       1.730   8.524  -7.448  1.00  0.00     0.049 A 
ATOM     81  H   UNL     1       1.174   7.839  -9.346  1.00  0.00     0.167 HD
ATOM     82  C   UNL     1      -0.599   5.669 -12.705  1.00  0.00     0.037 A 
ATOM     83  H   UNL     1      -0.616   3.141 -11.167  1.00  0.00     0.065 H 
ATOM     84  H   UNL     1       3.092   8.398  -5.703  1.00  0.00     0.065 H 
ATOM     85  C   UNL     1       0.862   9.533  -7.200  1.00  0.00     0.037 A 
ATOM     86  C   UNL     1       0.057   6.785 -13.338  1.00  0.00     0.049 A 
ATOM     87  C   UNL     1       0.255   9.914  -8.495  1.00  0.00     0.074 A 
ATOM     88  C   UNL     1       1.171   6.944 -14.137  1.00  0.00    -0.036 A 
ATOM     89  N   UNL     1      -0.252   8.038 -12.873  1.00  0.00    -0.354 N 
ATOM     90  N   UNL     1       0.911  10.472  -9.474  1.00  0.00    -0.248 NA
ATOM     91  C   UNL     1      -1.010   9.298  -8.862  1.00  0.00    -0.034 C 
ATOM     92  C   UNL     1       1.739   8.191 -13.738  1.00  0.00    -0.036 A 
ATOM     93  H   UNL     1       1.517   6.301 -14.866  1.00  0.00     0.065 H 
ATOM     94  C   UNL     1       0.912   8.749 -12.762  1.00  0.00     0.049 A 
ATOM     95  H   UNL     1      -1.154   8.368 -12.657  1.00  0.00     0.167 HD
ATOM     96  C   UNL     1       0.378   9.904 -10.620  1.00  0.00     0.074 A 
ATOM     97  C   UNL     1      -0.877   9.294 -10.190  1.00  0.00    -0.034 C 
ATOM     98  H   UNL     1      -1.784   8.961  -8.268  1.00  0.00     0.065 H 
ATOM     99  H   UNL     1       2.609   8.607 -14.106  1.00  0.00     0.065 H 
ATOM    100  C   UNL     1       1.146   9.740 -11.736  1.00  0.00     0.037 A 
ATOM    101  H   UNL     1      -1.580   8.905 -10.838  1.00  0.00     0.065 H 
BRANCH  82 102
ATOM    102  C   UNL     1      -2.106   5.520 -12.734  1.00  0.00     0.064 A 
ATOM    103  C   UNL     1      -2.834   6.143 -13.772  1.00  0.00     0.173 A 
ATOM    104  C   UNL     1      -2.878   5.082 -11.637  1.00  0.00     0.173 A 
ATOM    105  F   UNL     1      -2.208   6.610 -14.862  1.00  0.00    -0.203 F 
ATOM    106  C   UNL     1      -4.205   6.396 -13.668  1.00  0.00     0.198 A 
ATOM    107  C   UNL     1      -4.256   5.287 -11.562  1.00  0.00     0.198 A 
ATOM    108  F   UNL     1      -2.327   4.544 -10.544  1.00  0.00    -0.203 F 
ATOM    109  F   UNL     1      -4.823   7.116 -14.614  1.00  0.00    -0.200 F 
ATOM    110  C   UNL     1      -4.913   5.976 -12.558  1.00  0.00     0.200 A 
ATOM    111  F   UNL     1      -4.921   4.888 -10.469  1.00  0.00    -0.200 F 
ATOM    112  F   UNL     1      -6.211   6.278 -12.422  1.00  0.00    -0.200 F 
ENDBRANCH  82 102
BRANCH  85 113
ATOM    113  C   UNL     1       0.323   9.995  -5.902  1.00  0.00     0.064 A 
ATOM    114  C   UNL     1      -0.285  11.254  -5.779  1.00  0.00     0.173 A 
ATOM    115  C   UNL     1       0.134   9.099  -4.832  1.00  0.00     0.173 A 
ATOM    116  F   UNL     1      -0.184  12.150  -6.772  1.00  0.00    -0.203 F 
ATOM    117  C   UNL     1      -1.067  11.585  -4.669  1.00  0.00     0.198 A 
ATOM    118  C   UNL     1      -0.642   9.432  -3.721  1.00  0.00     0.198 A 
ATOM    119  F   UNL     1       0.617   7.849  -4.890  1.00  0.00    -0.203 F 
ATOM    120  F   UNL     1      -1.690  12.771  -4.619  1.00  0.00    -0.200 F 
ATOM    121  C   UNL     1      -1.256  10.668  -3.647  1.00  0.00     0.200 A 
ATOM    122  F   UNL     1      -0.846   8.523  -2.757  1.00  0.00    -0.200 F 
ATOM    123  F   UNL     1      -2.062  10.959  -2.616  1.00  0.00    -0.200 F 
ENDBRANCH  85 113
BRANCH 100 124
ATOM    124  C   UNL     1       2.451  10.485 -11.799  1.00  0.00     0.064 A 
ATOM    125  C   UNL     1       3.534  10.267 -10.930  1.00  0.00     0.173 A 
ATOM    126  C   UNL     1       2.653  11.366 -12.869  1.00  0.00     0.173 A 
ATOM    127  F   UNL     1       3.457   9.370  -9.939  1.00  0.00    -0.203 F 
ATOM    128  C   UNL     1       4.745  10.936 -11.101  1.00  0.00     0.198 A 
ATOM    129  C   UNL     1       3.875  12.004 -13.060  1.00  0.00     0.198 A 
ATOM    130  F   UNL     1       1.672  11.574 -13.761  1.00  0.00    -0.203 F 
ATOM    131  F   UNL     1       5.758  10.722 -10.248  1.00  0.00    -0.200 F 
ATOM    132  C   UNL     1       4.917  11.797 -12.171  1.00  0.00     0.200 A 
ATOM    133  F   UNL     1       4.050  12.799 -14.124  1.00  0.00    -0.200 F 
ATOM    134  F   UNL     1       6.094  12.411 -12.360  1.00  0.00    -0.200 F 
ENDBRANCH 100 124
ENDBRANCH  65  68
ENDBRANCH  55  58
ENDBRANCH  51  54
ENDBRANCH  48  51
ENDBRANCH  45  48
ENDBRANCH   1  45
TORSDOF 16
