REMARK SMILES CN(C)S(=O)(=O)c1ccc(-n2c(CCC(=O)NCCCCCCNC(=O)c3ccc(-c4c5nc(c(-c6c(F)c(F)c(F)c(F)c6F)c6ccc([nH]6)c(-c6c(F)c(F)c(F)c(F)c6F)c6nc(c(-c7c(F)c(F)c(F)c(F)c7F)c7ccc4[nH]7)C=C6)C=C5)cc3)ccc2-c2ccc(F)cc2)cc1
REMARK SMILES IDX 18 1 17 4 15 5 16 6 14 8 13 11 12 14 11 15 92 16 90 17 91 18
REMARK SMILES IDX 10 21 7 22 8 23 101 24 9 25 100 27 4 31 5 32 6 33 2 34 1 35
REMARK SMILES IDX 3 39 93 43 94 44 99 45 95 46 98 48 96 50 97 53 19 54 20 57
REMARK SMILES IDX 21 60 22 63 23 66 24 69 25 70 26 72 27 73 28 74 89 75 29 76
REMARK SMILES IDX 88 78 30 80 31 83 32 84 82 85 33 86 87 87 81 88 83 89 34 90
REMARK SMILES IDX 86 91 80 93 79 95 35 97 67 100 47 101 66 102 48 103 51 104
REMARK SMILES IDX 65 105 84 106 49 107 50 109 64 111 85 112 52 115 36 117
REMARK SMILES IDX 37 118 45 119 38 120 39 121 43 122 46 123 40 124 41 125
REMARK SMILES IDX 44 126 42 127 68 128 69 129 77 130 70 131 71 132 75 133
REMARK SMILES IDX 78 134 72 135 73 136 76 137 74 138 53 139 54 140 62 141
REMARK SMILES IDX 55 142 56 143 60 144 63 145 57 146 58 147 61 148 59 149
REMARK H PARENT 18 2 18 3 17 7 14 9 14 10 13 12 13 13 90 19 91 20 8 26 101 28
REMARK H PARENT 9 29 100 30 1 36 1 37 1 38 3 40 3 41 3 42 94 47 99 49 95 51
REMARK H PARENT 98 52 19 55 19 56 20 58 20 59 21 61 21 62 22 64 22 65 23 67
REMARK H PARENT 23 68 24 71 28 77 89 79 29 81 88 82 87 92 81 94 83 96 86 98
REMARK H PARENT 80 99 48 108 51 110 84 113 49 114 85 116
REMARK Flexibility Score: inf
ROOT
ATOM      1  C   UNL     1       0.979  -8.550  -3.552  1.00  0.00     0.017 C 
ATOM      2  H   UNL     1       0.828  -9.533  -3.157  1.00  0.00     0.049 H 
ATOM      3  H   UNL     1       1.380  -8.579  -4.543  1.00  0.00     0.049 H 
ENDROOT
BRANCH   1   4
ATOM      4  N   UNL     1       1.940  -7.852  -2.709  1.00  0.00    -0.356 N 
ATOM      5  C   UNL     1       2.339  -8.094  -1.427  1.00  0.00     0.220 C 
ATOM      6  O   UNL     1       3.228  -7.379  -0.955  1.00  0.00    -0.275 OA
ATOM      7  H   UNL     1       2.372  -7.077  -3.134  1.00  0.00     0.163 HD
BRANCH   5   8
ATOM      8  C   UNL     1       1.708  -9.185  -0.579  1.00  0.00     0.032 C 
ATOM      9  H   UNL     1       1.217  -9.869  -1.238  1.00  0.00     0.037 H 
ATOM     10  H   UNL     1       2.512  -9.615  -0.019  1.00  0.00     0.037 H 
BRANCH   8  11
ATOM     11  C   UNL     1       0.679  -8.718   0.468  1.00  0.00    -0.003 C 
ATOM     12  H   UNL     1       0.660  -9.436   1.261  1.00  0.00     0.034 H 
ATOM     13  H   UNL     1       0.992  -7.747   0.789  1.00  0.00     0.034 H 
BRANCH  11  14
ATOM     14  C   UNL     1      -0.729  -8.562  -0.060  1.00  0.00     0.024 A 
ATOM     15  N   UNL     1      -1.458  -7.372  -0.300  1.00  0.00    -0.314 N 
ATOM     16  C   UNL     1      -2.746  -7.777  -0.773  1.00  0.00     0.053 A 
ATOM     17  C   UNL     1      -1.555  -9.640  -0.337  1.00  0.00    -0.040 A 
ATOM     18  C   UNL     1      -2.796  -9.159  -0.770  1.00  0.00    -0.036 A 
ATOM     19  H   UNL     1      -1.297 -10.634  -0.241  1.00  0.00     0.064 H 
ATOM     20  H   UNL     1      -3.608  -9.736  -1.039  1.00  0.00     0.065 H 
BRANCH  15  21
ATOM     21  C   UNL     1      -0.972  -5.996  -0.289  1.00  0.00     0.046 A 
ATOM     22  C   UNL     1      -0.062  -3.399  -0.931  1.00  0.00     0.082 A 
ATOM     23  C   UNL     1      -1.421  -3.654  -0.814  1.00  0.00    -0.040 A 
ATOM     24  C   UNL     1       0.851  -4.403  -0.655  1.00  0.00    -0.040 A 
ATOM     25  C   UNL     1      -1.854  -4.915  -0.403  1.00  0.00    -0.037 A 
ATOM     26  H   UNL     1      -2.108  -2.915  -1.031  1.00  0.00     0.064 H 
ATOM     27  C   UNL     1       0.388  -5.684  -0.337  1.00  0.00    -0.037 A 
ATOM     28  H   UNL     1       1.863  -4.208  -0.684  1.00  0.00     0.064 H 
ATOM     29  H   UNL     1      -2.851  -5.055  -0.176  1.00  0.00     0.065 H 
ATOM     30  H   UNL     1       1.076  -6.425  -0.130  1.00  0.00     0.065 H 
BRANCH  22  31
ATOM     31  S   UNL     1       0.499  -1.802  -1.442  1.00  0.00     0.242 S 
ATOM     32  O   UNL     1      -0.396  -1.322  -2.470  1.00  0.00    -0.207 OA
ATOM     33  O   UNL     1       1.927  -1.892  -1.683  1.00  0.00    -0.207 OA
BRANCH  31  34
ATOM     34  N   UNL     1       0.261  -0.867  -0.029  1.00  0.00    -0.204 NA
BRANCH  34  35
ATOM     35  C   UNL     1       1.032   0.391  -0.029  1.00  0.00     0.002 C 
ATOM     36  H   UNL     1       0.841   0.927   0.877  1.00  0.00     0.041 H 
ATOM     37  H   UNL     1       0.740   0.989  -0.866  1.00  0.00     0.041 H 
ATOM     38  H   UNL     1       2.077   0.168  -0.097  1.00  0.00     0.041 H 
ENDBRANCH  34  35
BRANCH  34  39
ATOM     39  C   UNL     1      -1.149  -0.657   0.371  1.00  0.00     0.002 C 
ATOM     40  H   UNL     1      -1.183  -0.064   1.261  1.00  0.00     0.041 H 
ATOM     41  H   UNL     1      -1.612  -1.604   0.556  1.00  0.00     0.041 H 
ATOM     42  H   UNL     1      -1.671  -0.152  -0.415  1.00  0.00     0.041 H 
ENDBRANCH  34  39
ENDBRANCH  31  34
ENDBRANCH  22  31
ENDBRANCH  15  21
BRANCH  16  43
ATOM     43  C   UNL     1      -3.746  -6.900  -1.409  1.00  0.00    -0.001 A 
ATOM     44  C   UNL     1      -4.952  -6.550  -0.798  1.00  0.00    -0.050 A 
ATOM     45  C   UNL     1      -3.428  -6.302  -2.634  1.00  0.00    -0.050 A 
ATOM     46  C   UNL     1      -5.751  -5.545  -1.367  1.00  0.00    -0.026 A 
ATOM     47  H   UNL     1      -5.254  -7.028   0.066  1.00  0.00     0.063 H 
ATOM     48  C   UNL     1      -4.207  -5.300  -3.204  1.00  0.00    -0.026 A 
ATOM     49  H   UNL     1      -2.582  -6.617  -3.135  1.00  0.00     0.063 H 
ATOM     50  C   UNL     1      -5.362  -4.916  -2.551  1.00  0.00     0.123 A 
ATOM     51  H   UNL     1      -6.632  -5.268  -0.905  1.00  0.00     0.065 H 
ATOM     52  H   UNL     1      -3.929  -4.855  -4.093  1.00  0.00     0.065 H 
ATOM     53  F   UNL     1      -6.152  -3.990  -3.108  1.00  0.00    -0.207 F 
ENDBRANCH  16  43
ENDBRANCH  11  14
ENDBRANCH   8  11
ENDBRANCH   5   8
ENDBRANCH   1   4
BRANCH   1  54
ATOM     54  C   UNL     1      -0.372  -7.839  -3.622  1.00  0.00    -0.036 C 
ATOM     55  H   UNL     1      -0.588  -7.458  -2.645  1.00  0.00     0.028 H 
ATOM     56  H   UNL     1      -1.059  -8.578  -3.978  1.00  0.00     0.028 H 
BRANCH  54  57
ATOM     57  C   UNL     1      -0.493  -6.672  -4.611  1.00  0.00    -0.052 C 
ATOM     58  H   UNL     1       0.491  -6.478  -4.983  1.00  0.00     0.027 H 
ATOM     59  H   UNL     1      -0.958  -5.903  -4.030  1.00  0.00     0.027 H 
BRANCH  57  60
ATOM     60  C   UNL     1      -1.425  -6.798  -5.850  1.00  0.00    -0.052 C 
ATOM     61  H   UNL     1      -0.784  -6.752  -6.705  1.00  0.00     0.027 H 
ATOM     62  H   UNL     1      -2.131  -6.016  -5.665  1.00  0.00     0.027 H 
BRANCH  60  63
ATOM     63  C   UNL     1      -2.361  -8.009  -6.085  1.00  0.00    -0.036 C 
ATOM     64  H   UNL     1      -1.924  -8.838  -5.569  1.00  0.00     0.028 H 
ATOM     65  H   UNL     1      -2.424  -8.057  -7.152  1.00  0.00     0.028 H 
BRANCH  63  66
ATOM     66  C   UNL     1      -3.856  -7.955  -5.654  1.00  0.00     0.018 C 
ATOM     67  H   UNL     1      -3.896  -7.754  -4.604  1.00  0.00     0.049 H 
ATOM     68  H   UNL     1      -4.286  -8.902  -5.908  1.00  0.00     0.049 H 
BRANCH  66  69
ATOM     69  N   UNL     1      -4.637  -6.935  -6.347  1.00  0.00    -0.352 N 
ATOM     70  C   UNL     1      -5.991  -6.682  -6.459  1.00  0.00     0.251 C 
ATOM     71  H   UNL     1      -4.081  -6.290  -6.841  1.00  0.00     0.163 HD
ATOM     72  O   UNL     1      -6.338  -6.050  -7.462  1.00  0.00    -0.269 OA
BRANCH  70  73
ATOM     73  C   UNL     1      -7.067  -7.044  -5.477  1.00  0.00     0.039 A 
ATOM     74  C   UNL     1      -8.407  -7.015  -5.919  1.00  0.00    -0.049 A 
ATOM     75  C   UNL     1      -6.856  -7.256  -4.120  1.00  0.00    -0.049 A 
ATOM     76  C   UNL     1      -9.488  -7.204  -5.035  1.00  0.00    -0.053 A 
ATOM     77  H   UNL     1      -8.601  -6.852  -6.919  1.00  0.00     0.063 H 
ATOM     78  C   UNL     1      -7.935  -7.359  -3.212  1.00  0.00    -0.053 A 
ATOM     79  H   UNL     1      -5.890  -7.339  -3.767  1.00  0.00     0.063 H 
ATOM     80  C   UNL     1      -9.261  -7.385  -3.667  1.00  0.00    -0.014 A 
ATOM     81  H   UNL     1     -10.454  -7.208  -5.400  1.00  0.00     0.063 H 
ATOM     82  H   UNL     1      -7.743  -7.417  -2.199  1.00  0.00     0.063 H 
BRANCH  80  83
ATOM     83  C   UNL     1     -10.332  -8.024  -2.824  1.00  0.00     0.031 A 
ATOM     84  C   UNL     1     -10.196  -9.583  -2.892  1.00  0.00     0.074 A 
ATOM     85  C   UNL     1     -11.254  -7.250  -2.151  1.00  0.00     0.049 A 
ATOM     86  N   UNL     1     -11.044 -10.520  -2.588  1.00  0.00    -0.248 NA
ATOM     87  C   UNL     1      -8.929 -10.191  -3.402  1.00  0.00    -0.034 C 
ATOM     88  C   UNL     1     -11.244  -5.771  -2.093  1.00  0.00    -0.036 A 
ATOM     89  N   UNL     1     -12.383  -7.528  -1.378  1.00  0.00    -0.354 N 
ATOM     90  C   UNL     1     -10.358 -11.761  -2.652  1.00  0.00     0.074 A 
ATOM     91  C   UNL     1      -9.094 -11.502  -3.252  1.00  0.00    -0.034 C 
ATOM     92  H   UNL     1      -8.106  -9.701  -3.786  1.00  0.00     0.065 H 
ATOM     93  C   UNL     1     -12.328  -5.293  -1.431  1.00  0.00    -0.036 A 
ATOM     94  H   UNL     1     -10.506  -5.178  -2.504  1.00  0.00     0.065 H 
ATOM     95  C   UNL     1     -13.154  -6.392  -0.962  1.00  0.00     0.049 A 
ATOM     96  H   UNL     1     -12.636  -8.448  -1.134  1.00  0.00     0.167 HD
ATOM     97  C   UNL     1     -10.816 -12.907  -2.071  1.00  0.00     0.037 A 
ATOM     98  H   UNL     1      -8.409 -12.223  -3.529  1.00  0.00     0.065 H 
ATOM     99  H   UNL     1     -12.536  -4.293  -1.283  1.00  0.00     0.065 H 
ATOM    100  C   UNL     1     -14.373  -6.340  -0.315  1.00  0.00     0.037 A 
ATOM    101  C   UNL     1     -12.133 -12.701  -1.591  1.00  0.00     0.049 A 
ATOM    102  C   UNL     1     -14.621  -7.716   0.116  1.00  0.00     0.074 A 
ATOM    103  C   UNL     1     -13.320 -12.496  -2.241  1.00  0.00    -0.036 A 
ATOM    104  N   UNL     1     -12.253 -12.322  -0.280  1.00  0.00    -0.354 N 
ATOM    105  N   UNL     1     -14.036  -8.272   1.132  1.00  0.00    -0.248 NA
ATOM    106  C   UNL     1     -15.583  -8.536  -0.630  1.00  0.00    -0.034 C 
ATOM    107  C   UNL     1     -13.955 -11.537  -1.432  1.00  0.00    -0.036 A 
ATOM    108  H   UNL     1     -13.664 -12.937  -3.108  1.00  0.00     0.065 H 
ATOM    109  C   UNL     1     -13.258 -11.398  -0.226  1.00  0.00     0.049 A 
ATOM    110  H   UNL     1     -11.717 -12.651   0.477  1.00  0.00     0.167 HD
ATOM    111  C   UNL     1     -14.297  -9.597   0.904  1.00  0.00     0.074 A 
ATOM    112  C   UNL     1     -15.484  -9.657   0.080  1.00  0.00    -0.034 C 
ATOM    113  H   UNL     1     -16.161  -8.311  -1.455  1.00  0.00     0.065 H 
ATOM    114  H   UNL     1     -14.807 -11.014  -1.688  1.00  0.00     0.065 H 
ATOM    115  C   UNL     1     -13.250 -10.456   0.861  1.00  0.00     0.037 A 
ATOM    116  H   UNL     1     -16.150 -10.445   0.048  1.00  0.00     0.065 H 
BRANCH  97 117
ATOM    117  C   UNL     1     -10.116 -14.165  -1.626  1.00  0.00     0.064 A 
ATOM    118  C   UNL     1     -10.924 -15.257  -1.213  1.00  0.00     0.173 A 
ATOM    119  C   UNL     1      -8.782 -14.190  -1.198  1.00  0.00     0.173 A 
ATOM    120  F   UNL     1     -12.200 -15.361  -1.616  1.00  0.00    -0.203 F 
ATOM    121  C   UNL     1     -10.478 -16.195  -0.285  1.00  0.00     0.198 A 
ATOM    122  C   UNL     1      -8.323 -15.170  -0.313  1.00  0.00     0.198 A 
ATOM    123  F   UNL     1      -7.924 -13.219  -1.530  1.00  0.00    -0.203 F 
ATOM    124  F   UNL     1     -11.334 -17.099   0.215  1.00  0.00    -0.200 F 
ATOM    125  C   UNL     1      -9.182 -16.136   0.184  1.00  0.00     0.200 A 
ATOM    126  F   UNL     1      -7.059 -15.118   0.129  1.00  0.00    -0.200 F 
ATOM    127  F   UNL     1      -8.772 -16.980   1.140  1.00  0.00    -0.200 F 
ENDBRANCH  97 117
BRANCH 100 128
ATOM    128  C   UNL     1     -15.495  -5.373   0.082  1.00  0.00     0.064 A 
ATOM    129  C   UNL     1     -15.496  -3.986  -0.085  1.00  0.00     0.173 A 
ATOM    130  C   UNL     1     -16.737  -5.881   0.596  1.00  0.00     0.173 A 
ATOM    131  F   UNL     1     -14.379  -3.339  -0.432  1.00  0.00    -0.203 F 
ATOM    132  C   UNL     1     -16.662  -3.206   0.118  1.00  0.00     0.198 A 
ATOM    133  C   UNL     1     -17.903  -5.126   0.731  1.00  0.00     0.198 A 
ATOM    134  F   UNL     1     -16.876  -7.150   0.999  1.00  0.00    -0.203 F 
ATOM    135  F   UNL     1     -16.612  -1.877  -0.053  1.00  0.00    -0.200 F 
ATOM    136  C   UNL     1     -17.872  -3.783   0.473  1.00  0.00     0.200 A 
ATOM    137  F   UNL     1     -19.048  -5.726   1.095  1.00  0.00    -0.200 F 
ATOM    138  F   UNL     1     -18.990  -3.051   0.582  1.00  0.00    -0.200 F 
ENDBRANCH 100 128
BRANCH 115 139
ATOM    139  C   UNL     1     -12.053 -10.011   1.681  1.00  0.00     0.064 A 
ATOM    140  C   UNL     1     -12.194  -9.832   3.068  1.00  0.00     0.173 A 
ATOM    141  C   UNL     1     -10.816  -9.626   1.135  1.00  0.00     0.173 A 
ATOM    142  F   UNL     1     -13.335 -10.194   3.674  1.00  0.00    -0.203 F 
ATOM    143  C   UNL     1     -11.175  -9.280   3.848  1.00  0.00     0.198 A 
ATOM    144  C   UNL     1      -9.793  -9.076   1.914  1.00  0.00     0.198 A 
ATOM    145  F   UNL     1     -10.570  -9.773  -0.165  1.00  0.00    -0.203 F 
ATOM    146  F   UNL     1     -11.356  -9.122   5.167  1.00  0.00    -0.200 F 
ATOM    147  C   UNL     1      -9.976  -8.897   3.271  1.00  0.00     0.200 A 
ATOM    148  F   UNL     1      -8.628  -8.727   1.344  1.00  0.00    -0.200 F 
ATOM    149  F   UNL     1      -8.995  -8.376   4.022  1.00  0.00    -0.200 F 
ENDBRANCH 115 139
ENDBRANCH  80  83
ENDBRANCH  70  73
ENDBRANCH  66  69
ENDBRANCH  63  66
ENDBRANCH  60  63
ENDBRANCH  57  60
ENDBRANCH  54  57
ENDBRANCH   1  54
TORSDOF 21
