REMARK SMILES Cc1cc(C)c2c(OCCCC(=O)NCCCCCCNC(=O)c3ccc(-c4c5nc(c(-c6c(F)c(F)c(F)c(F)c6F)c6ccc([nH]6)c(-c6c(F)c(F)c(F)c(F)c6F)c6nc(c(-c7c(F)c(F)c(F)c(F)c7F)c7ccc4[nH]7)C=C6)C=C5)cc3)nsc2n1
REMARK SMILES IDX 16 1 15 4 14 7 12 8 13 9 11 11 10 14 9 17 8 20 7 21 2 22
REMARK SMILES IDX 3 23 90 24 4 25 89 27 6 28 88 29 87 30 1 31 5 35 17 39 18 42
REMARK SMILES IDX 19 45 20 48 21 51 22 52 23 54 24 55 25 56 86 57 26 58 85 60
REMARK SMILES IDX 27 62 28 65 29 66 79 67 30 68 84 69 78 70 80 71 31 72 83 73
REMARK SMILES IDX 77 75 76 77 32 79 64 82 44 83 63 84 45 85 48 86 62 87 81 88
REMARK SMILES IDX 46 89 47 91 61 93 82 94 49 97 33 99 34 100 42 101 35 102
REMARK SMILES IDX 36 103 40 104 43 105 37 106 38 107 41 108 39 109 65 110
REMARK SMILES IDX 66 111 74 112 67 113 68 114 72 115 75 116 69 117 70 118
REMARK SMILES IDX 73 119 71 120 50 121 51 122 59 123 52 124 53 125 57 126
REMARK SMILES IDX 60 127 54 128 55 129 58 130 56 131
REMARK H PARENT 16 2 16 3 15 5 15 6 14 10 11 12 11 13 10 15 10 16 9 18 9 19
REMARK H PARENT 3 26 1 32 1 33 1 34 5 36 5 37 5 38 17 40 17 41 18 43 18 44
REMARK H PARENT 19 46 19 47 20 49 20 50 21 53 25 59 86 61 26 63 85 64 84 74
REMARK H PARENT 78 76 80 78 83 80 77 81 45 90 48 92 81 95 46 96 82 98
REMARK Flexibility Score: inf
ROOT
ATOM      1  C   UNL     1      -2.939  -4.589  -2.847  1.00  0.00    -0.036 C 
ATOM      2  H   UNL     1      -2.718  -5.632  -2.752  1.00  0.00     0.028 H 
ATOM      3  H   UNL     1      -2.806  -4.194  -3.832  1.00  0.00     0.028 H 
ENDROOT
BRANCH   1   4
ATOM      4  C   UNL     1      -1.923  -3.802  -1.942  1.00  0.00     0.017 C 
ATOM      5  H   UNL     1      -1.923  -2.779  -2.258  1.00  0.00     0.049 H 
ATOM      6  H   UNL     1      -2.256  -3.939  -0.934  1.00  0.00     0.049 H 
BRANCH   4   7
ATOM      7  N   UNL     1      -0.454  -4.319  -1.985  1.00  0.00    -0.356 N 
ATOM      8  C   UNL     1       0.836  -4.287  -2.460  1.00  0.00     0.220 C 
ATOM      9  O   UNL     1       1.518  -5.106  -1.799  1.00  0.00    -0.275 OA
ATOM     10  H   UNL     1      -0.443  -5.052  -1.328  1.00  0.00     0.163 HD
BRANCH   8  11
ATOM     11  C   UNL     1       1.738  -3.361  -3.487  1.00  0.00     0.030 C 
ATOM     12  H   UNL     1       1.349  -2.383  -3.298  1.00  0.00     0.037 H 
ATOM     13  H   UNL     1       2.643  -3.884  -3.258  1.00  0.00     0.037 H 
BRANCH  11  14
ATOM     14  C   UNL     1       2.081  -3.280  -5.071  1.00  0.00    -0.010 C 
ATOM     15  H   UNL     1       2.930  -2.630  -5.100  1.00  0.00     0.031 H 
ATOM     16  H   UNL     1       1.998  -4.332  -5.245  1.00  0.00     0.031 H 
BRANCH  14  17
ATOM     17  C   UNL     1       1.254  -2.849  -6.370  1.00  0.00     0.090 C 
ATOM     18  H   UNL     1       1.698  -3.390  -7.180  1.00  0.00     0.071 H 
ATOM     19  H   UNL     1       0.259  -3.043  -6.030  1.00  0.00     0.071 H 
BRANCH  17  20
ATOM     20  O   UNL     1       1.095  -1.506  -6.855  1.00  0.00    -0.477 OA
BRANCH  20  21
ATOM     21  C   UNL     1       0.353  -0.559  -6.223  1.00  0.00     0.235 A 
ATOM     22  C   UNL     1      -0.015   0.202  -2.286  1.00  0.00     0.039 A 
ATOM     23  C   UNL     1      -0.221  -1.129  -2.641  1.00  0.00    -0.037 A 
ATOM     24  N   UNL     1      -0.128   1.216  -3.169  1.00  0.00    -0.240 NA
ATOM     25  C   UNL     1      -0.439  -1.503  -3.983  1.00  0.00    -0.034 A 
ATOM     26  H   UNL     1      -0.213  -1.856  -1.908  1.00  0.00     0.064 H 
ATOM     27  C   UNL     1      -0.149   0.793  -4.450  1.00  0.00     0.147 A 
ATOM     28  C   UNL     1      -0.121  -0.517  -4.892  1.00  0.00     0.078 A 
ATOM     29  S   UNL     1      -0.248   1.776  -5.836  1.00  0.00    -0.012 S 
ATOM     30  N   UNL     1       0.185   0.567  -6.918  1.00  0.00    -0.153 NA
BRANCH  22  31
ATOM     31  C   UNL     1       0.443   0.526  -0.886  1.00  0.00    -0.022 C 
ATOM     32  H   UNL     1       0.483  -0.373  -0.307  1.00  0.00     0.030 H 
ATOM     33  H   UNL     1      -0.244   1.211  -0.435  1.00  0.00     0.030 H 
ATOM     34  H   UNL     1       1.416   0.969  -0.924  1.00  0.00     0.030 H 
ENDBRANCH  22  31
BRANCH  25  35
ATOM     35  C   UNL     1      -0.891  -2.789  -4.563  1.00  0.00    -0.039 C 
ATOM     36  H   UNL     1      -1.110  -3.479  -3.775  1.00  0.00     0.028 H 
ATOM     37  H   UNL     1      -0.119  -3.191  -5.185  1.00  0.00     0.028 H 
ATOM     38  H   UNL     1      -1.772  -2.626  -5.149  1.00  0.00     0.028 H 
ENDBRANCH  25  35
ENDBRANCH  20  21
ENDBRANCH  17  20
ENDBRANCH  14  17
ENDBRANCH  11  14
ENDBRANCH   8  11
ENDBRANCH   4   7
ENDBRANCH   1   4
BRANCH   1  39
ATOM     39  C   UNL     1      -4.431  -4.397  -2.529  1.00  0.00    -0.052 C 
ATOM     40  H   UNL     1      -4.562  -4.599  -1.487  1.00  0.00     0.027 H 
ATOM     41  H   UNL     1      -4.933  -5.062  -3.200  1.00  0.00     0.027 H 
BRANCH  39  42
ATOM     42  C   UNL     1      -5.062  -3.018  -2.812  1.00  0.00    -0.052 C 
ATOM     43  H   UNL     1      -4.398  -2.282  -2.408  1.00  0.00     0.027 H 
ATOM     44  H   UNL     1      -6.033  -3.088  -2.366  1.00  0.00     0.027 H 
BRANCH  42  45
ATOM     45  C   UNL     1      -5.358  -2.608  -4.269  1.00  0.00    -0.036 C 
ATOM     46  H   UNL     1      -4.420  -2.449  -4.759  1.00  0.00     0.028 H 
ATOM     47  H   UNL     1      -5.974  -1.736  -4.199  1.00  0.00     0.028 H 
BRANCH  45  48
ATOM     48  C   UNL     1      -6.156  -3.603  -5.105  1.00  0.00     0.018 C 
ATOM     49  H   UNL     1      -5.551  -4.470  -5.267  1.00  0.00     0.049 H 
ATOM     50  H   UNL     1      -6.413  -3.107  -6.018  1.00  0.00     0.049 H 
BRANCH  48  51
ATOM     51  N   UNL     1      -7.407  -4.024  -4.484  1.00  0.00    -0.352 N 
ATOM     52  C   UNL     1      -8.351  -4.935  -4.923  1.00  0.00     0.251 C 
ATOM     53  H   UNL     1      -7.609  -3.595  -3.621  1.00  0.00     0.163 HD
ATOM     54  O   UNL     1      -9.472  -4.930  -4.455  1.00  0.00    -0.269 OA
BRANCH  52  55
ATOM     55  C   UNL     1      -7.995  -5.919  -5.971  1.00  0.00     0.039 A 
ATOM     56  C   UNL     1      -8.960  -6.347  -6.887  1.00  0.00    -0.049 A 
ATOM     57  C   UNL     1      -6.707  -6.450  -6.013  1.00  0.00    -0.049 A 
ATOM     58  C   UNL     1      -8.593  -7.257  -7.875  1.00  0.00    -0.053 A 
ATOM     59  H   UNL     1      -9.928  -5.995  -6.832  1.00  0.00     0.063 H 
ATOM     60  C   UNL     1      -6.305  -7.236  -7.068  1.00  0.00    -0.053 A 
ATOM     61  H   UNL     1      -6.048  -6.252  -5.244  1.00  0.00     0.063 H 
ATOM     62  C   UNL     1      -7.254  -7.679  -7.973  1.00  0.00    -0.014 A 
ATOM     63  H   UNL     1      -9.300  -7.621  -8.532  1.00  0.00     0.063 H 
ATOM     64  H   UNL     1      -5.311  -7.492  -7.182  1.00  0.00     0.063 H 
BRANCH  62  65
ATOM     65  C   UNL     1      -6.821  -8.468  -9.118  1.00  0.00     0.031 A 
ATOM     66  C   UNL     1      -7.163  -7.831 -10.413  1.00  0.00     0.074 A 
ATOM     67  C   UNL     1      -6.069  -9.587  -9.049  1.00  0.00     0.049 A 
ATOM     68  N   UNL     1      -8.114  -8.181 -11.209  1.00  0.00    -0.248 NA
ATOM     69  C   UNL     1      -6.520  -6.559 -10.774  1.00  0.00    -0.034 C 
ATOM     70  C   UNL     1      -5.407 -10.174  -7.880  1.00  0.00    -0.036 A 
ATOM     71  N   UNL     1      -5.689 -10.424 -10.059  1.00  0.00    -0.354 N 
ATOM     72  C   UNL     1      -8.060  -7.300 -12.284  1.00  0.00     0.074 A 
ATOM     73  C   UNL     1      -7.199  -6.224 -11.874  1.00  0.00    -0.034 C 
ATOM     74  H   UNL     1      -5.750  -6.058 -10.303  1.00  0.00     0.065 H 
ATOM     75  C   UNL     1      -4.550 -11.143  -8.277  1.00  0.00    -0.036 A 
ATOM     76  H   UNL     1      -5.569  -9.890  -6.901  1.00  0.00     0.065 H 
ATOM     77  C   UNL     1      -4.729 -11.367  -9.700  1.00  0.00     0.049 A 
ATOM     78  H   UNL     1      -6.064 -10.366 -10.967  1.00  0.00     0.167 HD
ATOM     79  C   UNL     1      -8.518  -7.697 -13.503  1.00  0.00     0.037 A 
ATOM     80  H   UNL     1      -7.117  -5.319 -12.363  1.00  0.00     0.065 H 
ATOM     81  H   UNL     1      -3.881 -11.641  -7.670  1.00  0.00     0.065 H 
ATOM     82  C   UNL     1      -4.141 -12.272 -10.522  1.00  0.00     0.037 A 
ATOM     83  C   UNL     1      -9.325  -8.888 -13.364  1.00  0.00     0.049 A 
ATOM     84  C   UNL     1      -5.060 -12.460 -11.666  1.00  0.00     0.074 A 
ATOM     85  C   UNL     1     -10.541  -9.203 -12.797  1.00  0.00    -0.036 A 
ATOM     86  N   UNL     1      -8.633 -10.063 -13.504  1.00  0.00    -0.354 N 
ATOM     87  N   UNL     1      -6.230 -13.025 -11.569  1.00  0.00    -0.248 NA
ATOM     88  C   UNL     1      -4.838 -11.680 -12.874  1.00  0.00    -0.034 C 
ATOM     89  C   UNL     1     -10.407 -10.543 -12.322  1.00  0.00    -0.036 A 
ATOM     90  H   UNL     1     -11.374  -8.597 -12.730  1.00  0.00     0.065 H 
ATOM     91  C   UNL     1      -9.142 -11.018 -12.670  1.00  0.00     0.049 A 
ATOM     92  H   UNL     1      -7.875 -10.199 -14.119  1.00  0.00     0.167 HD
ATOM     93  C   UNL     1      -7.025 -12.323 -12.456  1.00  0.00     0.074 A 
ATOM     94  C   UNL     1      -6.088 -11.636 -13.340  1.00  0.00    -0.034 C 
ATOM     95  H   UNL     1      -3.968 -11.278 -13.258  1.00  0.00     0.065 H 
ATOM     96  H   UNL     1     -11.127 -11.073 -11.806  1.00  0.00     0.065 H 
ATOM     97  C   UNL     1      -8.349 -12.130 -12.188  1.00  0.00     0.037 A 
ATOM     98  H   UNL     1      -6.360 -11.171 -14.220  1.00  0.00     0.065 H 
BRANCH  79  99
ATOM     99  C   UNL     1      -7.862  -7.349 -14.826  1.00  0.00     0.064 A 
ATOM    100  C   UNL     1      -8.424  -7.865 -16.015  1.00  0.00     0.173 A 
ATOM    101  C   UNL     1      -6.558  -6.823 -14.960  1.00  0.00     0.173 A 
ATOM    102  F   UNL     1      -9.651  -8.409 -16.012  1.00  0.00    -0.203 F 
ATOM    103  C   UNL     1      -7.704  -7.930 -17.212  1.00  0.00     0.198 A 
ATOM    104  C   UNL     1      -5.862  -6.846 -16.168  1.00  0.00     0.198 A 
ATOM    105  F   UNL     1      -5.854  -6.370 -13.919  1.00  0.00    -0.203 F 
ATOM    106  F   UNL     1      -8.234  -8.551 -18.274  1.00  0.00    -0.200 F 
ATOM    107  C   UNL     1      -6.420  -7.427 -17.285  1.00  0.00     0.200 A 
ATOM    108  F   UNL     1      -4.607  -6.375 -16.211  1.00  0.00    -0.200 F 
ATOM    109  F   UNL     1      -5.704  -7.544 -18.411  1.00  0.00    -0.200 F 
ENDBRANCH  79  99
BRANCH  82 110
ATOM    110  C   UNL     1      -2.753 -12.797 -10.544  1.00  0.00     0.064 A 
ATOM    111  C   UNL     1      -2.409 -13.885 -11.370  1.00  0.00     0.173 A 
ATOM    112  C   UNL     1      -1.682 -12.046 -10.027  1.00  0.00     0.173 A 
ATOM    113  F   UNL     1      -3.367 -14.639 -11.929  1.00  0.00    -0.203 F 
ATOM    114  C   UNL     1      -1.080 -14.162 -11.710  1.00  0.00     0.198 A 
ATOM    115  C   UNL     1      -0.355 -12.327 -10.364  1.00  0.00     0.198 A 
ATOM    116  F   UNL     1      -1.907 -10.962  -9.270  1.00  0.00    -0.203 F 
ATOM    117  F   UNL     1      -0.802 -15.152 -12.571  1.00  0.00    -0.200 F 
ATOM    118  C   UNL     1      -0.056 -13.370 -11.223  1.00  0.00     0.200 A 
ATOM    119  F   UNL     1       0.627 -11.533  -9.914  1.00  0.00    -0.200 F 
ATOM    120  F   UNL     1       1.209 -13.581 -11.613  1.00  0.00    -0.200 F 
ENDBRANCH  82 110
BRANCH  97 121
ATOM    121  C   UNL     1      -8.993 -13.036 -11.177  1.00  0.00     0.064 A 
ATOM    122  C   UNL     1      -8.683 -13.056  -9.806  1.00  0.00     0.173 A 
ATOM    123  C   UNL     1     -10.070 -13.824 -11.607  1.00  0.00     0.173 A 
ATOM    124  F   UNL     1      -7.716 -12.280  -9.304  1.00  0.00    -0.203 F 
ATOM    125  C   UNL     1      -9.411 -13.845  -8.915  1.00  0.00     0.198 A 
ATOM    126  C   UNL     1     -10.818 -14.580 -10.710  1.00  0.00     0.198 A 
ATOM    127  F   UNL     1     -10.432 -13.818 -12.899  1.00  0.00    -0.203 F 
ATOM    128  F   UNL     1      -9.094 -13.854  -7.611  1.00  0.00    -0.200 F 
ATOM    129  C   UNL     1     -10.485 -14.595  -9.366  1.00  0.00     0.200 A 
ATOM    130  F   UNL     1     -11.881 -15.268 -11.146  1.00  0.00    -0.200 F 
ATOM    131  F   UNL     1     -11.216 -15.313  -8.501  1.00  0.00    -0.200 F 
ENDBRANCH  97 121
ENDBRANCH  62  65
ENDBRANCH  52  55
ENDBRANCH  48  51
ENDBRANCH  45  48
ENDBRANCH  42  45
ENDBRANCH  39  42
ENDBRANCH   1  39
TORSDOF 19
