REMARK SMILES Cc1ccc2c(c1)c(-c1ccnc3c(C)cccc13)c(C)n2CC(=O)NCCCCCCNC(=O)c1ccc(-c2c3nc(c(-c4c(F)c(F)c(F)c(F)c4F)c4ccc([nH]4)c(-c4c(F)c(F)c(F)c(F)c4F)c4nc(c(-c5c(F)c(F)c(F)c(F)c5F)c5ccc2[nH]5)C=C4)C=C3)cc1
REMARK SMILES IDX 29 1 28 4 27 7 26 10 24 11 25 12 23 14 22 17 2 18 3 19 7 20
REMARK SMILES IDX 4 21 6 23 5 25 8 27 20 28 1 29 9 33 10 34 19 35 11 36 13 38
REMARK SMILES IDX 18 39 12 40 14 42 17 43 16 45 15 48 21 52 30 56 31 59 32 62
REMARK SMILES IDX 33 65 34 66 35 68 36 69 37 70 98 71 38 72 97 74 39 76 40 79
REMARK SMILES IDX 41 80 91 81 42 82 96 83 90 84 92 85 43 86 95 87 89 89 88 91
REMARK SMILES IDX 44 93 76 96 56 97 75 98 57 99 60 100 74 101 93 102 58 103
REMARK SMILES IDX 59 105 73 107 94 108 61 111 45 113 46 114 54 115 47 116
REMARK SMILES IDX 48 117 52 118 55 119 49 120 50 121 53 122 51 123 77 124
REMARK SMILES IDX 78 125 86 126 79 127 80 128 84 129 87 130 81 131 82 132
REMARK SMILES IDX 85 133 83 134 62 135 63 136 71 137 64 138 65 139 69 140
REMARK SMILES IDX 72 141 66 142 67 143 70 144 68 145
REMARK H PARENT 29 2 29 3 28 5 28 6 27 8 27 9 26 13 23 15 23 16 3 22 7 24 4 26
REMARK H PARENT 1 30 1 31 1 32 10 37 11 41 18 44 17 46 16 47 15 49 15 50 15 51
REMARK H PARENT 21 53 21 54 21 55 30 57 30 58 31 60 31 61 32 63 32 64 33 67
REMARK H PARENT 37 73 98 75 38 77 97 78 96 88 90 90 92 92 95 94 89 95 57 104
REMARK H PARENT 60 106 93 109 58 110 94 112
REMARK Flexibility Score: inf
ROOT
ATOM      1  C   UNL     1       4.006  -2.880   5.968  1.00  0.00    -0.052 C 
ATOM      2  H   UNL     1       3.669  -3.481   6.787  1.00  0.00     0.027 H 
ATOM      3  H   UNL     1       4.118  -1.847   6.223  1.00  0.00     0.027 H 
ENDROOT
BRANCH   1   4
ATOM      4  C   UNL     1       2.946  -2.941   4.861  1.00  0.00    -0.036 C 
ATOM      5  H   UNL     1       2.048  -2.493   5.232  1.00  0.00     0.028 H 
ATOM      6  H   UNL     1       3.350  -2.421   4.018  1.00  0.00     0.028 H 
BRANCH   4   7
ATOM      7  C   UNL     1       2.617  -4.355   4.390  1.00  0.00     0.017 C 
ATOM      8  H   UNL     1       2.037  -4.298   3.493  1.00  0.00     0.049 H 
ATOM      9  H   UNL     1       3.536  -4.875   4.214  1.00  0.00     0.049 H 
BRANCH   7  10
ATOM     10  N   UNL     1       1.865  -5.084   5.393  1.00  0.00    -0.355 N 
ATOM     11  C   UNL     1       0.533  -5.381   5.433  1.00  0.00     0.239 C 
ATOM     12  O   UNL     1       0.110  -5.976   6.429  1.00  0.00    -0.273 OA
ATOM     13  H   UNL     1       2.392  -5.412   6.157  1.00  0.00     0.163 HD
BRANCH  11  14
ATOM     14  C   UNL     1      -0.379  -5.066   4.262  1.00  0.00     0.102 C 
ATOM     15  H   UNL     1       0.077  -5.441   3.370  1.00  0.00     0.060 H 
ATOM     16  H   UNL     1      -1.321  -5.530   4.471  1.00  0.00     0.060 H 
BRANCH  14  17
ATOM     17  N   UNL     1      -0.644  -3.642   4.078  1.00  0.00    -0.335 N 
ATOM     18  C   UNL     1       0.401  -0.993   1.045  1.00  0.00    -0.050 A 
ATOM     19  C   UNL     1       0.619  -2.347   0.789  1.00  0.00    -0.057 A 
ATOM     20  C   UNL     1      -0.204  -0.606   2.251  1.00  0.00    -0.049 A 
ATOM     21  C   UNL     1       0.262  -3.328   1.718  1.00  0.00    -0.037 A 
ATOM     22  H   UNL     1       1.053  -2.630  -0.103  1.00  0.00     0.063 H 
ATOM     23  C   UNL     1      -0.566  -1.578   3.211  1.00  0.00     0.008 A 
ATOM     24  H   UNL     1      -0.384   0.393   2.438  1.00  0.00     0.063 H 
ATOM     25  C   UNL     1      -0.300  -2.922   2.942  1.00  0.00     0.049 A 
ATOM     26  H   UNL     1       0.407  -4.329   1.510  1.00  0.00     0.065 H 
ATOM     27  C   UNL     1      -1.179  -1.520   4.496  1.00  0.00     0.011 A 
ATOM     28  C   UNL     1      -1.265  -2.813   4.993  1.00  0.00     0.024 A 
BRANCH  18  29
ATOM     29  C   UNL     1       0.852   0.033   0.047  1.00  0.00    -0.040 C 
ATOM     30  H   UNL     1       1.284  -0.458  -0.799  1.00  0.00     0.028 H 
ATOM     31  H   UNL     1       1.581   0.673   0.499  1.00  0.00     0.028 H 
ATOM     32  H   UNL     1       0.012   0.616  -0.269  1.00  0.00     0.028 H 
ENDBRANCH  18  29
BRANCH  27  33
ATOM     33  C   UNL     1      -1.651  -0.354   5.236  1.00  0.00    -0.005 A 
ATOM     34  C   UNL     1      -2.876   0.197   4.872  1.00  0.00    -0.035 A 
ATOM     35  C   UNL     1      -0.916   0.198   6.317  1.00  0.00     0.008 A 
ATOM     36  C   UNL     1      -3.342   1.264   5.606  1.00  0.00     0.028 A 
ATOM     37  H   UNL     1      -3.417  -0.181   4.077  1.00  0.00     0.065 H 
ATOM     38  C   UNL     1      -1.489   1.284   7.016  1.00  0.00     0.074 A 
ATOM     39  C   UNL     1       0.348  -0.289   6.721  1.00  0.00    -0.052 A 
ATOM     40  N   UNL     1      -2.683   1.800   6.655  1.00  0.00    -0.256 NA
ATOM     41  H   UNL     1      -4.249   1.678   5.339  1.00  0.00     0.084 H 
ATOM     42  C   UNL     1      -0.788   1.818   8.110  1.00  0.00    -0.025 A 
ATOM     43  C   UNL     1       1.041   0.264   7.790  1.00  0.00    -0.061 A 
ATOM     44  H   UNL     1       0.768  -1.078   6.207  1.00  0.00     0.063 H 
ATOM     45  C   UNL     1       0.471   1.315   8.486  1.00  0.00    -0.057 A 
ATOM     46  H   UNL     1       1.967  -0.103   8.060  1.00  0.00     0.062 H 
ATOM     47  H   UNL     1       0.972   1.731   9.286  1.00  0.00     0.063 H 
BRANCH  42  48
ATOM     48  C   UNL     1      -1.351   2.948   8.932  1.00  0.00    -0.038 C 
ATOM     49  H   UNL     1      -2.305   3.233   8.540  1.00  0.00     0.028 H 
ATOM     50  H   UNL     1      -0.685   3.785   8.892  1.00  0.00     0.028 H 
ATOM     51  H   UNL     1      -1.463   2.629   9.947  1.00  0.00     0.028 H 
ENDBRANCH  42  48
ENDBRANCH  27  33
BRANCH  28  52
ATOM     52  C   UNL     1      -1.847  -3.285   6.287  1.00  0.00    -0.024 C 
ATOM     53  H   UNL     1      -2.268  -2.454   6.813  1.00  0.00     0.030 H 
ATOM     54  H   UNL     1      -1.077  -3.731   6.882  1.00  0.00     0.030 H 
ATOM     55  H   UNL     1      -2.611  -4.008   6.091  1.00  0.00     0.030 H 
ENDBRANCH  28  52
ENDBRANCH  14  17
ENDBRANCH  11  14
ENDBRANCH   7  10
ENDBRANCH   4   7
ENDBRANCH   1   4
BRANCH   1  56
ATOM     56  C   UNL     1       5.394  -3.376   5.552  1.00  0.00    -0.052 C 
ATOM     57  H   UNL     1       5.319  -4.418   5.324  1.00  0.00     0.027 H 
ATOM     58  H   UNL     1       6.045  -3.165   6.374  1.00  0.00     0.027 H 
BRANCH  56  59
ATOM     59  C   UNL     1       5.997  -2.666   4.336  1.00  0.00    -0.036 C 
ATOM     60  H   UNL     1       5.359  -2.841   3.496  1.00  0.00     0.028 H 
ATOM     61  H   UNL     1       6.980  -3.069   4.205  1.00  0.00     0.028 H 
BRANCH  59  62
ATOM     62  C   UNL     1       6.165  -1.154   4.503  1.00  0.00     0.018 C 
ATOM     63  H   UNL     1       5.203  -0.728   4.698  1.00  0.00     0.049 H 
ATOM     64  H   UNL     1       6.601  -0.788   3.597  1.00  0.00     0.049 H 
BRANCH  62  65
ATOM     65  N   UNL     1       7.057  -0.776   5.580  1.00  0.00    -0.352 N 
ATOM     66  C   UNL     1       8.419  -0.670   5.715  1.00  0.00     0.251 C 
ATOM     67  H   UNL     1       6.575  -0.540   6.405  1.00  0.00     0.163 HD
ATOM     68  O   UNL     1       8.829  -0.185   6.760  1.00  0.00    -0.269 OA
BRANCH  66  69
ATOM     69  C   UNL     1       9.411  -1.168   4.718  1.00  0.00     0.039 A 
ATOM     70  C   UNL     1       9.111  -1.659   3.451  1.00  0.00    -0.049 A 
ATOM     71  C   UNL     1      10.756  -1.186   5.139  1.00  0.00    -0.049 A 
ATOM     72  C   UNL     1      10.094  -2.268   2.681  1.00  0.00    -0.053 A 
ATOM     73  H   UNL     1       8.152  -1.571   3.081  1.00  0.00     0.063 H 
ATOM     74  C   UNL     1      11.755  -1.760   4.355  1.00  0.00    -0.053 A 
ATOM     75  H   UNL     1      11.006  -0.765   6.048  1.00  0.00     0.063 H 
ATOM     76  C   UNL     1      11.411  -2.346   3.144  1.00  0.00    -0.014 A 
ATOM     77  H   UNL     1       9.850  -2.665   1.760  1.00  0.00     0.063 H 
ATOM     78  H   UNL     1      12.738  -1.749   4.670  1.00  0.00     0.063 H 
BRANCH  76  79
ATOM     79  C   UNL     1      12.391  -2.954   2.248  1.00  0.00     0.031 A 
ATOM     80  C   UNL     1      12.494  -2.298   0.913  1.00  0.00     0.074 A 
ATOM     81  C   UNL     1      13.187  -3.992   2.571  1.00  0.00     0.049 A 
ATOM     82  N   UNL     1      12.224  -2.806  -0.246  1.00  0.00    -0.248 NA
ATOM     83  C   UNL     1      12.827  -0.866   0.879  1.00  0.00    -0.034 C 
ATOM     84  C   UNL     1      13.410  -4.590   3.888  1.00  0.00    -0.036 A 
ATOM     85  N   UNL     1      14.035  -4.695   1.764  1.00  0.00    -0.354 N 
ATOM     86  C   UNL     1      12.492  -1.805  -1.178  1.00  0.00     0.074 A 
ATOM     87  C   UNL     1      12.747  -0.605  -0.426  1.00  0.00    -0.034 C 
ATOM     88  H   UNL     1      13.060  -0.232   1.658  1.00  0.00     0.065 H 
ATOM     89  C   UNL     1      14.477  -5.419   3.827  1.00  0.00    -0.036 A 
ATOM     90  H   UNL     1      12.843  -4.407   4.730  1.00  0.00     0.065 H 
ATOM     91  C   UNL     1      14.918  -5.521   2.445  1.00  0.00     0.049 A 
ATOM     92  H   UNL     1      14.022  -4.622   0.782  1.00  0.00     0.167 HD
ATOM     93  C   UNL     1      12.665  -2.092  -2.498  1.00  0.00     0.037 A 
ATOM     94  H   UNL     1      12.854   0.334  -0.842  1.00  0.00     0.065 H 
ATOM     95  H   UNL     1      14.909  -5.901   4.631  1.00  0.00     0.065 H 
ATOM     96  C   UNL     1      15.962  -6.201   1.912  1.00  0.00     0.037 A 
ATOM     97  C   UNL     1      12.097  -3.370  -2.832  1.00  0.00     0.049 A 
ATOM     98  C   UNL     1      15.703  -6.350   0.462  1.00  0.00     0.074 A 
ATOM     99  C   UNL     1      10.824  -3.900  -2.868  1.00  0.00    -0.036 A 
ATOM    100  N   UNL     1      12.954  -4.437  -2.909  1.00  0.00    -0.354 N 
ATOM    101  N   UNL     1      14.772  -7.108  -0.045  1.00  0.00    -0.248 NA
ATOM    102  C   UNL     1      16.271  -5.366  -0.447  1.00  0.00    -0.034 C 
ATOM    103  C   UNL     1      10.979  -5.275  -2.526  1.00  0.00    -0.036 A 
ATOM    104  H   UNL     1       9.946  -3.406  -3.093  1.00  0.00     0.065 H 
ATOM    105  C   UNL     1      12.340  -5.518  -2.336  1.00  0.00     0.049 A 
ATOM    106  H   UNL     1      13.854  -4.427  -3.306  1.00  0.00     0.167 HD
ATOM    107  C   UNL     1      14.341  -6.424  -1.168  1.00  0.00     0.074 A 
ATOM    108  C   UNL     1      15.386  -5.445  -1.441  1.00  0.00    -0.034 C 
ATOM    109  H   UNL     1      17.114  -4.779  -0.349  1.00  0.00     0.065 H 
ATOM    110  H   UNL     1      10.220  -5.968  -2.436  1.00  0.00     0.065 H 
ATOM    111  C   UNL     1      13.050  -6.534  -1.594  1.00  0.00     0.037 A 
ATOM    112  H   UNL     1      15.434  -4.879  -2.303  1.00  0.00     0.065 H 
BRANCH  93 113
ATOM    113  C   UNL     1      13.664  -1.402  -3.400  1.00  0.00     0.064 A 
ATOM    114  C   UNL     1      13.715  -1.753  -4.767  1.00  0.00     0.173 A 
ATOM    115  C   UNL     1      14.767  -0.660  -2.927  1.00  0.00     0.173 A 
ATOM    116  F   UNL     1      12.730  -2.471  -5.327  1.00  0.00    -0.203 F 
ATOM    117  C   UNL     1      14.824  -1.463  -5.566  1.00  0.00     0.198 A 
ATOM    118  C   UNL     1      15.849  -0.328  -3.741  1.00  0.00     0.198 A 
ATOM    119  F   UNL     1      14.901  -0.323  -1.639  1.00  0.00    -0.203 F 
ATOM    120  F   UNL     1      14.883  -1.934  -6.819  1.00  0.00    -0.200 F 
ATOM    121  C   UNL     1      15.895  -0.758  -5.050  1.00  0.00     0.200 A 
ATOM    122  F   UNL     1      16.886   0.341  -3.217  1.00  0.00    -0.200 F 
ATOM    123  F   UNL     1      16.987  -0.536  -5.792  1.00  0.00    -0.200 F 
ENDBRANCH  93 113
BRANCH  96 124
ATOM    124  C   UNL     1      17.294  -6.487   2.497  1.00  0.00     0.064 A 
ATOM    125  C   UNL     1      18.163  -7.412   1.889  1.00  0.00     0.173 A 
ATOM    126  C   UNL     1      17.863  -5.642   3.467  1.00  0.00     0.173 A 
ATOM    127  F   UNL     1      17.712  -8.232   0.928  1.00  0.00    -0.203 F 
ATOM    128  C   UNL     1      19.527  -7.450   2.196  1.00  0.00     0.198 A 
ATOM    129  C   UNL     1      19.223  -5.688   3.779  1.00  0.00     0.198 A 
ATOM    130  F   UNL     1      17.134  -4.684   4.058  1.00  0.00    -0.203 F 
ATOM    131  F   UNL     1      20.337  -8.289   1.535  1.00  0.00    -0.200 F 
ATOM    132  C   UNL     1      20.058  -6.577   3.129  1.00  0.00     0.200 A 
ATOM    133  F   UNL     1      19.731  -4.814   4.660  1.00  0.00    -0.200 F 
ATOM    134  F   UNL     1      21.376  -6.561   3.369  1.00  0.00    -0.200 F 
ENDBRANCH  96 124
BRANCH 111 135
ATOM    135  C   UNL     1      12.231  -7.671  -1.053  1.00  0.00     0.064 A 
ATOM    136  C   UNL     1      11.879  -7.818   0.300  1.00  0.00     0.173 A 
ATOM    137  C   UNL     1      11.665  -8.567  -1.970  1.00  0.00     0.173 A 
ATOM    138  F   UNL     1      12.304  -6.946   1.224  1.00  0.00    -0.203 F 
ATOM    139  C   UNL     1      11.026  -8.840   0.714  1.00  0.00     0.198 A 
ATOM    140  C   UNL     1      10.783  -9.560  -1.559  1.00  0.00     0.198 A 
ATOM    141  F   UNL     1      11.927  -8.442  -3.281  1.00  0.00    -0.203 F 
ATOM    142  F   UNL     1      10.708  -8.967   2.011  1.00  0.00    -0.200 F 
ATOM    143  C   UNL     1      10.470  -9.702  -0.217  1.00  0.00     0.200 A 
ATOM    144  F   UNL     1      10.209 -10.359  -2.469  1.00  0.00    -0.200 F 
ATOM    145  F   UNL     1       9.609 -10.652   0.175  1.00  0.00    -0.200 F 
ENDBRANCH 111 135
ENDBRANCH  76  79
ENDBRANCH  66  69
ENDBRANCH  62  65
ENDBRANCH  59  62
ENDBRANCH  56  59
ENDBRANCH   1  56
TORSDOF 18
