REMARK SMILES O=C(Cc1ccn(C(F)F)c(=O)c1)NCCCCCCNC(=O)c1ccc(-c2c3nc(c(-c4c(F)c(F)c(F)c(F)c4F)c4ccc([nH]4)c(-c4c(F)c(F)c(F)c(F)c4F)c4nc(c(-c5c(F)c(F)c(F)c(F)c5F)c5ccc2[nH]5)C=C4)C=C3)cc1
REMARK SMILES IDX 17 1 16 4 15 7 14 10 1 11 2 12 3 14 4 17 5 18 13 19 6 20
REMARK SMILES IDX 11 22 7 24 12 26 8 27 9 28 10 29 18 31 19 34 20 37 21 40
REMARK SMILES IDX 22 41 23 43 24 44 25 45 86 46 26 47 85 49 27 51 28 54 29 55
REMARK SMILES IDX 79 56 30 57 84 58 78 59 80 60 31 61 83 62 77 64 76 66 32 68
REMARK SMILES IDX 64 71 44 72 63 73 45 74 48 75 62 76 81 77 46 78 47 80 61 82
REMARK SMILES IDX 82 83 49 86 33 88 34 89 42 90 35 91 36 92 40 93 43 94 37 95
REMARK SMILES IDX 38 96 41 97 39 98 65 99 66 100 74 101 67 102 68 103 72 104
REMARK SMILES IDX 75 105 69 106 70 107 73 108 71 109 50 110 51 111 59 112
REMARK SMILES IDX 52 113 53 114 57 115 60 116 54 117 55 118 58 119 56 120
REMARK H PARENT 17 2 17 3 16 5 16 6 15 8 15 9 14 13 3 15 3 16 5 21 13 23 6 25
REMARK H PARENT 8 30 18 32 18 33 19 35 19 36 20 38 20 39 21 42 25 48 86 50
REMARK H PARENT 26 52 85 53 84 63 78 65 80 67 83 69 77 70 45 79 48 81 81 84
REMARK H PARENT 46 85 82 87
REMARK Flexibility Score: inf
ROOT
ATOM      1  C   UNL     1       4.327   1.141   3.555  1.00  0.00    -0.052 C 
ATOM      2  H   UNL     1       4.839   0.517   2.853  1.00  0.00     0.027 H 
ATOM      3  H   UNL     1       4.536   0.907   4.578  1.00  0.00     0.027 H 
ENDROOT
BRANCH   1   4
ATOM      4  C   UNL     1       2.820   0.916   3.374  1.00  0.00    -0.036 C 
ATOM      5  H   UNL     1       2.620  -0.125   3.517  1.00  0.00     0.028 H 
ATOM      6  H   UNL     1       2.334   1.543   4.093  1.00  0.00     0.028 H 
BRANCH   4   7
ATOM      7  C   UNL     1       2.268   1.323   2.010  1.00  0.00     0.017 C 
ATOM      8  H   UNL     1       1.218   1.116   1.985  1.00  0.00     0.049 H 
ATOM      9  H   UNL     1       2.457   2.367   1.872  1.00  0.00     0.049 H 
BRANCH   7  10
ATOM     10  N   UNL     1       2.913   0.601   0.934  1.00  0.00    -0.356 N 
ATOM     11  O   UNL     1       0.984   0.013  -0.167  1.00  0.00    -0.275 OA
ATOM     12  C   UNL     1       2.208  -0.002  -0.084  1.00  0.00     0.224 C 
ATOM     13  H   UNL     1       3.896   0.538   0.930  1.00  0.00     0.163 HD
BRANCH  12  14
ATOM     14  C   UNL     1       3.091  -0.678  -1.128  1.00  0.00     0.052 C 
ATOM     15  H   UNL     1       2.469  -1.319  -1.718  1.00  0.00     0.042 H 
ATOM     16  H   UNL     1       3.849  -1.194  -0.576  1.00  0.00     0.042 H 
BRANCH  14  17
ATOM     17  C   UNL     1       3.829   0.247  -2.069  1.00  0.00    -0.032 A 
ATOM     18  C   UNL     1       3.574   1.675  -2.097  1.00  0.00    -0.042 A 
ATOM     19  C   UNL     1       4.745  -0.257  -2.916  1.00  0.00     0.007 A 
ATOM     20  C   UNL     1       4.250   2.472  -2.934  1.00  0.00     0.013 A 
ATOM     21  H   UNL     1       2.865   2.081  -1.465  1.00  0.00     0.064 H 
ATOM     22  C   UNL     1       5.487   0.611  -3.872  1.00  0.00     0.255 A 
ATOM     23  H   UNL     1       4.938  -1.271  -2.902  1.00  0.00     0.068 H 
ATOM     24  N   UNL     1       5.193   1.962  -3.805  1.00  0.00    -0.258 N 
ATOM     25  H   UNL     1       4.062   3.487  -2.929  1.00  0.00     0.082 H 
ATOM     26  O   UNL     1       6.293   0.087  -4.634  1.00  0.00    -0.269 OA
BRANCH  24  27
ATOM     27  C   UNL     1       5.871   2.826  -4.737  1.00  0.00     0.321 C 
ATOM     28  F   UNL     1       7.217   2.712  -4.626  1.00  0.00    -0.185 F 
ATOM     29  F   UNL     1       5.527   2.525  -6.012  1.00  0.00    -0.185 F 
ATOM     30  H   UNL     1       5.575   3.827  -4.502  1.00  0.00     0.131 H 
ENDBRANCH  24  27
ENDBRANCH  14  17
ENDBRANCH  12  14
ENDBRANCH   7  10
ENDBRANCH   4   7
ENDBRANCH   1   4
BRANCH   1  31
ATOM     31  C   UNL     1       4.812   2.579   3.348  1.00  0.00    -0.052 C 
ATOM     32  H   UNL     1       4.638   2.842   2.325  1.00  0.00     0.027 H 
ATOM     33  H   UNL     1       5.846   2.583   3.622  1.00  0.00     0.027 H 
BRANCH  31  34
ATOM     34  C   UNL     1       4.139   3.632   4.227  1.00  0.00    -0.036 C 
ATOM     35  H   UNL     1       3.108   3.687   3.947  1.00  0.00     0.028 H 
ATOM     36  H   UNL     1       4.676   4.543   4.062  1.00  0.00     0.028 H 
BRANCH  34  37
ATOM     37  C   UNL     1       4.208   3.367   5.727  1.00  0.00     0.018 C 
ATOM     38  H   UNL     1       3.776   2.407   5.922  1.00  0.00     0.049 H 
ATOM     39  H   UNL     1       3.672   4.155   6.213  1.00  0.00     0.049 H 
BRANCH  37  40
ATOM     40  N   UNL     1       5.565   3.379   6.251  1.00  0.00    -0.352 N 
ATOM     41  C   UNL     1       6.055   3.994   7.380  1.00  0.00     0.251 C 
ATOM     42  H   UNL     1       6.226   2.876   5.724  1.00  0.00     0.163 HD
ATOM     43  O   UNL     1       7.261   3.996   7.610  1.00  0.00    -0.269 OA
BRANCH  41  44
ATOM     44  C   UNL     1       5.129   4.693   8.300  1.00  0.00     0.039 A 
ATOM     45  C   UNL     1       3.917   4.110   8.675  1.00  0.00    -0.049 A 
ATOM     46  C   UNL     1       5.471   5.963   8.775  1.00  0.00    -0.049 A 
ATOM     47  C   UNL     1       2.980   4.861   9.377  1.00  0.00    -0.053 A 
ATOM     48  H   UNL     1       3.718   3.127   8.433  1.00  0.00     0.063 H 
ATOM     49  C   UNL     1       4.561   6.683   9.555  1.00  0.00    -0.053 A 
ATOM     50  H   UNL     1       6.394   6.368   8.550  1.00  0.00     0.063 H 
ATOM     51  C   UNL     1       3.287   6.158   9.819  1.00  0.00    -0.014 A 
ATOM     52  H   UNL     1       2.050   4.460   9.574  1.00  0.00     0.063 H 
ATOM     53  H   UNL     1       4.827   7.604   9.937  1.00  0.00     0.063 H 
BRANCH  51  54
ATOM     54  C   UNL     1       2.255   6.938  10.553  1.00  0.00     0.031 A 
ATOM     55  C   UNL     1       1.663   8.187   9.959  1.00  0.00     0.074 A 
ATOM     56  C   UNL     1       1.800   6.473  11.732  1.00  0.00     0.049 A 
ATOM     57  N   UNL     1       0.710   8.953  10.431  1.00  0.00    -0.248 NA
ATOM     58  C   UNL     1       2.209   8.641   8.671  1.00  0.00    -0.034 C 
ATOM     59  C   UNL     1       2.293   5.272  12.407  1.00  0.00    -0.036 A 
ATOM     60  N   UNL     1       0.801   6.931  12.555  1.00  0.00    -0.354 N 
ATOM     61  C   UNL     1       0.552   9.979   9.509  1.00  0.00     0.074 A 
ATOM     62  C   UNL     1       1.528   9.761   8.464  1.00  0.00    -0.034 C 
ATOM     63  H   UNL     1       2.933   8.203   8.081  1.00  0.00     0.065 H 
ATOM     64  C   UNL     1       1.555   5.051  13.504  1.00  0.00    -0.036 A 
ATOM     65  H   UNL     1       3.083   4.688  12.089  1.00  0.00     0.065 H 
ATOM     66  C   UNL     1       0.576   6.124  13.643  1.00  0.00     0.049 A 
ATOM     67  H   UNL     1       0.296   7.757  12.381  1.00  0.00     0.167 HD
ATOM     68  C   UNL     1      -0.338  11.000   9.525  1.00  0.00     0.037 A 
ATOM     69  H   UNL     1       1.676  10.394   7.662  1.00  0.00     0.065 H 
ATOM     70  H   UNL     1       1.662   4.250  14.147  1.00  0.00     0.065 H 
ATOM     71  C   UNL     1      -0.317   6.235  14.645  1.00  0.00     0.037 A 
ATOM     72  C   UNL     1      -1.325  11.203  10.553  1.00  0.00     0.049 A 
ATOM     73  C   UNL     1      -1.267   7.398  14.656  1.00  0.00     0.074 A 
ATOM     74  C   UNL     1      -2.286  12.196  10.641  1.00  0.00    -0.036 A 
ATOM     75  N   UNL     1      -1.479  10.398  11.672  1.00  0.00    -0.354 N 
ATOM     76  N   UNL     1      -1.415   8.351  13.769  1.00  0.00    -0.248 NA
ATOM     77  C   UNL     1      -2.167   7.508  15.813  1.00  0.00    -0.034 C 
ATOM     78  C   UNL     1      -2.994  12.016  11.832  1.00  0.00    -0.036 A 
ATOM     79  H   UNL     1      -2.452  12.940   9.945  1.00  0.00     0.065 H 
ATOM     80  C   UNL     1      -2.505  10.885  12.466  1.00  0.00     0.049 A 
ATOM     81  H   UNL     1      -0.939   9.600  11.873  1.00  0.00     0.167 HD
ATOM     82  C   UNL     1      -2.429   9.166  14.252  1.00  0.00     0.074 A 
ATOM     83  C   UNL     1      -2.874   8.586  15.502  1.00  0.00    -0.034 C 
ATOM     84  H   UNL     1      -2.232   6.904  16.648  1.00  0.00     0.065 H 
ATOM     85  H   UNL     1      -3.753  12.623  12.181  1.00  0.00     0.065 H 
ATOM     86  C   UNL     1      -2.939  10.297  13.707  1.00  0.00     0.037 A 
ATOM     87  H   UNL     1      -3.644   8.963  16.077  1.00  0.00     0.065 H 
BRANCH  68  88
ATOM     88  C   UNL     1      -0.293  11.988   8.396  1.00  0.00     0.064 A 
ATOM     89  C   UNL     1      -0.756  11.658   7.114  1.00  0.00     0.173 A 
ATOM     90  C   UNL     1       0.145  13.303   8.617  1.00  0.00     0.173 A 
ATOM     91  F   UNL     1      -1.176  10.412   6.848  1.00  0.00    -0.203 F 
ATOM     92  C   UNL     1      -0.767  12.603   6.091  1.00  0.00     0.198 A 
ATOM     93  C   UNL     1       0.108  14.252   7.598  1.00  0.00     0.198 A 
ATOM     94  F   UNL     1       0.590  13.673   9.827  1.00  0.00    -0.203 F 
ATOM     95  F   UNL     1      -1.185  12.256   4.865  1.00  0.00    -0.200 F 
ATOM     96  C   UNL     1      -0.344  13.901   6.336  1.00  0.00     0.200 A 
ATOM     97  F   UNL     1       0.505  15.509   7.841  1.00  0.00    -0.200 F 
ATOM     98  F   UNL     1      -0.371  14.812   5.354  1.00  0.00    -0.200 F 
ENDBRANCH  68  88
BRANCH  71  99
ATOM     99  C   UNL     1      -0.357   5.197  15.705  1.00  0.00     0.064 A 
ATOM    100  C   UNL     1      -1.429   4.299  15.790  1.00  0.00     0.173 A 
ATOM    101  C   UNL     1       0.692   5.053  16.625  1.00  0.00     0.173 A 
ATOM    102  F   UNL     1      -2.464   4.410  14.944  1.00  0.00    -0.203 F 
ATOM    103  C   UNL     1      -1.451   3.296  16.757  1.00  0.00     0.198 A 
ATOM    104  C   UNL     1       0.682   4.033  17.573  1.00  0.00     0.198 A 
ATOM    105  F   UNL     1       1.742   5.886  16.581  1.00  0.00    -0.203 F 
ATOM    106  F   UNL     1      -2.499   2.465  16.833  1.00  0.00    -0.200 F 
ATOM    107  C   UNL     1      -0.391   3.157  17.641  1.00  0.00     0.200 A 
ATOM    108  F   UNL     1       1.716   3.893  18.414  1.00  0.00    -0.200 F 
ATOM    109  F   UNL     1      -0.404   2.181  18.558  1.00  0.00    -0.200 F 
ENDBRANCH  71  99
BRANCH  86 110
ATOM    110  C   UNL     1      -4.046  10.985  14.448  1.00  0.00     0.064 A 
ATOM    111  C   UNL     1      -3.794  11.729  15.609  1.00  0.00     0.173 A 
ATOM    112  C   UNL     1      -5.357  10.964  13.949  1.00  0.00     0.173 A 
ATOM    113  F   UNL     1      -2.559  11.768  16.131  1.00  0.00    -0.203 F 
ATOM    114  C   UNL     1      -4.817  12.422  16.249  1.00  0.00     0.198 A 
ATOM    115  C   UNL     1      -6.373  11.678  14.578  1.00  0.00     0.198 A 
ATOM    116  F   UNL     1      -5.647  10.271  12.838  1.00  0.00    -0.203 F 
ATOM    117  F   UNL     1      -4.560  13.106  17.373  1.00  0.00    -0.200 F 
ATOM    118  C   UNL     1      -6.103  12.404  15.728  1.00  0.00     0.200 A 
ATOM    119  F   UNL     1      -7.612  11.670  14.066  1.00  0.00    -0.200 F 
ATOM    120  F   UNL     1      -7.083  13.086  16.337  1.00  0.00    -0.200 F 
ENDBRANCH  86 110
ENDBRANCH  51  54
ENDBRANCH  41  44
ENDBRANCH  37  40
ENDBRANCH  34  37
ENDBRANCH  31  34
ENDBRANCH   1  31
TORSDOF 15
