REMARK SMILES CC(C)c1ccc2c(c1)c(SC(C)(C)C)c(CC(C)(C)C(=O)NCCCCCCNC(=O)c1ccc(-c3c4nc(c(-c5c(F)c(F)c(F)c(F)c5F)c5ccc([nH]5)c(-c5c(F)c(F)c(F)c(F)c5F)c5nc(c(-c6c(F)c(F)c(F)c(F)c6F)c6ccc3[nH]6)C=C5)C=C4)cc1)n2Cc1ccc(Cl)cc1
REMARK SMILES IDX 25 1 24 4 23 7 21 8 22 9 18 11 17 12 16 15 4 16 5 17 9 18
REMARK SMILES IDX 6 19 8 21 7 23 10 25 96 26 2 27 1 29 3 33 11 37 12 38 13 39
REMARK SMILES IDX 14 43 15 47 97 51 98 54 99 55 104 56 100 57 103 59 101 61
REMARK SMILES IDX 102 64 19 65 20 69 26 73 27 76 28 79 29 82 30 85 31 86 32 88
REMARK SMILES IDX 33 89 34 90 95 91 35 92 94 94 36 96 37 99 38 100 88 101
REMARK SMILES IDX 39 102 93 103 87 104 89 105 40 106 92 107 86 109 85 111
REMARK SMILES IDX 41 113 73 116 53 117 72 118 54 119 57 120 71 121 90 122
REMARK SMILES IDX 55 123 56 125 70 127 91 128 58 131 42 133 43 134 51 135
REMARK SMILES IDX 44 136 45 137 49 138 52 139 46 140 47 141 50 142 48 143
REMARK SMILES IDX 74 144 75 145 83 146 76 147 77 148 81 149 84 150 78 151
REMARK SMILES IDX 79 152 82 153 80 154 59 155 60 156 68 157 61 158 62 159
REMARK SMILES IDX 66 160 69 161 63 162 64 163 67 164 65 165
REMARK H PARENT 25 2 25 3 24 5 24 6 23 10 17 13 17 14 5 20 9 22 6 24 2 28 1 30
REMARK H PARENT 1 31 1 32 3 34 3 35 3 36 13 40 13 41 13 42 14 44 14 45 14 46
REMARK H PARENT 15 48 15 49 15 50 97 52 97 53 99 58 104 60 100 62 103 63 19 66
REMARK H PARENT 19 67 19 68 20 70 20 71 20 72 26 74 26 75 27 77 27 78 28 80
REMARK H PARENT 28 81 29 83 29 84 30 87 34 93 95 95 35 97 94 98 93 108 87 110
REMARK H PARENT 89 112 92 114 86 115 54 124 57 126 90 129 55 130 91 132
REMARK Flexibility Score: inf
ROOT
ATOM      1  C   UNL     1      -8.292   5.465   5.919  1.00  0.00    -0.036 C 
ATOM      2  H   UNL     1      -9.071   4.894   5.457  1.00  0.00     0.028 H 
ATOM      3  H   UNL     1      -8.519   6.510   5.889  1.00  0.00     0.028 H 
ENDROOT
BRANCH   1   4
ATOM      4  C   UNL     1      -7.004   5.236   5.167  1.00  0.00     0.017 C 
ATOM      5  H   UNL     1      -7.000   5.854   4.293  1.00  0.00     0.049 H 
ATOM      6  H   UNL     1      -6.192   5.483   5.819  1.00  0.00     0.049 H 
BRANCH   4   7
ATOM      7  N   UNL     1      -6.851   3.854   4.763  1.00  0.00    -0.356 N 
ATOM      8  C   UNL     1      -6.553   3.354   3.522  1.00  0.00     0.226 C 
ATOM      9  O   UNL     1      -6.081   2.225   3.486  1.00  0.00    -0.275 OA
ATOM     10  H   UNL     1      -6.978   3.185   5.474  1.00  0.00     0.163 HD
BRANCH   8  11
ATOM     11  C   UNL     1      -6.594   4.299   2.315  1.00  0.00     0.049 C 
BRANCH  11  12
ATOM     12  C   UNL     1      -6.601   3.656   0.894  1.00  0.00     0.003 C 
ATOM     13  H   UNL     1      -7.378   2.921   0.877  1.00  0.00     0.034 H 
ATOM     14  H   UNL     1      -6.736   4.477   0.222  1.00  0.00     0.034 H 
BRANCH  12  15
ATOM     15  C   UNL     1      -5.364   3.000   0.445  1.00  0.00     0.034 A 
ATOM     16  C   UNL     1      -1.053   1.277   0.222  1.00  0.00    -0.045 A 
ATOM     17  C   UNL     1      -1.785   0.110   0.473  1.00  0.00    -0.057 A 
ATOM     18  C   UNL     1      -1.783   2.469   0.018  1.00  0.00    -0.048 A 
ATOM     19  C   UNL     1      -3.185   0.103   0.541  1.00  0.00    -0.037 A 
ATOM     20  H   UNL     1      -1.275  -0.776   0.613  1.00  0.00     0.063 H 
ATOM     21  C   UNL     1      -3.203   2.509   0.095  1.00  0.00     0.014 A 
ATOM     22  H   UNL     1      -1.270   3.338  -0.194  1.00  0.00     0.063 H 
ATOM     23  C   UNL     1      -3.873   1.315   0.384  1.00  0.00     0.050 A 
ATOM     24  H   UNL     1      -3.699  -0.777   0.704  1.00  0.00     0.065 H 
ATOM     25  C   UNL     1      -4.182   3.568  -0.010  1.00  0.00     0.037 A 
ATOM     26  N   UNL     1      -5.224   1.613   0.472  1.00  0.00    -0.339 N 
BRANCH  16  27
ATOM     27  C   UNL     1       0.477   1.289   0.293  1.00  0.00    -0.022 C 
ATOM     28  H   UNL     1       0.649   1.540   1.319  1.00  0.00     0.035 H 
BRANCH  27  29
ATOM     29  C   UNL     1       1.140  -0.066  -0.005  1.00  0.00    -0.059 C 
ATOM     30  H   UNL     1       2.203   0.034   0.067  1.00  0.00     0.024 H 
ATOM     31  H   UNL     1       0.877  -0.383  -0.993  1.00  0.00     0.024 H 
ATOM     32  H   UNL     1       0.802  -0.792   0.704  1.00  0.00     0.024 H 
ENDBRANCH  27  29
BRANCH  27  33
ATOM     33  C   UNL     1       1.136   2.345  -0.608  1.00  0.00    -0.059 C 
ATOM     34  H   UNL     1       0.964   2.096  -1.634  1.00  0.00     0.024 H 
ATOM     35  H   UNL     1       2.188   2.369  -0.418  1.00  0.00     0.024 H 
ATOM     36  H   UNL     1       0.714   3.306  -0.399  1.00  0.00     0.024 H 
ENDBRANCH  27  33
ENDBRANCH  16  27
BRANCH  25  37
ATOM     37  S   UNL     1      -3.679   5.240  -0.364  1.00  0.00    -0.118 SA
BRANCH  37  38
ATOM     38  C   UNL     1      -4.959   6.534  -0.781  1.00  0.00     0.012 C 
BRANCH  38  39
ATOM     39  C   UNL     1      -5.717   6.165  -2.059  1.00  0.00    -0.051 C 
ATOM     40  H   UNL     1      -6.317   5.297  -1.880  1.00  0.00     0.024 H 
ATOM     41  H   UNL     1      -5.018   5.959  -2.842  1.00  0.00     0.024 H 
ATOM     42  H   UNL     1      -6.347   6.980  -2.348  1.00  0.00     0.024 H 
ENDBRANCH  38  39
BRANCH  38  43
ATOM     43  C   UNL     1      -5.976   7.066   0.255  1.00  0.00    -0.051 C 
ATOM     44  H   UNL     1      -6.651   6.282   0.527  1.00  0.00     0.024 H 
ATOM     45  H   UNL     1      -6.526   7.879  -0.170  1.00  0.00     0.024 H 
ATOM     46  H   UNL     1      -5.454   7.404   1.125  1.00  0.00     0.024 H 
ENDBRANCH  38  43
BRANCH  38  47
ATOM     47  C   UNL     1      -4.088   7.794  -1.041  1.00  0.00    -0.051 C 
ATOM     48  H   UNL     1      -3.327   7.560  -1.756  1.00  0.00     0.024 H 
ATOM     49  H   UNL     1      -3.632   8.107  -0.125  1.00  0.00     0.024 H 
ATOM     50  H   UNL     1      -4.704   8.582  -1.421  1.00  0.00     0.024 H 
ENDBRANCH  38  47
ENDBRANCH  37  38
ENDBRANCH  25  37
BRANCH  26  51
ATOM     51  C   UNL     1      -6.304   0.593   0.381  1.00  0.00     0.048 C 
ATOM     52  H   UNL     1      -5.839  -0.341   0.144  1.00  0.00     0.055 H 
ATOM     53  H   UNL     1      -6.975   0.982  -0.356  1.00  0.00     0.055 H 
BRANCH  51  54
ATOM     54  C   UNL     1      -7.180   0.362   1.602  1.00  0.00    -0.028 A 
ATOM     55  C   UNL     1      -8.452   0.963   1.704  1.00  0.00    -0.056 A 
ATOM     56  C   UNL     1      -6.746  -0.429   2.679  1.00  0.00    -0.056 A 
ATOM     57  C   UNL     1      -9.171   0.942   2.904  1.00  0.00    -0.043 A 
ATOM     58  H   UNL     1      -8.860   1.426   0.878  1.00  0.00     0.063 H 
ATOM     59  C   UNL     1      -7.493  -0.495   3.867  1.00  0.00    -0.043 A 
ATOM     60  H   UNL     1      -5.869  -0.967   2.596  1.00  0.00     0.063 H 
ATOM     61  C   UNL     1      -8.674   0.233   3.990  1.00  0.00     0.041 A 
ATOM     62  H   UNL     1     -10.066   1.451   2.981  1.00  0.00     0.064 H 
ATOM     63  H   UNL     1      -7.166  -1.084   4.649  1.00  0.00     0.064 H 
ATOM     64  Cl  UNL     1      -9.504   0.292   5.497  1.00  0.00    -0.084 Cl
ENDBRANCH  51  54
ENDBRANCH  26  51
ENDBRANCH  12  15
ENDBRANCH  11  12
BRANCH  11  65
ATOM     65  C   UNL     1      -5.279   5.066   2.599  1.00  0.00    -0.051 C 
ATOM     66  H   UNL     1      -5.123   5.801   1.837  1.00  0.00     0.024 H 
ATOM     67  H   UNL     1      -4.459   4.379   2.605  1.00  0.00     0.024 H 
ATOM     68  H   UNL     1      -5.347   5.549   3.551  1.00  0.00     0.024 H 
ENDBRANCH  11  65
BRANCH  11  69
ATOM     69  C   UNL     1      -7.946   5.074   2.325  1.00  0.00    -0.051 C 
ATOM     70  H   UNL     1      -7.984   5.736   1.485  1.00  0.00     0.024 H 
ATOM     71  H   UNL     1      -8.026   5.640   3.230  1.00  0.00     0.024 H 
ATOM     72  H   UNL     1      -8.757   4.378   2.267  1.00  0.00     0.024 H 
ENDBRANCH  11  69
ENDBRANCH   8  11
ENDBRANCH   4   7
ENDBRANCH   1   4
BRANCH   1  73
ATOM     73  C   UNL     1      -8.167   5.043   7.375  1.00  0.00    -0.052 C 
ATOM     74  H   UNL     1      -7.973   3.991   7.405  1.00  0.00     0.027 H 
ATOM     75  H   UNL     1      -9.087   5.305   7.854  1.00  0.00     0.027 H 
BRANCH  73  76
ATOM     76  C   UNL     1      -7.047   5.762   8.137  1.00  0.00    -0.052 C 
ATOM     77  H   UNL     1      -6.109   5.407   7.763  1.00  0.00     0.027 H 
ATOM     78  H   UNL     1      -7.200   5.543   9.173  1.00  0.00     0.027 H 
BRANCH  76  79
ATOM     79  C   UNL     1      -7.061   7.292   8.014  1.00  0.00    -0.036 C 
ATOM     80  H   UNL     1      -6.791   7.553   7.012  1.00  0.00     0.028 H 
ATOM     81  H   UNL     1      -6.367   7.671   8.735  1.00  0.00     0.028 H 
BRANCH  79  82
ATOM     82  C   UNL     1      -8.419   7.922   8.328  1.00  0.00     0.018 C 
ATOM     83  H   UNL     1      -9.100   7.675   7.540  1.00  0.00     0.049 H 
ATOM     84  H   UNL     1      -8.271   8.979   8.410  1.00  0.00     0.049 H 
BRANCH  82  85
ATOM     85  N   UNL     1      -8.977   7.464   9.579  1.00  0.00    -0.352 N 
ATOM     86  C   UNL     1      -8.696   7.699  10.893  1.00  0.00     0.251 C 
ATOM     87  H   UNL     1      -9.730   6.842   9.456  1.00  0.00     0.163 HD
ATOM     88  O   UNL     1      -9.347   7.053  11.716  1.00  0.00    -0.269 OA
BRANCH  86  89
ATOM     89  C   UNL     1      -7.652   8.638  11.377  1.00  0.00     0.039 A 
ATOM     90  C   UNL     1      -6.936   9.537  10.586  1.00  0.00    -0.049 A 
ATOM     91  C   UNL     1      -7.387   8.601  12.757  1.00  0.00    -0.049 A 
ATOM     92  C   UNL     1      -5.929  10.319  11.134  1.00  0.00    -0.053 A 
ATOM     93  H   UNL     1      -7.159   9.622   9.582  1.00  0.00     0.063 H 
ATOM     94  C   UNL     1      -6.411   9.413  13.321  1.00  0.00    -0.053 A 
ATOM     95  H   UNL     1      -7.926   7.961  13.361  1.00  0.00     0.063 H 
ATOM     96  C   UNL     1      -5.655  10.245  12.498  1.00  0.00    -0.014 A 
ATOM     97  H   UNL     1      -5.383  10.955  10.532  1.00  0.00     0.063 H 
ATOM     98  H   UNL     1      -6.247   9.400  14.340  1.00  0.00     0.063 H 
BRANCH  96  99
ATOM     99  C   UNL     1      -4.624  11.135  13.023  1.00  0.00     0.031 A 
ATOM    100  C   UNL     1      -4.874  12.597  12.845  1.00  0.00     0.074 A 
ATOM    101  C   UNL     1      -3.571  10.688  13.732  1.00  0.00     0.049 A 
ATOM    102  N   UNL     1      -4.105  13.492  12.310  1.00  0.00    -0.248 NA
ATOM    103  C   UNL     1      -6.186  13.114  13.271  1.00  0.00    -0.034 C 
ATOM    104  C   UNL     1      -3.337   9.329  14.228  1.00  0.00    -0.036 A 
ATOM    105  N   UNL     1      -2.533  11.397  14.260  1.00  0.00    -0.354 N 
ATOM    106  C   UNL     1      -4.770  14.709  12.456  1.00  0.00     0.074 A 
ATOM    107  C   UNL     1      -6.081  14.408  12.969  1.00  0.00    -0.034 C 
ATOM    108  H   UNL     1      -6.980  12.607  13.692  1.00  0.00     0.065 H 
ATOM    109  C   UNL     1      -2.366   9.362  15.166  1.00  0.00    -0.036 A 
ATOM    110  H   UNL     1      -3.834   8.482  13.911  1.00  0.00     0.065 H 
ATOM    111  C   UNL     1      -1.825  10.709  15.232  1.00  0.00     0.049 A 
ATOM    112  H   UNL     1      -2.308  12.313  13.977  1.00  0.00     0.167 HD
ATOM    113  C   UNL     1      -4.144  15.908  12.313  1.00  0.00     0.037 A 
ATOM    114  H   UNL     1      -6.837  15.101  13.088  1.00  0.00     0.065 H 
ATOM    115  H   UNL     1      -2.059   8.563  15.742  1.00  0.00     0.065 H 
ATOM    116  C   UNL     1      -0.916  11.231  16.087  1.00  0.00     0.037 A 
ATOM    117  C   UNL     1      -2.906  15.798  11.599  1.00  0.00     0.049 A 
ATOM    118  C   UNL     1      -0.432  12.508  15.515  1.00  0.00     0.074 A 
ATOM    119  C   UNL     1      -2.544  15.495  10.304  1.00  0.00    -0.036 A 
ATOM    120  N   UNL     1      -1.757  15.745  12.341  1.00  0.00    -0.354 N 
ATOM    121  N   UNL     1       0.304  12.608  14.444  1.00  0.00    -0.248 NA
ATOM    122  C   UNL     1      -1.046  13.749  15.966  1.00  0.00    -0.034 C 
ATOM    123  C   UNL     1      -1.269  14.865  10.406  1.00  0.00    -0.036 A 
ATOM    124  H   UNL     1      -3.082  15.684   9.444  1.00  0.00     0.065 H 
ATOM    125  C   UNL     1      -0.918  14.833  11.756  1.00  0.00     0.049 A 
ATOM    126  H   UNL     1      -1.566  16.270  13.151  1.00  0.00     0.167 HD
ATOM    127  C   UNL     1      -0.086  13.801  13.861  1.00  0.00     0.074 A 
ATOM    128  C   UNL     1      -0.791  14.524  14.910  1.00  0.00    -0.034 C 
ATOM    129  H   UNL     1      -1.537  13.966  16.847  1.00  0.00     0.065 H 
ATOM    130  H   UNL     1      -0.707  14.499   9.622  1.00  0.00     0.065 H 
ATOM    131  C   UNL     1      -0.044  13.961  12.507  1.00  0.00     0.037 A 
ATOM    132  H   UNL     1      -1.062  15.517  14.845  1.00  0.00     0.065 H 
BRANCH 113 133
ATOM    133  C   UNL     1      -4.497  17.136  13.110  1.00  0.00     0.064 A 
ATOM    134  C   UNL     1      -4.016  18.400  12.717  1.00  0.00     0.173 A 
ATOM    135  C   UNL     1      -5.046  17.064  14.408  1.00  0.00     0.173 A 
ATOM    136  F   UNL     1      -3.432  18.567  11.521  1.00  0.00    -0.203 F 
ATOM    137  C   UNL     1      -4.053  19.502  13.578  1.00  0.00     0.198 A 
ATOM    138  C   UNL     1      -5.127  18.175  15.245  1.00  0.00     0.198 A 
ATOM    139  F   UNL     1      -5.420  15.896  14.948  1.00  0.00    -0.203 F 
ATOM    140  F   UNL     1      -3.493  20.660  13.204  1.00  0.00    -0.200 F 
ATOM    141  C   UNL     1      -4.609  19.388  14.841  1.00  0.00     0.200 A 
ATOM    142  F   UNL     1      -5.643  18.039  16.475  1.00  0.00    -0.200 F 
ATOM    143  F   UNL     1      -4.602  20.429  15.684  1.00  0.00    -0.200 F 
ENDBRANCH 113 133
BRANCH 116 144
ATOM    144  C   UNL     1      -0.670  10.852  17.496  1.00  0.00     0.064 A 
ATOM    145  C   UNL     1       0.500  11.259  18.155  1.00  0.00     0.173 A 
ATOM    146  C   UNL     1      -1.699  10.330  18.305  1.00  0.00     0.173 A 
ATOM    147  F   UNL     1       1.510  11.805  17.462  1.00  0.00    -0.203 F 
ATOM    148  C   UNL     1       0.620  11.183  19.546  1.00  0.00     0.198 A 
ATOM    149  C   UNL     1      -1.573  10.243  19.691  1.00  0.00     0.198 A 
ATOM    150  F   UNL     1      -2.884   9.988  17.780  1.00  0.00    -0.203 F 
ATOM    151  F   UNL     1       1.723  11.651  20.147  1.00  0.00    -0.200 F 
ATOM    152  C   UNL     1      -0.421  10.686  20.313  1.00  0.00     0.200 A 
ATOM    153  F   UNL     1      -2.601   9.792  20.424  1.00  0.00    -0.200 F 
ATOM    154  F   UNL     1      -0.333  10.675  21.650  1.00  0.00    -0.200 F 
ENDBRANCH 116 144
BRANCH 131 155
ATOM    155  C   UNL     1       0.782  12.983  11.722  1.00  0.00     0.064 A 
ATOM    156  C   UNL     1       0.499  11.610  11.630  1.00  0.00     0.173 A 
ATOM    157  C   UNL     1       1.831  13.482  10.937  1.00  0.00     0.173 A 
ATOM    158  F   UNL     1      -0.550  11.078  12.270  1.00  0.00    -0.203 F 
ATOM    159  C   UNL     1       1.266  10.769  10.826  1.00  0.00     0.198 A 
ATOM    160  C   UNL     1       2.569  12.646  10.104  1.00  0.00     0.198 A 
ATOM    161  F   UNL     1       2.108  14.795  10.941  1.00  0.00    -0.203 F 
ATOM    162  F   UNL     1       0.988   9.458  10.767  1.00  0.00    -0.200 F 
ATOM    163  C   UNL     1       2.295  11.289  10.059  1.00  0.00     0.200 A 
ATOM    164  F   UNL     1       3.530  13.162   9.325  1.00  0.00    -0.200 F 
ATOM    165  F   UNL     1       3.005  10.487   9.253  1.00  0.00    -0.200 F 
ENDBRANCH 131 155
ENDBRANCH  96  99
ENDBRANCH  86  89
ENDBRANCH  82  85
ENDBRANCH  79  82
ENDBRANCH  76  79
ENDBRANCH  73  76
ENDBRANCH   1  73
TORSDOF 27
