REMARK SMILES CC(C)(C)c1cc(Nc2ccccc2C(=O)NCCCCCCNC(=O)c2ccc(-c3c4nc(c(-c5c(F)c(F)c(F)c(F)c5F)c5ccc([nH]5)c(-c5c(F)c(F)c(F)c(F)c5F)c5nc(c(-c6c(F)c(F)c(F)c(F)c6F)c6ccc3[nH]6)C=C5)C=C4)cc2)cc2c1OCC2(C)C
REMARK SMILES IDX 19 1 18 4 17 7 15 8 16 9 14 11 9 12 10 13 11 14 13 16 12 17
REMARK SMILES IDX 8 21 7 23 5 24 6 25 92 26 91 28 93 29 90 30 95 31 94 32 2 36
REMARK SMILES IDX 1 37 3 41 4 45 96 49 97 53 20 57 21 60 22 63 23 66 24 69
REMARK SMILES IDX 25 70 26 72 27 73 28 74 89 75 29 76 88 78 30 80 31 83 32 84
REMARK SMILES IDX 82 85 33 86 87 87 81 88 83 89 34 90 86 91 80 93 79 95 35 97
REMARK SMILES IDX 67 100 47 101 66 102 48 103 51 104 65 105 84 106 49 107
REMARK SMILES IDX 50 109 64 111 85 112 52 115 36 117 37 118 45 119 38 120
REMARK SMILES IDX 39 121 43 122 46 123 40 124 41 125 44 126 42 127 68 128
REMARK SMILES IDX 69 129 77 130 70 131 71 132 75 133 78 134 72 135 73 136
REMARK SMILES IDX 76 137 74 138 53 139 54 140 62 141 55 142 56 143 60 144
REMARK SMILES IDX 63 145 57 146 58 147 61 148 59 149
REMARK H PARENT 19 2 19 3 18 5 18 6 17 10 10 15 11 18 13 19 12 20 8 22 6 27
REMARK H PARENT 90 33 94 34 94 35 1 38 1 39 1 40 3 42 3 43 3 44 4 46 4 47 4 48
REMARK H PARENT 96 50 96 51 96 52 97 54 97 55 97 56 20 58 20 59 21 61 21 62
REMARK H PARENT 22 64 22 65 23 67 23 68 24 71 28 77 89 79 29 81 88 82 87 92
REMARK H PARENT 81 94 83 96 86 98 80 99 48 108 51 110 84 113 49 114 85 116
REMARK Flexibility Score: inf
ROOT
ATOM      1  C   UNL     1      -2.024   3.741   3.205  1.00  0.00    -0.036 C 
ATOM      2  H   UNL     1      -2.480   3.421   4.119  1.00  0.00     0.028 H 
ATOM      3  H   UNL     1      -1.607   2.986   2.572  1.00  0.00     0.028 H 
ENDROOT
BRANCH   1   4
ATOM      4  C   UNL     1      -0.813   4.584   3.590  1.00  0.00     0.018 C 
ATOM      5  H   UNL     1      -0.135   3.948   4.120  1.00  0.00     0.049 H 
ATOM      6  H   UNL     1      -0.445   4.972   2.663  1.00  0.00     0.049 H 
BRANCH   4   7
ATOM      7  N   UNL     1      -1.044   5.743   4.406  1.00  0.00    -0.352 N 
ATOM      8  C   UNL     1      -0.232   6.363   5.329  1.00  0.00     0.253 C 
ATOM      9  O   UNL     1      -0.701   7.387   5.843  1.00  0.00    -0.269 OA
ATOM     10  H   UNL     1      -1.927   6.162   4.286  1.00  0.00     0.163 HD
BRANCH   8  11
ATOM     11  C   UNL     1       1.121   5.903   5.813  1.00  0.00     0.063 A 
ATOM     12  C   UNL     1       2.186   5.304   5.104  1.00  0.00     0.051 A 
ATOM     13  C   UNL     1       3.423   5.103   5.773  1.00  0.00    -0.038 A 
ATOM     14  C   UNL     1       3.601   5.393   7.122  1.00  0.00    -0.060 A 
ATOM     15  H   UNL     1       4.221   4.726   5.238  1.00  0.00     0.064 H 
ATOM     16  C   UNL     1       1.336   6.194   7.186  1.00  0.00    -0.047 A 
ATOM     17  C   UNL     1       2.545   5.925   7.837  1.00  0.00    -0.061 A 
ATOM     18  H   UNL     1       4.508   5.213   7.581  1.00  0.00     0.062 H 
ATOM     19  H   UNL     1       0.568   6.622   7.727  1.00  0.00     0.063 H 
ATOM     20  H   UNL     1       2.648   6.123   8.845  1.00  0.00     0.062 H 
BRANCH  12  21
ATOM     21  N   UNL     1       2.114   4.778   3.795  1.00  0.00    -0.355 N 
ATOM     22  H   UNL     1       2.003   5.419   3.056  1.00  0.00     0.167 HD
BRANCH  21  23
ATOM     23  C   UNL     1       2.189   3.401   3.458  1.00  0.00     0.039 A 
ATOM     24  C   UNL     1       1.795   1.592   1.805  1.00  0.00     0.002 A 
ATOM     25  C   UNL     1       1.915   2.967   2.142  1.00  0.00    -0.031 A 
ATOM     26  C   UNL     1       2.028   0.684   2.837  1.00  0.00     0.127 A 
ATOM     27  H   UNL     1       1.798   3.674   1.399  1.00  0.00     0.065 H 
ATOM     28  C   UNL     1       2.340   1.085   4.118  1.00  0.00     0.006 A 
ATOM     29  O   UNL     1       1.909  -0.674   2.721  1.00  0.00    -0.492 OA
ATOM     30  C   UNL     1       2.412   2.427   4.440  1.00  0.00    -0.031 A 
ATOM     31  C   UNL     1       2.526  -0.089   5.013  1.00  0.00     0.028 C 
ATOM     32  C   UNL     1       2.246  -1.225   4.011  1.00  0.00     0.097 C 
ATOM     33  H   UNL     1       2.630   2.713   5.407  1.00  0.00     0.065 H 
ATOM     34  H   UNL     1       3.118  -1.838   3.918  1.00  0.00     0.072 H 
ATOM     35  H   UNL     1       1.426  -1.812   4.367  1.00  0.00     0.072 H 
BRANCH  24  36
ATOM     36  C   UNL     1       1.249   1.119   0.451  1.00  0.00    -0.009 C 
BRANCH  36  37
ATOM     37  C   UNL     1       1.918  -0.164  -0.092  1.00  0.00    -0.056 C 
ATOM     38  H   UNL     1       1.481  -0.423  -1.033  1.00  0.00     0.024 H 
ATOM     39  H   UNL     1       1.769  -0.965   0.603  1.00  0.00     0.024 H 
ATOM     40  H   UNL     1       2.966   0.007  -0.220  1.00  0.00     0.024 H 
ENDBRANCH  36  37
BRANCH  36  41
ATOM     41  C   UNL     1       1.388   2.180  -0.662  1.00  0.00    -0.056 C 
ATOM     42  H   UNL     1       0.991   1.792  -1.577  1.00  0.00     0.024 H 
ATOM     43  H   UNL     1       2.421   2.424  -0.796  1.00  0.00     0.024 H 
ATOM     44  H   UNL     1       0.847   3.061  -0.384  1.00  0.00     0.024 H 
ENDBRANCH  36  41
BRANCH  36  45
ATOM     45  C   UNL     1      -0.239   0.810   0.698  1.00  0.00    -0.056 C 
ATOM     46  H   UNL     1      -0.689   0.472  -0.212  1.00  0.00     0.024 H 
ATOM     47  H   UNL     1      -0.736   1.696   1.033  1.00  0.00     0.024 H 
ATOM     48  H   UNL     1      -0.326   0.048   1.444  1.00  0.00     0.024 H 
ENDBRANCH  36  45
ENDBRANCH  24  36
BRANCH  31  49
ATOM     49  C   UNL     1       3.964  -0.138   5.534  1.00  0.00    -0.052 C 
ATOM     50  H   UNL     1       4.644  -0.122   4.707  1.00  0.00     0.024 H 
ATOM     51  H   UNL     1       4.109  -1.035   6.098  1.00  0.00     0.024 H 
ATOM     52  H   UNL     1       4.145   0.711   6.160  1.00  0.00     0.024 H 
ENDBRANCH  31  49
BRANCH  31  53
ATOM     53  C   UNL     1       1.525  -0.110   6.171  1.00  0.00    -0.052 C 
ATOM     54  H   UNL     1       0.528  -0.075   5.782  1.00  0.00     0.024 H 
ATOM     55  H   UNL     1       1.691   0.739   6.801  1.00  0.00     0.024 H 
ATOM     56  H   UNL     1       1.655  -1.007   6.740  1.00  0.00     0.024 H 
ENDBRANCH  31  53
ENDBRANCH  21  23
ENDBRANCH  12  21
ENDBRANCH   8  11
ENDBRANCH   4   7
ENDBRANCH   1   4
BRANCH   1  57
ATOM     57  C   UNL     1      -3.136   4.346   2.345  1.00  0.00    -0.052 C 
ATOM     58  H   UNL     1      -3.683   5.018   2.974  1.00  0.00     0.027 H 
ATOM     59  H   UNL     1      -3.658   3.488   1.975  1.00  0.00     0.027 H 
BRANCH  57  60
ATOM     60  C   UNL     1      -2.780   5.121   1.072  1.00  0.00    -0.052 C 
ATOM     61  H   UNL     1      -2.284   6.018   1.378  1.00  0.00     0.027 H 
ATOM     62  H   UNL     1      -3.717   5.246   0.572  1.00  0.00     0.027 H 
BRANCH  60  63
ATOM     63  C   UNL     1      -1.888   4.446   0.028  1.00  0.00    -0.036 C 
ATOM     64  H   UNL     1      -0.935   4.276   0.485  1.00  0.00     0.028 H 
ATOM     65  H   UNL     1      -1.892   5.121  -0.803  1.00  0.00     0.028 H 
BRANCH  63  66
ATOM     66  C   UNL     1      -2.352   3.112  -0.564  1.00  0.00     0.018 C 
ATOM     67  H   UNL     1      -2.648   2.481   0.248  1.00  0.00     0.049 H 
ATOM     68  H   UNL     1      -1.521   2.744  -1.128  1.00  0.00     0.049 H 
BRANCH  66  69
ATOM     69  N   UNL     1      -3.459   3.179  -1.499  1.00  0.00    -0.352 N 
ATOM     70  C   UNL     1      -3.607   2.579  -2.739  1.00  0.00     0.251 C 
ATOM     71  H   UNL     1      -4.218   3.734  -1.210  1.00  0.00     0.163 HD
ATOM     72  O   UNL     1      -4.653   2.708  -3.357  1.00  0.00    -0.269 OA
BRANCH  70  73
ATOM     73  C   UNL     1      -2.485   1.830  -3.368  1.00  0.00     0.039 A 
ATOM     74  C   UNL     1      -1.829   0.790  -2.717  1.00  0.00    -0.049 A 
ATOM     75  C   UNL     1      -2.085   2.175  -4.662  1.00  0.00    -0.049 A 
ATOM     76  C   UNL     1      -0.657   0.245  -3.264  1.00  0.00    -0.053 A 
ATOM     77  H   UNL     1      -2.204   0.419  -1.830  1.00  0.00     0.063 H 
ATOM     78  C   UNL     1      -0.957   1.571  -5.242  1.00  0.00    -0.053 A 
ATOM     79  H   UNL     1      -2.622   2.878  -5.194  1.00  0.00     0.063 H 
ATOM     80  C   UNL     1      -0.175   0.653  -4.521  1.00  0.00    -0.014 A 
ATOM     81  H   UNL     1      -0.138  -0.471  -2.733  1.00  0.00     0.063 H 
ATOM     82  H   UNL     1      -0.698   1.806  -6.213  1.00  0.00     0.063 H 
BRANCH  80  83
ATOM     83  C   UNL     1       1.157   0.192  -5.048  1.00  0.00     0.031 A 
ATOM     84  C   UNL     1       2.219   1.201  -5.444  1.00  0.00     0.074 A 
ATOM     85  C   UNL     1       1.465  -1.119  -5.155  1.00  0.00     0.049 A 
ATOM     86  N   UNL     1       3.372   1.012  -6.045  1.00  0.00    -0.248 NA
ATOM     87  C   UNL     1       1.946   2.612  -5.129  1.00  0.00    -0.034 C 
ATOM     88  C   UNL     1       0.594  -2.228  -4.774  1.00  0.00    -0.036 A 
ATOM     89  N   UNL     1       2.609  -1.740  -5.609  1.00  0.00    -0.354 N 
ATOM     90  C   UNL     1       3.932   2.274  -6.216  1.00  0.00     0.074 A 
ATOM     91  C   UNL     1       2.984   3.226  -5.679  1.00  0.00    -0.034 C 
ATOM     92  H   UNL     1       1.150   3.019  -4.612  1.00  0.00     0.065 H 
ATOM     93  C   UNL     1       1.248  -3.386  -4.957  1.00  0.00    -0.036 A 
ATOM     94  H   UNL     1      -0.371  -2.137  -4.420  1.00  0.00     0.065 H 
ATOM     95  C   UNL     1       2.553  -3.113  -5.555  1.00  0.00     0.049 A 
ATOM     96  H   UNL     1       3.393  -1.247  -5.942  1.00  0.00     0.167 HD
ATOM     97  C   UNL     1       5.129   2.617  -6.756  1.00  0.00     0.037 A 
ATOM     98  H   UNL     1       3.101   4.250  -5.718  1.00  0.00     0.065 H 
ATOM     99  H   UNL     1       0.886  -4.321  -4.714  1.00  0.00     0.065 H 
ATOM    100  C   UNL     1       3.427  -4.056  -5.965  1.00  0.00     0.037 A 
ATOM    101  C   UNL     1       6.112   1.683  -7.247  1.00  0.00     0.049 A 
ATOM    102  C   UNL     1       4.717  -3.653  -6.629  1.00  0.00     0.074 A 
ATOM    103  C   UNL     1       7.354   1.952  -7.799  1.00  0.00    -0.036 A 
ATOM    104  N   UNL     1       5.976   0.304  -7.230  1.00  0.00    -0.354 N 
ATOM    105  N   UNL     1       5.207  -2.455  -6.830  1.00  0.00    -0.248 NA
ATOM    106  C   UNL     1       5.568  -4.739  -7.142  1.00  0.00    -0.034 C 
ATOM    107  C   UNL     1       7.950   0.740  -8.158  1.00  0.00    -0.036 A 
ATOM    108  H   UNL     1       7.768   2.889  -7.925  1.00  0.00     0.065 H 
ATOM    109  C   UNL     1       7.104  -0.288  -7.779  1.00  0.00     0.049 A 
ATOM    110  H   UNL     1       5.195  -0.183  -6.880  1.00  0.00     0.167 HD
ATOM    111  C   UNL     1       6.424  -2.643  -7.473  1.00  0.00     0.074 A 
ATOM    112  C   UNL     1       6.611  -4.070  -7.613  1.00  0.00    -0.034 C 
ATOM    113  H   UNL     1       5.396  -5.757  -7.137  1.00  0.00     0.065 H 
ATOM    114  H   UNL     1       8.865   0.630  -8.624  1.00  0.00     0.065 H 
ATOM    115  C   UNL     1       7.301  -1.708  -7.913  1.00  0.00     0.037 A 
ATOM    116  H   UNL     1       7.449  -4.511  -8.026  1.00  0.00     0.065 H 
BRANCH  97 117
ATOM    117  C   UNL     1       5.463   4.080  -6.859  1.00  0.00     0.064 A 
ATOM    118  C   UNL     1       5.784   4.845  -5.728  1.00  0.00     0.173 A 
ATOM    119  C   UNL     1       5.547   4.702  -8.116  1.00  0.00     0.173 A 
ATOM    120  F   UNL     1       5.713   4.303  -4.504  1.00  0.00    -0.203 F 
ATOM    121  C   UNL     1       6.157   6.182  -5.850  1.00  0.00     0.198 A 
ATOM    122  C   UNL     1       5.951   6.029  -8.236  1.00  0.00     0.198 A 
ATOM    123  F   UNL     1       5.265   4.013  -9.232  1.00  0.00    -0.203 F 
ATOM    124  F   UNL     1       6.423   6.904  -4.752  1.00  0.00    -0.200 F 
ATOM    125  C   UNL     1       6.250   6.770  -7.103  1.00  0.00     0.200 A 
ATOM    126  F   UNL     1       6.060   6.589  -9.449  1.00  0.00    -0.200 F 
ATOM    127  F   UNL     1       6.628   8.050  -7.218  1.00  0.00    -0.200 F 
ENDBRANCH  97 117
BRANCH 100 128
ATOM    128  C   UNL     1       3.103  -5.495  -5.771  1.00  0.00     0.064 A 
ATOM    129  C   UNL     1       3.839  -6.282  -4.873  1.00  0.00     0.173 A 
ATOM    130  C   UNL     1       2.053  -6.111  -6.467  1.00  0.00     0.173 A 
ATOM    131  F   UNL     1       4.875  -5.749  -4.210  1.00  0.00    -0.203 F 
ATOM    132  C   UNL     1       3.535  -7.628  -4.680  1.00  0.00     0.198 A 
ATOM    133  C   UNL     1       1.728  -7.448  -6.248  1.00  0.00     0.198 A 
ATOM    134  F   UNL     1       1.324  -5.406  -7.345  1.00  0.00    -0.203 F 
ATOM    135  F   UNL     1       4.277  -8.367  -3.843  1.00  0.00    -0.200 F 
ATOM    136  C   UNL     1       2.473  -8.207  -5.358  1.00  0.00     0.200 A 
ATOM    137  F   UNL     1       0.693  -7.999  -6.895  1.00  0.00    -0.200 F 
ATOM    138  F   UNL     1       2.169  -9.497  -5.158  1.00  0.00    -0.200 F 
ENDBRANCH 100 128
BRANCH 115 139
ATOM    139  C   UNL     1       8.568  -2.183  -8.567  1.00  0.00     0.064 A 
ATOM    140  C   UNL     1       8.566  -2.746  -9.851  1.00  0.00     0.173 A 
ATOM    141  C   UNL     1       9.807  -2.010  -7.930  1.00  0.00     0.173 A 
ATOM    142  F   UNL     1       7.408  -2.946 -10.498  1.00  0.00    -0.203 F 
ATOM    143  C   UNL     1       9.754  -3.133 -10.467  1.00  0.00     0.198 A 
ATOM    144  C   UNL     1      10.996  -2.371  -8.560  1.00  0.00     0.198 A 
ATOM    145  F   UNL     1       9.868  -1.469  -6.704  1.00  0.00    -0.203 F 
ATOM    146  F   UNL     1       9.724  -3.702 -11.680  1.00  0.00    -0.200 F 
ATOM    147  C   UNL     1      10.968  -2.936  -9.826  1.00  0.00     0.200 A 
ATOM    148  F   UNL     1      12.169  -2.165  -7.945  1.00  0.00    -0.200 F 
ATOM    149  F   UNL     1      12.111  -3.294 -10.427  1.00  0.00    -0.200 F 
ENDBRANCH 115 139
ENDBRANCH  80  83
ENDBRANCH  70  73
ENDBRANCH  66  69
ENDBRANCH  63  66
ENDBRANCH  60  63
ENDBRANCH  57  60
ENDBRANCH   1  57
TORSDOF 21
