REMARK SMILES Cc1cccc(Nc2ccccc2C(=O)NCCCCCCNC(=O)c2ccc(-c3c4nc(c(-c5c(F)c(F)c(F)c(F)c5F)c5ccc([nH]5)c(-c5c(F)c(F)c(F)c(F)c5F)c5nc(c(-c6c(F)c(F)c(F)c(F)c6F)c6ccc3[nH]6)C=C5)C=C4)cc2)c1C
REMARK SMILES IDX 19 1 18 4 17 7 16 10 14 11 15 12 13 14 8 15 9 16 10 17 12 19
REMARK SMILES IDX 11 20 7 24 6 26 2 27 3 28 89 29 4 30 5 32 1 35 90 39 20 43
REMARK SMILES IDX 21 46 22 49 23 52 24 53 25 55 26 56 27 57 88 58 28 59 87 61
REMARK SMILES IDX 29 63 30 66 31 67 81 68 32 69 86 70 80 71 82 72 33 73 85 74
REMARK SMILES IDX 79 76 78 78 34 80 66 83 46 84 65 85 47 86 50 87 64 88 83 89
REMARK SMILES IDX 48 90 49 92 63 94 84 95 51 98 35 100 36 101 44 102 37 103
REMARK SMILES IDX 38 104 42 105 45 106 39 107 40 108 43 109 41 110 67 111
REMARK SMILES IDX 68 112 76 113 69 114 70 115 74 116 77 117 71 118 72 119
REMARK SMILES IDX 75 120 73 121 52 122 53 123 61 124 54 125 55 126 59 127
REMARK SMILES IDX 62 128 56 129 57 130 60 131 58 132
REMARK H PARENT 19 2 19 3 18 5 18 6 17 8 17 9 16 13 9 18 10 21 12 22 11 23
REMARK H PARENT 7 25 3 31 4 33 5 34 1 36 1 37 1 38 90 40 90 41 90 42 20 44
REMARK H PARENT 20 45 21 47 21 48 22 50 22 51 23 54 27 60 88 62 28 64 87 65
REMARK H PARENT 86 75 80 77 82 79 85 81 79 82 47 91 50 93 83 96 48 97 84 99
REMARK Flexibility Score: inf
ROOT
ATOM      1  C   UNL     1      -2.979  -0.810   3.155  1.00  0.00    -0.052 C 
ATOM      2  H   UNL     1      -2.217  -0.600   3.877  1.00  0.00     0.027 H 
ATOM      3  H   UNL     1      -3.969  -0.915   3.548  1.00  0.00     0.027 H 
ENDROOT
BRANCH   1   4
ATOM      4  C   UNL     1      -2.659  -2.179   2.537  1.00  0.00    -0.036 C 
ATOM      5  H   UNL     1      -2.525  -2.875   3.338  1.00  0.00     0.028 H 
ATOM      6  H   UNL     1      -3.485  -2.397   1.891  1.00  0.00     0.028 H 
BRANCH   4   7
ATOM      7  C   UNL     1      -1.422  -2.255   1.646  1.00  0.00     0.018 C 
ATOM      8  H   UNL     1      -1.415  -3.210   1.164  1.00  0.00     0.049 H 
ATOM      9  H   UNL     1      -1.493  -1.438   0.958  1.00  0.00     0.049 H 
BRANCH   7  10
ATOM     10  N   UNL     1      -0.171  -2.093   2.344  1.00  0.00    -0.352 N 
ATOM     11  C   UNL     1       1.088  -2.537   2.019  1.00  0.00     0.253 C 
ATOM     12  O   UNL     1       2.014  -2.163   2.745  1.00  0.00    -0.269 OA
ATOM     13  H   UNL     1      -0.228  -1.586   3.185  1.00  0.00     0.163 HD
BRANCH  11  14
ATOM     14  C   UNL     1       1.388  -3.530   0.939  1.00  0.00     0.063 A 
ATOM     15  C   UNL     1       0.889  -3.580  -0.378  1.00  0.00     0.051 A 
ATOM     16  C   UNL     1       1.289  -4.665  -1.201  1.00  0.00    -0.038 A 
ATOM     17  C   UNL     1       2.204  -5.628  -0.778  1.00  0.00    -0.060 A 
ATOM     18  H   UNL     1       0.888  -4.744  -2.148  1.00  0.00     0.064 H 
ATOM     19  C   UNL     1       2.332  -4.509   1.341  1.00  0.00    -0.047 A 
ATOM     20  C   UNL     1       2.745  -5.537   0.493  1.00  0.00    -0.061 A 
ATOM     21  H   UNL     1       2.476  -6.400  -1.406  1.00  0.00     0.062 H 
ATOM     22  H   UNL     1       2.726  -4.460   2.294  1.00  0.00     0.063 H 
ATOM     23  H   UNL     1       3.447  -6.224   0.810  1.00  0.00     0.062 H 
BRANCH  15  24
ATOM     24  N   UNL     1       0.129  -2.600  -1.050  1.00  0.00    -0.355 N 
ATOM     25  H   UNL     1      -0.591  -2.986  -1.600  1.00  0.00     0.167 HD
BRANCH  24  26
ATOM     26  C   UNL     1       0.167  -1.192  -1.109  1.00  0.00     0.042 A 
ATOM     27  C   UNL     1       1.068   1.014  -0.591  1.00  0.00    -0.046 A 
ATOM     28  C   UNL     1      -0.161   1.598  -0.931  1.00  0.00    -0.059 A 
ATOM     29  C   UNL     1       1.262  -0.384  -0.745  1.00  0.00    -0.025 A 
ATOM     30  C   UNL     1      -1.202   0.816  -1.408  1.00  0.00    -0.060 A 
ATOM     31  H   UNL     1      -0.292   2.616  -0.826  1.00  0.00     0.063 H 
ATOM     32  C   UNL     1      -1.039  -0.563  -1.484  1.00  0.00    -0.038 A 
ATOM     33  H   UNL     1      -2.089   1.253  -1.703  1.00  0.00     0.062 H 
ATOM     34  H   UNL     1      -1.823  -1.142  -1.824  1.00  0.00     0.064 H 
BRANCH  27  35
ATOM     35  C   UNL     1       2.170   1.909  -0.087  1.00  0.00    -0.039 C 
ATOM     36  H   UNL     1       1.819   2.918  -0.045  1.00  0.00     0.028 H 
ATOM     37  H   UNL     1       3.008   1.849  -0.749  1.00  0.00     0.028 H 
ATOM     38  H   UNL     1       2.466   1.593   0.892  1.00  0.00     0.028 H 
ENDBRANCH  27  35
BRANCH  29  39
ATOM     39  C   UNL     1       2.652  -0.944  -0.577  1.00  0.00    -0.037 C 
ATOM     40  H   UNL     1       3.323  -0.158  -0.300  1.00  0.00     0.028 H 
ATOM     41  H   UNL     1       2.975  -1.381  -1.499  1.00  0.00     0.028 H 
ATOM     42  H   UNL     1       2.644  -1.692   0.189  1.00  0.00     0.028 H 
ENDBRANCH  29  39
ENDBRANCH  24  26
ENDBRANCH  15  24
ENDBRANCH  11  14
ENDBRANCH   7  10
ENDBRANCH   4   7
ENDBRANCH   1   4
BRANCH   1  43
ATOM     43  C   UNL     1      -3.062   0.397   2.212  1.00  0.00    -0.052 C 
ATOM     44  H   UNL     1      -2.066   0.632   1.900  1.00  0.00     0.027 H 
ATOM     45  H   UNL     1      -3.550   1.161   2.781  1.00  0.00     0.027 H 
BRANCH  43  46
ATOM     46  C   UNL     1      -3.914   0.235   0.952  1.00  0.00    -0.036 C 
ATOM     47  H   UNL     1      -3.455  -0.516   0.344  1.00  0.00     0.028 H 
ATOM     48  H   UNL     1      -3.949   1.207   0.506  1.00  0.00     0.028 H 
BRANCH  46  49
ATOM     49  C   UNL     1      -5.368  -0.165   1.164  1.00  0.00     0.018 C 
ATOM     50  H   UNL     1      -5.393  -1.057   1.755  1.00  0.00     0.049 H 
ATOM     51  H   UNL     1      -5.802  -0.312   0.198  1.00  0.00     0.049 H 
BRANCH  49  52
ATOM     52  N   UNL     1      -6.149   0.857   1.838  1.00  0.00    -0.352 N 
ATOM     53  C   UNL     1      -7.304   1.492   1.450  1.00  0.00     0.251 C 
ATOM     54  H   UNL     1      -5.795   1.140   2.712  1.00  0.00     0.163 HD
ATOM     55  O   UNL     1      -7.735   2.430   2.114  1.00  0.00    -0.269 OA
BRANCH  53  56
ATOM     56  C   UNL     1      -8.029   1.079   0.224  1.00  0.00     0.039 A 
ATOM     57  C   UNL     1      -8.571   2.071  -0.602  1.00  0.00    -0.049 A 
ATOM     58  C   UNL     1      -8.218  -0.266  -0.100  1.00  0.00    -0.049 A 
ATOM     59  C   UNL     1      -9.245   1.718  -1.776  1.00  0.00    -0.053 A 
ATOM     60  H   UNL     1      -8.473   3.066  -0.344  1.00  0.00     0.063 H 
ATOM     61  C   UNL     1      -8.822  -0.616  -1.307  1.00  0.00    -0.053 A 
ATOM     62  H   UNL     1      -7.911  -1.002   0.555  1.00  0.00     0.063 H 
ATOM     63  C   UNL     1      -9.349   0.372  -2.155  1.00  0.00    -0.014 A 
ATOM     64  H   UNL     1      -9.667   2.452  -2.367  1.00  0.00     0.063 H 
ATOM     65  H   UNL     1      -8.881  -1.609  -1.581  1.00  0.00     0.063 H 
BRANCH  63  66
ATOM     66  C   UNL     1     -10.025  -0.036  -3.414  1.00  0.00     0.031 A 
ATOM     67  C   UNL     1     -11.263  -0.889  -3.358  1.00  0.00     0.074 A 
ATOM     68  C   UNL     1      -9.482   0.281  -4.605  1.00  0.00     0.049 A 
ATOM     69  N   UNL     1     -11.921  -1.465  -4.333  1.00  0.00    -0.248 NA
ATOM     70  C   UNL     1     -11.816  -1.158  -2.022  1.00  0.00    -0.034 C 
ATOM     71  C   UNL     1      -8.264   1.069  -4.796  1.00  0.00    -0.036 A 
ATOM     72  N   UNL     1      -9.875  -0.039  -5.882  1.00  0.00    -0.354 N 
ATOM     73  C   UNL     1     -12.939  -2.188  -3.726  1.00  0.00     0.074 A 
ATOM     74  C   UNL     1     -12.789  -2.013  -2.297  1.00  0.00    -0.034 C 
ATOM     75  H   UNL     1     -11.522  -0.779  -1.108  1.00  0.00     0.065 H 
ATOM     76  C   UNL     1      -8.012   1.176  -6.111  1.00  0.00    -0.036 A 
ATOM     77  H   UNL     1      -7.691   1.476  -4.042  1.00  0.00     0.065 H 
ATOM     78  C   UNL     1      -9.026   0.433  -6.854  1.00  0.00     0.049 A 
ATOM     79  H   UNL     1     -10.687  -0.559  -6.082  1.00  0.00     0.167 HD
ATOM     80  C   UNL     1     -13.921  -2.918  -4.307  1.00  0.00     0.037 A 
ATOM     81  H   UNL     1     -13.364  -2.492  -1.587  1.00  0.00     0.065 H 
ATOM     82  H   UNL     1      -7.227   1.700  -6.529  1.00  0.00     0.065 H 
ATOM     83  C   UNL     1      -9.053   0.272  -8.191  1.00  0.00     0.037 A 
ATOM     84  C   UNL     1     -14.096  -3.051  -5.729  1.00  0.00     0.049 A 
ATOM     85  C   UNL     1     -10.164  -0.527  -8.816  1.00  0.00     0.074 A 
ATOM     86  C   UNL     1     -15.107  -3.699  -6.418  1.00  0.00    -0.036 A 
ATOM     87  N   UNL     1     -13.238  -2.523  -6.682  1.00  0.00    -0.354 N 
ATOM     88  N   UNL     1     -11.156  -1.157  -8.236  1.00  0.00    -0.248 NA
ATOM     89  C   UNL     1     -10.161  -0.637 -10.282  1.00  0.00    -0.034 C 
ATOM     90  C   UNL     1     -14.837  -3.599  -7.787  1.00  0.00    -0.036 A 
ATOM     91  H   UNL     1     -15.920  -4.173  -5.994  1.00  0.00     0.065 H 
ATOM     92  C   UNL     1     -13.684  -2.849  -7.953  1.00  0.00     0.049 A 
ATOM     93  H   UNL     1     -12.431  -1.994  -6.485  1.00  0.00     0.167 HD
ATOM     94  C   UNL     1     -11.909  -1.712  -9.261  1.00  0.00     0.074 A 
ATOM     95  C   UNL     1     -11.263  -1.340 -10.502  1.00  0.00    -0.034 C 
ATOM     96  H   UNL     1      -9.479  -0.264 -10.961  1.00  0.00     0.065 H 
ATOM     97  H   UNL     1     -15.402  -4.014  -8.544  1.00  0.00     0.065 H 
ATOM     98  C   UNL     1     -13.035  -2.462  -9.179  1.00  0.00     0.037 A 
ATOM     99  H   UNL     1     -11.616  -1.591 -11.440  1.00  0.00     0.065 H 
BRANCH  80 100
ATOM    100  C   UNL     1     -14.883  -3.634  -3.404  1.00  0.00     0.064 A 
ATOM    101  C   UNL     1     -15.828  -2.941  -2.632  1.00  0.00     0.173 A 
ATOM    102  C   UNL     1     -14.877  -5.035  -3.329  1.00  0.00     0.173 A 
ATOM    103  F   UNL     1     -15.869  -1.601  -2.660  1.00  0.00    -0.203 F 
ATOM    104  C   UNL     1     -16.707  -3.622  -1.793  1.00  0.00     0.198 A 
ATOM    105  C   UNL     1     -15.778  -5.715  -2.513  1.00  0.00     0.198 A 
ATOM    106  F   UNL     1     -13.999  -5.748  -4.051  1.00  0.00    -0.203 F 
ATOM    107  F   UNL     1     -17.563  -2.935  -1.024  1.00  0.00    -0.200 F 
ATOM    108  C   UNL     1     -16.685  -5.007  -1.738  1.00  0.00     0.200 A 
ATOM    109  F   UNL     1     -15.764  -7.054  -2.471  1.00  0.00    -0.200 F 
ATOM    110  F   UNL     1     -17.533  -5.661  -0.933  1.00  0.00    -0.200 F 
ENDBRANCH  80 100
BRANCH  83 111
ATOM    111  C   UNL     1      -7.998   0.900  -9.028  1.00  0.00     0.064 A 
ATOM    112  C   UNL     1      -8.290   2.001  -9.845  1.00  0.00     0.173 A 
ATOM    113  C   UNL     1      -6.679   0.426  -9.017  1.00  0.00     0.173 A 
ATOM    114  F   UNL     1      -9.542   2.476  -9.905  1.00  0.00    -0.203 F 
ATOM    115  C   UNL     1      -7.303   2.597 -10.627  1.00  0.00     0.198 A 
ATOM    116  C   UNL     1      -5.687   1.039  -9.780  1.00  0.00     0.198 A 
ATOM    117  F   UNL     1      -6.348  -0.623  -8.248  1.00  0.00    -0.203 F 
ATOM    118  F   UNL     1      -7.616   3.627 -11.426  1.00  0.00    -0.200 F 
ATOM    119  C   UNL     1      -6.001   2.121 -10.589  1.00  0.00     0.200 A 
ATOM    120  F   UNL     1      -4.428   0.584  -9.729  1.00  0.00    -0.200 F 
ATOM    121  F   UNL     1      -5.051   2.701 -11.334  1.00  0.00    -0.200 F 
ENDBRANCH  83 111
BRANCH  98 122
ATOM    122  C   UNL     1     -13.668  -2.905 -10.466  1.00  0.00     0.064 A 
ATOM    123  C   UNL     1     -13.110  -3.929 -11.243  1.00  0.00     0.173 A 
ATOM    124  C   UNL     1     -14.882  -2.342 -10.888  1.00  0.00     0.173 A 
ATOM    125  F   UNL     1     -11.944  -4.488 -10.888  1.00  0.00    -0.203 F 
ATOM    126  C   UNL     1     -13.740  -4.366 -12.405  1.00  0.00     0.198 A 
ATOM    127  C   UNL     1     -15.521  -2.799 -12.036  1.00  0.00     0.198 A 
ATOM    128  F   UNL     1     -15.457  -1.363 -10.175  1.00  0.00    -0.203 F 
ATOM    129  F   UNL     1     -13.175  -5.325 -13.152  1.00  0.00    -0.200 F 
ATOM    130  C   UNL     1     -14.949  -3.808 -12.796  1.00  0.00     0.200 A 
ATOM    131  F   UNL     1     -16.695  -2.268 -12.404  1.00  0.00    -0.200 F 
ATOM    132  F   UNL     1     -15.561  -4.241 -13.906  1.00  0.00    -0.200 F 
ENDBRANCH  98 122
ENDBRANCH  63  66
ENDBRANCH  53  56
ENDBRANCH  49  52
ENDBRANCH  46  49
ENDBRANCH  43  46
ENDBRANCH   1  43
TORSDOF 17
