REMARK SMILES C=Cc1cncc(-c2ccc([C@@H](C)C(=O)NCCCCCCNC(=O)c3ccc(-c4c5nc(c(-c6c(F)c(F)c(F)c(F)c6F)c6ccc([nH]6)c(-c6c(F)c(F)c(F)c(F)c6F)c6nc(c(-c7c(F)c(F)c(F)c(F)c7F)c7ccc4[nH]7)C=C6)C=C5)cc3)cc2)c1
REMARK SMILES IDX 19 1 18 4 17 7 16 10 14 11 15 12 12 14 11 16 8 17 9 18 90 19
REMARK SMILES IDX 10 20 89 22 7 26 3 27 4 28 91 29 5 30 6 33 2 35 1 36 13 40
REMARK SMILES IDX 20 44 21 47 22 50 23 53 24 54 25 56 26 57 27 58 88 59 28 60
REMARK SMILES IDX 87 62 29 64 30 67 31 68 81 69 32 70 86 71 80 72 82 73 33 74
REMARK SMILES IDX 85 75 79 77 78 79 34 81 66 84 46 85 65 86 47 87 50 88 64 89
REMARK SMILES IDX 83 90 48 91 49 93 63 95 84 96 51 99 35 101 36 102 44 103
REMARK SMILES IDX 37 104 38 105 42 106 45 107 39 108 40 109 43 110 41 111
REMARK SMILES IDX 67 112 68 113 76 114 69 115 70 116 74 117 77 118 71 119
REMARK SMILES IDX 72 120 75 121 73 122 52 123 53 124 61 125 54 126 55 127
REMARK SMILES IDX 59 128 62 129 56 130 57 131 60 132 58 133
REMARK H PARENT 19 2 19 3 18 5 18 6 17 8 17 9 16 13 12 15 9 21 90 23 10 24
REMARK H PARENT 89 25 4 31 91 32 6 34 1 37 1 38 2 39 13 41 13 42 13 43 20 45
REMARK H PARENT 20 46 21 48 21 49 22 51 22 52 23 55 27 61 88 63 28 65 87 66
REMARK H PARENT 86 76 80 78 82 80 85 82 79 83 47 92 50 94 83 97 48 98 84 100
REMARK Flexibility Score: inf
ROOT
ATOM      1  C   UNL     1      -6.721  -5.509  -0.456  1.00  0.00    -0.052 C 
ATOM      2  H   UNL     1      -6.439  -6.313   0.193  1.00  0.00     0.027 H 
ATOM      3  H   UNL     1      -6.014  -5.323  -1.236  1.00  0.00     0.027 H 
ENDROOT
BRANCH   1   4
ATOM      4  C   UNL     1      -6.784  -4.226   0.379  1.00  0.00    -0.036 C 
ATOM      5  H   UNL     1      -5.798  -4.007   0.735  1.00  0.00     0.028 H 
ATOM      6  H   UNL     1      -7.169  -3.458  -0.259  1.00  0.00     0.028 H 
BRANCH   4   7
ATOM      7  C   UNL     1      -7.723  -4.316   1.584  1.00  0.00     0.017 C 
ATOM      8  H   UNL     1      -8.111  -3.341   1.795  1.00  0.00     0.049 H 
ATOM      9  H   UNL     1      -8.511  -4.998   1.342  1.00  0.00     0.049 H 
BRANCH   7  10
ATOM     10  N   UNL     1      -7.040  -4.813   2.759  1.00  0.00    -0.356 N 
ATOM     11  C   UNL     1      -6.526  -4.175   3.845  1.00  0.00     0.227 C 
ATOM     12  O   UNL     1      -5.898  -4.877   4.647  1.00  0.00    -0.274 OA
ATOM     13  H   UNL     1      -6.925  -5.791   2.774  1.00  0.00     0.163 HD
BRANCH  11  14
ATOM     14  C   UNL     1      -6.706  -2.675   4.120  1.00  0.00     0.060 C 
ATOM     15  H   UNL     1      -6.321  -2.520   5.107  1.00  0.00     0.045 H 
BRANCH  14  16
ATOM     16  C   UNL     1      -5.820  -1.780   3.265  1.00  0.00    -0.036 A 
ATOM     17  C   UNL     1      -4.061  -0.169   1.683  1.00  0.00    -0.017 A 
ATOM     18  C   UNL     1      -5.347  -0.513   1.240  1.00  0.00    -0.054 A 
ATOM     19  C   UNL     1      -3.679  -0.641   2.948  1.00  0.00    -0.054 A 
ATOM     20  C   UNL     1      -6.220  -1.274   2.027  1.00  0.00    -0.058 A 
ATOM     21  H   UNL     1      -5.659  -0.197   0.308  1.00  0.00     0.063 H 
ATOM     22  C   UNL     1      -4.535  -1.446   3.716  1.00  0.00    -0.058 A 
ATOM     23  H   UNL     1      -2.750  -0.392   3.321  1.00  0.00     0.063 H 
ATOM     24  H   UNL     1      -7.175  -1.463   1.686  1.00  0.00     0.063 H 
ATOM     25  H   UNL     1      -4.212  -1.798   4.631  1.00  0.00     0.063 H 
BRANCH  17  26
ATOM     26  C   UNL     1      -3.168   0.663   0.848  1.00  0.00     0.001 A 
ATOM     27  C   UNL     1      -0.964   1.282  -0.006  1.00  0.00    -0.007 A 
ATOM     28  C   UNL     1      -1.593   2.264  -0.765  1.00  0.00     0.034 A 
ATOM     29  C   UNL     1      -1.775   0.481   0.809  1.00  0.00    -0.044 A 
ATOM     30  N   UNL     1      -2.925   2.484  -0.769  1.00  0.00    -0.263 NA
ATOM     31  H   UNL     1      -1.004   2.863  -1.363  1.00  0.00     0.085 H 
ATOM     32  H   UNL     1      -1.342  -0.254   1.390  1.00  0.00     0.064 H 
ATOM     33  C   UNL     1      -3.667   1.688   0.037  1.00  0.00     0.035 A 
ATOM     34  H   UNL     1      -4.686   1.851   0.056  1.00  0.00     0.085 H 
BRANCH  27  35
ATOM     35  C   UNL     1       0.497   1.166  -0.041  1.00  0.00    -0.061 C 
ATOM     36  C   UNL     1       1.159   0.003  -0.069  1.00  0.00    -0.098 C 
ATOM     37  H   UNL     1       2.190  -0.004  -0.093  1.00  0.00     0.054 H 
ATOM     38  H   UNL     1       0.637  -0.887  -0.068  1.00  0.00     0.054 H 
ATOM     39  H   UNL     1       1.051   2.037  -0.043  1.00  0.00     0.062 H 
ENDBRANCH  27  35
ENDBRANCH  17  26
ENDBRANCH  14  16
BRANCH  14  40
ATOM     40  C   UNL     1      -8.165  -2.236   4.254  1.00  0.00    -0.049 C 
ATOM     41  H   UNL     1      -8.659  -2.349   3.311  1.00  0.00     0.024 H 
ATOM     42  H   UNL     1      -8.203  -1.210   4.556  1.00  0.00     0.024 H 
ATOM     43  H   UNL     1      -8.654  -2.842   4.987  1.00  0.00     0.024 H 
ENDBRANCH  14  40
ENDBRANCH  11  14
ENDBRANCH   7  10
ENDBRANCH   4   7
ENDBRANCH   1   4
BRANCH   1  44
ATOM     44  C   UNL     1      -8.033  -5.898  -1.152  1.00  0.00    -0.052 C 
ATOM     45  H   UNL     1      -8.749  -6.138  -0.395  1.00  0.00     0.027 H 
ATOM     46  H   UNL     1      -7.791  -6.720  -1.794  1.00  0.00     0.027 H 
BRANCH  44  47
ATOM     47  C   UNL     1      -8.644  -4.824  -2.058  1.00  0.00    -0.036 C 
ATOM     48  H   UNL     1      -8.872  -3.970  -1.455  1.00  0.00     0.028 H 
ATOM     49  H   UNL     1      -9.509  -5.266  -2.507  1.00  0.00     0.028 H 
BRANCH  47  50
ATOM     50  C   UNL     1      -7.747  -4.369  -3.207  1.00  0.00     0.018 C 
ATOM     51  H   UNL     1      -6.828  -4.000  -2.803  1.00  0.00     0.049 H 
ATOM     52  H   UNL     1      -8.265  -3.605  -3.749  1.00  0.00     0.049 H 
BRANCH  50  53
ATOM     53  N   UNL     1      -7.453  -5.455  -4.131  1.00  0.00    -0.352 N 
ATOM     54  C   UNL     1      -7.806  -5.612  -5.448  1.00  0.00     0.251 C 
ATOM     55  H   UNL     1      -6.917  -6.189  -3.752  1.00  0.00     0.163 HD
ATOM     56  O   UNL     1      -7.665  -6.699  -5.999  1.00  0.00    -0.269 OA
BRANCH  54  57
ATOM     57  C   UNL     1      -8.376  -4.477  -6.204  1.00  0.00     0.039 A 
ATOM     58  C   UNL     1      -9.507  -4.691  -6.996  1.00  0.00    -0.049 A 
ATOM     59  C   UNL     1      -7.789  -3.210  -6.144  1.00  0.00    -0.049 A 
ATOM     60  C   UNL     1     -10.100  -3.616  -7.662  1.00  0.00    -0.053 A 
ATOM     61  H   UNL     1      -9.902  -5.640  -7.089  1.00  0.00     0.063 H 
ATOM     62  C   UNL     1      -8.415  -2.128  -6.759  1.00  0.00    -0.053 A 
ATOM     63  H   UNL     1      -6.896  -3.076  -5.645  1.00  0.00     0.063 H 
ATOM     64  C   UNL     1      -9.585  -2.318  -7.510  1.00  0.00    -0.014 A 
ATOM     65  H   UNL     1     -10.920  -3.776  -8.268  1.00  0.00     0.063 H 
ATOM     66  H   UNL     1      -8.016  -1.181  -6.662  1.00  0.00     0.063 H 
BRANCH  64  67
ATOM     67  C   UNL     1     -10.290  -1.141  -8.076  1.00  0.00     0.031 A 
ATOM     68  C   UNL     1      -9.654  -0.313  -9.155  1.00  0.00     0.074 A 
ATOM     69  C   UNL     1     -11.473  -0.772  -7.549  1.00  0.00     0.049 A 
ATOM     70  N   UNL     1     -10.080   0.797  -9.704  1.00  0.00    -0.248 NA
ATOM     71  C   UNL     1      -8.358  -0.780  -9.670  1.00  0.00    -0.034 C 
ATOM     72  C   UNL     1     -12.169  -1.470  -6.467  1.00  0.00    -0.036 A 
ATOM     73  N   UNL     1     -12.292   0.291  -7.838  1.00  0.00    -0.354 N 
ATOM     74  C   UNL     1      -9.104   1.164 -10.621  1.00  0.00     0.074 A 
ATOM     75  C   UNL     1      -8.043   0.184 -10.524  1.00  0.00    -0.034 C 
ATOM     76  H   UNL     1      -7.832  -1.635  -9.430  1.00  0.00     0.065 H 
ATOM     77  C   UNL     1     -13.313  -0.825  -6.191  1.00  0.00    -0.036 A 
ATOM     78  H   UNL     1     -11.833  -2.322  -5.992  1.00  0.00     0.065 H 
ATOM     79  C   UNL     1     -13.412   0.353  -7.046  1.00  0.00     0.049 A 
ATOM     80  H   UNL     1     -12.095   0.947  -8.546  1.00  0.00     0.167 HD
ATOM     81  C   UNL     1      -9.105   2.214 -11.477  1.00  0.00     0.037 A 
ATOM     82  H   UNL     1      -7.157   0.230 -11.050  1.00  0.00     0.065 H 
ATOM     83  H   UNL     1     -14.011  -1.116  -5.489  1.00  0.00     0.065 H 
ATOM     84  C   UNL     1     -14.400   1.267  -7.000  1.00  0.00     0.037 A 
ATOM     85  C   UNL     1     -10.170   3.178 -11.579  1.00  0.00     0.049 A 
ATOM     86  C   UNL     1     -14.361   2.438  -7.943  1.00  0.00     0.074 A 
ATOM     87  C   UNL     1     -10.296   4.235 -12.465  1.00  0.00    -0.036 A 
ATOM     88  N   UNL     1     -11.289   3.209 -10.761  1.00  0.00    -0.354 N 
ATOM     89  N   UNL     1     -13.470   2.733  -8.858  1.00  0.00    -0.248 NA
ATOM     90  C   UNL     1     -15.465   3.403  -7.846  1.00  0.00    -0.034 C 
ATOM     91  C   UNL     1     -11.464   4.935 -12.149  1.00  0.00    -0.036 A 
ATOM     92  H   UNL     1      -9.640   4.466 -13.228  1.00  0.00     0.065 H 
ATOM     93  C   UNL     1     -12.093   4.287 -11.098  1.00  0.00     0.049 A 
ATOM     94  H   UNL     1     -11.484   2.562 -10.045  1.00  0.00     0.167 HD
ATOM     95  C   UNL     1     -13.912   3.905  -9.456  1.00  0.00     0.074 A 
ATOM     96  C   UNL     1     -15.163   4.255  -8.815  1.00  0.00    -0.034 C 
ATOM     97  H   UNL     1     -16.265   3.415  -7.194  1.00  0.00     0.065 H 
ATOM     98  H   UNL     1     -11.801   5.790 -12.618  1.00  0.00     0.065 H 
ATOM     99  C   UNL     1     -13.331   4.628 -10.445  1.00  0.00     0.037 A 
ATOM    100  H   UNL     1     -15.745   5.065  -9.080  1.00  0.00     0.065 H 
BRANCH  81 101
ATOM    101  C   UNL     1      -7.915   2.379 -12.377  1.00  0.00     0.064 A 
ATOM    102  C   UNL     1      -7.674   1.501 -13.445  1.00  0.00     0.173 A 
ATOM    103  C   UNL     1      -7.034   3.458 -12.204  1.00  0.00     0.173 A 
ATOM    104  F   UNL     1      -8.482   0.450 -13.650  1.00  0.00    -0.203 F 
ATOM    105  C   UNL     1      -6.582   1.683 -14.290  1.00  0.00     0.198 A 
ATOM    106  C   UNL     1      -5.959   3.652 -13.067  1.00  0.00     0.198 A 
ATOM    107  F   UNL     1      -7.223   4.331 -11.203  1.00  0.00    -0.203 F 
ATOM    108  F   UNL     1      -6.349   0.808 -15.278  1.00  0.00    -0.200 F 
ATOM    109  C   UNL     1      -5.730   2.762 -14.105  1.00  0.00     0.200 A 
ATOM    110  F   UNL     1      -5.145   4.703 -12.896  1.00  0.00    -0.200 F 
ATOM    111  F   UNL     1      -4.686   2.941 -14.926  1.00  0.00    -0.200 F 
ENDBRANCH  81 101
BRANCH  84 112
ATOM    112  C   UNL     1     -15.513   1.108  -6.029  1.00  0.00     0.064 A 
ATOM    113  C   UNL     1     -16.809   0.799  -6.464  1.00  0.00     0.173 A 
ATOM    114  C   UNL     1     -15.306   1.260  -4.650  1.00  0.00     0.173 A 
ATOM    115  F   UNL     1     -17.060   0.665  -7.774  1.00  0.00    -0.203 F 
ATOM    116  C   UNL     1     -17.860   0.667  -5.559  1.00  0.00     0.198 A 
ATOM    117  C   UNL     1     -16.351   1.099  -3.743  1.00  0.00     0.198 A 
ATOM    118  F   UNL     1     -14.083   1.550  -4.182  1.00  0.00    -0.203 F 
ATOM    119  F   UNL     1     -19.098   0.415  -6.005  1.00  0.00    -0.200 F 
ATOM    120  C   UNL     1     -17.629   0.811  -4.199  1.00  0.00     0.200 A 
ATOM    121  F   UNL     1     -16.121   1.224  -2.429  1.00  0.00    -0.200 F 
ATOM    122  F   UNL     1     -18.639   0.678  -3.328  1.00  0.00    -0.200 F 
ENDBRANCH  84 112
BRANCH  99 123
ATOM    123  C   UNL     1     -14.049   5.865 -10.899  1.00  0.00     0.064 A 
ATOM    124  C   UNL     1     -14.102   7.016 -10.100  1.00  0.00     0.173 A 
ATOM    125  C   UNL     1     -14.662   5.912 -12.160  1.00  0.00     0.173 A 
ATOM    126  F   UNL     1     -13.547   7.016  -8.878  1.00  0.00    -0.203 F 
ATOM    127  C   UNL     1     -14.763   8.161 -10.537  1.00  0.00     0.198 A 
ATOM    128  C   UNL     1     -15.296   7.068 -12.606  1.00  0.00     0.198 A 
ATOM    129  F   UNL     1     -14.637   4.839 -12.965  1.00  0.00    -0.203 F 
ATOM    130  F   UNL     1     -14.842   9.233  -9.736  1.00  0.00    -0.200 F 
ATOM    131  C   UNL     1     -15.352   8.189 -11.792  1.00  0.00     0.200 A 
ATOM    132  F   UNL     1     -15.856   7.097 -13.824  1.00  0.00    -0.200 F 
ATOM    133  F   UNL     1     -15.983   9.294 -12.213  1.00  0.00    -0.200 F 
ENDBRANCH  99 123
ENDBRANCH  64  67
ENDBRANCH  54  57
ENDBRANCH  50  53
ENDBRANCH  47  50
ENDBRANCH  44  47
ENDBRANCH   1  44
TORSDOF 17
