REMARK SMILES O=C(NCCCCCCNC(=O)c1cccc(Nc2ccc([N+](=O)[O-])cc2)c1)c1ccc(-c2c3nc(c(-c4c(F)c(F)c(F)c(F)c4F)c4ccc([nH]4)c(-c4c(F)c(F)c(F)c(F)c4F)c4nc(c(-c5c(F)c(F)c(F)c(F)c5F)c5ccc2[nH]5)C=C4)C=C3)cc1
REMARK SMILES IDX 7 1 6 4 5 7 4 10 3 13 1 14 2 15 29 17 30 18 91 19 31 20
REMARK SMILES IDX 90 22 32 24 33 27 34 28 84 29 35 30 89 31 83 32 85 33 36 34
REMARK SMILES IDX 88 35 82 37 81 39 37 41 69 44 49 45 68 46 50 47 53 48 67 49
REMARK SMILES IDX 86 50 51 51 52 53 66 55 87 56 54 59 38 61 39 62 47 63 40 64
REMARK SMILES IDX 41 65 45 66 48 67 42 68 43 69 46 70 44 71 70 72 71 73 79 74
REMARK SMILES IDX 72 75 73 76 77 77 80 78 74 79 75 80 78 81 76 82 55 83 56 84
REMARK SMILES IDX 64 85 57 86 58 87 62 88 65 89 59 90 60 91 63 92 61 93 8 94
REMARK SMILES IDX 9 97 10 100 11 101 12 103 13 104 14 105 28 106 15 107 17 109
REMARK SMILES IDX 16 111 18 114 19 116 20 117 27 118 21 119 26 121 22 123
REMARK SMILES IDX 23 126 24 127 25 128
REMARK H PARENT 7 2 7 3 6 5 6 6 5 8 5 9 4 11 4 12 3 16 30 21 91 23 31 25 90 26
REMARK H PARENT 89 36 83 38 85 40 88 42 82 43 50 52 53 54 86 57 51 58 87 60
REMARK H PARENT 8 95 8 96 9 98 9 99 10 102 14 108 28 110 15 112 16 113 18 115
REMARK H PARENT 20 120 27 122 21 124 26 125
REMARK Flexibility Score: inf
ROOT
ATOM      1  C   UNL     1       4.732   1.394  -4.229  1.00  0.00    -0.052 C 
ATOM      2  H   UNL     1       4.317   2.030  -3.475  1.00  0.00     0.027 H 
ATOM      3  H   UNL     1       4.467   1.671  -5.228  1.00  0.00     0.027 H 
ENDROOT
BRANCH   1   4
ATOM      4  C   UNL     1       4.162  -0.012  -4.023  1.00  0.00    -0.052 C 
ATOM      5  H   UNL     1       3.095   0.066  -3.993  1.00  0.00     0.027 H 
ATOM      6  H   UNL     1       4.529  -0.600  -4.838  1.00  0.00     0.027 H 
BRANCH   4   7
ATOM      7  C   UNL     1       4.617  -0.727  -2.752  1.00  0.00    -0.036 C 
ATOM      8  H   UNL     1       4.090  -1.656  -2.687  1.00  0.00     0.028 H 
ATOM      9  H   UNL     1       5.677  -0.845  -2.839  1.00  0.00     0.028 H 
BRANCH   7  10
ATOM     10  C   UNL     1       4.380   0.041  -1.460  1.00  0.00     0.018 C 
ATOM     11  H   UNL     1       4.829  -0.501  -0.653  1.00  0.00     0.049 H 
ATOM     12  H   UNL     1       4.815   1.011  -1.579  1.00  0.00     0.049 H 
BRANCH  10  13
ATOM     13  N   UNL     1       2.970   0.230  -1.162  1.00  0.00    -0.352 N 
ATOM     14  O   UNL     1       1.064   0.052   0.039  1.00  0.00    -0.269 OA
ATOM     15  C   UNL     1       2.287  -0.040  -0.000  1.00  0.00     0.251 C 
ATOM     16  H   UNL     1       2.428   0.604  -1.895  1.00  0.00     0.163 HD
BRANCH  15  17
ATOM     17  C   UNL     1       3.033  -0.473   1.202  1.00  0.00     0.039 A 
ATOM     18  C   UNL     1       4.207   0.179   1.582  1.00  0.00    -0.049 A 
ATOM     19  C   UNL     1       2.552  -1.548   1.956  1.00  0.00    -0.049 A 
ATOM     20  C   UNL     1       4.976  -0.335   2.619  1.00  0.00    -0.053 A 
ATOM     21  H   UNL     1       4.503   1.040   1.095  1.00  0.00     0.063 H 
ATOM     22  C   UNL     1       3.281  -2.006   3.058  1.00  0.00    -0.053 A 
ATOM     23  H   UNL     1       1.662  -2.003   1.699  1.00  0.00     0.063 H 
ATOM     24  C   UNL     1       4.515  -1.422   3.380  1.00  0.00    -0.014 A 
ATOM     25  H   UNL     1       5.894   0.086   2.831  1.00  0.00     0.063 H 
ATOM     26  H   UNL     1       2.910  -2.776   3.636  1.00  0.00     0.063 H 
BRANCH  24  27
ATOM     27  C   UNL     1       5.318  -1.873   4.546  1.00  0.00     0.031 A 
ATOM     28  C   UNL     1       5.949  -3.236   4.585  1.00  0.00     0.074 A 
ATOM     29  C   UNL     1       5.514  -1.007   5.559  1.00  0.00     0.049 A 
ATOM     30  N   UNL     1       6.718  -3.761   5.506  1.00  0.00    -0.248 NA
ATOM     31  C   UNL     1       5.681  -4.130   3.449  1.00  0.00    -0.034 C 
ATOM     32  C   UNL     1       4.933   0.336   5.639  1.00  0.00    -0.036 A 
ATOM     33  N   UNL     1       6.268  -1.110   6.699  1.00  0.00    -0.354 N 
ATOM     34  C   UNL     1       7.021  -5.043   5.067  1.00  0.00     0.074 A 
ATOM     35  C   UNL     1       6.324  -5.232   3.812  1.00  0.00    -0.034 C 
ATOM     36  H   UNL     1       5.135  -3.949   2.592  1.00  0.00     0.065 H 
ATOM     37  C   UNL     1       5.391   0.949   6.740  1.00  0.00    -0.036 A 
ATOM     38  H   UNL     1       4.276   0.745   4.957  1.00  0.00     0.065 H 
ATOM     39  C   UNL     1       6.246   0.024   7.474  1.00  0.00     0.049 A 
ATOM     40  H   UNL     1       6.776  -1.918   6.939  1.00  0.00     0.167 HD
ATOM     41  C   UNL     1       7.817  -5.970   5.653  1.00  0.00     0.037 A 
ATOM     42  H   UNL     1       6.327  -6.111   3.270  1.00  0.00     0.065 H 
ATOM     43  H   UNL     1       5.173   1.918   7.021  1.00  0.00     0.065 H 
ATOM     44  C   UNL     1       6.837   0.288   8.653  1.00  0.00     0.037 A 
ATOM     45  C   UNL     1       8.509  -5.775   6.903  1.00  0.00     0.049 A 
ATOM     46  C   UNL     1       7.700  -0.766   9.285  1.00  0.00     0.074 A 
ATOM     47  C   UNL     1       9.342  -6.652   7.577  1.00  0.00    -0.036 A 
ATOM     48  N   UNL     1       8.447  -4.619   7.669  1.00  0.00    -0.354 N 
ATOM     49  N   UNL     1       7.997  -1.964   8.845  1.00  0.00    -0.248 NA
ATOM     50  C   UNL     1       8.311  -0.430  10.577  1.00  0.00    -0.034 C 
ATOM     51  C   UNL     1       9.754  -6.042   8.767  1.00  0.00    -0.036 A 
ATOM     52  H   UNL     1       9.614  -7.595   7.256  1.00  0.00     0.065 H 
ATOM     53  C   UNL     1       9.217  -4.767   8.813  1.00  0.00     0.049 A 
ATOM     54  H   UNL     1       7.933  -3.813   7.434  1.00  0.00     0.167 HD
ATOM     55  C   UNL     1       8.837  -2.521   9.797  1.00  0.00     0.074 A 
ATOM     56  C   UNL     1       9.028  -1.517  10.823  1.00  0.00    -0.034 C 
ATOM     57  H   UNL     1       8.209   0.426  11.143  1.00  0.00     0.065 H 
ATOM     58  H   UNL     1      10.355  -6.471   9.488  1.00  0.00     0.065 H 
ATOM     59  C   UNL     1       9.394  -3.756   9.825  1.00  0.00     0.037 A 
ATOM     60  H   UNL     1       9.644  -1.633  11.643  1.00  0.00     0.065 H 
BRANCH  41  61
ATOM     61  C   UNL     1       7.988  -7.288   4.953  1.00  0.00     0.064 A 
ATOM     62  C   UNL     1       8.746  -7.401   3.778  1.00  0.00     0.173 A 
ATOM     63  C   UNL     1       7.440  -8.462   5.494  1.00  0.00     0.173 A 
ATOM     64  F   UNL     1       9.283  -6.309   3.214  1.00  0.00    -0.203 F 
ATOM     65  C   UNL     1       8.935  -8.636   3.162  1.00  0.00     0.198 A 
ATOM     66  C   UNL     1       7.652  -9.699   4.889  1.00  0.00     0.198 A 
ATOM     67  F   UNL     1       6.712  -8.412   6.620  1.00  0.00    -0.203 F 
ATOM     68  F   UNL     1       9.633  -8.714   2.021  1.00  0.00    -0.200 F 
ATOM     69  C   UNL     1       8.395  -9.784   3.722  1.00  0.00     0.200 A 
ATOM     70  F   UNL     1       7.141 -10.809   5.439  1.00  0.00    -0.200 F 
ATOM     71  F   UNL     1       8.588 -10.973   3.134  1.00  0.00    -0.200 F 
ENDBRANCH  41  61
BRANCH  44  72
ATOM     72  C   UNL     1       6.619   1.602   9.311  1.00  0.00     0.064 A 
ATOM     73  C   UNL     1       7.663   2.526   9.450  1.00  0.00     0.173 A 
ATOM     74  C   UNL     1       5.358   1.960   9.812  1.00  0.00     0.173 A 
ATOM     75  F   UNL     1       8.890   2.223   9.002  1.00  0.00    -0.203 F 
ATOM     76  C   UNL     1       7.459   3.749  10.084  1.00  0.00     0.198 A 
ATOM     77  C   UNL     1       5.148   3.196  10.416  1.00  0.00     0.198 A 
ATOM     78  F   UNL     1       4.324   1.113   9.697  1.00  0.00    -0.203 F 
ATOM     79  F   UNL     1       8.485   4.595  10.247  1.00  0.00    -0.200 F 
ATOM     80  C   UNL     1       6.201   4.086  10.561  1.00  0.00     0.200 A 
ATOM     81  F   UNL     1       3.926   3.525  10.857  1.00  0.00    -0.200 F 
ATOM     82  F   UNL     1       6.004   5.266  11.165  1.00  0.00    -0.200 F 
ENDBRANCH  44  72
BRANCH  59  83
ATOM     83  C   UNL     1      10.278  -4.074  10.994  1.00  0.00     0.064 A 
ATOM     84  C   UNL     1       9.751  -4.276  12.279  1.00  0.00     0.173 A 
ATOM     85  C   UNL     1      11.666  -4.185  10.827  1.00  0.00     0.173 A 
ATOM     86  F   UNL     1       8.432  -4.163  12.493  1.00  0.00    -0.203 F 
ATOM     87  C   UNL     1      10.586  -4.544  13.360  1.00  0.00     0.198 A 
ATOM     88  C   UNL     1      12.495  -4.483  11.905  1.00  0.00     0.198 A 
ATOM     89  F   UNL     1      12.218  -4.006   9.618  1.00  0.00    -0.203 F 
ATOM     90  F   UNL     1      10.068  -4.675  14.588  1.00  0.00    -0.200 F 
ATOM     91  C   UNL     1      11.956  -4.652  13.171  1.00  0.00     0.200 A 
ATOM     92  F   UNL     1      13.818  -4.597  11.719  1.00  0.00    -0.200 F 
ATOM     93  F   UNL     1      12.759  -4.908  14.213  1.00  0.00    -0.200 F 
ENDBRANCH  59  83
ENDBRANCH  24  27
ENDBRANCH  15  17
ENDBRANCH  10  13
ENDBRANCH   7  10
ENDBRANCH   4   7
ENDBRANCH   1   4
BRANCH   1  94
ATOM     94  C   UNL     1       6.258   1.513  -4.156  1.00  0.00    -0.036 C 
ATOM     95  H   UNL     1       6.559   1.298  -3.151  1.00  0.00     0.028 H 
ATOM     96  H   UNL     1       6.493   2.508  -4.470  1.00  0.00     0.028 H 
BRANCH  94  97
ATOM     97  C   UNL     1       7.031   0.582  -5.088  1.00  0.00     0.018 C 
ATOM     98  H   UNL     1       6.791  -0.431  -4.842  1.00  0.00     0.049 H 
ATOM     99  H   UNL     1       8.075   0.774  -4.958  1.00  0.00     0.049 H 
BRANCH  97 100
ATOM    100  N   UNL     1       6.702   0.817  -6.482  1.00  0.00    -0.352 N 
ATOM    101  C   UNL     1       7.531   1.125  -7.528  1.00  0.00     0.251 C 
ATOM    102  H   UNL     1       5.746   0.744  -6.708  1.00  0.00     0.163 HD
ATOM    103  O   UNL     1       7.062   1.480  -8.605  1.00  0.00    -0.269 OA
BRANCH 101 104
ATOM    104  C   UNL     1       8.995   1.036  -7.360  1.00  0.00     0.041 A 
ATOM    105  C   UNL     1       9.780   2.118  -7.758  1.00  0.00    -0.049 A 
ATOM    106  C   UNL     1       9.588  -0.132  -6.863  1.00  0.00    -0.026 A 
ATOM    107  C   UNL     1      11.161   2.046  -7.614  1.00  0.00    -0.059 A 
ATOM    108  H   UNL     1       9.341   2.963  -8.155  1.00  0.00     0.063 H 
ATOM    109  C   UNL     1      10.977  -0.219  -6.717  1.00  0.00     0.039 A 
ATOM    110  H   UNL     1       8.996  -0.935  -6.602  1.00  0.00     0.065 H 
ATOM    111  C   UNL     1      11.749   0.891  -7.088  1.00  0.00    -0.039 A 
ATOM    112  H   UNL     1      11.752   2.845  -7.894  1.00  0.00     0.062 H 
ATOM    113  H   UNL     1      12.774   0.856  -6.970  1.00  0.00     0.064 H 
BRANCH 109 114
ATOM    114  N   UNL     1      11.533  -1.396  -6.181  1.00  0.00    -0.356 N 
ATOM    115  H   UNL     1      10.902  -2.144  -6.078  1.00  0.00     0.167 HD
BRANCH 114 116
ATOM    116  C   UNL     1      12.849  -1.667  -5.770  1.00  0.00     0.039 A 
ATOM    117  C   UNL     1      13.480  -2.827  -6.239  1.00  0.00    -0.032 A 
ATOM    118  C   UNL     1      13.590  -0.765  -4.996  1.00  0.00    -0.032 A 
ATOM    119  C   UNL     1      14.832  -3.062  -5.977  1.00  0.00     0.018 A 
ATOM    120  H   UNL     1      12.940  -3.515  -6.786  1.00  0.00     0.065 H 
ATOM    121  C   UNL     1      14.941  -0.995  -4.720  1.00  0.00     0.018 A 
ATOM    122  H   UNL     1      13.132   0.081  -4.624  1.00  0.00     0.065 H 
ATOM    123  C   UNL     1      15.565  -2.135  -5.231  1.00  0.00     0.269 A 
ATOM    124  H   UNL     1      15.288  -3.916  -6.334  1.00  0.00     0.070 H 
ATOM    125  H   UNL     1      15.474  -0.326  -4.143  1.00  0.00     0.070 H 
BRANCH 123 126
ATOM    126  N   UNL     1      16.978  -2.340  -5.016  1.00  0.00     0.062 N 
ATOM    127  O   UNL     1      17.541  -3.323  -5.451  1.00  0.00    -0.258 OA
ATOM    128  O   UNL     1      17.736  -1.407  -4.348  1.00  0.00    -0.258 OA
ENDBRANCH 123 126
ENDBRANCH 114 116
ENDBRANCH 109 114
ENDBRANCH 101 104
ENDBRANCH  97 100
ENDBRANCH  94  97
ENDBRANCH   1  94
TORSDOF 16
