REMARK SMILES C[C@H](C(=O)NCCCCCCNC(=O)c1ccc(-c2c3nc(c(-c4c(F)c(F)c(F)c(F)c4F)c4ccc([nH]4)c(-c4c(F)c(F)c(F)c(F)c4F)c4nc(c(-c5c(F)c(F)c(F)c(F)c5F)c5ccc2[nH]5)C=C4)C=C3)cc1)c1ccc2c(c1)OCCO2
REMARK SMILES IDX 9 1 8 4 7 7 6 10 5 13 3 14 4 15 2 17 1 19 78 23 79 24 83 25
REMARK SMILES IDX 80 26 82 28 81 30 84 32 87 33 85 34 86 35 10 40 11 43 12 46
REMARK SMILES IDX 13 47 14 49 15 50 16 51 77 52 17 53 76 55 18 57 19 60 20 61
REMARK SMILES IDX 70 62 21 63 75 64 69 65 71 66 22 67 74 68 68 70 67 72 23 74
REMARK SMILES IDX 55 77 35 78 54 79 36 80 39 81 53 82 72 83 37 84 38 86 52 88
REMARK SMILES IDX 73 89 40 92 24 94 25 95 33 96 26 97 27 98 31 99 34 100
REMARK SMILES IDX 28 101 29 102 32 103 30 104 56 105 57 106 65 107 58 108
REMARK SMILES IDX 59 109 63 110 66 111 60 112 61 113 64 114 62 115 41 116
REMARK SMILES IDX 42 117 50 118 43 119 44 120 48 121 51 122 45 123 46 124
REMARK SMILES IDX 49 125 47 126
REMARK H PARENT 9 2 9 3 8 5 8 6 7 8 7 9 6 11 6 12 5 16 2 18 1 20 1 21 1 22
REMARK H PARENT 79 27 83 29 80 31 85 36 85 37 86 38 86 39 10 41 10 42 11 44
REMARK H PARENT 11 45 12 48 16 54 77 56 17 58 76 59 75 69 69 71 71 73 74 75
REMARK H PARENT 68 76 36 85 39 87 72 90 37 91 73 93
REMARK Flexibility Score: inf
ROOT
ATOM      1  C   UNL     1       0.039  -4.549  -1.413  1.00  0.00    -0.052 C 
ATOM      2  H   UNL     1       0.088  -4.129  -0.430  1.00  0.00     0.027 H 
ATOM      3  H   UNL     1       0.627  -5.432  -1.552  1.00  0.00     0.027 H 
ENDROOT
BRANCH   1   4
ATOM      4  C   UNL     1       0.623  -3.520  -2.386  1.00  0.00    -0.052 C 
ATOM      5  H   UNL     1       1.633  -3.329  -2.088  1.00  0.00     0.027 H 
ATOM      6  H   UNL     1       0.517  -3.961  -3.356  1.00  0.00     0.027 H 
BRANCH   4   7
ATOM      7  C   UNL     1      -0.094  -2.170  -2.479  1.00  0.00    -0.036 C 
ATOM      8  H   UNL     1       0.417  -1.580  -3.211  1.00  0.00     0.028 H 
ATOM      9  H   UNL     1      -1.108  -2.406  -2.727  1.00  0.00     0.028 H 
BRANCH   7  10
ATOM     10  C   UNL     1      -0.175  -1.348  -1.194  1.00  0.00     0.017 C 
ATOM     11  H   UNL     1      -0.684  -0.434  -1.417  1.00  0.00     0.049 H 
ATOM     12  H   UNL     1      -0.689  -1.958  -0.481  1.00  0.00     0.049 H 
BRANCH  10  13
ATOM     13  N   UNL     1       1.107  -1.015  -0.595  1.00  0.00    -0.356 N 
ATOM     14  C   UNL     1       1.471   0.035   0.206  1.00  0.00     0.227 C 
ATOM     15  O   UNL     1       2.551  -0.078   0.799  1.00  0.00    -0.274 OA
ATOM     16  H   UNL     1       1.833  -1.649  -0.798  1.00  0.00     0.163 HD
BRANCH  14  17
ATOM     17  C   UNL     1       0.681   1.360   0.304  1.00  0.00     0.060 C 
ATOM     18  H   UNL     1       0.971   1.885   1.191  1.00  0.00     0.045 H 
BRANCH  17  19
ATOM     19  C   UNL     1       1.046   2.165  -0.952  1.00  0.00    -0.049 C 
ATOM     20  H   UNL     1       0.526   3.100  -0.940  1.00  0.00     0.024 H 
ATOM     21  H   UNL     1       0.765   1.612  -1.824  1.00  0.00     0.024 H 
ATOM     22  H   UNL     1       2.101   2.344  -0.967  1.00  0.00     0.024 H 
ENDBRANCH  17  19
BRANCH  17  23
ATOM     23  C   UNL     1      -0.817   1.220   0.555  1.00  0.00    -0.032 A 
ATOM     24  C   UNL     1      -1.759   2.067  -0.061  1.00  0.00    -0.054 A 
ATOM     25  C   UNL     1      -1.288   0.131   1.302  1.00  0.00    -0.012 A 
ATOM     26  C   UNL     1      -3.096   1.685  -0.162  1.00  0.00    -0.016 A 
ATOM     27  H   UNL     1      -1.456   2.977  -0.442  1.00  0.00     0.063 H 
ATOM     28  C   UNL     1      -2.583  -0.321   1.085  1.00  0.00     0.161 A 
ATOM     29  H   UNL     1      -0.682  -0.327   2.001  1.00  0.00     0.067 H 
ATOM     30  C   UNL     1      -3.465   0.436   0.313  1.00  0.00     0.161 A 
ATOM     31  H   UNL     1      -3.796   2.318  -0.580  1.00  0.00     0.066 H 
ATOM     32  O   UNL     1      -2.847  -1.603   1.488  1.00  0.00    -0.486 OA
ATOM     33  O   UNL     1      -4.645  -0.099  -0.140  1.00  0.00    -0.486 OA
ATOM     34  C   UNL     1      -3.916  -2.224   0.761  1.00  0.00     0.122 C 
ATOM     35  C   UNL     1      -4.358  -1.461  -0.482  1.00  0.00     0.122 C 
ATOM     36  H   UNL     1      -4.758  -2.314   1.416  1.00  0.00     0.074 H 
ATOM     37  H   UNL     1      -3.549  -3.171   0.425  1.00  0.00     0.074 H 
ATOM     38  H   UNL     1      -5.236  -1.918  -0.887  1.00  0.00     0.074 H 
ATOM     39  H   UNL     1      -3.572  -1.484  -1.209  1.00  0.00     0.074 H 
ENDBRANCH  17  23
ENDBRANCH  14  17
ENDBRANCH  10  13
ENDBRANCH   7  10
ENDBRANCH   4   7
ENDBRANCH   1   4
BRANCH   1  40
ATOM     40  C   UNL     1      -1.408  -4.986  -1.660  1.00  0.00    -0.036 C 
ATOM     41  H   UNL     1      -2.038  -4.141  -1.475  1.00  0.00     0.028 H 
ATOM     42  H   UNL     1      -1.567  -5.815  -1.003  1.00  0.00     0.028 H 
BRANCH  40  43
ATOM     43  C   UNL     1      -1.737  -5.512  -3.057  1.00  0.00     0.018 C 
ATOM     44  H   UNL     1      -1.560  -4.728  -3.764  1.00  0.00     0.049 H 
ATOM     45  H   UNL     1      -2.761  -5.823  -3.042  1.00  0.00     0.049 H 
BRANCH  43  46
ATOM     46  N   UNL     1      -0.947  -6.668  -3.446  1.00  0.00    -0.352 N 
ATOM     47  C   UNL     1      -1.320  -7.859  -4.015  1.00  0.00     0.251 C 
ATOM     48  H   UNL     1       0.018  -6.582  -3.271  1.00  0.00     0.163 HD
ATOM     49  O   UNL     1      -0.469  -8.740  -4.171  1.00  0.00    -0.269 OA
BRANCH  47  50
ATOM     50  C   UNL     1      -2.720  -8.136  -4.418  1.00  0.00     0.039 A 
ATOM     51  C   UNL     1      -3.224  -9.425  -4.211  1.00  0.00    -0.049 A 
ATOM     52  C   UNL     1      -3.530  -7.177  -5.033  1.00  0.00    -0.049 A 
ATOM     53  C   UNL     1      -4.543  -9.732  -4.559  1.00  0.00    -0.053 A 
ATOM     54  H   UNL     1      -2.619 -10.153  -3.800  1.00  0.00     0.063 H 
ATOM     55  C   UNL     1      -4.869  -7.463  -5.317  1.00  0.00    -0.053 A 
ATOM     56  H   UNL     1      -3.138  -6.254  -5.279  1.00  0.00     0.063 H 
ATOM     57  C   UNL     1      -5.393  -8.743  -5.081  1.00  0.00    -0.014 A 
ATOM     58  H   UNL     1      -4.895 -10.694  -4.432  1.00  0.00     0.063 H 
ATOM     59  H   UNL     1      -5.479  -6.725  -5.703  1.00  0.00     0.063 H 
BRANCH  57  60
ATOM     60  C   UNL     1      -6.825  -9.046  -5.354  1.00  0.00     0.031 A 
ATOM     61  C   UNL     1      -7.373  -9.007  -6.755  1.00  0.00     0.074 A 
ATOM     62  C   UNL     1      -7.646  -9.337  -4.325  1.00  0.00     0.049 A 
ATOM     63  N   UNL     1      -8.593  -9.246  -7.174  1.00  0.00    -0.248 NA
ATOM     64  C   UNL     1      -6.438  -8.631  -7.825  1.00  0.00    -0.034 C 
ATOM     65  C   UNL     1      -7.256  -9.353  -2.914  1.00  0.00    -0.036 A 
ATOM     66  N   UNL     1      -8.978  -9.672  -4.304  1.00  0.00    -0.354 N 
ATOM     67  C   UNL     1      -8.567  -9.058  -8.550  1.00  0.00     0.074 A 
ATOM     68  C   UNL     1      -7.229  -8.622  -8.889  1.00  0.00    -0.034 C 
ATOM     69  H   UNL     1      -5.428  -8.428  -7.765  1.00  0.00     0.065 H 
ATOM     70  C   UNL     1      -8.316  -9.704  -2.169  1.00  0.00    -0.036 A 
ATOM     71  H   UNL     1      -6.316  -9.131  -2.551  1.00  0.00     0.065 H 
ATOM     72  C   UNL     1      -9.468  -9.906  -3.042  1.00  0.00     0.049 A 
ATOM     73  H   UNL     1      -9.530  -9.738  -5.117  1.00  0.00     0.167 HD
ATOM     74  C   UNL     1      -9.558  -9.259  -9.453  1.00  0.00     0.037 A 
ATOM     75  H   UNL     1      -6.930  -8.340  -9.836  1.00  0.00     0.065 H 
ATOM     76  H   UNL     1      -8.315  -9.814  -1.142  1.00  0.00     0.065 H 
ATOM     77  C   UNL     1     -10.705 -10.244  -2.631  1.00  0.00     0.037 A 
ATOM     78  C   UNL     1     -10.890  -9.698  -9.119  1.00  0.00     0.049 A 
ATOM     79  C   UNL     1     -11.789 -10.455  -3.654  1.00  0.00     0.074 A 
ATOM     80  C   UNL     1     -11.953  -9.956  -9.968  1.00  0.00    -0.036 A 
ATOM     81  N   UNL     1     -11.342  -9.942  -7.831  1.00  0.00    -0.354 N 
ATOM     82  N   UNL     1     -11.730 -10.337  -4.958  1.00  0.00    -0.248 NA
ATOM     83  C   UNL     1     -13.107 -10.861  -3.148  1.00  0.00    -0.034 C 
ATOM     84  C   UNL     1     -13.060 -10.315  -9.191  1.00  0.00    -0.036 A 
ATOM     85  H   UNL     1     -11.933  -9.894 -10.998  1.00  0.00     0.065 H 
ATOM     86  C   UNL     1     -12.673 -10.333  -7.861  1.00  0.00     0.049 A 
ATOM     87  H   UNL     1     -10.799  -9.851  -7.015  1.00  0.00     0.167 HD
ATOM     88  C   UNL     1     -12.992 -10.675  -5.429  1.00  0.00     0.074 A 
ATOM     89  C   UNL     1     -13.787 -11.031  -4.272  1.00  0.00    -0.034 C 
ATOM     90  H   UNL     1     -13.421 -10.982  -2.172  1.00  0.00     0.065 H 
ATOM     91  H   UNL     1     -14.004 -10.530  -9.547  1.00  0.00     0.065 H 
ATOM     92  C   UNL     1     -13.454 -10.684  -6.703  1.00  0.00     0.037 A 
ATOM     93  H   UNL     1     -14.759 -11.374  -4.318  1.00  0.00     0.065 H 
BRANCH  74  94
ATOM     94  C   UNL     1      -9.237  -9.025 -10.902  1.00  0.00     0.064 A 
ATOM     95  C   UNL     1      -8.384  -9.886 -11.609  1.00  0.00     0.173 A 
ATOM     96  C   UNL     1      -9.830  -7.967 -11.608  1.00  0.00     0.173 A 
ATOM     97  F   UNL     1      -7.784 -10.908 -10.980  1.00  0.00    -0.203 F 
ATOM     98  C   UNL     1      -8.117  -9.683 -12.961  1.00  0.00     0.198 A 
ATOM     99  C   UNL     1      -9.585  -7.785 -12.967  1.00  0.00     0.198 A 
ATOM    100  F   UNL     1     -10.659  -7.117 -10.983  1.00  0.00    -0.203 F 
ATOM    101  F   UNL     1      -7.265 -10.494 -13.603  1.00  0.00    -0.200 F 
ATOM    102  C   UNL     1      -8.724  -8.638 -13.641  1.00  0.00     0.200 A 
ATOM    103  F   UNL     1     -10.184  -6.783 -13.626  1.00  0.00    -0.200 F 
ATOM    104  F   UNL     1      -8.476  -8.451 -14.944  1.00  0.00    -0.200 F 
ENDBRANCH  74  94
BRANCH  77 105
ATOM    105  C   UNL     1     -10.988 -10.416  -1.181  1.00  0.00     0.064 A 
ATOM    106  C   UNL     1     -11.297 -11.675  -0.645  1.00  0.00     0.173 A 
ATOM    107  C   UNL     1     -10.979  -9.321  -0.304  1.00  0.00     0.173 A 
ATOM    108  F   UNL     1     -11.338 -12.751  -1.446  1.00  0.00    -0.203 F 
ATOM    109  C   UNL     1     -11.616 -11.826   0.703  1.00  0.00     0.198 A 
ATOM    110  C   UNL     1     -11.265  -9.479   1.050  1.00  0.00     0.198 A 
ATOM    111  F   UNL     1     -10.683  -8.096  -0.763  1.00  0.00    -0.203 F 
ATOM    112  F   UNL     1     -11.965 -13.031   1.175  1.00  0.00    -0.200 F 
ATOM    113  C   UNL     1     -11.595 -10.729   1.550  1.00  0.00     0.200 A 
ATOM    114  F   UNL     1     -11.227  -8.419   1.868  1.00  0.00    -0.200 F 
ATOM    115  F   UNL     1     -11.902 -10.875   2.846  1.00  0.00    -0.200 F 
ENDBRANCH  77 105
BRANCH  92 116
ATOM    116  C   UNL     1     -14.877 -11.118  -6.913  1.00  0.00     0.064 A 
ATOM    117  C   UNL     1     -15.958 -10.325  -6.496  1.00  0.00     0.173 A 
ATOM    118  C   UNL     1     -15.165 -12.336  -7.548  1.00  0.00     0.173 A 
ATOM    119  F   UNL     1     -15.738  -9.159  -5.871  1.00  0.00    -0.203 F 
ATOM    120  C   UNL     1     -17.271 -10.754  -6.671  1.00  0.00     0.198 A 
ATOM    121  C   UNL     1     -16.479 -12.746  -7.752  1.00  0.00     0.198 A 
ATOM    122  F   UNL     1     -14.170 -13.128  -7.973  1.00  0.00    -0.203 F 
ATOM    123  F   UNL     1     -18.284 -10.010  -6.208  1.00  0.00    -0.200 F 
ATOM    124  C   UNL     1     -17.531 -11.961  -7.303  1.00  0.00     0.200 A 
ATOM    125  F   UNL     1     -16.729 -13.905  -8.375  1.00  0.00    -0.200 F 
ATOM    126  F   UNL     1     -18.795 -12.373  -7.470  1.00  0.00    -0.200 F 
ENDBRANCH  92 116
ENDBRANCH  57  60
ENDBRANCH  47  50
ENDBRANCH  43  46
ENDBRANCH  40  43
ENDBRANCH   1  40
TORSDOF 15
