REMARK SMILES [NH3+][C@@H](Cc1cn(-c2nc(Cl)nc(N3CCOCC3)n2)c2ccccc12)C(=O)NCCCCCCNC(=O)c1ccc(-c2c3nc(c(-c4c(F)c(F)c(F)c(F)c4F)c4ccc([nH]4)c(-c4c(F)c(F)c(F)c(F)c4F)c4nc(c(-c5c(F)c(F)c(F)c(F)c5F)c5ccc2[nH]5)C=C4)C=C3)cc1
REMARK SMILES IDX 30 1 29 4 28 7 26 8 27 9 2 11 1 13 3 17 4 20 5 21 25 22 6 23
REMARK SMILES IDX 20 25 24 26 21 27 23 28 22 30 7 34 8 35 19 36 9 37 12 38
REMARK SMILES IDX 10 39 11 40 13 41 14 42 18 43 15 44 17 47 16 50 31 55 32 58
REMARK SMILES IDX 33 61 34 64 35 67 36 68 37 70 38 71 39 72 100 73 40 74 99 76
REMARK SMILES IDX 41 78 42 81 43 82 93 83 44 84 98 85 92 86 94 87 45 88 97 89
REMARK SMILES IDX 91 91 90 93 46 95 78 98 58 99 77 100 59 101 62 102 76 103
REMARK SMILES IDX 95 104 60 105 61 107 75 109 96 110 63 113 47 115 48 116
REMARK SMILES IDX 56 117 49 118 50 119 54 120 57 121 51 122 52 123 55 124
REMARK SMILES IDX 53 125 79 126 80 127 88 128 81 129 82 130 86 131 89 132
REMARK SMILES IDX 83 133 84 134 87 135 85 136 64 137 65 138 73 139 66 140
REMARK SMILES IDX 67 141 71 142 74 143 68 144 69 145 72 146 70 147
REMARK H PARENT 30 2 30 3 29 5 29 6 28 10 2 12 1 14 1 15 1 16 3 18 3 19 5 24
REMARK H PARENT 24 29 21 31 23 32 22 33 14 45 14 46 18 48 18 49 15 51 15 52
REMARK H PARENT 17 53 17 54 31 56 31 57 32 59 32 60 33 62 33 63 34 65 34 66
REMARK H PARENT 35 69 39 75 100 77 40 79 99 80 98 90 92 92 94 94 97 96 91 97
REMARK H PARENT 59 106 62 108 95 111 60 112 96 114
REMARK Flexibility Score: inf
ROOT
ATOM      1  C   UNL     1      -2.292  -1.882  -1.556  1.00  0.00    -0.036 C 
ATOM      2  H   UNL     1      -2.351  -2.051  -0.501  1.00  0.00     0.028 H 
ATOM      3  H   UNL     1      -1.737  -2.626  -2.088  1.00  0.00     0.028 H 
ENDROOT
BRANCH   1   4
ATOM      4  C   UNL     1      -1.548  -0.584  -1.775  1.00  0.00     0.018 C 
ATOM      5  H   UNL     1      -0.501  -0.798  -1.713  1.00  0.00     0.049 H 
ATOM      6  H   UNL     1      -1.881  -0.232  -2.729  1.00  0.00     0.049 H 
BRANCH   4   7
ATOM      7  N   UNL     1      -1.825   0.488  -0.864  1.00  0.00    -0.351 N 
ATOM      8  C   UNL     1      -0.947   1.428  -0.393  1.00  0.00     0.278 C 
ATOM      9  O   UNL     1      -1.438   2.417   0.164  1.00  0.00    -0.268 OA
ATOM     10  H   UNL     1      -2.752   0.557  -0.541  1.00  0.00     0.163 HD
BRANCH   8  11
ATOM     11  C   UNL     1       0.602   1.283  -0.512  1.00  0.00     0.168 C 
ATOM     12  H   UNL     1       0.988   2.143  -0.006  1.00  0.00     0.107 H 
BRANCH  11  13
ATOM     13  N   UNL     1       1.102   0.103   0.231  1.00  0.00    -0.347 N 
ATOM     14  H   UNL     1       2.115   0.042   0.130  1.00  0.00     0.345 HD
ATOM     15  H   UNL     1       0.671  -0.742  -0.143  1.00  0.00     0.345 HD
ATOM     16  H   UNL     1       0.864   0.197   1.218  1.00  0.00     0.345 HD
ENDBRANCH  11  13
BRANCH  11  17
ATOM     17  C   UNL     1       1.238   1.531  -1.901  1.00  0.00     0.036 C 
ATOM     18  H   UNL     1       2.290   1.653  -1.745  1.00  0.00     0.038 H 
ATOM     19  H   UNL     1       0.703   2.378  -2.276  1.00  0.00     0.038 H 
BRANCH  17  20
ATOM     20  C   UNL     1       1.073   0.496  -2.988  1.00  0.00    -0.015 A 
ATOM     21  C   UNL     1       1.457  -0.837  -2.981  1.00  0.00     0.017 A 
ATOM     22  C   UNL     1       0.415   0.709  -4.245  1.00  0.00     0.004 A 
ATOM     23  N   UNL     1       0.942  -1.478  -4.098  1.00  0.00    -0.285 N 
ATOM     24  H   UNL     1       2.038  -1.283  -2.254  1.00  0.00     0.083 H 
ATOM     25  C   UNL     1       0.387  -0.510  -4.940  1.00  0.00     0.056 A 
ATOM     26  C   UNL     1      -0.229   1.835  -4.810  1.00  0.00    -0.053 A 
ATOM     27  C   UNL     1      -0.269  -0.619  -6.184  1.00  0.00    -0.037 A 
ATOM     28  C   UNL     1      -0.910   1.717  -6.022  1.00  0.00    -0.062 A 
ATOM     29  H   UNL     1      -0.195   2.745  -4.325  1.00  0.00     0.063 H 
ATOM     30  C   UNL     1      -0.930   0.504  -6.698  1.00  0.00    -0.060 A 
ATOM     31  H   UNL     1      -0.262  -1.509  -6.706  1.00  0.00     0.065 H 
ATOM     32  H   UNL     1      -1.401   2.534  -6.418  1.00  0.00     0.062 H 
ATOM     33  H   UNL     1      -1.440   0.428  -7.592  1.00  0.00     0.062 H 
BRANCH  23  34
ATOM     34  C   UNL     1       0.845  -2.906  -4.263  1.00  0.00     0.240 A 
ATOM     35  N   UNL     1       1.097  -3.412  -5.460  1.00  0.00    -0.181 NA
ATOM     36  N   UNL     1       0.444  -3.642  -3.207  1.00  0.00    -0.176 NA
ATOM     37  C   UNL     1       1.000  -4.735  -5.490  1.00  0.00     0.228 A 
ATOM     38  C   UNL     1       0.254  -4.956  -3.406  1.00  0.00     0.231 A 
ATOM     39  Cl  UNL     1       1.537  -5.477  -6.933  1.00  0.00    -0.041 Cl
ATOM     40  N   UNL     1       0.564  -5.556  -4.540  1.00  0.00    -0.182 NA
BRANCH  38  41
ATOM     41  N   UNL     1      -0.227  -5.699  -2.358  1.00  0.00    -0.336 N 
ATOM     42  C   UNL     1      -1.630  -6.117  -2.253  1.00  0.00     0.044 C 
ATOM     43  C   UNL     1       0.642  -6.723  -1.779  1.00  0.00     0.044 C 
ATOM     44  C   UNL     1      -1.973  -6.173  -0.759  1.00  0.00     0.064 C 
ATOM     45  H   UNL     1      -1.759  -7.083  -2.696  1.00  0.00     0.052 H 
ATOM     46  H   UNL     1      -2.271  -5.431  -2.766  1.00  0.00     0.052 H 
ATOM     47  C   UNL     1       0.250  -6.870  -0.291  1.00  0.00     0.064 C 
ATOM     48  H   UNL     1       1.666  -6.423  -1.861  1.00  0.00     0.052 H 
ATOM     49  H   UNL     1       0.527  -7.653  -2.295  1.00  0.00     0.052 H 
ATOM     50  O   UNL     1      -1.153  -7.156  -0.106  1.00  0.00    -0.378 OA
ATOM     51  H   UNL     1      -3.004  -6.436  -0.641  1.00  0.00     0.059 H 
ATOM     52  H   UNL     1      -1.792  -5.214  -0.319  1.00  0.00     0.059 H 
ATOM     53  H   UNL     1       0.821  -7.668   0.135  1.00  0.00     0.059 H 
ATOM     54  H   UNL     1       0.453  -5.935   0.189  1.00  0.00     0.059 H 
ENDBRANCH  38  41
ENDBRANCH  23  34
ENDBRANCH  17  20
ENDBRANCH  11  17
ENDBRANCH   8  11
ENDBRANCH   4   7
ENDBRANCH   1   4
BRANCH   1  55
ATOM     55  C   UNL     1      -3.708  -1.944  -2.118  1.00  0.00    -0.052 C 
ATOM     56  H   UNL     1      -4.314  -1.294  -1.522  1.00  0.00     0.027 H 
ATOM     57  H   UNL     1      -3.961  -2.983  -2.082  1.00  0.00     0.027 H 
BRANCH  55  58
ATOM     58  C   UNL     1      -3.926  -1.549  -3.591  1.00  0.00    -0.052 C 
ATOM     59  H   UNL     1      -3.719  -0.503  -3.672  1.00  0.00     0.027 H 
ATOM     60  H   UNL     1      -4.933  -1.848  -3.795  1.00  0.00     0.027 H 
BRANCH  58  61
ATOM     61  C   UNL     1      -3.101  -2.258  -4.670  1.00  0.00    -0.036 C 
ATOM     62  H   UNL     1      -2.118  -1.836  -4.665  1.00  0.00     0.028 H 
ATOM     63  H   UNL     1      -3.627  -2.110  -5.590  1.00  0.00     0.028 H 
BRANCH  61  64
ATOM     64  C   UNL     1      -2.967  -3.752  -4.502  1.00  0.00     0.018 C 
ATOM     65  H   UNL     1      -2.369  -3.929  -3.633  1.00  0.00     0.049 H 
ATOM     66  H   UNL     1      -2.537  -4.102  -5.417  1.00  0.00     0.049 H 
BRANCH  64  67
ATOM     67  N   UNL     1      -4.198  -4.499  -4.348  1.00  0.00    -0.352 N 
ATOM     68  C   UNL     1      -4.903  -5.368  -5.130  1.00  0.00     0.251 C 
ATOM     69  H   UNL     1      -4.626  -4.344  -3.476  1.00  0.00     0.163 HD
ATOM     70  O   UNL     1      -5.793  -6.019  -4.575  1.00  0.00    -0.269 OA
BRANCH  68  71
ATOM     71  C   UNL     1      -4.765  -5.455  -6.600  1.00  0.00     0.039 A 
ATOM     72  C   UNL     1      -3.652  -5.047  -7.326  1.00  0.00    -0.049 A 
ATOM     73  C   UNL     1      -5.908  -5.895  -7.292  1.00  0.00    -0.049 A 
ATOM     74  C   UNL     1      -3.764  -4.841  -8.691  1.00  0.00    -0.053 A 
ATOM     75  H   UNL     1      -2.748  -4.898  -6.851  1.00  0.00     0.063 H 
ATOM     76  C   UNL     1      -6.002  -5.757  -8.666  1.00  0.00    -0.053 A 
ATOM     77  H   UNL     1      -6.686  -6.327  -6.769  1.00  0.00     0.063 H 
ATOM     78  C   UNL     1      -4.968  -5.131  -9.345  1.00  0.00    -0.014 A 
ATOM     79  H   UNL     1      -2.961  -4.473  -9.225  1.00  0.00     0.063 H 
ATOM     80  H   UNL     1      -6.827  -6.112  -9.175  1.00  0.00     0.063 H 
BRANCH  78  81
ATOM     81  C   UNL     1      -5.040  -4.909 -10.783  1.00  0.00     0.031 A 
ATOM     82  C   UNL     1      -3.967  -5.628 -11.521  1.00  0.00     0.074 A 
ATOM     83  C   UNL     1      -5.995  -4.170 -11.389  1.00  0.00     0.049 A 
ATOM     84  N   UNL     1      -2.964  -5.099 -12.139  1.00  0.00    -0.248 NA
ATOM     85  C   UNL     1      -3.881  -7.091 -11.382  1.00  0.00    -0.034 C 
ATOM     86  C   UNL     1      -7.195  -3.562 -10.811  1.00  0.00    -0.036 A 
ATOM     87  N   UNL     1      -6.104  -3.837 -12.709  1.00  0.00    -0.354 N 
ATOM     88  C   UNL     1      -2.219  -6.162 -12.638  1.00  0.00     0.074 A 
ATOM     89  C   UNL     1      -2.734  -7.351 -12.012  1.00  0.00    -0.034 C 
ATOM     90  H   UNL     1      -4.534  -7.743 -10.920  1.00  0.00     0.065 H 
ATOM     91  C   UNL     1      -8.018  -3.140 -11.803  1.00  0.00    -0.036 A 
ATOM     92  H   UNL     1      -7.386  -3.468  -9.802  1.00  0.00     0.065 H 
ATOM     93  C   UNL     1      -7.340  -3.303 -13.076  1.00  0.00     0.049 A 
ATOM     94  H   UNL     1      -5.369  -3.965 -13.351  1.00  0.00     0.167 HD
ATOM     95  C   UNL     1      -1.405  -5.985 -13.714  1.00  0.00     0.037 A 
ATOM     96  H   UNL     1      -2.279  -8.277 -12.046  1.00  0.00     0.065 H 
ATOM     97  H   UNL     1      -8.970  -2.765 -11.674  1.00  0.00     0.065 H 
ATOM     98  C   UNL     1      -7.761  -3.033 -14.343  1.00  0.00     0.037 A 
ATOM     99  C   UNL     1      -1.077  -4.592 -13.884  1.00  0.00     0.049 A 
ATOM    100  C   UNL     1      -6.541  -2.885 -15.176  1.00  0.00     0.074 A 
ATOM    101  C   UNL     1      -0.385  -3.657 -13.139  1.00  0.00    -0.036 A 
ATOM    102  N   UNL     1      -1.818  -3.875 -14.788  1.00  0.00    -0.354 N 
ATOM    103  N   UNL     1      -5.696  -1.902 -15.033  1.00  0.00    -0.248 NA
ATOM    104  C   UNL     1      -6.016  -4.091 -15.798  1.00  0.00    -0.034 C 
ATOM    105  C   UNL     1      -1.108  -2.440 -13.309  1.00  0.00    -0.036 A 
ATOM    106  H   UNL     1       0.470  -3.807 -12.580  1.00  0.00     0.065 H 
ATOM    107  C   UNL     1      -2.147  -2.678 -14.208  1.00  0.00     0.049 A 
ATOM    108  H   UNL     1      -2.070  -4.168 -15.693  1.00  0.00     0.167 HD
ATOM    109  C   UNL     1      -4.451  -2.502 -15.130  1.00  0.00     0.074 A 
ATOM    110  C   UNL     1      -4.712  -3.848 -15.642  1.00  0.00    -0.034 C 
ATOM    111  H   UNL     1      -6.504  -4.891 -16.230  1.00  0.00     0.065 H 
ATOM    112  H   UNL     1      -0.899  -1.541 -12.848  1.00  0.00     0.065 H 
ATOM    113  C   UNL     1      -3.364  -1.963 -14.507  1.00  0.00     0.037 A 
ATOM    114  H   UNL     1      -3.971  -4.532 -15.859  1.00  0.00     0.065 H 
BRANCH  95 115
ATOM    115  C   UNL     1      -1.277  -6.984 -14.838  1.00  0.00     0.064 A 
ATOM    116  C   UNL     1      -0.379  -6.715 -15.891  1.00  0.00     0.173 A 
ATOM    117  C   UNL     1      -2.216  -8.008 -15.090  1.00  0.00     0.173 A 
ATOM    118  F   UNL     1       0.545  -5.749 -15.772  1.00  0.00    -0.203 F 
ATOM    119  C   UNL     1      -0.476  -7.359 -17.128  1.00  0.00     0.198 A 
ATOM    120  C   UNL     1      -2.279  -8.682 -16.308  1.00  0.00     0.198 A 
ATOM    121  F   UNL     1      -3.184  -8.323 -14.222  1.00  0.00    -0.203 F 
ATOM    122  F   UNL     1       0.312  -6.975 -18.141  1.00  0.00    -0.200 F 
ATOM    123  C   UNL     1      -1.432  -8.335 -17.337  1.00  0.00     0.200 A 
ATOM    124  F   UNL     1      -3.229  -9.608 -16.498  1.00  0.00    -0.200 F 
ATOM    125  F   UNL     1      -1.571  -8.906 -18.540  1.00  0.00    -0.200 F 
ENDBRANCH  95 115
BRANCH  98 126
ATOM    126  C   UNL     1      -9.091  -3.285 -14.962  1.00  0.00     0.064 A 
ATOM    127  C   UNL     1      -9.414  -2.769 -16.233  1.00  0.00     0.173 A 
ATOM    128  C   UNL     1      -9.942  -4.294 -14.472  1.00  0.00     0.173 A 
ATOM    129  F   UNL     1      -8.631  -1.840 -16.802  1.00  0.00    -0.203 F 
ATOM    130  C   UNL     1     -10.498  -3.255 -16.977  1.00  0.00     0.198 A 
ATOM    131  C   UNL     1     -11.022  -4.779 -15.215  1.00  0.00     0.198 A 
ATOM    132  F   UNL     1      -9.681  -4.901 -13.306  1.00  0.00    -0.203 F 
ATOM    133  F   UNL     1     -10.732  -2.783 -18.210  1.00  0.00    -0.200 F 
ATOM    134  C   UNL     1     -11.292  -4.270 -16.473  1.00  0.00     0.200 A 
ATOM    135  F   UNL     1     -11.759  -5.791 -14.734  1.00  0.00    -0.200 F 
ATOM    136  F   UNL     1     -12.286  -4.786 -17.210  1.00  0.00    -0.200 F 
ENDBRANCH  98 126
BRANCH 113 137
ATOM    137  C   UNL     1      -3.502  -0.593 -13.905  1.00  0.00     0.064 A 
ATOM    138  C   UNL     1      -4.315  -0.296 -12.796  1.00  0.00     0.173 A 
ATOM    139  C   UNL     1      -2.637   0.411 -14.357  1.00  0.00     0.173 A 
ATOM    140  F   UNL     1      -5.107  -1.229 -12.252  1.00  0.00    -0.203 F 
ATOM    141  C   UNL     1      -4.268   0.955 -12.181  1.00  0.00     0.198 A 
ATOM    142  C   UNL     1      -2.569   1.647 -13.722  1.00  0.00     0.198 A 
ATOM    143  F   UNL     1      -1.805   0.166 -15.382  1.00  0.00    -0.203 F 
ATOM    144  F   UNL     1      -5.041   1.213 -11.115  1.00  0.00    -0.200 F 
ATOM    145  C   UNL     1      -3.386   1.921 -12.637  1.00  0.00     0.200 A 
ATOM    146  F   UNL     1      -1.678   2.558 -14.137  1.00  0.00    -0.200 F 
ATOM    147  F   UNL     1      -3.297   3.103 -12.012  1.00  0.00    -0.200 F 
ENDBRANCH 113 137
ENDBRANCH  78  81
ENDBRANCH  68  71
ENDBRANCH  64  67
ENDBRANCH  61  64
ENDBRANCH  58  61
ENDBRANCH  55  58
ENDBRANCH   1  55
TORSDOF 18
