REMARK SMILES Cc1cc2cc(-c3ccc([C@@H](C)C(=O)NCCCCCCNC(=O)c4ccc(-c5c6nc(c(-c7c(F)c(F)c(F)c(F)c7F)c7ccc([nH]7)c(-c7c(F)c(F)c(F)c(F)c7F)c7nc(c(-c8c(F)c(F)c(F)c(F)c8F)c8ccc5[nH]8)C=C7)C=C6)cc4)cc3)ccc2[nH]1
REMARK SMILES IDX 18 1 17 4 16 7 15 10 13 11 14 12 11 14 10 16 7 17 8 18 89 19
REMARK SMILES IDX 9 20 88 22 6 26 2 27 3 28 93 29 4 30 92 32 5 34 91 35 90 37
REMARK SMILES IDX 1 40 12 44 19 48 20 51 21 54 22 57 23 58 24 60 25 61 26 62
REMARK SMILES IDX 87 63 27 64 86 66 28 68 29 71 30 72 80 73 31 74 85 75 79 76
REMARK SMILES IDX 81 77 32 78 84 79 78 81 77 83 33 85 65 88 45 89 64 90 46 91
REMARK SMILES IDX 49 92 63 93 82 94 47 95 48 97 62 99 83 100 50 103 34 105
REMARK SMILES IDX 35 106 43 107 36 108 37 109 41 110 44 111 38 112 39 113
REMARK SMILES IDX 42 114 40 115 66 116 67 117 75 118 68 119 69 120 73 121
REMARK SMILES IDX 76 122 70 123 71 124 74 125 72 126 51 127 52 128 60 129
REMARK SMILES IDX 53 130 54 131 58 132 61 133 55 134 56 135 59 136 57 137
REMARK H PARENT 18 2 18 3 17 5 17 6 16 8 16 9 15 13 11 15 8 21 89 23 9 24
REMARK H PARENT 88 25 3 31 93 33 5 36 91 38 90 39 1 41 1 42 1 43 12 45 12 46
REMARK H PARENT 12 47 19 49 19 50 20 52 20 53 21 55 21 56 22 59 26 65 87 67
REMARK H PARENT 27 69 86 70 85 80 79 82 81 84 84 86 78 87 46 96 49 98 82 101
REMARK H PARENT 47 102 83 104
REMARK Flexibility Score: inf
ROOT
ATOM      1  C   UNL     1       6.291  -3.274  -5.156  1.00  0.00    -0.052 C 
ATOM      2  H   UNL     1       7.278  -2.862  -5.192  1.00  0.00     0.027 H 
ATOM      3  H   UNL     1       5.537  -2.611  -5.524  1.00  0.00     0.027 H 
ENDROOT
BRANCH   1   4
ATOM      4  C   UNL     1       5.942  -3.540  -3.688  1.00  0.00    -0.036 C 
ATOM      5  H   UNL     1       5.921  -2.602  -3.171  1.00  0.00     0.028 H 
ATOM      6  H   UNL     1       4.994  -4.035  -3.679  1.00  0.00     0.028 H 
BRANCH   4   7
ATOM      7  C   UNL     1       6.931  -4.462  -2.971  1.00  0.00     0.017 C 
ATOM      8  H   UNL     1       6.414  -4.986  -2.194  1.00  0.00     0.049 H 
ATOM      9  H   UNL     1       7.334  -5.142  -3.692  1.00  0.00     0.049 H 
BRANCH   7  10
ATOM     10  N   UNL     1       8.031  -3.724  -2.386  1.00  0.00    -0.356 N 
ATOM     11  C   UNL     1       8.280  -3.329  -1.108  1.00  0.00     0.227 C 
ATOM     12  O   UNL     1       9.285  -2.627  -0.937  1.00  0.00    -0.274 OA
ATOM     13  H   UNL     1       8.726  -3.460  -3.032  1.00  0.00     0.163 HD
BRANCH  11  14
ATOM     14  C   UNL     1       7.406  -3.718   0.094  1.00  0.00     0.060 C 
ATOM     15  H   UNL     1       7.931  -3.369   0.959  1.00  0.00     0.045 H 
BRANCH  14  16
ATOM     16  C   UNL     1       6.089  -2.961   0.158  1.00  0.00    -0.036 A 
ATOM     17  C   UNL     1       3.676  -1.431   0.226  1.00  0.00    -0.018 A 
ATOM     18  C   UNL     1       3.747  -2.675  -0.420  1.00  0.00    -0.054 A 
ATOM     19  C   UNL     1       4.843  -0.973   0.853  1.00  0.00    -0.054 A 
ATOM     20  C   UNL     1       4.916  -3.440  -0.423  1.00  0.00    -0.058 A 
ATOM     21  H   UNL     1       2.912  -3.036  -0.907  1.00  0.00     0.063 H 
ATOM     22  C   UNL     1       6.033  -1.715   0.804  1.00  0.00    -0.058 A 
ATOM     23  H   UNL     1       4.827  -0.074   1.358  1.00  0.00     0.063 H 
ATOM     24  H   UNL     1       4.911  -4.374  -0.862  1.00  0.00     0.063 H 
ATOM     25  H   UNL     1       6.883  -1.338   1.252  1.00  0.00     0.063 H 
BRANCH  17  26
ATOM     26  C   UNL     1       2.409  -0.664   0.229  1.00  0.00    -0.018 A 
ATOM     27  C   UNL     1      -2.179   0.086   0.060  1.00  0.00     0.013 A 
ATOM     28  C   UNL     1      -1.405  -1.048   0.185  1.00  0.00    -0.034 A 
ATOM     29  N   UNL     1      -1.325   1.162   0.018  1.00  0.00    -0.359 N 
ATOM     30  C   UNL     1      -0.044  -0.646   0.203  1.00  0.00     0.000 A 
ATOM     31  H   UNL     1      -1.753  -2.017   0.254  1.00  0.00     0.065 H 
ATOM     32  C   UNL     1      -0.016   0.740   0.090  1.00  0.00     0.046 A 
ATOM     33  H   UNL     1      -1.608   2.102  -0.053  1.00  0.00     0.166 HD
ATOM     34  C   UNL     1       1.174  -1.342   0.295  1.00  0.00    -0.045 A 
ATOM     35  C   UNL     1       1.181   1.463   0.063  1.00  0.00    -0.037 A 
ATOM     36  H   UNL     1       1.164  -2.368   0.413  1.00  0.00     0.064 H 
ATOM     37  C   UNL     1       2.382   0.737   0.124  1.00  0.00    -0.052 A 
ATOM     38  H   UNL     1       1.181   2.493   0.001  1.00  0.00     0.065 H 
ATOM     39  H   UNL     1       3.276   1.250   0.091  1.00  0.00     0.063 H 
BRANCH  27  40
ATOM     40  C   UNL     1      -3.651   0.242  -0.019  1.00  0.00    -0.024 C 
ATOM     41  H   UNL     1      -4.115  -0.721   0.032  1.00  0.00     0.029 H 
ATOM     42  H   UNL     1      -3.910   0.714  -0.944  1.00  0.00     0.029 H 
ATOM     43  H   UNL     1      -3.990   0.845   0.796  1.00  0.00     0.029 H 
ENDBRANCH  27  40
ENDBRANCH  17  26
ENDBRANCH  14  16
BRANCH  14  44
ATOM     44  C   UNL     1       7.322  -5.226   0.338  1.00  0.00    -0.049 C 
ATOM     45  H   UNL     1       6.808  -5.691  -0.477  1.00  0.00     0.024 H 
ATOM     46  H   UNL     1       6.790  -5.411   1.248  1.00  0.00     0.024 H 
ATOM     47  H   UNL     1       8.310  -5.630   0.414  1.00  0.00     0.024 H 
ENDBRANCH  14  44
ENDBRANCH  11  14
ENDBRANCH   7  10
ENDBRANCH   4   7
ENDBRANCH   1   4
BRANCH   1  48
ATOM     48  C   UNL     1       6.258  -4.506  -6.070  1.00  0.00    -0.052 C 
ATOM     49  H   UNL     1       7.042  -5.165  -5.762  1.00  0.00     0.027 H 
ATOM     50  H   UNL     1       6.371  -4.134  -7.067  1.00  0.00     0.027 H 
BRANCH  48  51
ATOM     51  C   UNL     1       4.947  -5.299  -6.066  1.00  0.00    -0.036 C 
ATOM     52  H   UNL     1       4.779  -5.659  -5.072  1.00  0.00     0.028 H 
ATOM     53  H   UNL     1       5.068  -6.082  -6.785  1.00  0.00     0.028 H 
BRANCH  51  54
ATOM     54  C   UNL     1       3.715  -4.507  -6.498  1.00  0.00     0.018 C 
ATOM     55  H   UNL     1       3.615  -3.651  -5.864  1.00  0.00     0.049 H 
ATOM     56  H   UNL     1       2.864  -5.150  -6.417  1.00  0.00     0.049 H 
BRANCH  54  57
ATOM     57  N   UNL     1       3.812  -4.061  -7.878  1.00  0.00    -0.352 N 
ATOM     58  C   UNL     1       2.994  -4.324  -8.948  1.00  0.00     0.251 C 
ATOM     59  H   UNL     1       4.583  -3.480  -8.076  1.00  0.00     0.163 HD
ATOM     60  O   UNL     1       3.356  -4.036 -10.084  1.00  0.00    -0.269 OA
BRANCH  58  61
ATOM     61  C   UNL     1       1.677  -4.964  -8.742  1.00  0.00     0.039 A 
ATOM     62  C   UNL     1       1.274  -5.976  -9.618  1.00  0.00    -0.049 A 
ATOM     63  C   UNL     1       0.823  -4.541  -7.720  1.00  0.00    -0.049 A 
ATOM     64  C   UNL     1       0.036  -6.599  -9.438  1.00  0.00    -0.053 A 
ATOM     65  H   UNL     1       1.889  -6.262 -10.396  1.00  0.00     0.063 H 
ATOM     66  C   UNL     1      -0.383  -5.204  -7.503  1.00  0.00    -0.053 A 
ATOM     67  H   UNL     1       1.085  -3.738  -7.127  1.00  0.00     0.063 H 
ATOM     68  C   UNL     1      -0.790  -6.235  -8.363  1.00  0.00    -0.014 A 
ATOM     69  H   UNL     1      -0.271  -7.330 -10.098  1.00  0.00     0.063 H 
ATOM     70  H   UNL     1      -0.980  -4.936  -6.705  1.00  0.00     0.063 H 
BRANCH  68  71
ATOM     71  C   UNL     1      -2.091  -6.912  -8.130  1.00  0.00     0.031 A 
ATOM     72  C   UNL     1      -3.376  -6.145  -8.273  1.00  0.00     0.074 A 
ATOM     73  C   UNL     1      -2.112  -8.198  -7.732  1.00  0.00     0.049 A 
ATOM     74  N   UNL     1      -4.604  -6.534  -8.037  1.00  0.00    -0.248 NA
ATOM     75  C   UNL     1      -3.264  -4.748  -8.719  1.00  0.00    -0.034 C 
ATOM     76  C   UNL     1      -0.932  -9.037  -7.523  1.00  0.00    -0.036 A 
ATOM     77  N   UNL     1      -3.165  -9.021  -7.421  1.00  0.00    -0.354 N 
ATOM     78  C   UNL     1      -5.405  -5.429  -8.291  1.00  0.00     0.074 A 
ATOM     79  C   UNL     1      -4.523  -4.340  -8.652  1.00  0.00    -0.034 C 
ATOM     80  H   UNL     1      -2.424  -4.222  -9.008  1.00  0.00     0.065 H 
ATOM     81  C   UNL     1      -1.326 -10.261  -7.135  1.00  0.00    -0.036 A 
ATOM     82  H   UNL     1       0.047  -8.736  -7.652  1.00  0.00     0.065 H 
ATOM     83  C   UNL     1      -2.782 -10.282  -7.035  1.00  0.00     0.049 A 
ATOM     84  H   UNL     1      -4.106  -8.735  -7.470  1.00  0.00     0.167 HD
ATOM     85  C   UNL     1      -6.756  -5.336  -8.249  1.00  0.00     0.037 A 
ATOM     86  H   UNL     1      -4.833  -3.373  -8.834  1.00  0.00     0.065 H 
ATOM     87  H   UNL     1      -0.700 -11.058  -6.939  1.00  0.00     0.065 H 
ATOM     88  C   UNL     1      -3.523 -11.334  -6.638  1.00  0.00     0.037 A 
ATOM     89  C   UNL     1      -7.633  -6.427  -7.913  1.00  0.00     0.049 A 
ATOM     90  C   UNL     1      -5.021 -11.202  -6.592  1.00  0.00     0.074 A 
ATOM     91  C   UNL     1      -9.017  -6.447  -7.886  1.00  0.00    -0.036 A 
ATOM     92  N   UNL     1      -7.208  -7.695  -7.545  1.00  0.00    -0.354 N 
ATOM     93  N   UNL     1      -5.771 -10.168  -6.886  1.00  0.00    -0.248 NA
ATOM     94  C   UNL     1      -5.777 -12.388  -6.163  1.00  0.00    -0.034 C 
ATOM     95  C   UNL     1      -9.429  -7.717  -7.468  1.00  0.00    -0.036 A 
ATOM     96  H   UNL     1      -9.638  -5.661  -8.133  1.00  0.00     0.065 H 
ATOM     97  C   UNL     1      -8.303  -8.501  -7.276  1.00  0.00     0.049 A 
ATOM     98  H   UNL     1      -6.268  -7.981  -7.485  1.00  0.00     0.167 HD
ATOM     99  C   UNL     1      -7.083 -10.585  -6.709  1.00  0.00     0.074 A 
ATOM    100  C   UNL     1      -7.028 -11.971  -6.292  1.00  0.00    -0.034 C 
ATOM    101  H   UNL     1      -5.425 -13.305  -5.845  1.00  0.00     0.065 H 
ATOM    102  H   UNL     1     -10.406  -8.018  -7.327  1.00  0.00     0.065 H 
ATOM    103  C   UNL     1      -8.230  -9.883  -6.875  1.00  0.00     0.037 A 
ATOM    104  H   UNL     1      -7.858 -12.559  -6.117  1.00  0.00     0.065 H 
BRANCH  85 105
ATOM    105  C   UNL     1      -7.370  -4.008  -8.582  1.00  0.00     0.064 A 
ATOM    106  C   UNL     1      -7.365  -3.506  -9.893  1.00  0.00     0.173 A 
ATOM    107  C   UNL     1      -8.001  -3.243  -7.590  1.00  0.00     0.173 A 
ATOM    108  F   UNL     1      -6.765  -4.194 -10.876  1.00  0.00    -0.203 F 
ATOM    109  C   UNL     1      -7.943  -2.275 -10.192  1.00  0.00     0.198 A 
ATOM    110  C   UNL     1      -8.603  -2.025  -7.897  1.00  0.00     0.198 A 
ATOM    111  F   UNL     1      -8.040  -3.679  -6.322  1.00  0.00    -0.203 F 
ATOM    112  F   UNL     1      -7.884  -1.795 -11.441  1.00  0.00    -0.200 F 
ATOM    113  C   UNL     1      -8.567  -1.539  -9.196  1.00  0.00     0.200 A 
ATOM    114  F   UNL     1      -9.216  -1.321  -6.936  1.00  0.00    -0.200 F 
ATOM    115  F   UNL     1      -9.128  -0.357  -9.486  1.00  0.00    -0.200 F 
ENDBRANCH  85 105
BRANCH  88 116
ATOM    116  C   UNL     1      -2.862 -12.615  -6.278  1.00  0.00     0.064 A 
ATOM    117  C   UNL     1      -2.991 -13.744  -7.099  1.00  0.00     0.173 A 
ATOM    118  C   UNL     1      -2.098 -12.741  -5.109  1.00  0.00     0.173 A 
ATOM    119  F   UNL     1      -3.730 -13.677  -8.216  1.00  0.00    -0.203 F 
ATOM    120  C   UNL     1      -2.398 -14.956  -6.755  1.00  0.00     0.198 A 
ATOM    121  C   UNL     1      -1.483 -13.947  -4.779  1.00  0.00     0.198 A 
ATOM    122  F   UNL     1      -1.941 -11.690  -4.292  1.00  0.00    -0.203 F 
ATOM    123  F   UNL     1      -2.575 -16.031  -7.535  1.00  0.00    -0.200 F 
ATOM    124  C   UNL     1      -1.640 -15.056  -5.598  1.00  0.00     0.200 A 
ATOM    125  F   UNL     1      -0.741 -14.036  -3.667  1.00  0.00    -0.200 F 
ATOM    126  F   UNL     1      -1.068 -16.221  -5.268  1.00  0.00    -0.200 F 
ENDBRANCH  88 116
BRANCH 103 127
ATOM    127  C   UNL     1      -9.521 -10.612  -6.646  1.00  0.00     0.064 A 
ATOM    128  C   UNL     1      -9.953 -10.954  -5.357  1.00  0.00     0.173 A 
ATOM    129  C   UNL     1     -10.352 -10.938  -7.728  1.00  0.00     0.173 A 
ATOM    130  F   UNL     1      -9.185 -10.678  -4.292  1.00  0.00    -0.203 F 
ATOM    131  C   UNL     1     -11.161 -11.618  -5.161  1.00  0.00     0.198 A 
ATOM    132  C   UNL     1     -11.572 -11.577  -7.526  1.00  0.00     0.198 A 
ATOM    133  F   UNL     1      -9.986 -10.627  -8.980  1.00  0.00    -0.203 F 
ATOM    134  F   UNL     1     -11.534 -11.975  -3.924  1.00  0.00    -0.200 F 
ATOM    135  C   UNL     1     -11.972 -11.922  -6.244  1.00  0.00     0.200 A 
ATOM    136  F   UNL     1     -12.360 -11.860  -8.573  1.00  0.00    -0.200 F 
ATOM    137  F   UNL     1     -13.138 -12.556  -6.053  1.00  0.00    -0.200 F 
ENDBRANCH 103 127
ENDBRANCH  68  71
ENDBRANCH  58  61
ENDBRANCH  54  57
ENDBRANCH  51  54
ENDBRANCH  48  51
ENDBRANCH   1  48
TORSDOF 17
