REMARK SMILES CCCC[C@@H](Sc1nc(OCCC2CCCCC2)cc(OCCC2CCCCC2)n1)C(=O)NCCCCCCNC(=O)c1ccc(-c2c3nc(c(-c4c(F)c(F)c(F)c(F)c4F)c4ccc([nH]4)c(-c4c(F)c(F)c(F)c(F)c4F)c4nc(c(-c5c(F)c(F)c(F)c(F)c5F)c5ccc2[nH]5)C=C4)C=C3)cc1
REMARK SMILES IDX 34 1 33 4 31 5 32 6 5 8 4 10 3 13 2 16 1 19 6 23 7 24 8 25
REMARK SMILES IDX 30 26 9 27 20 28 19 29 10 31 11 32 12 35 13 38 14 39 18 40
REMARK SMILES IDX 15 42 17 45 16 48 21 55 22 56 23 59 24 62 25 63 29 64 26 66
REMARK SMILES IDX 28 69 27 72 35 79 36 82 37 85 38 88 39 91 40 94 41 95 42 97
REMARK SMILES IDX 43 98 44 99 105 100 45 101 104 103 46 105 47 108 48 109
REMARK SMILES IDX 98 110 49 111 103 112 97 113 99 114 50 115 102 116 96 118
REMARK SMILES IDX 95 120 51 122 83 125 63 126 82 127 64 128 67 129 81 130
REMARK SMILES IDX 100 131 65 132 66 134 80 136 101 137 68 140 52 142 53 143
REMARK SMILES IDX 61 144 54 145 55 146 59 147 62 148 56 149 57 150 60 151
REMARK SMILES IDX 58 152 84 153 85 154 93 155 86 156 87 157 91 158 94 159
REMARK SMILES IDX 88 160 89 161 92 162 90 163 69 164 70 165 78 166 71 167
REMARK SMILES IDX 72 168 76 169 79 170 73 171 74 172 77 173 75 174
REMARK H PARENT 34 2 34 3 33 7 5 9 4 11 4 12 3 14 3 15 2 17 2 18 1 20 1 21
REMARK H PARENT 1 22 19 30 11 33 11 34 12 36 12 37 13 41 14 43 14 44 18 46
REMARK H PARENT 18 47 15 49 15 50 17 51 17 52 16 53 16 54 22 57 22 58 23 60
REMARK H PARENT 23 61 24 65 25 67 25 68 29 70 29 71 26 73 26 74 28 75 28 76
REMARK H PARENT 27 77 27 78 35 80 35 81 36 83 36 84 37 86 37 87 38 89 38 90
REMARK H PARENT 39 92 39 93 40 96 44 102 105 104 45 106 104 107 103 117 97 119
REMARK H PARENT 99 121 102 123 96 124 64 133 67 135 100 138 65 139 101 141
REMARK Flexibility Score: inf
ROOT
ATOM      1  C   UNL     1      -0.485   3.500   4.570  1.00  0.00     0.017 C 
ATOM      2  H   UNL     1      -0.211   2.466   4.580  1.00  0.00     0.049 H 
ATOM      3  H   UNL     1      -1.167   3.717   5.366  1.00  0.00     0.049 H 
ENDROOT
BRANCH   1   4
ATOM      4  N   UNL     1      -1.139   3.806   3.308  1.00  0.00    -0.355 N 
ATOM      5  C   UNL     1      -1.490   2.978   2.276  1.00  0.00     0.233 C 
ATOM      6  O   UNL     1      -2.055   3.482   1.302  1.00  0.00    -0.274 OA
ATOM      7  H   UNL     1      -1.364   4.755   3.175  1.00  0.00     0.163 HD
BRANCH   5   8
ATOM      8  C   UNL     1      -1.160   1.476   2.314  1.00  0.00     0.091 C 
ATOM      9  H   UNL     1      -1.446   0.869   1.480  1.00  0.00     0.052 H 
BRANCH   8  10
ATOM     10  C   UNL     1       0.377   1.306   2.248  1.00  0.00    -0.032 C 
ATOM     11  H   UNL     1       0.756   2.107   1.649  1.00  0.00     0.028 H 
ATOM     12  H   UNL     1       0.679   1.293   3.274  1.00  0.00     0.028 H 
BRANCH  10  13
ATOM     13  C   UNL     1       0.955   0.004   1.676  1.00  0.00    -0.052 C 
ATOM     14  H   UNL     1       2.014   0.130   1.598  1.00  0.00     0.027 H 
ATOM     15  H   UNL     1       0.635  -0.759   2.355  1.00  0.00     0.027 H 
BRANCH  13  16
ATOM     16  C   UNL     1       0.445  -0.449   0.311  1.00  0.00    -0.056 C 
ATOM     17  H   UNL     1       0.879  -1.400   0.086  1.00  0.00     0.026 H 
ATOM     18  H   UNL     1      -0.622  -0.495   0.372  1.00  0.00     0.026 H 
BRANCH  16  19
ATOM     19  C   UNL     1       0.788   0.514  -0.811  1.00  0.00    -0.065 C 
ATOM     20  H   UNL     1       0.403   0.137  -1.735  1.00  0.00     0.023 H 
ATOM     21  H   UNL     1       1.851   0.615  -0.883  1.00  0.00     0.023 H 
ATOM     22  H   UNL     1       0.353   1.470  -0.607  1.00  0.00     0.023 H 
ENDBRANCH  16  19
ENDBRANCH  13  16
ENDBRANCH  10  13
ENDBRANCH   8  10
BRANCH   8  23
ATOM     23  S   UNL     1      -2.165   0.800   3.718  1.00  0.00    -0.073 SA
BRANCH  23  24
ATOM     24  C   UNL     1      -1.448  -0.781   3.920  1.00  0.00     0.195 A 
ATOM     25  N   UNL     1      -0.387  -0.879   4.731  1.00  0.00    -0.187 NA
ATOM     26  N   UNL     1      -2.014  -1.786   3.253  1.00  0.00    -0.187 NA
ATOM     27  C   UNL     1       0.210  -2.074   4.786  1.00  0.00     0.221 A 
ATOM     28  C   UNL     1      -1.423  -2.975   3.365  1.00  0.00     0.221 A 
ATOM     29  C   UNL     1      -0.246  -3.145   4.052  1.00  0.00     0.063 A 
ATOM     30  H   UNL     1       0.273  -4.036   4.019  1.00  0.00     0.074 H 
BRANCH  27  31
ATOM     31  O   UNL     1       1.245  -2.107   5.679  1.00  0.00    -0.477 OA
BRANCH  31  32
ATOM     32  C   UNL     1       2.245  -3.111   5.558  1.00  0.00     0.090 C 
ATOM     33  H   UNL     1       3.193  -2.653   5.750  1.00  0.00     0.071 H 
ATOM     34  H   UNL     1       2.141  -3.504   4.569  1.00  0.00     0.071 H 
BRANCH  32  35
ATOM     35  C   UNL     1       2.104  -4.324   6.507  1.00  0.00    -0.016 C 
ATOM     36  H   UNL     1       2.508  -4.041   7.457  1.00  0.00     0.030 H 
ATOM     37  H   UNL     1       2.624  -5.123   6.021  1.00  0.00     0.030 H 
BRANCH  35  38
ATOM     38  C   UNL     1       0.683  -4.852   6.744  1.00  0.00    -0.038 C 
ATOM     39  C   UNL     1       0.635  -6.311   7.218  1.00  0.00    -0.050 C 
ATOM     40  C   UNL     1      -0.118  -3.991   7.731  1.00  0.00    -0.050 C 
ATOM     41  H   UNL     1       0.229  -4.796   5.777  1.00  0.00     0.030 H 
ATOM     42  C   UNL     1      -0.820  -6.799   7.236  1.00  0.00    -0.053 C 
ATOM     43  H   UNL     1       1.046  -6.380   8.204  1.00  0.00     0.027 H 
ATOM     44  H   UNL     1       1.207  -6.921   6.550  1.00  0.00     0.027 H 
ATOM     45  C   UNL     1      -1.583  -4.413   7.707  1.00  0.00    -0.053 C 
ATOM     46  H   UNL     1      -0.039  -2.961   7.449  1.00  0.00     0.027 H 
ATOM     47  H   UNL     1       0.275  -4.124   8.717  1.00  0.00     0.027 H 
ATOM     48  C   UNL     1      -1.740  -5.891   8.054  1.00  0.00    -0.053 C 
ATOM     49  H   UNL     1      -0.846  -7.782   7.658  1.00  0.00     0.027 H 
ATOM     50  H   UNL     1      -1.174  -6.791   6.226  1.00  0.00     0.027 H 
ATOM     51  H   UNL     1      -2.125  -3.828   8.420  1.00  0.00     0.027 H 
ATOM     52  H   UNL     1      -1.964  -4.255   6.720  1.00  0.00     0.027 H 
ATOM     53  H   UNL     1      -1.515  -6.023   9.091  1.00  0.00     0.027 H 
ATOM     54  H   UNL     1      -2.748  -6.167   7.825  1.00  0.00     0.027 H 
ENDBRANCH  35  38
ENDBRANCH  32  35
ENDBRANCH  31  32
ENDBRANCH  27  31
BRANCH  28  55
ATOM     55  O   UNL     1      -2.060  -3.945   2.656  1.00  0.00    -0.477 OA
BRANCH  55  56
ATOM     56  C   UNL     1      -1.967  -5.299   3.086  1.00  0.00     0.090 C 
ATOM     57  H   UNL     1      -2.886  -5.591   3.549  1.00  0.00     0.071 H 
ATOM     58  H   UNL     1      -1.168  -5.398   3.791  1.00  0.00     0.071 H 
BRANCH  56  59
ATOM     59  C   UNL     1      -1.696  -6.197   1.872  1.00  0.00    -0.016 C 
ATOM     60  H   UNL     1      -2.368  -5.899   1.094  1.00  0.00     0.030 H 
ATOM     61  H   UNL     1      -1.835  -7.196   2.227  1.00  0.00     0.030 H 
BRANCH  59  62
ATOM     62  C   UNL     1      -0.261  -6.170   1.288  1.00  0.00    -0.038 C 
ATOM     63  C   UNL     1       0.170  -4.802   0.719  1.00  0.00    -0.050 C 
ATOM     64  C   UNL     1       0.738  -6.862   2.223  1.00  0.00    -0.050 C 
ATOM     65  H   UNL     1      -0.268  -6.770   0.402  1.00  0.00     0.030 H 
ATOM     66  C   UNL     1       1.533  -4.224   1.111  1.00  0.00    -0.053 C 
ATOM     67  H   UNL     1      -0.570  -4.090   1.022  1.00  0.00     0.027 H 
ATOM     68  H   UNL     1       0.263  -4.981  -0.332  1.00  0.00     0.027 H 
ATOM     69  C   UNL     1       2.179  -6.541   1.863  1.00  0.00    -0.053 C 
ATOM     70  H   UNL     1       0.595  -7.920   2.159  1.00  0.00     0.027 H 
ATOM     71  H   UNL     1       0.560  -6.503   3.216  1.00  0.00     0.027 H 
ATOM     72  C   UNL     1       2.398  -5.056   2.041  1.00  0.00    -0.053 C 
ATOM     73  H   UNL     1       1.358  -3.283   1.590  1.00  0.00     0.027 H 
ATOM     74  H   UNL     1       2.084  -4.171   0.195  1.00  0.00     0.027 H 
ATOM     75  H   UNL     1       2.841  -7.083   2.507  1.00  0.00     0.027 H 
ATOM     76  H   UNL     1       2.376  -6.823   0.850  1.00  0.00     0.027 H 
ATOM     77  H   UNL     1       2.165  -4.794   3.052  1.00  0.00     0.027 H 
ATOM     78  H   UNL     1       3.420  -4.848   1.804  1.00  0.00     0.027 H 
ENDBRANCH  59  62
ENDBRANCH  56  59
ENDBRANCH  55  56
ENDBRANCH  28  55
ENDBRANCH  23  24
ENDBRANCH   8  23
ENDBRANCH   5   8
ENDBRANCH   1   4
BRANCH   1  79
ATOM     79  C   UNL     1       0.766   4.348   4.761  1.00  0.00    -0.036 C 
ATOM     80  H   UNL     1       1.334   4.323   3.854  1.00  0.00     0.028 H 
ATOM     81  H   UNL     1       1.306   3.933   5.587  1.00  0.00     0.028 H 
BRANCH  79  82
ATOM     82  C   UNL     1       0.464   5.808   5.105  1.00  0.00    -0.052 C 
ATOM     83  H   UNL     1      -0.093   6.232   4.296  1.00  0.00     0.027 H 
ATOM     84  H   UNL     1       1.410   6.284   5.260  1.00  0.00     0.027 H 
BRANCH  82  85
ATOM     85  C   UNL     1      -0.338   6.008   6.395  1.00  0.00    -0.052 C 
ATOM     86  H   UNL     1      -1.310   5.583   6.250  1.00  0.00     0.027 H 
ATOM     87  H   UNL     1      -0.356   7.063   6.573  1.00  0.00     0.027 H 
BRANCH  85  88
ATOM     88  C   UNL     1       0.274   5.375   7.649  1.00  0.00    -0.036 C 
ATOM     89  H   UNL     1       0.272   4.313   7.521  1.00  0.00     0.028 H 
ATOM     90  H   UNL     1      -0.323   5.702   8.474  1.00  0.00     0.028 H 
BRANCH  88  91
ATOM     91  C   UNL     1       1.704   5.812   7.954  1.00  0.00     0.018 C 
ATOM     92  H   UNL     1       2.339   5.501   7.151  1.00  0.00     0.049 H 
ATOM     93  H   UNL     1       1.997   5.360   8.879  1.00  0.00     0.049 H 
BRANCH  91  94
ATOM     94  N   UNL     1       1.814   7.255   8.106  1.00  0.00    -0.352 N 
ATOM     95  C   UNL     1       2.427   7.984   9.084  1.00  0.00     0.251 C 
ATOM     96  H   UNL     1       1.381   7.784   7.398  1.00  0.00     0.163 HD
ATOM     97  O   UNL     1       2.259   9.207   9.136  1.00  0.00    -0.269 OA
BRANCH  95  98
ATOM     98  C   UNL     1       3.281   7.325  10.090  1.00  0.00     0.039 A 
ATOM     99  C   UNL     1       3.168   7.722  11.425  1.00  0.00    -0.049 A 
ATOM    100  C   UNL     1       4.220   6.355   9.722  1.00  0.00    -0.049 A 
ATOM    101  C   UNL     1       3.967   7.120  12.397  1.00  0.00    -0.053 A 
ATOM    102  H   UNL     1       2.496   8.458  11.691  1.00  0.00     0.063 H 
ATOM    103  C   UNL     1       4.976   5.714  10.700  1.00  0.00    -0.053 A 
ATOM    104  H   UNL     1       4.351   6.115   8.726  1.00  0.00     0.063 H 
ATOM    105  C   UNL     1       4.863   6.098  12.044  1.00  0.00    -0.014 A 
ATOM    106  H   UNL     1       3.899   7.427  13.380  1.00  0.00     0.063 H 
ATOM    107  H   UNL     1       5.622   4.954  10.435  1.00  0.00     0.063 H 
BRANCH 105 108
ATOM    108  C   UNL     1       5.687   5.430  13.081  1.00  0.00     0.031 A 
ATOM    109  C   UNL     1       7.177   5.618  13.106  1.00  0.00     0.074 A 
ATOM    110  C   UNL     1       5.091   4.623  13.978  1.00  0.00     0.049 A 
ATOM    111  N   UNL     1       8.060   5.116  13.932  1.00  0.00    -0.248 NA
ATOM    112  C   UNL     1       7.756   6.463  12.050  1.00  0.00    -0.034 C 
ATOM    113  C   UNL     1       3.660   4.316  14.016  1.00  0.00    -0.036 A 
ATOM    114  N   UNL     1       5.613   3.911  15.027  1.00  0.00    -0.354 N 
ATOM    115  C   UNL     1       9.294   5.572  13.490  1.00  0.00     0.074 A 
ATOM    116  C   UNL     1       9.054   6.354  12.296  1.00  0.00    -0.034 C 
ATOM    117  H   UNL     1       7.277   7.000  11.310  1.00  0.00     0.065 H 
ATOM    118  C   UNL     1       3.415   3.496  15.051  1.00  0.00    -0.036 A 
ATOM    119  H   UNL     1       2.953   4.673  13.354  1.00  0.00     0.065 H 
ATOM    120  C   UNL     1       4.672   3.204  15.733  1.00  0.00     0.049 A 
ATOM    121  H   UNL     1       6.572   3.907  15.252  1.00  0.00     0.167 HD
ATOM    122  C   UNL     1      10.515   5.375  14.043  1.00  0.00     0.037 A 
ATOM    123  H   UNL     1       9.796   6.773  11.713  1.00  0.00     0.065 H 
ATOM    124  H   UNL     1       2.488   3.131  15.320  1.00  0.00     0.065 H 
ATOM    125  C   UNL     1       4.809   2.413  16.814  1.00  0.00     0.037 A 
ATOM    126  C   UNL     1      10.747   4.622  15.248  1.00  0.00     0.049 A 
ATOM    127  C   UNL     1       6.170   2.241  17.429  1.00  0.00     0.074 A 
ATOM    128  C   UNL     1      11.936   4.421  15.926  1.00  0.00    -0.036 A 
ATOM    129  N   UNL     1       9.764   3.945  15.955  1.00  0.00    -0.354 N 
ATOM    130  N   UNL     1       7.320   2.741  17.047  1.00  0.00    -0.248 NA
ATOM    131  C   UNL     1       6.249   1.404  18.634  1.00  0.00    -0.034 C 
ATOM    132  C   UNL     1      11.680   3.593  17.025  1.00  0.00    -0.036 A 
ATOM    133  H   UNL     1      12.854   4.814  15.667  1.00  0.00     0.065 H 
ATOM    134  C   UNL     1      10.323   3.312  17.054  1.00  0.00     0.049 A 
ATOM    135  H   UNL     1       8.810   3.919  15.713  1.00  0.00     0.167 HD
ATOM    136  C   UNL     1       8.254   2.298  17.973  1.00  0.00     0.074 A 
ATOM    137  C   UNL     1       7.533   1.505  18.947  1.00  0.00    -0.034 C 
ATOM    138  H   UNL     1       5.502   0.876  19.111  1.00  0.00     0.065 H 
ATOM    139  H   UNL     1      12.381   3.251  17.700  1.00  0.00     0.065 H 
ATOM    140  C   UNL     1       9.590   2.526  18.012  1.00  0.00     0.037 A 
ATOM    141  H   UNL     1       7.964   1.074  19.779  1.00  0.00     0.065 H 
BRANCH 122 142
ATOM    142  C   UNL     1      11.697   5.990  13.354  1.00  0.00     0.064 A 
ATOM    143  C   UNL     1      11.920   7.375  13.375  1.00  0.00     0.173 A 
ATOM    144  C   UNL     1      12.639   5.183  12.699  1.00  0.00     0.173 A 
ATOM    145  F   UNL     1      11.042   8.190  13.977  1.00  0.00    -0.203 F 
ATOM    146  C   UNL     1      13.030   7.931  12.746  1.00  0.00     0.198 A 
ATOM    147  C   UNL     1      13.763   5.740  12.094  1.00  0.00     0.198 A 
ATOM    148  F   UNL     1      12.476   3.852  12.653  1.00  0.00    -0.203 F 
ATOM    149  F   UNL     1      13.201   9.261  12.743  1.00  0.00    -0.200 F 
ATOM    150  C   UNL     1      13.954   7.114  12.112  1.00  0.00     0.200 A 
ATOM    151  F   UNL     1      14.660   4.948  11.491  1.00  0.00    -0.200 F 
ATOM    152  F   UNL     1      15.026   7.650  11.513  1.00  0.00    -0.200 F 
ENDBRANCH 122 142
BRANCH 125 153
ATOM    153  C   UNL     1       3.616   1.758  17.405  1.00  0.00     0.064 A 
ATOM    154  C   UNL     1       3.096   2.185  18.635  1.00  0.00     0.173 A 
ATOM    155  C   UNL     1       2.971   0.696  16.756  1.00  0.00     0.173 A 
ATOM    156  F   UNL     1       3.692   3.185  19.302  1.00  0.00    -0.203 F 
ATOM    157  C   UNL     1       1.987   1.562  19.202  1.00  0.00     0.198 A 
ATOM    158  C   UNL     1       1.847   0.090  17.312  1.00  0.00     0.198 A 
ATOM    159  F   UNL     1       3.428   0.255  15.575  1.00  0.00    -0.203 F 
ATOM    160  F   UNL     1       1.536   1.962  20.399  1.00  0.00    -0.200 F 
ATOM    161  C   UNL     1       1.360   0.518  18.538  1.00  0.00     0.200 A 
ATOM    162  F   UNL     1       1.237  -0.911  16.663  1.00  0.00    -0.200 F 
ATOM    163  F   UNL     1       0.292  -0.080  19.084  1.00  0.00    -0.200 F 
ENDBRANCH 125 153
BRANCH 140 164
ATOM    164  C   UNL     1      10.350   1.923  19.155  1.00  0.00     0.064 A 
ATOM    165  C   UNL     1      10.603   0.545  19.221  1.00  0.00     0.173 A 
ATOM    166  C   UNL     1      10.850   2.735  20.184  1.00  0.00     0.173 A 
ATOM    167  F   UNL     1      10.131  -0.274  18.268  1.00  0.00    -0.203 F 
ATOM    168  C   UNL     1      11.304  -0.003  20.291  1.00  0.00     0.198 A 
ATOM    169  C   UNL     1      11.574   2.187  21.239  1.00  0.00     0.198 A 
ATOM    170  F   UNL     1      10.639   4.059  20.163  1.00  0.00    -0.203 F 
ATOM    171  F   UNL     1      11.492  -1.328  20.359  1.00  0.00    -0.200 F 
ATOM    172  C   UNL     1      11.794   0.819  21.296  1.00  0.00     0.200 A 
ATOM    173  F   UNL     1      12.055   2.983  22.204  1.00  0.00    -0.200 F 
ATOM    174  F   UNL     1      12.469   0.290  22.325  1.00  0.00    -0.200 F 
ENDBRANCH 140 164
ENDBRANCH 105 108
ENDBRANCH  95  98
ENDBRANCH  91  94
ENDBRANCH  88  91
ENDBRANCH  85  88
ENDBRANCH  82  85
ENDBRANCH  79  82
ENDBRANCH   1  79
TORSDOF 27
