REMARK SMILES CS(=O)(=O)c1ccc(-c2cc(Cl)cnc2-c2ccc(C(=O)NCCCCCCNC(=O)c3ccc(-c4c5nc(c(-c6c(F)c(F)c(F)c(F)c6F)c6ccc([nH]6)c(-c6c(F)c(F)c(F)c(F)c6F)c6nc(c(-c7c(F)c(F)c(F)c(F)c7F)c7ccc4[nH]7)C=C6)C=C5)cc3)nc2)cc1
REMARK SMILES IDX 24 1 23 4 22 7 20 8 21 9 19 11 16 12 17 13 96 14 18 15 95 17
REMARK SMILES IDX 15 20 9 21 10 22 11 23 14 25 12 26 13 27 8 29 5 30 6 31
REMARK SMILES IDX 98 32 7 33 97 35 2 39 3 40 4 41 1 42 25 46 26 49 27 52 28 55
REMARK SMILES IDX 29 58 30 59 31 61 32 62 33 63 94 64 34 65 93 67 35 69 36 72
REMARK SMILES IDX 37 73 87 74 38 75 92 76 86 77 88 78 39 79 91 80 85 82 84 84
REMARK SMILES IDX 40 86 72 89 52 90 71 91 53 92 56 93 70 94 89 95 54 96 55 98
REMARK SMILES IDX 69 100 90 101 57 104 41 106 42 107 50 108 43 109 44 110
REMARK SMILES IDX 48 111 51 112 45 113 46 114 49 115 47 116 73 117 74 118
REMARK SMILES IDX 82 119 75 120 76 121 80 122 83 123 77 124 78 125 81 126
REMARK SMILES IDX 79 127 58 128 59 129 67 130 60 131 61 132 65 133 68 134
REMARK SMILES IDX 62 135 63 136 66 137 64 138
REMARK H PARENT 24 2 24 3 23 5 23 6 22 10 17 16 96 18 18 19 10 24 13 28 6 34
REMARK H PARENT 98 36 7 37 97 38 1 43 1 44 1 45 25 47 25 48 26 50 26 51 27 53
REMARK H PARENT 27 54 28 56 28 57 29 60 33 66 94 68 34 70 93 71 92 81 86 83
REMARK H PARENT 88 85 91 87 85 88 53 97 56 99 89 102 54 103 90 105
REMARK Flexibility Score: inf
ROOT
ATOM      1  C   UNL     1       7.434  -2.628  -0.038  1.00  0.00    -0.036 C 
ATOM      2  H   UNL     1       7.793  -3.558   0.350  1.00  0.00     0.028 H 
ATOM      3  H   UNL     1       7.460  -1.845   0.690  1.00  0.00     0.028 H 
ENDROOT
BRANCH   1   4
ATOM      4  C   UNL     1       5.970  -2.809  -0.449  1.00  0.00     0.018 C 
ATOM      5  H   UNL     1       5.353  -2.784   0.425  1.00  0.00     0.049 H 
ATOM      6  H   UNL     1       5.696  -2.017  -1.115  1.00  0.00     0.049 H 
BRANCH   4   7
ATOM      7  N   UNL     1       5.790  -4.077  -1.126  1.00  0.00    -0.351 N 
ATOM      8  C   UNL     1       5.255  -5.282  -0.728  1.00  0.00     0.269 C 
ATOM      9  O   UNL     1       5.240  -6.180  -1.572  1.00  0.00    -0.268 OA
ATOM     10  H   UNL     1       6.115  -4.077  -2.055  1.00  0.00     0.163 HD
BRANCH   8  11
ATOM     11  C   UNL     1       4.665  -5.519   0.635  1.00  0.00     0.128 A 
ATOM     12  C   UNL     1       3.351  -6.007   3.027  1.00  0.00     0.019 A 
ATOM     13  C   UNL     1       4.423  -5.111   2.986  1.00  0.00    -0.049 A 
ATOM     14  C   UNL     1       3.049  -6.671   1.845  1.00  0.00     0.037 A 
ATOM     15  C   UNL     1       5.108  -4.888   1.790  1.00  0.00    -0.030 A 
ATOM     16  H   UNL     1       4.710  -4.612   3.843  1.00  0.00     0.063 H 
ATOM     17  N   UNL     1       3.653  -6.428   0.658  1.00  0.00    -0.250 NA
ATOM     18  H   UNL     1       2.317  -7.398   1.874  1.00  0.00     0.085 H 
ATOM     19  H   UNL     1       5.930  -4.264   1.764  1.00  0.00     0.065 H 
BRANCH  12  20
ATOM     20  C   UNL     1       2.566  -6.214   4.244  1.00  0.00     0.080 A 
ATOM     21  C   UNL     1       1.628  -5.271   4.716  1.00  0.00     0.010 A 
ATOM     22  C   UNL     1       0.993  -5.557   5.937  1.00  0.00    -0.032 A 
ATOM     23  C   UNL     1       1.288  -6.731   6.621  1.00  0.00     0.060 A 
ATOM     24  H   UNL     1       0.305  -4.894   6.326  1.00  0.00     0.065 H 
ATOM     25  N   UNL     1       2.849  -7.373   4.896  1.00  0.00    -0.254 NA
ATOM     26  Cl  UNL     1       0.532  -7.082   8.120  1.00  0.00    -0.083 Cl
ATOM     27  C   UNL     1       2.207  -7.603   6.066  1.00  0.00     0.046 A 
ATOM     28  H   UNL     1       2.415  -8.478   6.571  1.00  0.00     0.086 H 
BRANCH  21  29
ATOM     29  C   UNL     1       1.301  -4.029   3.994  1.00  0.00    -0.016 A 
ATOM     30  C   UNL     1       0.684  -1.656   2.619  1.00  0.00     0.067 A 
ATOM     31  C   UNL     1       0.358  -2.888   2.050  1.00  0.00    -0.043 A 
ATOM     32  C   UNL     1       1.300  -1.593   3.869  1.00  0.00    -0.043 A 
ATOM     33  C   UNL     1       0.668  -4.065   2.738  1.00  0.00    -0.053 A 
ATOM     34  H   UNL     1      -0.108  -2.929   1.130  1.00  0.00     0.064 H 
ATOM     35  C   UNL     1       1.604  -2.775   4.551  1.00  0.00    -0.053 A 
ATOM     36  H   UNL     1       1.531  -0.678   4.289  1.00  0.00     0.064 H 
ATOM     37  H   UNL     1       0.428  -4.976   2.317  1.00  0.00     0.063 H 
ATOM     38  H   UNL     1       2.057  -2.726   5.477  1.00  0.00     0.063 H 
BRANCH  30  39
ATOM     39  S   UNL     1       0.276  -0.154   1.760  1.00  0.00     0.175 S 
ATOM     40  O   UNL     1       0.936   0.935   2.452  1.00  0.00    -0.224 OA
ATOM     41  O   UNL     1      -1.163  -0.161   1.569  1.00  0.00    -0.224 OA
BRANCH  39  42
ATOM     42  C   UNL     1       1.052  -0.311   0.174  1.00  0.00     0.043 C 
ATOM     43  H   UNL     1       0.852   0.563  -0.409  1.00  0.00     0.040 H 
ATOM     44  H   UNL     1       0.665  -1.172  -0.329  1.00  0.00     0.040 H 
ATOM     45  H   UNL     1       2.109  -0.419   0.304  1.00  0.00     0.040 H 
ENDBRANCH  39  42
ENDBRANCH  30  39
ENDBRANCH  21  29
ENDBRANCH  12  20
ENDBRANCH   8  11
ENDBRANCH   4   7
ENDBRANCH   1   4
BRANCH   1  46
ATOM     46  C   UNL     1       8.350  -2.199  -1.193  1.00  0.00    -0.052 C 
ATOM     47  H   UNL     1       8.269  -2.931  -1.970  1.00  0.00     0.027 H 
ATOM     48  H   UNL     1       9.334  -2.123  -0.780  1.00  0.00     0.027 H 
BRANCH  46  49
ATOM     49  C   UNL     1       8.034  -0.826  -1.800  1.00  0.00    -0.052 C 
ATOM     50  H   UNL     1       7.086  -0.892  -2.293  1.00  0.00     0.027 H 
ATOM     51  H   UNL     1       8.845  -0.601  -2.461  1.00  0.00     0.027 H 
BRANCH  49  52
ATOM     52  C   UNL     1       7.967   0.331  -0.800  1.00  0.00    -0.036 C 
ATOM     53  H   UNL     1       7.190   0.119  -0.096  1.00  0.00     0.028 H 
ATOM     54  H   UNL     1       7.785   1.217  -1.373  1.00  0.00     0.028 H 
BRANCH  52  55
ATOM     55  C   UNL     1       9.258   0.577  -0.024  1.00  0.00     0.018 C 
ATOM     56  H   UNL     1       9.553  -0.334   0.453  1.00  0.00     0.049 H 
ATOM     57  H   UNL     1       9.071   1.347   0.696  1.00  0.00     0.049 H 
BRANCH  55  58
ATOM     58  N   UNL     1      10.336   1.024  -0.890  1.00  0.00    -0.352 N 
ATOM     59  C   UNL     1      11.135   2.134  -0.784  1.00  0.00     0.251 C 
ATOM     60  H   UNL     1      10.520   0.446  -1.666  1.00  0.00     0.163 HD
ATOM     61  O   UNL     1      11.860   2.464  -1.718  1.00  0.00    -0.269 OA
BRANCH  59  62
ATOM     62  C   UNL     1      11.118   2.946   0.452  1.00  0.00     0.039 A 
ATOM     63  C   UNL     1      11.094   4.339   0.343  1.00  0.00    -0.049 A 
ATOM     64  C   UNL     1      11.164   2.340   1.711  1.00  0.00    -0.049 A 
ATOM     65  C   UNL     1      11.068   5.125   1.498  1.00  0.00    -0.053 A 
ATOM     66  H   UNL     1      11.095   4.786  -0.587  1.00  0.00     0.063 H 
ATOM     67  C   UNL     1      11.078   3.121   2.860  1.00  0.00    -0.053 A 
ATOM     68  H   UNL     1      11.261   1.315   1.788  1.00  0.00     0.063 H 
ATOM     69  C   UNL     1      11.038   4.521   2.765  1.00  0.00    -0.014 A 
ATOM     70  H   UNL     1      11.072   6.154   1.419  1.00  0.00     0.063 H 
ATOM     71  H   UNL     1      11.044   2.668   3.787  1.00  0.00     0.063 H 
BRANCH  69  72
ATOM     72  C   UNL     1      10.982   5.337   4.002  1.00  0.00     0.031 A 
ATOM     73  C   UNL     1      12.143   5.340   4.956  1.00  0.00     0.074 A 
ATOM     74  C   UNL     1       9.864   6.027   4.296  1.00  0.00     0.049 A 
ATOM     75  N   UNL     1      12.259   5.928   6.120  1.00  0.00    -0.248 NA
ATOM     76  C   UNL     1      13.323   4.555   4.561  1.00  0.00    -0.034 C 
ATOM     77  C   UNL     1       8.655   6.067   3.472  1.00  0.00    -0.036 A 
ATOM     78  N   UNL     1       9.557   6.817   5.376  1.00  0.00    -0.354 N 
ATOM     79  C   UNL     1      13.511   5.570   6.602  1.00  0.00     0.074 A 
ATOM     80  C   UNL     1      14.100   4.678   5.628  1.00  0.00    -0.034 C 
ATOM     81  H   UNL     1      13.499   4.042   3.683  1.00  0.00     0.065 H 
ATOM     82  C   UNL     1       7.745   6.855   4.066  1.00  0.00    -0.036 A 
ATOM     83  H   UNL     1       8.524   5.570   2.577  1.00  0.00     0.065 H 
ATOM     84  C   UNL     1       8.293   7.350   5.326  1.00  0.00     0.049 A 
ATOM     85  H   UNL     1      10.184   6.985   6.115  1.00  0.00     0.167 HD
ATOM     86  C   UNL     1      14.122   5.968   7.744  1.00  0.00     0.037 A 
ATOM     87  H   UNL     1      15.006   4.199   5.747  1.00  0.00     0.065 H 
ATOM     88  H   UNL     1       6.808   7.076   3.693  1.00  0.00     0.065 H 
ATOM     89  C   UNL     1       7.649   8.145   6.201  1.00  0.00     0.037 A 
ATOM     90  C   UNL     1      13.546   6.883   8.694  1.00  0.00     0.049 A 
ATOM     91  C   UNL     1       8.355   8.582   7.455  1.00  0.00     0.074 A 
ATOM     92  C   UNL     1      14.110   7.395   9.850  1.00  0.00    -0.036 A 
ATOM     93  N   UNL     1      12.274   7.425   8.595  1.00  0.00    -0.354 N 
ATOM     94  N   UNL     1       9.562   8.286   7.870  1.00  0.00    -0.248 NA
ATOM     95  C   UNL     1       7.610   9.472   8.357  1.00  0.00    -0.034 C 
ATOM     96  C   UNL     1      13.164   8.220  10.469  1.00  0.00    -0.036 A 
ATOM     97  H   UNL     1      15.062   7.202  10.196  1.00  0.00     0.065 H 
ATOM     98  C   UNL     1      12.027   8.254   9.678  1.00  0.00     0.049 A 
ATOM     99  H   UNL     1      11.639   7.247   7.864  1.00  0.00     0.167 HD
ATOM    100  C   UNL     1       9.732   8.970   9.066  1.00  0.00     0.074 A 
ATOM    101  C   UNL     1       8.509   9.708   9.303  1.00  0.00    -0.034 C 
ATOM    102  H   UNL     1       6.643   9.821   8.276  1.00  0.00     0.065 H 
ATOM    103  H   UNL     1      13.291   8.718  11.364  1.00  0.00     0.065 H 
ATOM    104  C   UNL     1      10.806   8.987   9.892  1.00  0.00     0.037 A 
ATOM    105  H   UNL     1       8.355  10.337  10.107  1.00  0.00     0.065 H 
BRANCH  86 106
ATOM    106  C   UNL     1      15.489   5.418   8.025  1.00  0.00     0.064 A 
ATOM    107  C   UNL     1      16.609   5.818   7.280  1.00  0.00     0.173 A 
ATOM    108  C   UNL     1      15.689   4.505   9.071  1.00  0.00     0.173 A 
ATOM    109  F   UNL     1      16.469   6.679   6.261  1.00  0.00    -0.203 F 
ATOM    110  C   UNL     1      17.873   5.303   7.554  1.00  0.00     0.198 A 
ATOM    111  C   UNL     1      16.959   4.013   9.360  1.00  0.00     0.198 A 
ATOM    112  F   UNL     1      14.652   4.093   9.817  1.00  0.00    -0.203 F 
ATOM    113  F   UNL     1      18.920   5.663   6.798  1.00  0.00    -0.200 F 
ATOM    114  C   UNL     1      18.048   4.406   8.597  1.00  0.00     0.200 A 
ATOM    115  F   UNL     1      17.129   3.155  10.376  1.00  0.00    -0.200 F 
ATOM    116  F   UNL     1      19.267   3.914   8.863  1.00  0.00    -0.200 F 
ENDBRANCH  86 106
BRANCH  89 117
ATOM    117  C   UNL     1       6.268   8.605   5.904  1.00  0.00     0.064 A 
ATOM    118  C   UNL     1       6.016   9.940   5.561  1.00  0.00     0.173 A 
ATOM    119  C   UNL     1       5.178   7.725   5.953  1.00  0.00     0.173 A 
ATOM    120  F   UNL     1       7.025  10.823   5.522  1.00  0.00    -0.203 F 
ATOM    121  C   UNL     1       4.722  10.383   5.295  1.00  0.00     0.198 A 
ATOM    122  C   UNL     1       3.888   8.163   5.663  1.00  0.00     0.198 A 
ATOM    123  F   UNL     1       5.369   6.436   6.271  1.00  0.00    -0.203 F 
ATOM    124  F   UNL     1       4.503  11.673   5.009  1.00  0.00    -0.200 F 
ATOM    125  C   UNL     1       3.660   9.492   5.341  1.00  0.00     0.200 A 
ATOM    126  F   UNL     1       2.865   7.297   5.697  1.00  0.00    -0.200 F 
ATOM    127  F   UNL     1       2.416   9.918   5.081  1.00  0.00    -0.200 F 
ENDBRANCH  89 117
BRANCH 104 128
ATOM    128  C   UNL     1      10.719   9.853  11.113  1.00  0.00     0.064 A 
ATOM    129  C   UNL     1       9.928   9.493  12.213  1.00  0.00     0.173 A 
ATOM    130  C   UNL     1      11.468  11.037  11.198  1.00  0.00     0.173 A 
ATOM    131  F   UNL     1       9.183   8.379  12.173  1.00  0.00    -0.203 F 
ATOM    132  C   UNL     1       9.874  10.299  13.348  1.00  0.00     0.198 A 
ATOM    133  C   UNL     1      11.431  11.826  12.343  1.00  0.00     0.198 A 
ATOM    134  F   UNL     1      12.244  11.421  10.173  1.00  0.00    -0.203 F 
ATOM    135  F   UNL     1       9.080   9.957  14.372  1.00  0.00    -0.200 F 
ATOM    136  C   UNL     1      10.630  11.460  13.415  1.00  0.00     0.200 A 
ATOM    137  F   UNL     1      12.171  12.941  12.411  1.00  0.00    -0.200 F 
ATOM    138  F   UNL     1      10.581  12.230  14.510  1.00  0.00    -0.200 F 
ENDBRANCH 104 128
ENDBRANCH  69  72
ENDBRANCH  59  62
ENDBRANCH  55  58
ENDBRANCH  52  55
ENDBRANCH  49  52
ENDBRANCH  46  49
ENDBRANCH   1  46
TORSDOF 17
