REMARK SMILES COc1ccc(C(=O)c2ccccc2)cc1[C@@H](C)C(=O)NCCCCCCNC(=O)c1ccc(-c2c3nc(c(-c4c(F)c(F)c(F)c(F)c4F)c4ccc([nH]4)c(-c4c(F)c(F)c(F)c(F)c4F)c4nc(c(-c5c(F)c(F)c(F)c(F)c5F)c5ccc2[nH]5)C=C4)C=C3)cc1
REMARK SMILES IDX 24 1 23 4 22 7 21 10 19 11 20 12 17 14 16 16 3 17 4 18 5 19
REMARK SMILES IDX 15 21 6 22 2 25 1 26 7 30 8 31 9 32 10 33 14 34 11 35 13 37
REMARK SMILES IDX 12 39 18 43 25 47 26 50 27 53 28 56 29 57 30 59 31 60 32 61
REMARK SMILES IDX 93 62 33 63 92 65 34 67 35 70 36 71 86 72 37 73 91 74 85 75
REMARK SMILES IDX 87 76 38 77 90 78 84 80 83 82 39 84 71 87 51 88 70 89 52 90
REMARK SMILES IDX 55 91 69 92 88 93 53 94 54 96 68 98 89 99 56 102 40 104
REMARK SMILES IDX 41 105 49 106 42 107 43 108 47 109 50 110 44 111 45 112
REMARK SMILES IDX 48 113 46 114 72 115 73 116 81 117 74 118 75 119 79 120
REMARK SMILES IDX 82 121 76 122 77 123 80 124 78 125 57 126 58 127 66 128
REMARK SMILES IDX 59 129 60 130 64 131 67 132 61 133 62 134 65 135 63 136
REMARK H PARENT 24 2 24 3 23 5 23 6 22 8 22 9 21 13 17 15 4 20 5 23 15 24 1 27
REMARK H PARENT 1 28 1 29 10 36 14 38 11 40 13 41 12 42 18 44 18 45 18 46
REMARK H PARENT 25 48 25 49 26 51 26 52 27 54 27 55 28 58 32 64 93 66 33 68
REMARK H PARENT 92 69 91 79 85 81 87 83 90 85 84 86 52 95 55 97 88 100 53 101
REMARK H PARENT 89 103
REMARK Flexibility Score: inf
ROOT
ATOM      1  C   UNL     1       4.964  -5.691   3.205  1.00  0.00    -0.052 C 
ATOM      2  H   UNL     1       4.740  -5.937   2.188  1.00  0.00     0.027 H 
ATOM      3  H   UNL     1       4.423  -6.267   3.926  1.00  0.00     0.027 H 
ENDROOT
BRANCH   1   4
ATOM      4  C   UNL     1       4.542  -4.237   3.439  1.00  0.00    -0.036 C 
ATOM      5  H   UNL     1       3.478  -4.183   3.336  1.00  0.00     0.028 H 
ATOM      6  H   UNL     1       4.896  -3.984   4.417  1.00  0.00     0.028 H 
BRANCH   4   7
ATOM      7  C   UNL     1       5.160  -3.205   2.490  1.00  0.00     0.017 C 
ATOM      8  H   UNL     1       5.162  -2.249   2.971  1.00  0.00     0.049 H 
ATOM      9  H   UNL     1       6.155  -3.522   2.258  1.00  0.00     0.049 H 
BRANCH   7  10
ATOM     10  N   UNL     1       4.421  -3.101   1.244  1.00  0.00    -0.356 N 
ATOM     11  C   UNL     1       3.585  -2.163   0.724  1.00  0.00     0.227 C 
ATOM     12  O   UNL     1       3.068  -2.455  -0.364  1.00  0.00    -0.274 OA
ATOM     13  H   UNL     1       4.552  -3.875   0.651  1.00  0.00     0.163 HD
BRANCH  11  14
ATOM     14  C   UNL     1       3.233  -0.818   1.387  1.00  0.00     0.064 C 
ATOM     15  H   UNL     1       2.894  -0.228   0.562  1.00  0.00     0.045 H 
BRANCH  14  16
ATOM     16  C   UNL     1       2.061  -0.914   2.355  1.00  0.00     0.007 A 
ATOM     17  C   UNL     1       0.790  -0.389   2.068  1.00  0.00     0.122 A 
ATOM     18  C   UNL     1      -0.263  -0.519   2.981  1.00  0.00    -0.019 A 
ATOM     19  C   UNL     1      -0.063  -1.159   4.206  1.00  0.00    -0.047 A 
ATOM     20  H   UNL     1      -1.193  -0.138   2.748  1.00  0.00     0.066 H 
ATOM     21  C   UNL     1       2.238  -1.531   3.607  1.00  0.00    -0.043 A 
ATOM     22  C   UNL     1       1.202  -1.641   4.543  1.00  0.00     0.023 A 
ATOM     23  H   UNL     1      -0.852  -1.275   4.862  1.00  0.00     0.063 H 
ATOM     24  H   UNL     1       3.166  -1.917   3.845  1.00  0.00     0.064 H 
BRANCH  17  25
ATOM     25  O   UNL     1       0.551   0.419   0.989  1.00  0.00    -0.496 OA
BRANCH  25  26
ATOM     26  C   UNL     1       0.426  -0.290  -0.243  1.00  0.00     0.078 C 
ATOM     27  H   UNL     1       0.242   0.404  -1.037  1.00  0.00     0.067 H 
ATOM     28  H   UNL     1      -0.389  -0.980  -0.177  1.00  0.00     0.067 H 
ATOM     29  H   UNL     1       1.331  -0.825  -0.441  1.00  0.00     0.067 H 
ENDBRANCH  25  26
ENDBRANCH  17  25
BRANCH  22  30
ATOM     30  C   UNL     1       1.389  -2.291   5.871  1.00  0.00     0.193 C 
ATOM     31  O   UNL     1       0.401  -2.677   6.493  1.00  0.00    -0.289 OA
BRANCH  30  32
ATOM     32  C   UNL     1       2.725  -2.535   6.473  1.00  0.00     0.022 A 
ATOM     33  C   UNL     1       2.908  -3.734   7.168  1.00  0.00    -0.051 A 
ATOM     34  C   UNL     1       3.770  -1.603   6.417  1.00  0.00    -0.051 A 
ATOM     35  C   UNL     1       4.130  -4.008   7.779  1.00  0.00    -0.062 A 
ATOM     36  H   UNL     1       2.137  -4.417   7.229  1.00  0.00     0.063 H 
ATOM     37  C   UNL     1       5.004  -1.898   7.007  1.00  0.00    -0.062 A 
ATOM     38  H   UNL     1       3.629  -0.698   5.941  1.00  0.00     0.063 H 
ATOM     39  C   UNL     1       5.183  -3.101   7.688  1.00  0.00    -0.062 A 
ATOM     40  H   UNL     1       4.255  -4.888   8.303  1.00  0.00     0.062 H 
ATOM     41  H   UNL     1       5.782  -1.224   6.938  1.00  0.00     0.062 H 
ATOM     42  H   UNL     1       6.093  -3.319   8.122  1.00  0.00     0.062 H 
ENDBRANCH  30  32
ENDBRANCH  22  30
ENDBRANCH  14  16
BRANCH  14  43
ATOM     43  C   UNL     1       4.402   0.013   1.908  1.00  0.00    -0.049 C 
ATOM     44  H   UNL     1       4.840  -0.477   2.753  1.00  0.00     0.024 H 
ATOM     45  H   UNL     1       4.049   0.980   2.200  1.00  0.00     0.024 H 
ATOM     46  H   UNL     1       5.136   0.119   1.137  1.00  0.00     0.024 H 
ENDBRANCH  14  43
ENDBRANCH  11  14
ENDBRANCH   7  10
ENDBRANCH   4   7
ENDBRANCH   1   4
BRANCH   1  47
ATOM     47  C   UNL     1       6.445  -6.014   3.449  1.00  0.00    -0.052 C 
ATOM     48  H   UNL     1       7.013  -5.542   2.674  1.00  0.00     0.027 H 
ATOM     49  H   UNL     1       6.504  -7.082   3.456  1.00  0.00     0.027 H 
BRANCH  47  50
ATOM     50  C   UNL     1       7.032  -5.566   4.794  1.00  0.00    -0.036 C 
ATOM     51  H   UNL     1       6.896  -4.508   4.875  1.00  0.00     0.028 H 
ATOM     52  H   UNL     1       8.056  -5.875   4.781  1.00  0.00     0.028 H 
BRANCH  50  53
ATOM     53  C   UNL     1       6.421  -6.213   6.040  1.00  0.00     0.018 C 
ATOM     54  H   UNL     1       5.355  -6.195   5.946  1.00  0.00     0.049 H 
ATOM     55  H   UNL     1       6.754  -5.654   6.889  1.00  0.00     0.049 H 
BRANCH  53  56
ATOM     56  N   UNL     1       6.847  -7.589   6.227  1.00  0.00    -0.352 N 
ATOM     57  C   UNL     1       7.329  -8.222   7.350  1.00  0.00     0.251 C 
ATOM     58  H   UNL     1       6.780  -8.158   5.426  1.00  0.00     0.163 HD
ATOM     59  O   UNL     1       7.775  -9.362   7.256  1.00  0.00    -0.269 OA
BRANCH  57  60
ATOM     60  C   UNL     1       7.342  -7.551   8.675  1.00  0.00     0.039 A 
ATOM     61  C   UNL     1       8.471  -7.690   9.488  1.00  0.00    -0.049 A 
ATOM     62  C   UNL     1       6.234  -6.858   9.165  1.00  0.00    -0.049 A 
ATOM     63  C   UNL     1       8.503  -7.098  10.758  1.00  0.00    -0.053 A 
ATOM     64  H   UNL     1       9.283  -8.230   9.152  1.00  0.00     0.063 H 
ATOM     65  C   UNL     1       6.292  -6.208  10.408  1.00  0.00    -0.053 A 
ATOM     66  H   UNL     1       5.366  -6.822   8.609  1.00  0.00     0.063 H 
ATOM     67  C   UNL     1       7.425  -6.327  11.227  1.00  0.00    -0.014 A 
ATOM     68  H   UNL     1       9.332  -7.231  11.359  1.00  0.00     0.063 H 
ATOM     69  H   UNL     1       5.492  -5.637  10.722  1.00  0.00     0.063 H 
BRANCH  67  70
ATOM     70  C   UNL     1       7.505  -5.662  12.564  1.00  0.00     0.031 A 
ATOM     71  C   UNL     1       6.581  -6.042  13.694  1.00  0.00     0.074 A 
ATOM     72  C   UNL     1       8.425  -4.699  12.779  1.00  0.00     0.049 A 
ATOM     73  N   UNL     1       6.583  -5.628  14.940  1.00  0.00    -0.248 NA
ATOM     74  C   UNL     1       5.502  -6.991  13.386  1.00  0.00    -0.034 C 
ATOM     75  C   UNL     1       9.343  -4.169  11.771  1.00  0.00    -0.036 A 
ATOM     76  N   UNL     1       8.748  -4.002  13.920  1.00  0.00    -0.354 N 
ATOM     77  C   UNL     1       5.511  -6.259  15.557  1.00  0.00     0.074 A 
ATOM     78  C   UNL     1       4.846  -7.043  14.537  1.00  0.00    -0.034 C 
ATOM     79  H   UNL     1       5.306  -7.488  12.503  1.00  0.00     0.065 H 
ATOM     80  C   UNL     1      10.150  -3.262  12.345  1.00  0.00    -0.036 A 
ATOM     81  H   UNL     1       9.366  -4.447  10.778  1.00  0.00     0.065 H 
ATOM     82  C   UNL     1       9.797  -3.130  13.757  1.00  0.00     0.049 A 
ATOM     83  H   UNL     1       8.271  -4.117  14.774  1.00  0.00     0.167 HD
ATOM     84  C   UNL     1       5.126  -6.216  16.857  1.00  0.00     0.037 A 
ATOM     85  H   UNL     1       3.974  -7.573  14.686  1.00  0.00     0.065 H 
ATOM     86  H   UNL     1      10.900  -2.740  11.865  1.00  0.00     0.065 H 
ATOM     87  C   UNL     1      10.421  -2.326  14.640  1.00  0.00     0.037 A 
ATOM     88  C   UNL     1       5.793  -5.467  17.892  1.00  0.00     0.049 A 
ATOM     89  C   UNL     1       9.998  -2.322  16.084  1.00  0.00     0.074 A 
ATOM     90  C   UNL     1       5.519  -5.440  19.250  1.00  0.00    -0.036 A 
ATOM     91  N   UNL     1       6.860  -4.609  17.686  1.00  0.00    -0.354 N 
ATOM     92  N   UNL     1       9.051  -3.009  16.672  1.00  0.00    -0.248 NA
ATOM     93  C   UNL     1      10.748  -1.438  16.991  1.00  0.00    -0.034 C 
ATOM     94  C   UNL     1       6.393  -4.532  19.859  1.00  0.00    -0.036 A 
ATOM     95  H   UNL     1       4.794  -5.996  19.731  1.00  0.00     0.065 H 
ATOM     96  C   UNL     1       7.241  -4.028  18.888  1.00  0.00     0.049 A 
ATOM     97  H   UNL     1       7.286  -4.435  16.816  1.00  0.00     0.167 HD
ATOM     98  C   UNL     1       9.105  -2.660  18.016  1.00  0.00     0.074 A 
ATOM     99  C   UNL     1      10.191  -1.716  18.162  1.00  0.00    -0.034 C 
ATOM    100  H   UNL     1      11.508  -0.776  16.773  1.00  0.00     0.065 H 
ATOM    101  H   UNL     1       6.402  -4.281  20.860  1.00  0.00     0.065 H 
ATOM    102  C   UNL     1       8.321  -3.088  19.035  1.00  0.00     0.037 A 
ATOM    103  H   UNL     1      10.494  -1.310  19.061  1.00  0.00     0.065 H 
BRANCH  84 104
ATOM    104  C   UNL     1       3.921  -7.023  17.251  1.00  0.00     0.064 A 
ATOM    105  C   UNL     1       3.966  -8.424  17.313  1.00  0.00     0.173 A 
ATOM    106  C   UNL     1       2.729  -6.386  17.629  1.00  0.00     0.173 A 
ATOM    107  F   UNL     1       5.081  -9.079  16.959  1.00  0.00    -0.203 F 
ATOM    108  C   UNL     1       2.853  -9.159  17.711  1.00  0.00     0.198 A 
ATOM    109  C   UNL     1       1.626  -7.124  18.053  1.00  0.00     0.198 A 
ATOM    110  F   UNL     1       2.637  -5.048  17.600  1.00  0.00    -0.203 F 
ATOM    111  F   UNL     1       2.906 -10.498  17.723  1.00  0.00    -0.200 F 
ATOM    112  C   UNL     1       1.687  -8.509  18.087  1.00  0.00     0.200 A 
ATOM    113  F   UNL     1       0.505  -6.495  18.431  1.00  0.00    -0.200 F 
ATOM    114  F   UNL     1       0.620  -9.219  18.480  1.00  0.00    -0.200 F 
ENDBRANCH  84 104
BRANCH  87 115
ATOM    115  C   UNL     1      11.555  -1.478  14.191  1.00  0.00     0.064 A 
ATOM    116  C   UNL     1      12.870  -1.770  14.579  1.00  0.00     0.173 A 
ATOM    117  C   UNL     1      11.346  -0.357  13.376  1.00  0.00     0.173 A 
ATOM    118  F   UNL     1      13.115  -2.819  15.378  1.00  0.00    -0.203 F 
ATOM    119  C   UNL     1      13.932  -0.959  14.185  1.00  0.00     0.198 A 
ATOM    120  C   UNL     1      12.412   0.437  12.960  1.00  0.00     0.198 A 
ATOM    121  F   UNL     1      10.106  -0.040  12.975  1.00  0.00    -0.203 F 
ATOM    122  F   UNL     1      15.174  -1.234  14.606  1.00  0.00    -0.200 F 
ATOM    123  C   UNL     1      13.703   0.140  13.371  1.00  0.00     0.200 A 
ATOM    124  F   UNL     1      12.188   1.491  12.164  1.00  0.00    -0.200 F 
ATOM    125  F   UNL     1      14.725   0.917  12.989  1.00  0.00    -0.200 F 
ENDBRANCH  87 115
BRANCH 102 126
ATOM    126  C   UNL     1       8.621  -2.556  20.408  1.00  0.00     0.064 A 
ATOM    127  C   UNL     1       8.348  -1.225  20.758  1.00  0.00     0.173 A 
ATOM    128  C   UNL     1       9.169  -3.393  21.392  1.00  0.00     0.173 A 
ATOM    129  F   UNL     1       7.838  -0.380  19.850  1.00  0.00    -0.203 F 
ATOM    130  C   UNL     1       8.641  -0.744  22.032  1.00  0.00     0.198 A 
ATOM    131  C   UNL     1       9.435  -2.916  22.674  1.00  0.00     0.198 A 
ATOM    132  F   UNL     1       9.445  -4.676  21.113  1.00  0.00    -0.203 F 
ATOM    133  F   UNL     1       8.420   0.545  22.327  1.00  0.00    -0.200 F 
ATOM    134  C   UNL     1       9.180  -1.590  22.990  1.00  0.00     0.200 A 
ATOM    135  F   UNL     1       9.946  -3.738  23.601  1.00  0.00    -0.200 F 
ATOM    136  F   UNL     1       9.461  -1.125  24.215  1.00  0.00    -0.200 F 
ENDBRANCH 102 126
ENDBRANCH  67  70
ENDBRANCH  57  60
ENDBRANCH  53  56
ENDBRANCH  50  53
ENDBRANCH  47  50
ENDBRANCH   1  47
TORSDOF 19
