REMARK SMILES C[C@@H](C(=O)NCCCCCCNC(=O)c1ccc(-c2c3nc(c(-c4c(F)c(F)c(F)c(F)c4F)c4ccc([nH]4)c(-c4c(F)c(F)c(F)c(F)c4F)c4nc(c(-c5c(F)c(F)c(F)c(F)c5F)c5ccc2[nH]5)C=C4)C=C3)cc1)c1ccc(C(=O)c2cccs2)cc1
REMARK SMILES IDX 8 1 7 4 6 7 5 10 3 11 4 12 2 14 1 16 78 20 79 21 90 22 80 23
REMARK SMILES IDX 89 25 81 27 82 30 83 31 84 32 85 33 88 34 86 35 87 37 9 40
REMARK SMILES IDX 10 43 11 46 12 49 13 50 14 52 15 53 16 54 77 55 17 56 76 58
REMARK SMILES IDX 18 60 19 63 20 64 70 65 21 66 75 67 69 68 71 69 22 70 74 71
REMARK SMILES IDX 68 73 67 75 23 77 55 80 35 81 54 82 36 83 39 84 53 85 72 86
REMARK SMILES IDX 37 87 38 89 52 91 73 92 40 95 24 97 25 98 33 99 26 100
REMARK SMILES IDX 27 101 31 102 34 103 28 104 29 105 32 106 30 107 56 108
REMARK SMILES IDX 57 109 65 110 58 111 59 112 63 113 66 114 60 115 61 116
REMARK SMILES IDX 64 117 62 118 41 119 42 120 50 121 43 122 44 123 48 124
REMARK SMILES IDX 51 125 45 126 46 127 49 128 47 129
REMARK H PARENT 8 2 8 3 7 5 7 6 6 8 6 9 5 13 2 15 1 17 1 18 1 19 79 24 90 26
REMARK H PARENT 80 28 89 29 85 36 86 38 87 39 9 41 9 42 10 44 10 45 11 47
REMARK H PARENT 11 48 12 51 16 57 77 59 17 61 76 62 75 72 69 74 71 76 74 78
REMARK H PARENT 68 79 36 88 39 90 72 93 37 94 73 96
REMARK Flexibility Score: inf
ROOT
ATOM      1  C   UNL     1       5.021   2.729   0.862  1.00  0.00    -0.052 C 
ATOM      2  H   UNL     1       4.286   3.478   1.070  1.00  0.00     0.027 H 
ATOM      3  H   UNL     1       5.630   2.954   0.011  1.00  0.00     0.027 H 
ENDROOT
BRANCH   1   4
ATOM      4  C   UNL     1       4.288   1.421   0.529  1.00  0.00    -0.036 C 
ATOM      5  H   UNL     1       3.611   1.612  -0.277  1.00  0.00     0.028 H 
ATOM      6  H   UNL     1       5.040   0.703   0.278  1.00  0.00     0.028 H 
BRANCH   4   7
ATOM      7  C   UNL     1       3.491   0.833   1.696  1.00  0.00     0.017 C 
ATOM      8  H   UNL     1       3.021  -0.075   1.380  1.00  0.00     0.049 H 
ATOM      9  H   UNL     1       4.159   0.638   2.509  1.00  0.00     0.049 H 
BRANCH   7  10
ATOM     10  N   UNL     1       2.477   1.764   2.138  1.00  0.00    -0.356 N 
ATOM     11  C   UNL     1       1.128   1.771   1.955  1.00  0.00     0.227 C 
ATOM     12  O   UNL     1       0.549   2.781   2.360  1.00  0.00    -0.274 OA
ATOM     13  H   UNL     1       2.822   2.524   2.659  1.00  0.00     0.163 HD
BRANCH  11  14
ATOM     14  C   UNL     1       0.422   0.549   1.336  1.00  0.00     0.060 C 
ATOM     15  H   UNL     1       0.831  -0.253   1.913  1.00  0.00     0.045 H 
BRANCH  14  16
ATOM     16  C   UNL     1       0.740   0.355  -0.149  1.00  0.00    -0.049 C 
ATOM     17  H   UNL     1       1.801   0.374  -0.292  1.00  0.00     0.024 H 
ATOM     18  H   UNL     1       0.290   1.142  -0.717  1.00  0.00     0.024 H 
ATOM     19  H   UNL     1       0.354  -0.588  -0.476  1.00  0.00     0.024 H 
ENDBRANCH  14  16
BRANCH  14  20
ATOM     20  C   UNL     1      -1.100   0.515   1.496  1.00  0.00    -0.036 A 
ATOM     21  C   UNL     1      -1.899   1.663   1.409  1.00  0.00    -0.058 A 
ATOM     22  C   UNL     1      -1.742  -0.725   1.634  1.00  0.00    -0.058 A 
ATOM     23  C   UNL     1      -3.289   1.583   1.522  1.00  0.00    -0.051 A 
ATOM     24  H   UNL     1      -1.454   2.581   1.260  1.00  0.00     0.063 H 
ATOM     25  C   UNL     1      -3.138  -0.812   1.703  1.00  0.00    -0.051 A 
ATOM     26  H   UNL     1      -1.177  -1.587   1.685  1.00  0.00     0.063 H 
ATOM     27  C   UNL     1      -3.925   0.346   1.667  1.00  0.00     0.023 A 
ATOM     28  H   UNL     1      -3.853   2.447   1.497  1.00  0.00     0.063 H 
ATOM     29  H   UNL     1      -3.590  -1.736   1.780  1.00  0.00     0.063 H 
BRANCH  27  30
ATOM     30  C   UNL     1      -5.425   0.331   1.718  1.00  0.00     0.202 C 
ATOM     31  O   UNL     1      -6.018   1.409   1.739  1.00  0.00    -0.288 OA
BRANCH  30  32
ATOM     32  C   UNL     1      -6.124  -0.938   1.694  1.00  0.00     0.075 A 
ATOM     33  C   UNL     1      -6.106  -1.976   2.605  1.00  0.00    -0.040 A 
ATOM     34  S   UNL     1      -7.176  -1.261   0.384  1.00  0.00    -0.140 S 
ATOM     35  C   UNL     1      -6.921  -3.069   2.188  1.00  0.00    -0.051 A 
ATOM     36  H   UNL     1      -5.566  -1.962   3.485  1.00  0.00     0.064 H 
ATOM     37  C   UNL     1      -7.556  -2.812   0.993  1.00  0.00    -0.009 A 
ATOM     38  H   UNL     1      -7.023  -3.948   2.719  1.00  0.00     0.063 H 
ATOM     39  H   UNL     1      -8.188  -3.479   0.522  1.00  0.00     0.074 H 
ENDBRANCH  30  32
ENDBRANCH  27  30
ENDBRANCH  14  20
ENDBRANCH  11  14
ENDBRANCH   7  10
ENDBRANCH   4   7
ENDBRANCH   1   4
BRANCH   1  40
ATOM     40  C   UNL     1       5.973   2.652   2.059  1.00  0.00    -0.052 C 
ATOM     41  H   UNL     1       5.389   2.482   2.939  1.00  0.00     0.027 H 
ATOM     42  H   UNL     1       6.506   3.580   2.080  1.00  0.00     0.027 H 
BRANCH  40  43
ATOM     43  C   UNL     1       7.029   1.550   1.967  1.00  0.00    -0.036 C 
ATOM     44  H   UNL     1       6.526   0.606   1.941  1.00  0.00     0.028 H 
ATOM     45  H   UNL     1       7.662   1.662   2.822  1.00  0.00     0.028 H 
BRANCH  43  46
ATOM     46  C   UNL     1       7.931   1.643   0.742  1.00  0.00     0.018 C 
ATOM     47  H   UNL     1       7.320   1.647  -0.137  1.00  0.00     0.049 H 
ATOM     48  H   UNL     1       8.589   0.799   0.752  1.00  0.00     0.049 H 
BRANCH  46  49
ATOM     49  N   UNL     1       8.745   2.847   0.753  1.00  0.00    -0.352 N 
ATOM     50  C   UNL     1      10.107   2.974   0.662  1.00  0.00     0.251 C 
ATOM     51  H   UNL     1       8.247   3.693   0.838  1.00  0.00     0.163 HD
ATOM     52  O   UNL     1      10.647   4.053   0.894  1.00  0.00    -0.269 OA
BRANCH  50  53
ATOM     53  C   UNL     1      10.932   1.800   0.307  1.00  0.00     0.039 A 
ATOM     54  C   UNL     1      12.094   1.546   1.038  1.00  0.00    -0.049 A 
ATOM     55  C   UNL     1      10.559   0.951  -0.740  1.00  0.00    -0.049 A 
ATOM     56  C   UNL     1      12.847   0.403   0.763  1.00  0.00    -0.053 A 
ATOM     57  H   UNL     1      12.394   2.200   1.778  1.00  0.00     0.063 H 
ATOM     58  C   UNL     1      11.268  -0.226  -0.963  1.00  0.00    -0.053 A 
ATOM     59  H   UNL     1       9.760   1.197  -1.346  1.00  0.00     0.063 H 
ATOM     60  C   UNL     1      12.418  -0.513  -0.212  1.00  0.00    -0.014 A 
ATOM     61  H   UNL     1      13.724   0.231   1.279  1.00  0.00     0.063 H 
ATOM     62  H   UNL     1      10.947  -0.890  -1.684  1.00  0.00     0.063 H 
BRANCH  60  63
ATOM     63  C   UNL     1      13.151  -1.785  -0.441  1.00  0.00     0.031 A 
ATOM     64  C   UNL     1      13.805  -2.059  -1.767  1.00  0.00     0.074 A 
ATOM     65  C   UNL     1      13.175  -2.719   0.531  1.00  0.00     0.049 A 
ATOM     66  N   UNL     1      14.438  -3.132  -2.170  1.00  0.00    -0.248 NA
ATOM     67  C   UNL     1      13.720  -0.997  -2.782  1.00  0.00    -0.034 C 
ATOM     68  C   UNL     1      12.536  -2.590   1.843  1.00  0.00    -0.036 A 
ATOM     69  N   UNL     1      13.748  -3.966   0.565  1.00  0.00    -0.354 N 
ATOM     70  C   UNL     1      14.814  -2.880  -3.483  1.00  0.00     0.074 A 
ATOM     71  C   UNL     1      14.298  -1.573  -3.827  1.00  0.00    -0.034 C 
ATOM     72  H   UNL     1      13.316  -0.051  -2.702  1.00  0.00     0.065 H 
ATOM     73  C   UNL     1      12.772  -3.701   2.559  1.00  0.00    -0.036 A 
ATOM     74  H   UNL     1      11.992  -1.775   2.165  1.00  0.00     0.065 H 
ATOM     75  C   UNL     1      13.538  -4.639   1.744  1.00  0.00     0.049 A 
ATOM     76  H   UNL     1      14.263  -4.343  -0.186  1.00  0.00     0.167 HD
ATOM     77  C   UNL     1      15.542  -3.660  -4.317  1.00  0.00     0.037 A 
ATOM     78  H   UNL     1      14.370  -1.145  -4.764  1.00  0.00     0.065 H 
ATOM     79  H   UNL     1      12.462  -3.865   3.529  1.00  0.00     0.065 H 
ATOM     80  C   UNL     1      13.908  -5.878   2.121  1.00  0.00     0.037 A 
ATOM     81  C   UNL     1      16.075  -4.949  -3.961  1.00  0.00     0.049 A 
ATOM     82  C   UNL     1      14.703  -6.727   1.164  1.00  0.00     0.074 A 
ATOM     83  C   UNL     1      16.881  -5.785  -4.714  1.00  0.00    -0.036 A 
ATOM     84  N   UNL     1      15.851  -5.593  -2.753  1.00  0.00    -0.354 N 
ATOM     85  N   UNL     1      15.121  -6.443  -0.045  1.00  0.00    -0.248 NA
ATOM     86  C   UNL     1      15.082  -8.069   1.628  1.00  0.00    -0.034 C 
ATOM     87  C   UNL     1      17.095  -6.959  -3.987  1.00  0.00    -0.036 A 
ATOM     88  H   UNL     1      17.260  -5.577  -5.651  1.00  0.00     0.065 H 
ATOM     89  C   UNL     1      16.477  -6.829  -2.754  1.00  0.00     0.049 A 
ATOM     90  H   UNL     1      15.325  -5.226  -2.006  1.00  0.00     0.167 HD
ATOM     91  C   UNL     1      15.838  -7.553  -0.472  1.00  0.00     0.074 A 
ATOM     92  C   UNL     1      15.815  -8.507   0.616  1.00  0.00    -0.034 C 
ATOM     93  H   UNL     1      14.841  -8.545   2.511  1.00  0.00     0.065 H 
ATOM     94  H   UNL     1      17.624  -7.783  -4.313  1.00  0.00     0.065 H 
ATOM     95  C   UNL     1      16.456  -7.764  -1.659  1.00  0.00     0.037 A 
ATOM     96  H   UNL     1      16.308  -9.414   0.604  1.00  0.00     0.065 H 
BRANCH  77  97
ATOM     97  C   UNL     1      15.816  -3.148  -5.701  1.00  0.00     0.064 A 
ATOM     98  C   UNL     1      16.696  -2.079  -5.931  1.00  0.00     0.173 A 
ATOM     99  C   UNL     1      15.254  -3.786  -6.818  1.00  0.00     0.173 A 
ATOM    100  F   UNL     1      17.252  -1.428  -4.899  1.00  0.00    -0.203 F 
ATOM    101  C   UNL     1      16.990  -1.659  -7.226  1.00  0.00     0.198 A 
ATOM    102  C   UNL     1      15.575  -3.383  -8.112  1.00  0.00     0.198 A 
ATOM    103  F   UNL     1      14.411  -4.817  -6.655  1.00  0.00    -0.203 F 
ATOM    104  F   UNL     1      17.806  -0.614  -7.420  1.00  0.00    -0.200 F 
ATOM    105  C   UNL     1      16.439  -2.318  -8.315  1.00  0.00     0.200 A 
ATOM    106  F   UNL     1      15.054  -4.032  -9.162  1.00  0.00    -0.200 F 
ATOM    107  F   UNL     1      16.739  -1.925  -9.560  1.00  0.00    -0.200 F 
ENDBRANCH  77  97
BRANCH  80 108
ATOM    108  C   UNL     1      13.536  -6.398   3.465  1.00  0.00     0.064 A 
ATOM    109  C   UNL     1      14.515  -6.675   4.430  1.00  0.00     0.173 A 
ATOM    110  C   UNL     1      12.200  -6.669   3.798  1.00  0.00     0.173 A 
ATOM    111  F   UNL     1      15.809  -6.453   4.154  1.00  0.00    -0.203 F 
ATOM    112  C   UNL     1      14.177  -7.237   5.660  1.00  0.00     0.198 A 
ATOM    113  C   UNL     1      11.860  -7.197   5.042  1.00  0.00     0.198 A 
ATOM    114  F   UNL     1      11.223  -6.417   2.915  1.00  0.00    -0.203 F 
ATOM    115  F   UNL     1      15.140  -7.555   6.535  1.00  0.00    -0.200 F 
ATOM    116  C   UNL     1      12.850  -7.494   5.966  1.00  0.00     0.200 A 
ATOM    117  F   UNL     1      10.574  -7.427   5.340  1.00  0.00    -0.200 F 
ATOM    118  F   UNL     1      12.525  -8.039   7.146  1.00  0.00    -0.200 F 
ENDBRANCH  80 108
BRANCH  95 119
ATOM    119  C   UNL     1      17.196  -9.060  -1.830  1.00  0.00     0.064 A 
ATOM    120  C   UNL     1      16.524 -10.286  -1.943  1.00  0.00     0.173 A 
ATOM    121  C   UNL     1      18.597  -9.070  -1.918  1.00  0.00     0.173 A 
ATOM    122  F   UNL     1      15.186 -10.333  -1.851  1.00  0.00    -0.203 F 
ATOM    123  C   UNL     1      17.227 -11.477  -2.105  1.00  0.00     0.198 A 
ATOM    124  C   UNL     1      19.295 -10.258  -2.117  1.00  0.00     0.198 A 
ATOM    125  F   UNL     1      19.289  -7.925  -1.825  1.00  0.00    -0.203 F 
ATOM    126  F   UNL     1      16.566 -12.642  -2.154  1.00  0.00    -0.200 F 
ATOM    127  C   UNL     1      18.611 -11.461  -2.201  1.00  0.00     0.200 A 
ATOM    128  F   UNL     1      20.631 -10.238  -2.227  1.00  0.00    -0.200 F 
ATOM    129  F   UNL     1      19.285 -12.607  -2.365  1.00  0.00    -0.200 F 
ENDBRANCH  95 119
ENDBRANCH  60  63
ENDBRANCH  50  53
ENDBRANCH  46  49
ENDBRANCH  43  46
ENDBRANCH  40  43
ENDBRANCH   1  40
TORSDOF 17
