REMARK SMILES O=C(NCCCCCCNC(=O)c1ccc(-n2cc(CSc3nc4ccccc4c(=O)n3-c3ccccc3)nn2)cc1)c1ccc(-c2c3nc(c(-c4c(F)c(F)c(F)c(F)c4F)c4ccc([nH]4)c(-c4c(F)c(F)c(F)c(F)c4F)c4nc(c(-c5c(F)c(F)c(F)c(F)c5F)c5ccc2[nH]5)C=C4)C=C3)cc1
REMARK SMILES IDX 8 1 7 4 6 7 5 10 4 13 3 16 1 17 2 18 43 20 44 21 105 22
REMARK SMILES IDX 45 23 104 25 46 27 47 30 48 31 98 32 49 33 103 34 97 35
REMARK SMILES IDX 99 36 50 37 102 38 96 40 95 42 51 44 83 47 63 48 82 49 64 50
REMARK SMILES IDX 67 51 81 52 100 53 65 54 66 56 80 58 101 59 68 62 52 64
REMARK SMILES IDX 53 65 61 66 54 67 55 68 59 69 62 70 56 71 57 72 60 73 58 74
REMARK SMILES IDX 84 75 85 76 93 77 86 78 87 79 91 80 94 81 88 82 89 83 92 84
REMARK SMILES IDX 90 85 69 86 70 87 78 88 71 89 72 90 76 91 79 92 73 93 74 94
REMARK SMILES IDX 77 95 75 96 9 97 10 100 11 101 12 103 13 104 14 105 42 106
REMARK SMILES IDX 15 107 41 109 16 111 17 114 18 115 40 116 19 117 39 119
REMARK SMILES IDX 20 120 21 123 22 124 23 125 32 126 24 127 30 128 25 129
REMARK SMILES IDX 29 130 31 131 26 132 28 134 27 135 33 139 34 140 38 141
REMARK SMILES IDX 35 142 37 144 36 146
REMARK H PARENT 8 2 8 3 7 5 7 6 6 8 6 9 5 11 5 12 4 14 4 15 3 19 44 24 105 26
REMARK H PARENT 45 28 104 29 103 39 97 41 99 43 102 45 96 46 64 55 67 57
REMARK H PARENT 100 60 65 61 101 63 9 98 9 99 10 102 14 108 42 110 15 112
REMARK H PARENT 41 113 18 118 20 121 20 122 25 133 26 136 28 137 27 138 34 143
REMARK H PARENT 38 145 35 147 37 148 36 149
REMARK Flexibility Score: inf
ROOT
ATOM      1  C   UNL     1       6.325  -2.583  -3.316  1.00  0.00    -0.036 C 
ATOM      2  H   UNL     1       6.691  -1.817  -2.665  1.00  0.00     0.028 H 
ATOM      3  H   UNL     1       6.532  -2.394  -4.349  1.00  0.00     0.028 H 
ENDROOT
BRANCH   1   4
ATOM      4  C   UNL     1       4.801  -2.631  -3.185  1.00  0.00    -0.052 C 
ATOM      5  H   UNL     1       4.417  -1.667  -3.445  1.00  0.00     0.027 H 
ATOM      6  H   UNL     1       4.474  -3.415  -3.835  1.00  0.00     0.027 H 
BRANCH   4   7
ATOM      7  C   UNL     1       4.270  -2.990  -1.794  1.00  0.00    -0.052 C 
ATOM      8  H   UNL     1       3.203  -2.911  -1.819  1.00  0.00     0.027 H 
ATOM      9  H   UNL     1       4.629  -3.977  -1.592  1.00  0.00     0.027 H 
BRANCH   7  10
ATOM     10  C   UNL     1       4.778  -2.118  -0.639  1.00  0.00    -0.036 C 
ATOM     11  H   UNL     1       4.262  -2.413   0.251  1.00  0.00     0.028 H 
ATOM     12  H   UNL     1       5.835  -2.275  -0.589  1.00  0.00     0.028 H 
BRANCH  10  13
ATOM     13  C   UNL     1       4.577  -0.614  -0.827  1.00  0.00     0.018 C 
ATOM     14  H   UNL     1       4.933  -0.115   0.050  1.00  0.00     0.049 H 
ATOM     15  H   UNL     1       5.119  -0.338  -1.708  1.00  0.00     0.049 H 
BRANCH  13  16
ATOM     16  N   UNL     1       3.201  -0.225  -1.045  1.00  0.00    -0.352 N 
ATOM     17  O   UNL     1       1.156   0.563  -0.798  1.00  0.00    -0.269 OA
ATOM     18  C   UNL     1       2.155   0.107  -0.234  1.00  0.00     0.251 C 
ATOM     19  H   UNL     1       2.965  -0.193  -2.000  1.00  0.00     0.163 HD
BRANCH  18  20
ATOM     20  C   UNL     1       2.102  -0.113   1.236  1.00  0.00     0.039 A 
ATOM     21  C   UNL     1       3.151  -0.559   2.041  1.00  0.00    -0.049 A 
ATOM     22  C   UNL     1       0.840   0.088   1.829  1.00  0.00    -0.049 A 
ATOM     23  C   UNL     1       2.921  -0.906   3.369  1.00  0.00    -0.053 A 
ATOM     24  H   UNL     1       4.103  -0.632   1.649  1.00  0.00     0.063 H 
ATOM     25  C   UNL     1       0.604  -0.247   3.155  1.00  0.00    -0.053 A 
ATOM     26  H   UNL     1       0.075   0.491   1.266  1.00  0.00     0.063 H 
ATOM     27  C   UNL     1       1.637  -0.792   3.908  1.00  0.00    -0.014 A 
ATOM     28  H   UNL     1       3.698  -1.248   3.956  1.00  0.00     0.063 H 
ATOM     29  H   UNL     1      -0.325  -0.093   3.576  1.00  0.00     0.063 H 
BRANCH  27  30
ATOM     30  C   UNL     1       1.440  -1.122   5.315  1.00  0.00     0.031 A 
ATOM     31  C   UNL     1       2.128  -0.198   6.261  1.00  0.00     0.074 A 
ATOM     32  C   UNL     1       0.590  -2.084   5.731  1.00  0.00     0.049 A 
ATOM     33  N   UNL     1       3.023  -0.482   7.151  1.00  0.00    -0.248 NA
ATOM     34  C   UNL     1       1.869   1.245   6.117  1.00  0.00    -0.034 C 
ATOM     35  C   UNL     1      -0.354  -2.863   4.926  1.00  0.00    -0.036 A 
ATOM     36  N   UNL     1       0.321  -2.505   7.000  1.00  0.00    -0.354 N 
ATOM     37  C   UNL     1       3.316   0.718   7.800  1.00  0.00     0.074 A 
ATOM     38  C   UNL     1       2.695   1.760   7.028  1.00  0.00    -0.034 C 
ATOM     39  H   UNL     1       1.218   1.730   5.479  1.00  0.00     0.065 H 
ATOM     40  C   UNL     1      -1.238  -3.481   5.743  1.00  0.00    -0.036 A 
ATOM     41  H   UNL     1      -0.346  -2.930   3.896  1.00  0.00     0.065 H 
ATOM     42  C   UNL     1      -0.847  -3.249   7.123  1.00  0.00     0.049 A 
ATOM     43  H   UNL     1       0.905  -2.299   7.765  1.00  0.00     0.167 HD
ATOM     44  C   UNL     1       3.852   0.729   9.053  1.00  0.00     0.037 A 
ATOM     45  H   UNL     1       2.866   2.769   7.161  1.00  0.00     0.065 H 
ATOM     46  H   UNL     1      -2.057  -4.028   5.436  1.00  0.00     0.065 H 
ATOM     47  C   UNL     1      -1.476  -3.588   8.278  1.00  0.00     0.037 A 
ATOM     48  C   UNL     1       4.487  -0.529   9.353  1.00  0.00     0.049 A 
ATOM     49  C   UNL     1      -0.495  -3.443   9.382  1.00  0.00     0.074 A 
ATOM     50  C   UNL     1       5.538  -1.246   8.816  1.00  0.00    -0.036 A 
ATOM     51  N   UNL     1       3.816  -1.414  10.159  1.00  0.00    -0.354 N 
ATOM     52  N   UNL     1       0.545  -4.213   9.534  1.00  0.00    -0.248 NA
ATOM     53  C   UNL     1      -0.423  -2.152  10.049  1.00  0.00    -0.034 C 
ATOM     54  C   UNL     1       5.147  -2.614   8.928  1.00  0.00    -0.036 A 
ATOM     55  H   UNL     1       6.416  -0.874   8.421  1.00  0.00     0.065 H 
ATOM     56  C   UNL     1       3.914  -2.649   9.577  1.00  0.00     0.049 A 
ATOM     57  H   UNL     1       3.350  -1.201  11.000  1.00  0.00     0.167 HD
ATOM     58  C   UNL     1       1.559  -3.355   9.927  1.00  0.00     0.074 A 
ATOM     59  C   UNL     1       0.887  -2.113  10.303  1.00  0.00    -0.034 C 
ATOM     60  H   UNL     1      -1.166  -1.468  10.264  1.00  0.00     0.065 H 
ATOM     61  H   UNL     1       5.681  -3.429   8.589  1.00  0.00     0.065 H 
ATOM     62  C   UNL     1       2.863  -3.633   9.636  1.00  0.00     0.037 A 
ATOM     63  H   UNL     1       1.369  -1.300  10.717  1.00  0.00     0.065 H 
BRANCH  44  64
ATOM     64  C   UNL     1       3.440   1.696  10.147  1.00  0.00     0.064 A 
ATOM     65  C   UNL     1       4.055   1.582  11.413  1.00  0.00     0.173 A 
ATOM     66  C   UNL     1       2.260   2.470  10.120  1.00  0.00     0.173 A 
ATOM     67  F   UNL     1       5.193   0.886  11.562  1.00  0.00    -0.203 F 
ATOM     68  C   UNL     1       3.457   2.079  12.574  1.00  0.00     0.198 A 
ATOM     69  C   UNL     1       1.692   3.006  11.275  1.00  0.00     0.198 A 
ATOM     70  F   UNL     1       1.543   2.652   9.006  1.00  0.00    -0.203 F 
ATOM     71  F   UNL     1       3.999   1.807  13.769  1.00  0.00    -0.200 F 
ATOM     72  C   UNL     1       2.266   2.774  12.506  1.00  0.00     0.200 A 
ATOM     73  F   UNL     1       0.533   3.673  11.188  1.00  0.00    -0.200 F 
ATOM     74  F   UNL     1       1.647   3.178  13.622  1.00  0.00    -0.200 F 
ENDBRANCH  44  64
BRANCH  47  75
ATOM     75  C   UNL     1      -2.935  -3.689   8.537  1.00  0.00     0.064 A 
ATOM     76  C   UNL     1      -3.431  -4.336   9.682  1.00  0.00     0.173 A 
ATOM     77  C   UNL     1      -3.856  -2.904   7.817  1.00  0.00     0.173 A 
ATOM     78  F   UNL     1      -2.610  -5.060  10.457  1.00  0.00    -0.203 F 
ATOM     79  C   UNL     1      -4.763  -4.189  10.091  1.00  0.00     0.198 A 
ATOM     80  C   UNL     1      -5.184  -2.763   8.222  1.00  0.00     0.198 A 
ATOM     81  F   UNL     1      -3.462  -2.178   6.762  1.00  0.00    -0.203 F 
ATOM     82  F   UNL     1      -5.184  -4.771  11.223  1.00  0.00    -0.200 F 
ATOM     83  C   UNL     1      -5.635  -3.394   9.366  1.00  0.00     0.200 A 
ATOM     84  F   UNL     1      -6.006  -1.958   7.534  1.00  0.00    -0.200 F 
ATOM     85  F   UNL     1      -6.892  -3.202   9.790  1.00  0.00    -0.200 F 
ENDBRANCH  47  75
BRANCH  62  86
ATOM     86  C   UNL     1       3.187  -5.004   9.117  1.00  0.00     0.064 A 
ATOM     87  C   UNL     1       2.712  -5.515   7.897  1.00  0.00     0.173 A 
ATOM     88  C   UNL     1       4.128  -5.770   9.816  1.00  0.00     0.173 A 
ATOM     89  F   UNL     1       1.890  -4.798   7.121  1.00  0.00    -0.203 F 
ATOM     90  C   UNL     1       3.128  -6.758   7.424  1.00  0.00     0.198 A 
ATOM     91  C   UNL     1       4.571  -6.994   9.323  1.00  0.00     0.198 A 
ATOM     92  F   UNL     1       4.660  -5.305  10.957  1.00  0.00    -0.203 F 
ATOM     93  F   UNL     1       2.654  -7.229   6.261  1.00  0.00    -0.200 F 
ATOM     94  C   UNL     1       4.063  -7.492   8.134  1.00  0.00     0.200 A 
ATOM     95  F   UNL     1       5.515  -7.675   9.986  1.00  0.00    -0.200 F 
ATOM     96  F   UNL     1       4.499  -8.667   7.658  1.00  0.00    -0.200 F 
ENDBRANCH  62  86
ENDBRANCH  27  30
ENDBRANCH  18  20
ENDBRANCH  13  16
ENDBRANCH  10  13
ENDBRANCH   7  10
ENDBRANCH   4   7
ENDBRANCH   1   4
BRANCH   1  97
ATOM     97  C   UNL     1       7.040  -3.885  -2.966  1.00  0.00     0.018 C 
ATOM     98  H   UNL     1       6.727  -4.197  -1.992  1.00  0.00     0.049 H 
ATOM     99  H   UNL     1       8.093  -3.697  -2.999  1.00  0.00     0.049 H 
BRANCH  97 100
ATOM    100  N   UNL     1       6.749  -4.949  -3.913  1.00  0.00    -0.352 N 
ATOM    101  C   UNL     1       7.598  -5.592  -4.776  1.00  0.00     0.251 C 
ATOM    102  H   UNL     1       5.812  -5.250  -3.938  1.00  0.00     0.163 HD
ATOM    103  O   UNL     1       7.161  -6.386  -5.612  1.00  0.00    -0.269 OA
BRANCH 101 104
ATOM    104  C   UNL     1       9.043  -5.305  -4.725  1.00  0.00     0.039 A 
ATOM    105  C   UNL     1       9.680  -4.851  -5.886  1.00  0.00    -0.047 A 
ATOM    106  C   UNL     1       9.759  -5.473  -3.534  1.00  0.00    -0.047 A 
ATOM    107  C   UNL     1      11.019  -4.462  -5.840  1.00  0.00    -0.036 A 
ATOM    108  H   UNL     1       9.160  -4.806  -6.776  1.00  0.00     0.063 H 
ATOM    109  C   UNL     1      11.106  -5.125  -3.494  1.00  0.00    -0.036 A 
ATOM    110  H   UNL     1       9.293  -5.851  -2.695  1.00  0.00     0.063 H 
ATOM    111  C   UNL     1      11.722  -4.598  -4.643  1.00  0.00     0.066 A 
ATOM    112  H   UNL     1      11.482  -4.078  -6.679  1.00  0.00     0.065 H 
ATOM    113  H   UNL     1      11.649  -5.253  -2.625  1.00  0.00     0.065 H 
BRANCH 111 114
ATOM    114  N   UNL     1      13.102  -4.336  -4.623  1.00  0.00    -0.220 N 
ATOM    115  C   UNL     1      14.043  -5.167  -4.092  1.00  0.00     0.055 A 
ATOM    116  N   UNL     1      13.692  -3.222  -5.094  1.00  0.00    -0.062 NA
ATOM    117  C   UNL     1      15.245  -4.524  -4.223  1.00  0.00     0.093 A 
ATOM    118  H   UNL     1      13.881  -6.096  -3.674  1.00  0.00     0.086 H 
ATOM    119  N   UNL     1      14.991  -3.296  -4.793  1.00  0.00    -0.134 NA
BRANCH 117 120
ATOM    120  C   UNL     1      16.559  -4.857  -3.621  1.00  0.00     0.047 C 
ATOM    121  H   UNL     1      16.349  -5.142  -2.611  1.00  0.00     0.045 H 
ATOM    122  H   UNL     1      17.110  -3.968  -3.846  1.00  0.00     0.045 H 
BRANCH 120 123
ATOM    123  S   UNL     1      17.680  -6.108  -4.250  1.00  0.00    -0.081 SA
BRANCH 123 124
ATOM    124  C   UNL     1      16.920  -7.352  -5.205  1.00  0.00     0.176 A 
ATOM    125  N   UNL     1      17.679  -7.759  -6.184  1.00  0.00    -0.223 NA
ATOM    126  N   UNL     1      15.661  -7.891  -5.008  1.00  0.00    -0.255 N 
ATOM    127  C   UNL     1      17.138  -8.657  -7.115  1.00  0.00     0.079 A 
ATOM    128  C   UNL     1      14.967  -8.130  -6.200  1.00  0.00     0.266 A 
ATOM    129  C   UNL     1      17.947  -9.411  -7.964  1.00  0.00    -0.035 A 
ATOM    130  C   UNL     1      15.762  -8.728  -7.278  1.00  0.00     0.066 A 
ATOM    131  O   UNL     1      13.783  -7.878  -6.410  1.00  0.00    -0.268 OA
ATOM    132  C   UNL     1      17.373 -10.163  -8.998  1.00  0.00    -0.060 A 
ATOM    133  H   UNL     1      18.970  -9.414  -7.831  1.00  0.00     0.065 H 
ATOM    134  C   UNL     1      15.175  -9.418  -8.342  1.00  0.00    -0.047 A 
ATOM    135  C   UNL     1      15.992 -10.134  -9.212  1.00  0.00    -0.061 A 
ATOM    136  H   UNL     1      17.974 -10.742  -9.606  1.00  0.00     0.062 H 
ATOM    137  H   UNL     1      14.152  -9.397  -8.480  1.00  0.00     0.063 H 
ATOM    138  H   UNL     1      15.581 -10.641 -10.011  1.00  0.00     0.062 H 
BRANCH 126 139
ATOM    139  C   UNL     1      14.989  -8.172  -3.757  1.00  0.00     0.051 A 
ATOM    140  C   UNL     1      13.765  -8.876  -3.769  1.00  0.00    -0.038 A 
ATOM    141  C   UNL     1      15.436  -7.747  -2.502  1.00  0.00    -0.038 A 
ATOM    142  C   UNL     1      12.921  -8.917  -2.658  1.00  0.00    -0.060 A 
ATOM    143  H   UNL     1      13.485  -9.376  -4.628  1.00  0.00     0.064 H 
ATOM    144  C   UNL     1      14.568  -7.721  -1.400  1.00  0.00    -0.060 A 
ATOM    145  H   UNL     1      16.417  -7.448  -2.385  1.00  0.00     0.064 H 
ATOM    146  C   UNL     1      13.295  -8.273  -1.490  1.00  0.00    -0.062 A 
ATOM    147  H   UNL     1      12.023  -9.424  -2.706  1.00  0.00     0.062 H 
ATOM    148  H   UNL     1      14.877  -7.290  -0.515  1.00  0.00     0.062 H 
ATOM    149  H   UNL     1      12.637  -8.203  -0.698  1.00  0.00     0.062 H 
ENDBRANCH 126 139
ENDBRANCH 123 124
ENDBRANCH 120 123
ENDBRANCH 117 120
ENDBRANCH 111 114
ENDBRANCH 101 104
ENDBRANCH  97 100
ENDBRANCH   1  97
TORSDOF 18
