REMARK SMILES C[C@@H](C(=O)NCCCCCCNC(=O)c1ccc(-c2c3nc(c(-c4c(F)c(F)c(F)c(F)c4F)c4ccc([nH]4)c(-c4c(F)c(F)c(F)c(F)c4F)c4nc(c(-c5c(F)c(F)c(F)c(F)c5F)c5ccc2[nH]5)C=C4)C=C3)cc1)c1cccn(C(F)F)c1=O
REMARK SMILES IDX 8 1 7 4 6 7 5 10 3 11 4 12 2 14 1 16 78 20 79 21 86 22 80 23
REMARK SMILES IDX 82 25 87 26 81 27 83 30 84 31 85 32 9 34 10 37 11 40 12 43
REMARK SMILES IDX 13 44 14 46 15 47 16 48 77 49 17 50 76 52 18 54 19 57 20 58
REMARK SMILES IDX 70 59 21 60 75 61 69 62 71 63 22 64 74 65 68 67 67 69 23 71
REMARK SMILES IDX 55 74 35 75 54 76 36 77 39 78 53 79 72 80 37 81 38 83 52 85
REMARK SMILES IDX 73 86 40 89 24 91 25 92 33 93 26 94 27 95 31 96 34 97 28 98
REMARK SMILES IDX 29 99 32 100 30 101 56 102 57 103 65 104 58 105 59 106
REMARK SMILES IDX 63 107 66 108 60 109 61 110 64 111 62 112 41 113 42 114
REMARK SMILES IDX 50 115 43 116 44 117 48 118 51 119 45 120 46 121 49 122
REMARK SMILES IDX 47 123
REMARK H PARENT 8 2 8 3 7 5 7 6 6 8 6 9 5 13 2 15 1 17 1 18 1 19 79 24 80 28
REMARK H PARENT 81 29 83 33 9 35 9 36 10 38 10 39 11 41 11 42 12 45 16 51
REMARK H PARENT 77 53 17 55 76 56 75 66 69 68 71 70 74 72 68 73 36 82 39 84
REMARK H PARENT 72 87 37 88 73 90
REMARK Flexibility Score: inf
ROOT
ATOM      1  C   UNL     1       4.996  -1.257   2.614  1.00  0.00    -0.052 C 
ATOM      2  H   UNL     1       4.274  -1.573   3.339  1.00  0.00     0.027 H 
ATOM      3  H   UNL     1       5.574  -0.415   2.934  1.00  0.00     0.027 H 
ENDROOT
BRANCH   1   4
ATOM      4  C   UNL     1       4.242  -0.811   1.352  1.00  0.00    -0.036 C 
ATOM      5  H   UNL     1       3.581  -0.012   1.616  1.00  0.00     0.028 H 
ATOM      6  H   UNL     1       4.977  -0.507   0.636  1.00  0.00     0.028 H 
BRANCH   4   7
ATOM      7  C   UNL     1       3.419  -1.931   0.710  1.00  0.00     0.017 C 
ATOM      8  H   UNL     1       3.053  -1.603  -0.241  1.00  0.00     0.049 H 
ATOM      9  H   UNL     1       4.036  -2.795   0.579  1.00  0.00     0.049 H 
BRANCH   7  10
ATOM     10  N   UNL     1       2.300  -2.267   1.566  1.00  0.00    -0.356 N 
ATOM     11  C   UNL     1       1.008  -1.829   1.525  1.00  0.00     0.227 C 
ATOM     12  O   UNL     1       0.319  -2.050   2.523  1.00  0.00    -0.274 OA
ATOM     13  H   UNL     1       2.503  -2.907   2.286  1.00  0.00     0.163 HD
BRANCH  11  14
ATOM     14  C   UNL     1       0.455  -1.184   0.240  1.00  0.00     0.066 C 
ATOM     15  H   UNL     1       0.773  -1.724  -0.627  1.00  0.00     0.045 H 
BRANCH  14  16
ATOM     16  C   UNL     1       1.044   0.207  -0.009  1.00  0.00    -0.049 C 
ATOM     17  H   UNL     1       2.113   0.146  -0.008  1.00  0.00     0.024 H 
ATOM     18  H   UNL     1       0.724   0.874   0.764  1.00  0.00     0.024 H 
ATOM     19  H   UNL     1       0.709   0.572  -0.957  1.00  0.00     0.024 H 
ENDBRANCH  14  16
BRANCH  14  20
ATOM     20  C   UNL     1      -1.068  -1.275   0.270  1.00  0.00     0.030 A 
ATOM     21  C   UNL     1      -1.698  -2.466   0.181  1.00  0.00    -0.051 A 
ATOM     22  C   UNL     1      -1.927  -0.043   0.412  1.00  0.00     0.258 A 
ATOM     23  C   UNL     1      -3.131  -2.581   0.235  1.00  0.00    -0.045 A 
ATOM     24  H   UNL     1      -1.133  -3.322   0.072  1.00  0.00     0.063 H 
ATOM     25  N   UNL     1      -3.297  -0.232   0.336  1.00  0.00    -0.258 N 
ATOM     26  O   UNL     1      -1.432   1.072   0.553  1.00  0.00    -0.269 OA
ATOM     27  C   UNL     1      -3.883  -1.479   0.289  1.00  0.00     0.013 A 
ATOM     28  H   UNL     1      -3.577  -3.512   0.233  1.00  0.00     0.064 H 
ATOM     29  H   UNL     1      -4.911  -1.561   0.295  1.00  0.00     0.082 H 
BRANCH  25  30
ATOM     30  C   UNL     1      -4.130   0.944   0.342  1.00  0.00     0.321 C 
ATOM     31  F   UNL     1      -4.975   0.903  -0.725  1.00  0.00    -0.185 F 
ATOM     32  F   UNL     1      -4.919   0.944   1.448  1.00  0.00    -0.185 F 
ATOM     33  H   UNL     1      -3.495   1.805   0.316  1.00  0.00     0.131 H 
ENDBRANCH  25  30
ENDBRANCH  14  20
ENDBRANCH  11  14
ENDBRANCH   7  10
ENDBRANCH   4   7
ENDBRANCH   1   4
BRANCH   1  34
ATOM     34  C   UNL     1       5.987  -2.405   2.396  1.00  0.00    -0.052 C 
ATOM     35  H   UNL     1       5.432  -3.279   2.123  1.00  0.00     0.027 H 
ATOM     36  H   UNL     1       6.526  -2.521   3.313  1.00  0.00     0.027 H 
BRANCH  34  37
ATOM     37  C   UNL     1       7.029  -2.144   1.308  1.00  0.00    -0.036 C 
ATOM     38  H   UNL     1       6.518  -1.978   0.383  1.00  0.00     0.028 H 
ATOM     39  H   UNL     1       7.667  -3.002   1.276  1.00  0.00     0.028 H 
BRANCH  37  40
ATOM     40  C   UNL     1       7.922  -0.940   1.585  1.00  0.00     0.018 C 
ATOM     41  H   UNL     1       7.304  -0.084   1.760  1.00  0.00     0.049 H 
ATOM     42  H   UNL     1       8.553  -0.791   0.734  1.00  0.00     0.049 H 
BRANCH  40  43
ATOM     43  N   UNL     1       8.772  -1.154   2.747  1.00  0.00    -0.352 N 
ATOM     44  C   UNL     1      10.139  -1.088   2.836  1.00  0.00     0.251 C 
ATOM     45  H   UNL     1       8.302  -1.375   3.583  1.00  0.00     0.163 HD
ATOM     46  O   UNL     1      10.725  -1.505   3.831  1.00  0.00    -0.269 OA
BRANCH  44  47
ATOM     47  C   UNL     1      10.906  -0.526   1.708  1.00  0.00     0.039 A 
ATOM     48  C   UNL     1      12.023  -1.215   1.230  1.00  0.00    -0.049 A 
ATOM     49  C   UNL     1      10.500   0.670   1.109  1.00  0.00    -0.049 A 
ATOM     50  C   UNL     1      12.697  -0.736   0.105  1.00  0.00    -0.053 A 
ATOM     51  H   UNL     1      12.348  -2.071   1.705  1.00  0.00     0.063 H 
ATOM     52  C   UNL     1      11.122   1.100  -0.056  1.00  0.00    -0.053 A 
ATOM     53  H   UNL     1       9.742   1.229   1.530  1.00  0.00     0.063 H 
ATOM     54  C   UNL     1      12.229   0.405  -0.567  1.00  0.00    -0.014 A 
ATOM     55  H   UNL     1      13.543  -1.221  -0.233  1.00  0.00     0.063 H 
ATOM     56  H   UNL     1      10.768   1.936  -0.548  1.00  0.00     0.063 H 
BRANCH  54  57
ATOM     57  C   UNL     1      12.878   0.901  -1.805  1.00  0.00     0.031 A 
ATOM     58  C   UNL     1      13.500   2.268  -1.824  1.00  0.00     0.074 A 
ATOM     59  C   UNL     1      12.817   0.170  -2.934  1.00  0.00     0.049 A 
ATOM     60  N   UNL     1      13.994   2.942  -2.832  1.00  0.00    -0.248 NA
ATOM     61  C   UNL     1      13.537   2.988  -0.542  1.00  0.00    -0.034 C 
ATOM     62  C   UNL     1      12.197  -1.150  -3.051  1.00  0.00    -0.036 A 
ATOM     63  N   UNL     1      13.256   0.447  -4.205  1.00  0.00    -0.354 N 
ATOM     64  C   UNL     1      14.376   4.170  -2.310  1.00  0.00     0.074 A 
ATOM     65  C   UNL     1      14.006   4.170  -0.912  1.00  0.00    -0.034 C 
ATOM     66  H   UNL     1      13.269   2.659   0.398  1.00  0.00     0.065 H 
ATOM     67  C   UNL     1      12.296  -1.569  -4.322  1.00  0.00    -0.036 A 
ATOM     68  H   UNL     1      11.755  -1.675  -2.280  1.00  0.00     0.065 H 
ATOM     69  C   UNL     1      12.943  -0.529  -5.118  1.00  0.00     0.049 A 
ATOM     70  H   UNL     1      13.748   1.267  -4.438  1.00  0.00     0.167 HD
ATOM     71  C   UNL     1      14.997   5.197  -2.938  1.00  0.00     0.037 A 
ATOM     72  H   UNL     1      14.095   4.985  -0.284  1.00  0.00     0.065 H 
ATOM     73  H   UNL     1      11.967  -2.480  -4.680  1.00  0.00     0.065 H 
ATOM     74  C   UNL     1      13.131  -0.571  -6.451  1.00  0.00     0.037 A 
ATOM     75  C   UNL     1      15.377   5.179  -4.326  1.00  0.00     0.049 A 
ATOM     76  C   UNL     1      13.814   0.582  -7.134  1.00  0.00     0.074 A 
ATOM     77  C   UNL     1      16.076   6.134  -5.042  1.00  0.00    -0.036 A 
ATOM     78  N   UNL     1      15.075   4.155  -5.214  1.00  0.00    -0.354 N 
ATOM     79  N   UNL     1      14.245   1.708  -6.618  1.00  0.00    -0.248 NA
ATOM     80  C   UNL     1      14.045   0.459  -8.579  1.00  0.00    -0.034 C 
ATOM     81  C   UNL     1      16.139   5.720  -6.376  1.00  0.00    -0.036 A 
ATOM     82  H   UNL     1      16.481   7.002  -4.657  1.00  0.00     0.065 H 
ATOM     83  C   UNL     1      15.542   4.473  -6.479  1.00  0.00     0.049 A 
ATOM     84  H   UNL     1      14.599   3.326  -4.979  1.00  0.00     0.167 HD
ATOM     85  C   UNL     1      14.820   2.415  -7.666  1.00  0.00     0.074 A 
ATOM     86  C   UNL     1      14.689   1.587  -8.847  1.00  0.00    -0.034 C 
ATOM     87  H   UNL     1      13.777  -0.305  -9.219  1.00  0.00     0.065 H 
ATOM     88  H   UNL     1      16.559   6.253  -7.153  1.00  0.00     0.065 H 
ATOM     89  C   UNL     1      15.408   3.636  -7.647  1.00  0.00     0.037 A 
ATOM     90  H   UNL     1      15.050   1.843  -9.779  1.00  0.00     0.065 H 
BRANCH  71  91
ATOM     91  C   UNL     1      15.283   6.431  -2.129  1.00  0.00     0.064 A 
ATOM     92  C   UNL     1      16.198   6.426  -1.064  1.00  0.00     0.173 A 
ATOM     93  C   UNL     1      14.631   7.638  -2.422  1.00  0.00     0.173 A 
ATOM     94  F   UNL     1      16.845   5.297  -0.734  1.00  0.00    -0.203 F 
ATOM     95  C   UNL     1      16.410   7.566  -0.294  1.00  0.00     0.198 A 
ATOM     96  C   UNL     1      14.875   8.787  -1.675  1.00  0.00     0.198 A 
ATOM     97  F   UNL     1      13.753   7.705  -3.434  1.00  0.00    -0.203 F 
ATOM     98  F   UNL     1      17.233   7.515   0.763  1.00  0.00    -0.200 F 
ATOM     99  C   UNL     1      15.752   8.747  -0.602  1.00  0.00     0.200 A 
ATOM    100  F   UNL     1      14.250   9.932  -1.985  1.00  0.00    -0.200 F 
ATOM    101  F   UNL     1      15.955   9.843   0.141  1.00  0.00    -0.200 F 
ENDBRANCH  71  91
BRANCH  74 102
ATOM    102  C   UNL     1      12.663  -1.756  -7.216  1.00  0.00     0.064 A 
ATOM    103  C   UNL     1      13.573  -2.670  -7.764  1.00  0.00     0.173 A 
ATOM    104  C   UNL     1      11.294  -2.019  -7.381  1.00  0.00     0.173 A 
ATOM    105  F   UNL     1      14.891  -2.453  -7.648  1.00  0.00    -0.203 F 
ATOM    106  C   UNL     1      13.133  -3.798  -8.454  1.00  0.00     0.198 A 
ATOM    107  C   UNL     1      10.855  -3.162  -8.046  1.00  0.00     0.198 A 
ATOM    108  F   UNL     1      10.383  -1.180  -6.869  1.00  0.00    -0.203 F 
ATOM    109  F   UNL     1      14.024  -4.640  -8.994  1.00  0.00    -0.200 F 
ATOM    110  C   UNL     1      11.775  -4.048  -8.586  1.00  0.00     0.200 A 
ATOM    111  F   UNL     1       9.543  -3.409  -8.154  1.00  0.00    -0.200 F 
ATOM    112  F   UNL     1      11.352  -5.141  -9.235  1.00  0.00    -0.200 F 
ENDBRANCH  74 102
BRANCH  89 113
ATOM    113  C   UNL     1      15.995   4.149  -8.931  1.00  0.00     0.064 A 
ATOM    114  C   UNL     1      15.187   4.592  -9.988  1.00  0.00     0.173 A 
ATOM    115  C   UNL     1      17.386   4.274  -9.070  1.00  0.00     0.173 A 
ATOM    116  F   UNL     1      13.853   4.481  -9.911  1.00  0.00    -0.203 F 
ATOM    117  C   UNL     1      15.752   5.133 -11.140  1.00  0.00     0.198 A 
ATOM    118  C   UNL     1      17.946   4.843 -10.210  1.00  0.00     0.198 A 
ATOM    119  F   UNL     1      18.203   3.869  -8.085  1.00  0.00    -0.203 F 
ATOM    120  F   UNL     1      14.963   5.521 -12.152  1.00  0.00    -0.200 F 
ATOM    121  C   UNL     1      17.129   5.269 -11.245  1.00  0.00     0.200 A 
ATOM    122  F   UNL     1      19.275   4.989 -10.301  1.00  0.00    -0.200 F 
ATOM    123  F   UNL     1      17.668   5.811 -12.346  1.00  0.00    -0.200 F 
ENDBRANCH  89 113
ENDBRANCH  54  57
ENDBRANCH  44  47
ENDBRANCH  40  43
ENDBRANCH  37  40
ENDBRANCH  34  37
ENDBRANCH   1  34
TORSDOF 16
