REMARK SMILES C[C@@H](C(=O)NCCCCCCNC(=O)c1ccc(-c2c3nc(c(-c4c(F)c(F)c(F)c(F)c4F)c4ccc([nH]4)c(-c4c(F)c(F)c(F)c(F)c4F)c4nc(c(-c5c(F)c(F)c(F)c(F)c5F)c5ccc2[nH]5)C=C4)C=C3)cc1)c1ccccc1-c1ccn(C(F)F)c(=O)c1
REMARK SMILES IDX 8 1 7 4 6 7 5 10 3 11 4 12 2 14 1 16 78 20 79 21 83 22 80 23
REMARK SMILES IDX 82 25 81 26 84 30 85 31 93 32 86 33 91 35 87 37 92 39 88 40
REMARK SMILES IDX 89 41 90 42 9 44 10 47 11 50 12 53 13 54 14 56 15 57 16 58
REMARK SMILES IDX 77 59 17 60 76 62 18 64 19 67 20 68 70 69 21 70 75 71 69 72
REMARK SMILES IDX 71 73 22 74 74 75 68 77 67 79 23 81 55 84 35 85 54 86 36 87
REMARK SMILES IDX 39 88 53 89 72 90 37 91 38 93 52 95 73 96 40 99 24 101
REMARK SMILES IDX 25 102 33 103 26 104 27 105 31 106 34 107 28 108 29 109
REMARK SMILES IDX 32 110 30 111 56 112 57 113 65 114 58 115 59 116 63 117
REMARK SMILES IDX 66 118 60 119 61 120 64 121 62 122 41 123 42 124 50 125
REMARK SMILES IDX 43 126 44 127 48 128 51 129 45 130 46 131 49 132 47 133
REMARK H PARENT 8 2 8 3 7 5 7 6 6 8 6 9 5 13 2 15 1 17 1 18 1 19 79 24 80 27
REMARK H PARENT 82 28 81 29 85 34 93 36 86 38 88 43 9 45 9 46 10 48 10 49
REMARK H PARENT 11 51 11 52 12 55 16 61 77 63 17 65 76 66 75 76 69 78 71 80
REMARK H PARENT 74 82 68 83 36 92 39 94 72 97 37 98 73 100
REMARK Flexibility Score: inf
ROOT
ATOM      1  C   UNL     1       4.949  -1.586   2.412  1.00  0.00    -0.052 C 
ATOM      2  H   UNL     1       4.219  -1.940   3.110  1.00  0.00     0.027 H 
ATOM      3  H   UNL     1       5.570  -0.811   2.811  1.00  0.00     0.027 H 
ENDROOT
BRANCH   1   4
ATOM      4  C   UNL     1       4.209  -0.976   1.212  1.00  0.00    -0.036 C 
ATOM      5  H   UNL     1       3.628  -0.146   1.557  1.00  0.00     0.028 H 
ATOM      6  H   UNL     1       4.950  -0.680   0.499  1.00  0.00     0.028 H 
BRANCH   4   7
ATOM      7  C   UNL     1       3.274  -1.965   0.510  1.00  0.00     0.017 C 
ATOM      8  H   UNL     1       2.889  -1.523  -0.385  1.00  0.00     0.049 H 
ATOM      9  H   UNL     1       3.811  -2.856   0.257  1.00  0.00     0.049 H 
BRANCH   7  10
ATOM     10  N   UNL     1       2.180  -2.288   1.403  1.00  0.00    -0.356 N 
ATOM     11  C   UNL     1       0.920  -1.764   1.429  1.00  0.00     0.227 C 
ATOM     12  O   UNL     1       0.317  -1.808   2.503  1.00  0.00    -0.274 OA
ATOM     13  H   UNL     1       2.371  -2.975   2.081  1.00  0.00     0.163 HD
BRANCH  11  14
ATOM     14  C   UNL     1       0.302  -1.216   0.136  1.00  0.00     0.061 C 
ATOM     15  H   UNL     1       0.650  -1.755  -0.720  1.00  0.00     0.045 H 
BRANCH  14  16
ATOM     16  C   UNL     1       0.754   0.241  -0.046  1.00  0.00    -0.049 C 
ATOM     17  H   UNL     1       1.823   0.287  -0.029  1.00  0.00     0.024 H 
ATOM     18  H   UNL     1       0.358   0.840   0.747  1.00  0.00     0.024 H 
ATOM     19  H   UNL     1       0.397   0.610  -0.985  1.00  0.00     0.024 H 
ENDBRANCH  14  16
BRANCH  14  20
ATOM     20  C   UNL     1      -1.221  -1.429   0.131  1.00  0.00    -0.028 A 
ATOM     21  C   UNL     1      -2.094  -0.328   0.259  1.00  0.00    -0.058 A 
ATOM     22  C   UNL     1      -1.796  -2.725   0.039  1.00  0.00    -0.014 A 
ATOM     23  C   UNL     1      -3.479  -0.493   0.306  1.00  0.00    -0.062 A 
ATOM     24  H   UNL     1      -1.699   0.623   0.320  1.00  0.00     0.063 H 
ATOM     25  C   UNL     1      -3.194  -2.873   0.113  1.00  0.00    -0.054 A 
ATOM     26  C   UNL     1      -4.029  -1.765   0.243  1.00  0.00    -0.062 A 
ATOM     27  H   UNL     1      -4.094   0.331   0.387  1.00  0.00     0.062 H 
ATOM     28  H   UNL     1      -3.608  -3.817   0.070  1.00  0.00     0.063 H 
ATOM     29  H   UNL     1      -5.052  -1.890   0.293  1.00  0.00     0.062 H 
BRANCH  22  30
ATOM     30  C   UNL     1      -1.005  -3.965  -0.152  1.00  0.00    -0.011 A 
ATOM     31  C   UNL     1      -0.266  -4.620   0.910  1.00  0.00    -0.038 A 
ATOM     32  C   UNL     1      -1.007  -4.524  -1.375  1.00  0.00     0.012 A 
ATOM     33  C   UNL     1       0.511  -5.678   0.650  1.00  0.00     0.013 A 
ATOM     34  H   UNL     1      -0.340  -4.266   1.877  1.00  0.00     0.064 H 
ATOM     35  C   UNL     1      -0.213  -5.751  -1.662  1.00  0.00     0.255 A 
ATOM     36  H   UNL     1      -1.569  -4.096  -2.127  1.00  0.00     0.069 H 
ATOM     37  N   UNL     1       0.572  -6.219  -0.620  1.00  0.00    -0.258 N 
ATOM     38  H   UNL     1       1.073  -6.095   1.409  1.00  0.00     0.082 H 
ATOM     39  O   UNL     1      -0.281  -6.245  -2.782  1.00  0.00    -0.269 OA
BRANCH  37  40
ATOM     40  C   UNL     1       1.418  -7.351  -0.894  1.00  0.00     0.321 C 
ATOM     41  F   UNL     1       0.685  -8.457  -1.163  1.00  0.00    -0.185 F 
ATOM     42  F   UNL     1       2.226  -7.112  -1.957  1.00  0.00    -0.185 F 
ATOM     43  H   UNL     1       2.010  -7.512  -0.017  1.00  0.00     0.131 H 
ENDBRANCH  37  40
ENDBRANCH  22  30
ENDBRANCH  14  20
ENDBRANCH  11  14
ENDBRANCH   7  10
ENDBRANCH   4   7
ENDBRANCH   1   4
BRANCH   1  44
ATOM     44  C   UNL     1       5.881  -2.751   2.063  1.00  0.00    -0.052 C 
ATOM     45  H   UNL     1       5.283  -3.557   1.690  1.00  0.00     0.027 H 
ATOM     46  H   UNL     1       6.406  -3.002   2.960  1.00  0.00     0.027 H 
BRANCH  44  47
ATOM     47  C   UNL     1       6.942  -2.420   1.014  1.00  0.00    -0.036 C 
ATOM     48  H   UNL     1       6.445  -2.156   0.104  1.00  0.00     0.028 H 
ATOM     49  H   UNL     1       7.557  -3.289   0.910  1.00  0.00     0.028 H 
BRANCH  47  50
ATOM     50  C   UNL     1       7.864  -1.272   1.407  1.00  0.00     0.018 C 
ATOM     51  H   UNL     1       7.267  -0.421   1.661  1.00  0.00     0.049 H 
ATOM     52  H   UNL     1       8.503  -1.061   0.575  1.00  0.00     0.049 H 
BRANCH  50  53
ATOM     53  N   UNL     1       8.704  -1.613   2.544  1.00  0.00    -0.352 N 
ATOM     54  C   UNL     1      10.071  -1.508   2.662  1.00  0.00     0.251 C 
ATOM     55  H   UNL     1       8.233  -1.966   3.333  1.00  0.00     0.163 HD
ATOM     56  O   UNL     1      10.663  -2.009   3.602  1.00  0.00    -0.269 OA
BRANCH  54  57
ATOM     57  C   UNL     1      10.816  -0.789   1.608  1.00  0.00     0.039 A 
ATOM     58  C   UNL     1      11.926  -1.398   1.020  1.00  0.00    -0.049 A 
ATOM     59  C   UNL     1      10.384   0.470   1.183  1.00  0.00    -0.049 A 
ATOM     60  C   UNL     1      12.570  -0.768  -0.047  1.00  0.00    -0.053 A 
ATOM     61  H   UNL     1      12.267  -2.307   1.370  1.00  0.00     0.063 H 
ATOM     62  C   UNL     1      10.980   1.060   0.076  1.00  0.00    -0.053 A 
ATOM     63  H   UNL     1       9.627   0.957   1.687  1.00  0.00     0.063 H 
ATOM     64  C   UNL     1      12.081   0.449  -0.546  1.00  0.00    -0.014 A 
ATOM     65  H   UNL     1      13.409  -1.198  -0.468  1.00  0.00     0.063 H 
ATOM     66  H   UNL     1      10.614   1.953  -0.290  1.00  0.00     0.063 H 
BRANCH  64  67
ATOM     67  C   UNL     1      12.701   1.125  -1.712  1.00  0.00     0.031 A 
ATOM     68  C   UNL     1      13.319   2.482  -1.536  1.00  0.00     0.074 A 
ATOM     69  C   UNL     1      12.602   0.578  -2.938  1.00  0.00     0.049 A 
ATOM     70  N   UNL     1      13.756   3.319  -2.441  1.00  0.00    -0.248 NA
ATOM     71  C   UNL     1      13.420   2.978  -0.156  1.00  0.00    -0.034 C 
ATOM     72  C   UNL     1      11.984  -0.713  -3.240  1.00  0.00    -0.036 A 
ATOM     73  N   UNL     1      12.990   1.058  -4.164  1.00  0.00    -0.354 N 
ATOM     74  C   UNL     1      14.153   4.451  -1.743  1.00  0.00     0.074 A 
ATOM     75  C   UNL     1      13.860   4.212  -0.346  1.00  0.00    -0.034 C 
ATOM     76  H   UNL     1      13.205   2.493   0.729  1.00  0.00     0.065 H 
ATOM     77  C   UNL     1      12.030  -0.921  -4.565  1.00  0.00    -0.036 A 
ATOM     78  H   UNL     1      11.578  -1.360  -2.545  1.00  0.00     0.065 H 
ATOM     79  C   UNL     1      12.639   0.239  -5.209  1.00  0.00     0.049 A 
ATOM     80  H   UNL     1      13.474   1.907  -4.282  1.00  0.00     0.167 HD
ATOM     81  C   UNL     1      14.726   5.580  -2.224  1.00  0.00     0.037 A 
ATOM     82  H   UNL     1      13.978   4.912   0.403  1.00  0.00     0.065 H 
ATOM     83  H   UNL     1      11.689  -1.766  -5.051  1.00  0.00     0.065 H 
ATOM     84  C   UNL     1      12.769   0.417  -6.538  1.00  0.00     0.037 A 
ATOM     85  C   UNL     1      15.039   5.795  -3.611  1.00  0.00     0.049 A 
ATOM     86  C   UNL     1      13.413   1.674  -7.053  1.00  0.00     0.074 A 
ATOM     87  C   UNL     1      15.692   6.867  -4.192  1.00  0.00    -0.036 A 
ATOM     88  N   UNL     1      14.714   4.918  -4.637  1.00  0.00    -0.354 N 
ATOM     89  N   UNL     1      13.852   2.711  -6.381  1.00  0.00    -0.248 NA
ATOM     90  C   UNL     1      13.586   1.787  -8.508  1.00  0.00    -0.034 C 
ATOM     91  C   UNL     1      15.714   6.665  -5.576  1.00  0.00    -0.036 A 
ATOM     92  H   UNL     1      16.093   7.675  -3.692  1.00  0.00     0.065 H 
ATOM     93  C   UNL     1      15.127   5.439  -5.852  1.00  0.00     0.049 A 
ATOM     94  H   UNL     1      14.257   4.054  -4.519  1.00  0.00     0.167 HD
ATOM     95  C   UNL     1      14.378   3.584  -7.323  1.00  0.00     0.074 A 
ATOM     96  C   UNL     1      14.204   2.956  -8.617  1.00  0.00    -0.034 C 
ATOM     97  H   UNL     1      13.302   1.129  -9.251  1.00  0.00     0.065 H 
ATOM     98  H   UNL     1      16.101   7.319  -6.274  1.00  0.00     0.065 H 
ATOM     99  C   UNL     1      14.957   4.795  -7.131  1.00  0.00     0.037 A 
ATOM    100  H   UNL     1      14.522   3.365  -9.509  1.00  0.00     0.065 H 
BRANCH  81 101
ATOM    101  C   UNL     1      15.031   6.672  -1.238  1.00  0.00     0.064 A 
ATOM    102  C   UNL     1      16.012   6.523  -0.246  1.00  0.00     0.173 A 
ATOM    103  C   UNL     1      14.328   7.886  -1.286  1.00  0.00     0.173 A 
ATOM    104  F   UNL     1      16.707   5.379  -0.150  1.00  0.00    -0.203 F 
ATOM    105  C   UNL     1      16.244   7.527   0.690  1.00  0.00     0.198 A 
ATOM    106  C   UNL     1      14.588   8.902  -0.370  1.00  0.00     0.198 A 
ATOM    107  F   UNL     1      13.384   8.086  -2.217  1.00  0.00    -0.203 F 
ATOM    108  F   UNL     1      17.137   7.332   1.671  1.00  0.00    -0.200 F 
ATOM    109  C   UNL     1      15.536   8.716   0.625  1.00  0.00     0.200 A 
ATOM    110  F   UNL     1      13.913  10.057  -0.443  1.00  0.00    -0.200 F 
ATOM    111  F   UNL     1      15.758   9.680   1.530  1.00  0.00    -0.200 F 
ENDBRANCH  81 101
BRANCH  84 112
ATOM    112  C   UNL     1      12.281  -0.638  -7.463  1.00  0.00     0.064 A 
ATOM    113  C   UNL     1      13.179  -1.457  -8.160  1.00  0.00     0.173 A 
ATOM    114  C   UNL     1      10.909  -0.879  -7.633  1.00  0.00     0.173 A 
ATOM    115  F   UNL     1      14.499  -1.253  -8.044  1.00  0.00    -0.203 F 
ATOM    116  C   UNL     1      12.723  -2.474  -8.996  1.00  0.00     0.198 A 
ATOM    117  C   UNL     1      10.456  -1.913  -8.449  1.00  0.00     0.198 A 
ATOM    118  F   UNL     1      10.010  -0.127  -6.980  1.00  0.00    -0.203 F 
ATOM    119  F   UNL     1      13.602  -3.227  -9.672  1.00  0.00    -0.200 F 
ATOM    120  C   UNL     1      11.363  -2.707  -9.133  1.00  0.00     0.200 A 
ATOM    121  F   UNL     1       9.141  -2.145  -8.563  1.00  0.00    -0.200 F 
ATOM    122  F   UNL     1      10.926  -3.697  -9.923  1.00  0.00    -0.200 F 
ENDBRANCH  84 112
BRANCH  99 123
ATOM    123  C   UNL     1      15.487   5.514  -8.336  1.00  0.00     0.064 A 
ATOM    124  C   UNL     1      14.635   6.141  -9.255  1.00  0.00     0.173 A 
ATOM    125  C   UNL     1      16.872   5.653  -8.521  1.00  0.00     0.173 A 
ATOM    126  F   UNL     1      13.304   6.026  -9.130  1.00  0.00    -0.203 F 
ATOM    127  C   UNL     1      15.150   6.877 -10.319  1.00  0.00     0.198 A 
ATOM    128  C   UNL     1      17.383   6.411  -9.569  1.00  0.00     0.198 A 
ATOM    129  F   UNL     1      17.729   5.076  -7.664  1.00  0.00    -0.203 F 
ATOM    130  F   UNL     1      14.318   7.448 -11.201  1.00  0.00    -0.200 F 
ATOM    131  C   UNL     1      16.522   7.022 -10.468  1.00  0.00     0.200 A 
ATOM    132  F   UNL     1      18.708   6.562  -9.702  1.00  0.00    -0.200 F 
ATOM    133  F   UNL     1      17.015   7.750 -11.480  1.00  0.00    -0.200 F 
ENDBRANCH  99 123
ENDBRANCH  64  67
ENDBRANCH  54  57
ENDBRANCH  50  53
ENDBRANCH  47  50
ENDBRANCH  44  47
ENDBRANCH   1  44
TORSDOF 17
