REMARK SMILES CC(=O)Oc1ccccc1C(=O)NCCCCCCNC(=O)c1ccc(-c2c3nc(c(-c4c(F)c(F)c(F)c(F)c4F)c4ccc([nH]4)c(-c4c(F)c(F)c(F)c(F)c4F)c4nc(c(-c5c(F)c(F)c(F)c(F)c5F)c5ccc2[nH]5)C=C4)C=C3)cc1
REMARK SMILES IDX 16 1 15 4 14 7 13 10 11 11 12 12 10 14 5 15 6 16 7 17 9 19
REMARK SMILES IDX 8 20 4 24 2 25 3 26 1 27 17 31 18 34 19 37 20 40 21 41 22 43
REMARK SMILES IDX 23 44 24 45 85 46 25 47 84 49 26 51 27 54 28 55 78 56 29 57
REMARK SMILES IDX 83 58 77 59 79 60 30 61 82 62 76 64 75 66 31 68 63 71 43 72
REMARK SMILES IDX 62 73 44 74 47 75 61 76 80 77 45 78 46 80 60 82 81 83 48 86
REMARK SMILES IDX 32 88 33 89 41 90 34 91 35 92 39 93 42 94 36 95 37 96 40 97
REMARK SMILES IDX 38 98 64 99 65 100 73 101 66 102 67 103 71 104 74 105 68 106
REMARK SMILES IDX 69 107 72 108 70 109 49 110 50 111 58 112 51 113 52 114
REMARK SMILES IDX 56 115 59 116 53 117 54 118 57 119 55 120
REMARK H PARENT 16 2 16 3 15 5 15 6 14 8 14 9 13 13 6 18 7 21 9 22 8 23 1 28
REMARK H PARENT 1 29 1 30 17 32 17 33 18 35 18 36 19 38 19 39 20 42 24 48
REMARK H PARENT 85 50 25 52 84 53 83 63 77 65 79 67 82 69 76 70 44 79 47 81
REMARK H PARENT 80 84 45 85 81 87
REMARK Flexibility Score: inf
ROOT
ATOM      1  C   UNL     1      -1.128  -1.548  -0.825  1.00  0.00    -0.052 C 
ATOM      2  H   UNL     1      -2.072  -1.072  -0.994  1.00  0.00     0.027 H 
ATOM      3  H   UNL     1      -1.108  -2.608  -0.966  1.00  0.00     0.027 H 
ENDROOT
BRANCH   1   4
ATOM      4  C   UNL     1      -0.780  -1.354   0.655  1.00  0.00    -0.036 C 
ATOM      5  H   UNL     1      -1.630  -1.661   1.228  1.00  0.00     0.028 H 
ATOM      6  H   UNL     1       0.107  -1.934   0.805  1.00  0.00     0.028 H 
BRANCH   4   7
ATOM      7  C   UNL     1      -0.406   0.053   1.111  1.00  0.00     0.018 C 
ATOM      8  H   UNL     1      -0.047  -0.012   2.117  1.00  0.00     0.049 H 
ATOM      9  H   UNL     1       0.325   0.402   0.412  1.00  0.00     0.049 H 
BRANCH   7  10
ATOM     10  N   UNL     1      -1.472   1.022   1.082  1.00  0.00    -0.352 N 
ATOM     11  C   UNL     1      -1.659   2.190   1.784  1.00  0.00     0.255 C 
ATOM     12  O   UNL     1      -2.679   2.828   1.507  1.00  0.00    -0.269 OA
ATOM     13  H   UNL     1      -2.194   0.810   0.448  1.00  0.00     0.163 HD
BRANCH  11  14
ATOM     14  C   UNL     1      -0.780   2.705   2.885  1.00  0.00     0.082 A 
ATOM     15  C   UNL     1       0.605   2.565   3.039  1.00  0.00     0.143 A 
ATOM     16  C   UNL     1       1.278   3.102   4.151  1.00  0.00    -0.018 A 
ATOM     17  C   UNL     1       0.587   3.841   5.105  1.00  0.00    -0.059 A 
ATOM     18  H   UNL     1       2.293   2.946   4.259  1.00  0.00     0.066 H 
ATOM     19  C   UNL     1      -1.450   3.478   3.860  1.00  0.00    -0.046 A 
ATOM     20  C   UNL     1      -0.779   4.039   4.954  1.00  0.00    -0.061 A 
ATOM     21  H   UNL     1       1.085   4.238   5.917  1.00  0.00     0.062 H 
ATOM     22  H   UNL     1      -2.465   3.634   3.763  1.00  0.00     0.063 H 
ATOM     23  H   UNL     1      -1.299   4.599   5.647  1.00  0.00     0.062 H 
BRANCH  15  24
ATOM     24  O   UNL     1       1.414   1.829   2.171  1.00  0.00    -0.426 OA
BRANCH  24  25
ATOM     25  C   UNL     1       2.000   2.552   1.140  1.00  0.00     0.308 C 
ATOM     26  O   UNL     1       1.837   3.736   0.891  1.00  0.00    -0.252 OA
BRANCH  25  27
ATOM     27  C   UNL     1       2.895   1.630   0.360  1.00  0.00     0.034 C 
ATOM     28  H   UNL     1       3.355   2.172  -0.440  1.00  0.00     0.035 H 
ATOM     29  H   UNL     1       2.315   0.826  -0.042  1.00  0.00     0.035 H 
ATOM     30  H   UNL     1       3.651   1.236   1.006  1.00  0.00     0.035 H 
ENDBRANCH  25  27
ENDBRANCH  24  25
ENDBRANCH  15  24
ENDBRANCH  11  14
ENDBRANCH   7  10
ENDBRANCH   4   7
ENDBRANCH   1   4
BRANCH   1  31
ATOM     31  C   UNL     1      -0.153  -1.006  -1.876  1.00  0.00    -0.052 C 
ATOM     32  H   UNL     1      -0.227   0.061  -1.861  1.00  0.00     0.027 H 
ATOM     33  H   UNL     1      -0.452  -1.477  -2.790  1.00  0.00     0.027 H 
BRANCH  31  34
ATOM     34  C   UNL     1       1.327  -1.363  -1.726  1.00  0.00    -0.036 C 
ATOM     35  H   UNL     1       1.692  -0.862  -0.854  1.00  0.00     0.028 H 
ATOM     36  H   UNL     1       1.779  -1.059  -2.647  1.00  0.00     0.028 H 
BRANCH  34  37
ATOM     37  C   UNL     1       1.677  -2.841  -1.585  1.00  0.00     0.018 C 
ATOM     38  H   UNL     1       1.155  -3.233  -0.737  1.00  0.00     0.049 H 
ATOM     39  H   UNL     1       2.739  -2.903  -1.474  1.00  0.00     0.049 H 
BRANCH  37  40
ATOM     40  N   UNL     1       1.323  -3.633  -2.748  1.00  0.00    -0.352 N 
ATOM     41  C   UNL     1       2.086  -4.466  -3.530  1.00  0.00     0.251 C 
ATOM     42  H   UNL     1       0.380  -3.563  -3.021  1.00  0.00     0.163 HD
ATOM     43  O   UNL     1       1.591  -4.962  -4.539  1.00  0.00    -0.269 OA
BRANCH  41  44
ATOM     44  C   UNL     1       3.503  -4.760  -3.202  1.00  0.00     0.039 A 
ATOM     45  C   UNL     1       4.424  -4.841  -4.254  1.00  0.00    -0.049 A 
ATOM     46  C   UNL     1       3.932  -5.012  -1.897  1.00  0.00    -0.049 A 
ATOM     47  C   UNL     1       5.771  -5.117  -3.995  1.00  0.00    -0.053 A 
ATOM     48  H   UNL     1       4.108  -4.696  -5.226  1.00  0.00     0.063 H 
ATOM     49  C   UNL     1       5.288  -5.215  -1.630  1.00  0.00    -0.053 A 
ATOM     50  H   UNL     1       3.245  -5.048  -1.127  1.00  0.00     0.063 H 
ATOM     51  C   UNL     1       6.222  -5.278  -2.676  1.00  0.00    -0.014 A 
ATOM     52  H   UNL     1       6.437  -5.202  -4.778  1.00  0.00     0.063 H 
ATOM     53  H   UNL     1       5.606  -5.319  -0.653  1.00  0.00     0.063 H 
BRANCH  51  54
ATOM     54  C   UNL     1       7.659  -5.526  -2.379  1.00  0.00     0.031 A 
ATOM     55  C   UNL     1       8.095  -6.822  -1.750  1.00  0.00     0.074 A 
ATOM     56  C   UNL     1       8.569  -4.562  -2.618  1.00  0.00     0.049 A 
ATOM     57  N   UNL     1       9.289  -7.195  -1.360  1.00  0.00    -0.248 NA
ATOM     58  C   UNL     1       7.044  -7.819  -1.500  1.00  0.00    -0.034 C 
ATOM     59  C   UNL     1       8.273  -3.241  -3.173  1.00  0.00    -0.036 A 
ATOM     60  N   UNL     1       9.926  -4.537  -2.407  1.00  0.00    -0.354 N 
ATOM     61  C   UNL     1       9.128  -8.457  -0.802  1.00  0.00     0.074 A 
ATOM     62  C   UNL     1       7.715  -8.764  -0.858  1.00  0.00    -0.034 C 
ATOM     63  H   UNL     1       6.045  -7.790  -1.757  1.00  0.00     0.065 H 
ATOM     64  C   UNL     1       9.412  -2.539  -3.268  1.00  0.00    -0.036 A 
ATOM     65  H   UNL     1       7.337  -2.904  -3.449  1.00  0.00     0.065 H 
ATOM     66  C   UNL     1      10.515  -3.345  -2.751  1.00  0.00     0.049 A 
ATOM     67  H   UNL     1      10.429  -5.302  -2.043  1.00  0.00     0.167 HD
ATOM     68  C   UNL     1      10.074  -9.293  -0.309  1.00  0.00     0.037 A 
ATOM     69  H   UNL     1       7.285  -9.609  -0.450  1.00  0.00     0.065 H 
ATOM     70  H   UNL     1       9.496  -1.582  -3.645  1.00  0.00     0.065 H 
ATOM     71  C   UNL     1      11.796  -2.941  -2.653  1.00  0.00     0.037 A 
ATOM     72  C   UNL     1      11.483  -9.000  -0.282  1.00  0.00     0.049 A 
ATOM     73  C   UNL     1      12.833  -3.893  -2.120  1.00  0.00     0.074 A 
ATOM     74  C   UNL     1      12.527  -9.813   0.124  1.00  0.00    -0.036 A 
ATOM     75  N   UNL     1      12.047  -7.793  -0.672  1.00  0.00    -0.354 N 
ATOM     76  N   UNL     1      12.680  -5.114  -1.669  1.00  0.00    -0.248 NA
ATOM     77  C   UNL     1      14.222  -3.413  -2.093  1.00  0.00    -0.034 C 
ATOM     78  C   UNL     1      13.717  -9.082   0.026  1.00  0.00    -0.036 A 
ATOM     79  H   UNL     1      12.443 -10.790   0.445  1.00  0.00     0.065 H 
ATOM     80  C   UNL     1      13.421  -7.831  -0.491  1.00  0.00     0.049 A 
ATOM     81  H   UNL     1      11.545  -7.024  -1.026  1.00  0.00     0.167 HD
ATOM     82  C   UNL     1      13.950  -5.556  -1.325  1.00  0.00     0.074 A 
ATOM     83  C   UNL     1      14.866  -4.478  -1.634  1.00  0.00    -0.034 C 
ATOM     84  H   UNL     1      14.598  -2.490  -2.361  1.00  0.00     0.065 H 
ATOM     85  H   UNL     1      14.655  -9.418   0.293  1.00  0.00     0.065 H 
ATOM     86  C   UNL     1      14.322  -6.749  -0.798  1.00  0.00     0.037 A 
ATOM     87  H   UNL     1      15.889  -4.531  -1.513  1.00  0.00     0.065 H 
BRANCH  68  88
ATOM     88  C   UNL     1       9.610 -10.610   0.248  1.00  0.00     0.064 A 
ATOM     89  C   UNL     1       9.091 -11.620  -0.577  1.00  0.00     0.173 A 
ATOM     90  C   UNL     1       9.703 -10.872   1.624  1.00  0.00     0.173 A 
ATOM     91  F   UNL     1       8.973 -11.418  -1.898  1.00  0.00    -0.203 F 
ATOM     92  C   UNL     1       8.645 -12.825  -0.042  1.00  0.00     0.198 A 
ATOM     93  C   UNL     1       9.286 -12.092   2.151  1.00  0.00     0.198 A 
ATOM     94  F   UNL     1      10.199  -9.946   2.458  1.00  0.00    -0.203 F 
ATOM     95  F   UNL     1       8.097 -13.750  -0.842  1.00  0.00    -0.200 F 
ATOM     96  C   UNL     1       8.747 -13.063   1.321  1.00  0.00     0.200 A 
ATOM     97  F   UNL     1       9.398 -12.325   3.466  1.00  0.00    -0.200 F 
ATOM     98  F   UNL     1       8.317 -14.223   1.835  1.00  0.00    -0.200 F 
ENDBRANCH  68  88
BRANCH  71  99
ATOM     99  C   UNL     1      12.168  -1.570  -3.089  1.00  0.00     0.064 A 
ATOM    100  C   UNL     1      12.915  -1.360  -4.255  1.00  0.00     0.173 A 
ATOM    101  C   UNL     1      11.764  -0.442  -2.359  1.00  0.00     0.173 A 
ATOM    102  F   UNL     1      13.341  -2.409  -4.975  1.00  0.00    -0.203 F 
ATOM    103  C   UNL     1      13.255  -0.074  -4.670  1.00  0.00     0.198 A 
ATOM    104  C   UNL     1      12.081   0.844  -2.789  1.00  0.00     0.198 A 
ATOM    105  F   UNL     1      11.042  -0.590  -1.239  1.00  0.00    -0.203 F 
ATOM    106  F   UNL     1      14.001   0.098  -5.770  1.00  0.00    -0.200 F 
ATOM    107  C   UNL     1      12.831   1.027  -3.941  1.00  0.00     0.200 A 
ATOM    108  F   UNL     1      11.656   1.906  -2.090  1.00  0.00    -0.200 F 
ATOM    109  F   UNL     1      13.149   2.264  -4.346  1.00  0.00    -0.200 F 
ENDBRANCH  71  99
BRANCH  86 110
ATOM    110  C   UNL     1      15.786  -6.962  -0.541  1.00  0.00     0.064 A 
ATOM    111  C   UNL     1      16.450  -6.308   0.507  1.00  0.00     0.173 A 
ATOM    112  C   UNL     1      16.523  -7.861  -1.326  1.00  0.00     0.173 A 
ATOM    113  F   UNL     1      15.794  -5.427   1.277  1.00  0.00    -0.203 F 
ATOM    114  C   UNL     1      17.805  -6.529   0.745  1.00  0.00     0.198 A 
ATOM    115  C   UNL     1      17.870  -8.102  -1.067  1.00  0.00     0.198 A 
ATOM    116  F   UNL     1      15.934  -8.517  -2.337  1.00  0.00    -0.203 F 
ATOM    117  F   UNL     1      18.429  -5.859   1.723  1.00  0.00    -0.200 F 
ATOM    118  C   UNL     1      18.511  -7.431  -0.037  1.00  0.00     0.200 A 
ATOM    119  F   UNL     1      18.547  -8.983  -1.816  1.00  0.00    -0.200 F 
ATOM    120  F   UNL     1      19.812  -7.648   0.198  1.00  0.00    -0.200 F 
ENDBRANCH  86 110
ENDBRANCH  51  54
ENDBRANCH  41  44
ENDBRANCH  37  40
ENDBRANCH  34  37
ENDBRANCH  31  34
ENDBRANCH   1  31
TORSDOF 16
