REMARK SMILES COc1ccc([C@H]2CC(c3ccc(S(C)(=O)=O)cc3)=NN2c2ccc(C(=O)NCCCCCCNC(=O)c3ccc(-c4c5nc(c(-c6c(F)c(F)c(F)c(F)c6F)c6ccc([nH]6)c(-c6c(F)c(F)c(F)c(F)c6F)c6nc(c(-c7c(F)c(F)c(F)c(F)c7F)c7ccc4[nH]7)C=C6)C=C5)cc3)cc2)cc1OC
REMARK SMILES IDX 30 1 29 4 28 7 26 8 27 9 25 11 22 12 23 13 102 14 24 15
REMARK SMILES IDX 101 17 21 21 7 22 8 23 9 25 20 28 6 29 3 30 4 31 104 32 5 33
REMARK SMILES IDX 103 35 2 38 1 39 105 43 106 44 10 48 11 49 19 50 12 51 18 53
REMARK SMILES IDX 13 55 14 58 16 59 17 60 15 61 31 65 32 68 33 71 34 74 35 77
REMARK SMILES IDX 36 78 37 80 38 81 39 82 100 83 40 84 99 86 41 88 42 91 43 92
REMARK SMILES IDX 93 93 44 94 98 95 92 96 94 97 45 98 97 99 91 101 90 103
REMARK SMILES IDX 46 105 78 108 58 109 77 110 59 111 62 112 76 113 95 114
REMARK SMILES IDX 60 115 61 117 75 119 96 120 63 123 47 125 48 126 56 127
REMARK SMILES IDX 49 128 50 129 54 130 57 131 51 132 52 133 55 134 53 135
REMARK SMILES IDX 79 136 80 137 88 138 81 139 82 140 86 141 89 142 83 143
REMARK SMILES IDX 84 144 87 145 85 146 64 147 65 148 73 149 66 150 67 151
REMARK SMILES IDX 71 152 74 153 68 154 69 155 72 156 70 157
REMARK H PARENT 30 2 30 3 29 5 29 6 28 10 23 16 102 18 24 19 101 20 7 24 8 26
REMARK H PARENT 8 27 4 34 5 36 103 37 1 40 1 41 1 42 106 45 106 46 106 47
REMARK H PARENT 11 52 19 54 12 56 18 57 15 62 15 63 15 64 31 66 31 67 32 69
REMARK H PARENT 32 70 33 72 33 73 34 75 34 76 35 79 39 85 100 87 40 89 99 90
REMARK H PARENT 98 100 92 102 94 104 97 106 91 107 59 116 62 118 95 121 60 122
REMARK H PARENT 96 124
REMARK Flexibility Score: inf
ROOT
ATOM      1  C   UNL     1       0.362  -2.196 -11.561  1.00  0.00    -0.036 C 
ATOM      2  H   UNL     1       1.317  -1.790 -11.821  1.00  0.00     0.028 H 
ATOM      3  H   UNL     1      -0.421  -1.476 -11.673  1.00  0.00     0.028 H 
ENDROOT
BRANCH   1   4
ATOM      4  C   UNL     1       0.394  -2.612 -10.088  1.00  0.00     0.018 C 
ATOM      5  H   UNL     1       0.294  -1.744  -9.471  1.00  0.00     0.049 H 
ATOM      6  H   UNL     1      -0.412  -3.287  -9.893  1.00  0.00     0.049 H 
BRANCH   4   7
ATOM      7  N   UNL     1       1.651  -3.269  -9.794  1.00  0.00    -0.352 N 
ATOM      8  C   UNL     1       2.793  -2.842  -9.169  1.00  0.00     0.251 C 
ATOM      9  O   UNL     1       3.731  -3.636  -9.095  1.00  0.00    -0.269 OA
ATOM     10  H   UNL     1       1.693  -4.203 -10.103  1.00  0.00     0.163 HD
BRANCH   8  11
ATOM     11  C   UNL     1       2.918  -1.506  -8.525  1.00  0.00     0.039 A 
ATOM     12  C   UNL     1       3.180   0.913  -7.089  1.00  0.00     0.060 A 
ATOM     13  C   UNL     1       3.909  -0.221  -6.719  1.00  0.00    -0.036 A 
ATOM     14  C   UNL     1       2.373   0.842  -8.225  1.00  0.00    -0.036 A 
ATOM     15  C   UNL     1       3.767  -1.423  -7.415  1.00  0.00    -0.047 A 
ATOM     16  H   UNL     1       4.560  -0.169  -5.920  1.00  0.00     0.065 H 
ATOM     17  C   UNL     1       2.275  -0.345  -8.963  1.00  0.00    -0.047 A 
ATOM     18  H   UNL     1       1.841   1.674  -8.526  1.00  0.00     0.065 H 
ATOM     19  H   UNL     1       4.292  -2.256  -7.109  1.00  0.00     0.063 H 
ATOM     20  H   UNL     1       1.724  -0.362  -9.835  1.00  0.00     0.063 H 
BRANCH  12  21
ATOM     21  N   UNL     1       3.294   2.077  -6.352  1.00  0.00    -0.257 N 
ATOM     22  C   UNL     1       2.212   2.685  -5.580  1.00  0.00     0.083 C 
ATOM     23  C   UNL     1       2.827   4.023  -5.144  1.00  0.00     0.019 C 
ATOM     24  H   UNL     1       1.305   2.800  -6.135  1.00  0.00     0.061 H 
ATOM     25  C   UNL     1       4.168   3.928  -5.816  1.00  0.00     0.071 C 
ATOM     26  H   UNL     1       2.920   4.090  -4.080  1.00  0.00     0.036 H 
ATOM     27  H   UNL     1       2.253   4.888  -5.406  1.00  0.00     0.036 H 
ATOM     28  N   UNL     1       4.396   2.850  -6.496  1.00  0.00    -0.176 NA
BRANCH  22  29
ATOM     29  C   UNL     1       1.806   1.823  -4.395  1.00  0.00    -0.019 A 
ATOM     30  C   UNL     1       1.081   0.213  -2.195  1.00  0.00     0.160 A 
ATOM     31  C   UNL     1       0.111   0.661  -3.103  1.00  0.00    -0.016 A 
ATOM     32  C   UNL     1       2.425   0.545  -2.387  1.00  0.00     0.161 A 
ATOM     33  C   UNL     1       0.468   1.466  -4.190  1.00  0.00    -0.053 A 
ATOM     34  H   UNL     1      -0.877   0.394  -2.968  1.00  0.00     0.066 H 
ATOM     35  C   UNL     1       2.767   1.349  -3.483  1.00  0.00    -0.011 A 
ATOM     36  H   UNL     1      -0.258   1.798  -4.844  1.00  0.00     0.063 H 
ATOM     37  H   UNL     1       3.757   1.602  -3.626  1.00  0.00     0.067 H 
BRANCH  30  38
ATOM     38  O   UNL     1       0.686  -0.633  -1.194  1.00  0.00    -0.493 OA
BRANCH  38  39
ATOM     39  C   UNL     1      -0.039   0.054  -0.173  1.00  0.00     0.078 C 
ATOM     40  H   UNL     1      -0.329  -0.640   0.588  1.00  0.00     0.067 H 
ATOM     41  H   UNL     1      -0.913   0.503  -0.598  1.00  0.00     0.067 H 
ATOM     42  H   UNL     1       0.581   0.814   0.254  1.00  0.00     0.067 H 
ENDBRANCH  38  39
ENDBRANCH  30  38
BRANCH  32  43
ATOM     43  O   UNL     1       3.515   0.180  -1.646  1.00  0.00    -0.493 OA
BRANCH  43  44
ATOM     44  C   UNL     1       3.308  -0.467  -0.402  1.00  0.00     0.078 C 
ATOM     45  H   UNL     1       4.253  -0.685   0.049  1.00  0.00     0.067 H 
ATOM     46  H   UNL     1       2.770  -1.379  -0.559  1.00  0.00     0.067 H 
ATOM     47  H   UNL     1       2.743   0.173   0.243  1.00  0.00     0.067 H 
ENDBRANCH  43  44
ENDBRANCH  32  43
ENDBRANCH  22  29
BRANCH  25  48
ATOM     48  C   UNL     1       5.137   5.024  -5.740  1.00  0.00    -0.002 A 
ATOM     49  C   UNL     1       5.586   5.601  -6.931  1.00  0.00    -0.052 A 
ATOM     50  C   UNL     1       5.628   5.445  -4.502  1.00  0.00    -0.052 A 
ATOM     51  C   UNL     1       6.525   6.630  -6.887  1.00  0.00    -0.043 A 
ATOM     52  H   UNL     1       5.224   5.268  -7.838  1.00  0.00     0.063 H 
ATOM     53  C   UNL     1       6.588   6.457  -4.457  1.00  0.00    -0.043 A 
ATOM     54  H   UNL     1       5.284   5.013  -3.631  1.00  0.00     0.063 H 
ATOM     55  C   UNL     1       7.032   7.042  -5.649  1.00  0.00     0.067 A 
ATOM     56  H   UNL     1       6.843   7.084  -7.758  1.00  0.00     0.064 H 
ATOM     57  H   UNL     1       6.968   6.773  -3.551  1.00  0.00     0.064 H 
BRANCH  55  58
ATOM     58  S   UNL     1       8.242   8.343  -5.604  1.00  0.00     0.175 S 
ATOM     59  O   UNL     1       7.692   9.449  -6.364  1.00  0.00    -0.224 OA
ATOM     60  O   UNL     1       8.651   8.515  -4.222  1.00  0.00    -0.224 OA
BRANCH  58  61
ATOM     61  C   UNL     1       9.627   7.681  -6.494  1.00  0.00     0.043 C 
ATOM     62  H   UNL     1       9.358   7.542  -7.520  1.00  0.00     0.040 H 
ATOM     63  H   UNL     1       9.908   6.740  -6.068  1.00  0.00     0.040 H 
ATOM     64  H   UNL     1      10.451   8.361  -6.430  1.00  0.00     0.040 H 
ENDBRANCH  58  61
ENDBRANCH  55  58
ENDBRANCH  25  48
ENDBRANCH  12  21
ENDBRANCH   8  11
ENDBRANCH   4   7
ENDBRANCH   1   4
BRANCH   1  65
ATOM     65  C   UNL     1       0.053  -3.364 -12.507  1.00  0.00    -0.052 C 
ATOM     66  H   UNL     1       0.773  -4.136 -12.331  1.00  0.00     0.027 H 
ATOM     67  H   UNL     1       0.096  -2.968 -13.500  1.00  0.00     0.027 H 
BRANCH  65  68
ATOM     68  C   UNL     1      -1.347  -3.969 -12.341  1.00  0.00    -0.052 C 
ATOM     69  H   UNL     1      -1.403  -4.415 -11.371  1.00  0.00     0.027 H 
ATOM     70  H   UNL     1      -1.466  -4.672 -13.139  1.00  0.00     0.027 H 
BRANCH  68  71
ATOM     71  C   UNL     1      -2.500  -2.971 -12.473  1.00  0.00    -0.036 C 
ATOM     72  H   UNL     1      -2.384  -2.222 -11.718  1.00  0.00     0.028 H 
ATOM     73  H   UNL     1      -3.405  -3.532 -12.367  1.00  0.00     0.028 H 
BRANCH  71  74
ATOM     74  C   UNL     1      -2.575  -2.275 -13.829  1.00  0.00     0.018 C 
ATOM     75  H   UNL     1      -1.631  -1.813 -14.034  1.00  0.00     0.049 H 
ATOM     76  H   UNL     1      -3.357  -1.546 -13.787  1.00  0.00     0.049 H 
BRANCH  74  77
ATOM     77  N   UNL     1      -2.883  -3.211 -14.898  1.00  0.00    -0.352 N 
ATOM     78  C   UNL     1      -3.902  -3.174 -15.816  1.00  0.00     0.251 C 
ATOM     79  H   UNL     1      -2.275  -3.981 -14.973  1.00  0.00     0.163 HD
ATOM     80  O   UNL     1      -4.151  -4.157 -16.506  1.00  0.00    -0.269 OA
BRANCH  78  81
ATOM     81  C   UNL     1      -4.711  -1.947 -15.966  1.00  0.00     0.039 A 
ATOM     82  C   UNL     1      -6.100  -2.060 -16.064  1.00  0.00    -0.049 A 
ATOM     83  C   UNL     1      -4.099  -0.691 -16.033  1.00  0.00    -0.049 A 
ATOM     84  C   UNL     1      -6.881  -0.908 -16.178  1.00  0.00    -0.053 A 
ATOM     85  H   UNL     1      -6.546  -2.990 -16.053  1.00  0.00     0.063 H 
ATOM     86  C   UNL     1      -4.882   0.459 -16.081  1.00  0.00    -0.053 A 
ATOM     87  H   UNL     1      -3.070  -0.617 -16.046  1.00  0.00     0.063 H 
ATOM     88  C   UNL     1      -6.280   0.361 -16.159  1.00  0.00    -0.014 A 
ATOM     89  H   UNL     1      -7.905  -0.990 -16.275  1.00  0.00     0.063 H 
ATOM     90  H   UNL     1      -4.432   1.387 -16.059  1.00  0.00     0.063 H 
BRANCH  88  91
ATOM     91  C   UNL     1      -7.096   1.599 -16.228  1.00  0.00     0.031 A 
ATOM     92  C   UNL     1      -6.981   2.512 -17.416  1.00  0.00     0.074 A 
ATOM     93  C   UNL     1      -7.888   1.931 -15.191  1.00  0.00     0.049 A 
ATOM     94  N   UNL     1      -7.549   3.673 -17.625  1.00  0.00    -0.248 NA
ATOM     95  C   UNL     1      -6.090   2.075 -18.502  1.00  0.00    -0.034 C 
ATOM     96  C   UNL     1      -8.047   1.149 -13.964  1.00  0.00    -0.036 A 
ATOM     97  N   UNL     1      -8.699   3.021 -14.997  1.00  0.00    -0.354 N 
ATOM     98  C   UNL     1      -7.072   4.111 -18.854  1.00  0.00     0.074 A 
ATOM     99  C   UNL     1      -6.133   3.115 -19.323  1.00  0.00    -0.034 C 
ATOM    100  H   UNL     1      -5.568   1.190 -18.600  1.00  0.00     0.065 H 
ATOM    101  C   UNL     1      -8.914   1.776 -13.153  1.00  0.00    -0.036 A 
ATOM    102  H   UNL     1      -7.570   0.258 -13.756  1.00  0.00     0.065 H 
ATOM    103  C   UNL     1      -9.344   3.019 -13.785  1.00  0.00     0.049 A 
ATOM    104  H   UNL     1      -8.807   3.737 -15.664  1.00  0.00     0.167 HD
ATOM    105  C   UNL     1      -7.404   5.231 -19.538  1.00  0.00     0.037 A 
ATOM    106  H   UNL     1      -5.570   3.202 -20.184  1.00  0.00     0.065 H 
ATOM    107  H   UNL     1      -9.226   1.433 -12.230  1.00  0.00     0.065 H 
ATOM    108  C   UNL     1     -10.181   3.923 -13.242  1.00  0.00     0.037 A 
ATOM    109  C   UNL     1      -8.363   6.203 -19.082  1.00  0.00     0.049 A 
ATOM    110  C   UNL     1     -10.538   5.157 -14.027  1.00  0.00     0.074 A 
ATOM    111  C   UNL     1      -8.815   7.339 -19.730  1.00  0.00    -0.036 A 
ATOM    112  N   UNL     1      -9.018   6.152 -17.861  1.00  0.00    -0.354 N 
ATOM    113  N   UNL     1     -10.131   5.527 -15.217  1.00  0.00    -0.248 NA
ATOM    114  C   UNL     1     -11.477   6.095 -13.396  1.00  0.00    -0.034 C 
ATOM    115  C   UNL     1      -9.713   7.998 -18.884  1.00  0.00    -0.036 A 
ATOM    116  H   UNL     1      -8.537   7.647 -20.675  1.00  0.00     0.065 H 
ATOM    117  C   UNL     1      -9.856   7.247 -17.729  1.00  0.00     0.049 A 
ATOM    118  H   UNL     1      -8.904   5.443 -17.187  1.00  0.00     0.167 HD
ATOM    119  C   UNL     1     -10.784   6.721 -15.490  1.00  0.00     0.074 A 
ATOM    120  C   UNL     1     -11.625   7.007 -14.346  1.00  0.00    -0.034 C 
ATOM    121  H   UNL     1     -11.907   6.054 -12.459  1.00  0.00     0.065 H 
ATOM    122  H   UNL     1     -10.187   8.892 -19.086  1.00  0.00     0.065 H 
ATOM    123  C   UNL     1     -10.696   7.510 -16.588  1.00  0.00     0.037 A 
ATOM    124  H   UNL     1     -12.260   7.818 -14.279  1.00  0.00     0.065 H 
BRANCH 105 125
ATOM    125  C   UNL     1      -6.732   5.467 -20.859  1.00  0.00     0.064 A 
ATOM    126  C   UNL     1      -7.030   4.685 -21.985  1.00  0.00     0.173 A 
ATOM    127  C   UNL     1      -5.815   6.517 -21.014  1.00  0.00     0.173 A 
ATOM    128  F   UNL     1      -7.891   3.661 -21.887  1.00  0.00    -0.203 F 
ATOM    129  C   UNL     1      -6.418   4.931 -23.211  1.00  0.00     0.198 A 
ATOM    130  C   UNL     1      -5.226   6.779 -22.249  1.00  0.00     0.198 A 
ATOM    131  F   UNL     1      -5.498   7.299 -19.971  1.00  0.00    -0.203 F 
ATOM    132  F   UNL     1      -6.686   4.144 -24.262  1.00  0.00    -0.200 F 
ATOM    133  C   UNL     1      -5.523   5.982 -23.344  1.00  0.00     0.200 A 
ATOM    134  F   UNL     1      -4.372   7.803 -22.379  1.00  0.00    -0.200 F 
ATOM    135  F   UNL     1      -4.943   6.224 -24.527  1.00  0.00    -0.200 F 
ENDBRANCH 105 125
BRANCH 108 136
ATOM    136  C   UNL     1     -10.758   3.688 -11.893  1.00  0.00     0.064 A 
ATOM    137  C   UNL     1     -12.122   3.407 -11.733  1.00  0.00     0.173 A 
ATOM    138  C   UNL     1      -9.964   3.748 -10.739  1.00  0.00     0.173 A 
ATOM    139  F   UNL     1     -12.925   3.359 -12.806  1.00  0.00    -0.203 F 
ATOM    140  C   UNL     1     -12.675   3.220 -10.468  1.00  0.00     0.198 A 
ATOM    141  C   UNL     1     -10.512   3.533  -9.476  1.00  0.00     0.198 A 
ATOM    142  F   UNL     1      -8.652   4.008 -10.838  1.00  0.00    -0.203 F 
ATOM    143  F   UNL     1     -13.991   3.002 -10.340  1.00  0.00    -0.200 F 
ATOM    144  C   UNL     1     -11.869   3.278  -9.341  1.00  0.00     0.200 A 
ATOM    145  F   UNL     1      -9.727   3.576  -8.391  1.00  0.00    -0.200 F 
ATOM    146  F   UNL     1     -12.400   3.098  -8.124  1.00  0.00    -0.200 F 
ENDBRANCH 108 136
BRANCH 123 147
ATOM    147  C   UNL     1     -11.557   8.738 -16.624  1.00  0.00     0.064 A 
ATOM    148  C   UNL     1     -11.277   9.856 -15.825  1.00  0.00     0.173 A 
ATOM    149  C   UNL     1     -12.651   8.811 -17.499  1.00  0.00     0.173 A 
ATOM    150  F   UNL     1     -10.251   9.829 -14.961  1.00  0.00    -0.203 F 
ATOM    151  C   UNL     1     -12.077  10.994 -15.884  1.00  0.00     0.198 A 
ATOM    152  C   UNL     1     -13.431   9.961 -17.576  1.00  0.00     0.198 A 
ATOM    153  F   UNL     1     -12.956   7.770 -18.288  1.00  0.00    -0.203 F 
ATOM    154  F   UNL     1     -11.819  12.034 -15.079  1.00  0.00    -0.200 F 
ATOM    155  C   UNL     1     -13.147  11.049 -16.764  1.00  0.00     0.200 A 
ATOM    156  F   UNL     1     -14.457  10.017 -18.436  1.00  0.00    -0.200 F 
ATOM    157  F   UNL     1     -13.911  12.148 -16.825  1.00  0.00    -0.200 F 
ENDBRANCH 123 147
ENDBRANCH  88  91
ENDBRANCH  78  81
ENDBRANCH  74  77
ENDBRANCH  71  74
ENDBRANCH  68  71
ENDBRANCH  65  68
ENDBRANCH   1  65
TORSDOF 22
