REMARK SMILES C=C[C@@H]1[C@@H](O)C[C@H]2[C@]3(CC[C@]4(C)[C@@H]([C@H](C)CCC=C(C)C)CC[C@]24C)C[C@]13CCC(=O)NCCCCCCNC(=O)c1ccc(-c2c3nc(c(-c4c(F)c(F)c(F)c(F)c4F)c4ccc([nH]4)c(-c4c(F)c(F)c(F)c(F)c4F)c4nc(c(-c5c(F)c(F)c(F)c(F)c5F)c5ccc2[nH]5)C=C4)C=C3)cc1
REMARK SMILES IDX 33 1 32 4 30 5 31 6 29 8 28 11 27 14 3 15 4 16 6 18 8 20
REMARK SMILES IDX 26 21 7 22 9 25 24 28 10 30 11 33 23 34 13 37 22 38 2 44
REMARK SMILES IDX 1 45 5 49 25 51 12 55 14 59 16 61 17 64 18 67 19 68 20 70
REMARK SMILES IDX 21 74 15 78 34 82 35 85 36 88 37 91 38 94 39 97 40 98 41 100
REMARK SMILES IDX 42 101 43 102 104 103 44 104 103 106 45 108 46 111 47 112
REMARK SMILES IDX 97 113 48 114 102 115 96 116 98 117 49 118 101 119 95 121
REMARK SMILES IDX 94 123 50 125 82 128 62 129 81 130 63 131 66 132 80 133
REMARK SMILES IDX 99 134 64 135 65 137 79 139 100 140 67 143 51 145 52 146
REMARK SMILES IDX 60 147 53 148 54 149 58 150 61 151 55 152 56 153 59 154
REMARK SMILES IDX 57 155 83 156 84 157 92 158 85 159 86 160 90 161 93 162
REMARK SMILES IDX 87 163 88 164 91 165 89 166 68 167 69 168 77 169 70 170
REMARK SMILES IDX 71 171 75 172 78 173 72 174 73 175 76 176 74 177
REMARK H PARENT 33 2 33 3 32 7 29 9 29 10 28 12 28 13 3 17 4 19 6 23 6 24
REMARK H PARENT 26 26 26 27 7 29 9 31 9 32 10 35 10 36 23 39 23 40 13 41 22 42
REMARK H PARENT 22 43 1 46 1 47 2 48 5 50 25 52 25 53 25 54 12 56 12 57 12 58
REMARK H PARENT 14 60 16 62 16 63 17 65 17 66 18 69 20 71 20 72 20 73 21 75
REMARK H PARENT 21 76 21 77 15 79 15 80 15 81 34 83 34 84 35 86 35 87 36 89
REMARK H PARENT 36 90 37 92 37 93 38 95 38 96 39 99 43 105 104 107 44 109
REMARK H PARENT 103 110 102 120 96 122 98 124 101 126 95 127 63 136 66 138
REMARK H PARENT 99 141 64 142 100 144
REMARK Flexibility Score: inf
ROOT
ATOM      1  C   UNL     1      -2.579  -1.122   1.016  1.00  0.00     0.017 C 
ATOM      2  H   UNL     1      -3.174  -0.549   0.337  1.00  0.00     0.049 H 
ATOM      3  H   UNL     1      -2.547  -2.174   1.213  1.00  0.00     0.049 H 
ENDROOT
BRANCH   1   4
ATOM      4  N   UNL     1      -3.152  -0.748   2.367  1.00  0.00    -0.356 N 
ATOM      5  C   UNL     1      -4.025   0.253   2.672  1.00  0.00     0.220 C 
ATOM      6  O   UNL     1      -4.623   0.250   3.745  1.00  0.00    -0.275 OA
ATOM      7  H   UNL     1      -2.854  -1.300   3.125  1.00  0.00     0.163 HD
BRANCH   5   8
ATOM      8  C   UNL     1      -4.211   1.328   1.638  1.00  0.00     0.027 C 
ATOM      9  H   UNL     1      -4.709   0.906   0.790  1.00  0.00     0.037 H 
ATOM     10  H   UNL     1      -4.787   2.112   2.083  1.00  0.00     0.037 H 
BRANCH   8  11
ATOM     11  C   UNL     1      -2.885   1.930   1.177  1.00  0.00    -0.038 C 
ATOM     12  H   UNL     1      -3.095   2.681   0.444  1.00  0.00     0.028 H 
ATOM     13  H   UNL     1      -2.406   2.324   2.049  1.00  0.00     0.028 H 
BRANCH  11  14
ATOM     14  C   UNL     1      -1.913   0.910   0.559  1.00  0.00    -0.014 C 
ATOM     15  C   UNL     1      -0.926   0.035   2.003  1.00  0.00     0.009 C 
ATOM     16  C   UNL     1      -0.931  -1.957   2.025  1.00  0.00     0.061 C 
ATOM     17  H   UNL     1      -1.533   0.203   2.868  1.00  0.00     0.038 H 
ATOM     18  C   UNL     1      -1.520  -2.917   0.389  1.00  0.00    -0.022 C 
ATOM     19  H   UNL     1       0.120  -2.146   2.095  1.00  0.00     0.061 H 
ATOM     20  C   UNL     1      -2.457  -0.008  -1.006  1.00  0.00    -0.019 C 
ATOM     21  C   UNL     1      -1.458   1.164  -0.929  1.00  0.00    -0.040 C 
ATOM     22  C   UNL     1      -2.342  -1.903  -1.060  1.00  0.00    -0.027 C 
ATOM     23  H   UNL     1      -2.230  -3.655   0.698  1.00  0.00     0.030 H 
ATOM     24  H   UNL     1      -0.608  -3.280  -0.037  1.00  0.00     0.030 H 
ATOM     25  C   UNL     1      -3.739   0.331  -1.787  1.00  0.00    -0.046 C 
ATOM     26  H   UNL     1      -1.751   2.089  -1.381  1.00  0.00     0.028 H 
ATOM     27  H   UNL     1      -0.462   1.211  -1.317  1.00  0.00     0.028 H 
ATOM     28  C   UNL     1      -2.361  -2.380  -2.566  1.00  0.00    -0.023 C 
ATOM     29  H   UNL     1      -3.208  -2.340  -0.608  1.00  0.00     0.032 H 
ATOM     30  C   UNL     1      -3.744  -0.298  -3.186  1.00  0.00    -0.046 C 
ATOM     31  H   UNL     1      -3.812   1.394  -1.886  1.00  0.00     0.027 H 
ATOM     32  H   UNL     1      -4.572  -0.065  -1.243  1.00  0.00     0.027 H 
ATOM     33  C   UNL     1      -3.713  -1.861  -3.271  1.00  0.00    -0.024 C 
ATOM     34  C   UNL     1      -2.575  -3.890  -2.582  1.00  0.00    -0.047 C 
ATOM     35  H   UNL     1      -2.884   0.069  -3.706  1.00  0.00     0.027 H 
ATOM     36  H   UNL     1      -4.686  -0.019  -3.609  1.00  0.00     0.027 H 
ATOM     37  C   UNL     1      -4.789  -2.706  -2.479  1.00  0.00    -0.033 C 
ATOM     38  C   UNL     1      -4.061  -4.071  -2.213  1.00  0.00    -0.049 C 
ATOM     39  H   UNL     1      -2.374  -4.291  -3.553  1.00  0.00     0.027 H 
ATOM     40  H   UNL     1      -1.922  -4.402  -1.906  1.00  0.00     0.027 H 
ATOM     41  H   UNL     1      -5.052  -2.073  -1.657  1.00  0.00     0.031 H 
ATOM     42  H   UNL     1      -4.495  -4.839  -2.818  1.00  0.00     0.027 H 
ATOM     43  H   UNL     1      -4.160  -4.354  -1.186  1.00  0.00     0.027 H 
BRANCH  15  44
ATOM     44  C   UNL     1       0.408   0.736   2.340  1.00  0.00    -0.085 C 
ATOM     45  C   UNL     1       1.118   1.580   1.574  1.00  0.00    -0.103 C 
ATOM     46  H   UNL     1       2.001   1.979   1.928  1.00  0.00     0.053 H 
ATOM     47  H   UNL     1       0.779   1.829   0.631  1.00  0.00     0.053 H 
ATOM     48  H   UNL     1       0.804   0.531   3.271  1.00  0.00     0.057 H 
ENDBRANCH  15  44
BRANCH  16  49
ATOM     49  O   UNL     1      -1.656  -2.499   3.161  1.00  0.00    -0.392 OA
ATOM     50  H   UNL     1      -2.602  -2.309   3.062  1.00  0.00     0.210 HD
ENDBRANCH  16  49
BRANCH  28  51
ATOM     51  C   UNL     1      -1.108  -1.940  -3.337  1.00  0.00    -0.059 C 
ATOM     52  H   UNL     1      -1.015  -0.876  -3.289  1.00  0.00     0.024 H 
ATOM     53  H   UNL     1      -1.193  -2.245  -4.359  1.00  0.00     0.024 H 
ATOM     54  H   UNL     1      -0.243  -2.394  -2.900  1.00  0.00     0.024 H 
ENDBRANCH  28  51
BRANCH  33  55
ATOM     55  C   UNL     1      -3.831  -2.230  -4.771  1.00  0.00    -0.059 C 
ATOM     56  H   UNL     1      -4.753  -1.849  -5.160  1.00  0.00     0.024 H 
ATOM     57  H   UNL     1      -3.810  -3.294  -4.879  1.00  0.00     0.024 H 
ATOM     58  H   UNL     1      -3.012  -1.800  -5.310  1.00  0.00     0.024 H 
ENDBRANCH  33  55
BRANCH  37  59
ATOM     59  C   UNL     1      -6.319  -2.784  -2.742  1.00  0.00    -0.041 C 
ATOM     60  H   UNL     1      -6.667  -2.991  -1.751  1.00  0.00     0.030 H 
BRANCH  59  61
ATOM     61  C   UNL     1      -6.940  -1.451  -3.210  1.00  0.00    -0.047 C 
ATOM     62  H   UNL     1      -7.171  -1.540  -4.251  1.00  0.00     0.027 H 
ATOM     63  H   UNL     1      -6.215  -0.692  -3.001  1.00  0.00     0.027 H 
BRANCH  61  64
ATOM     64  C   UNL     1      -8.218  -1.041  -2.472  1.00  0.00    -0.035 C 
ATOM     65  H   UNL     1      -8.822  -1.911  -2.319  1.00  0.00     0.031 H 
ATOM     66  H   UNL     1      -8.727  -0.316  -3.072  1.00  0.00     0.031 H 
BRANCH  64  67
ATOM     67  C   UNL     1      -7.924  -0.410  -1.129  1.00  0.00    -0.086 C 
ATOM     68  C   UNL     1      -7.949   0.908  -0.842  1.00  0.00    -0.080 C 
ATOM     69  H   UNL     1      -7.679  -1.050  -0.358  1.00  0.00     0.058 H 
BRANCH  68  70
ATOM     70  C   UNL     1      -7.683   1.418   0.549  1.00  0.00    -0.044 C 
ATOM     71  H   UNL     1      -7.494   0.591   1.202  1.00  0.00     0.028 H 
ATOM     72  H   UNL     1      -8.537   1.960   0.899  1.00  0.00     0.028 H 
ATOM     73  H   UNL     1      -6.831   2.064   0.536  1.00  0.00     0.028 H 
ENDBRANCH  68  70
BRANCH  68  74
ATOM     74  C   UNL     1      -8.232   1.975  -1.864  1.00  0.00    -0.044 C 
ATOM     75  H   UNL     1      -8.406   1.519  -2.816  1.00  0.00     0.028 H 
ATOM     76  H   UNL     1      -7.392   2.634  -1.934  1.00  0.00     0.028 H 
ATOM     77  H   UNL     1      -9.098   2.530  -1.570  1.00  0.00     0.028 H 
ENDBRANCH  68  74
ENDBRANCH  64  67
ENDBRANCH  61  64
ENDBRANCH  59  61
BRANCH  59  78
ATOM     78  C   UNL     1      -6.854  -3.971  -3.548  1.00  0.00    -0.062 C 
ATOM     79  H   UNL     1      -6.562  -3.868  -4.572  1.00  0.00     0.023 H 
ATOM     80  H   UNL     1      -7.922  -3.994  -3.482  1.00  0.00     0.023 H 
ATOM     81  H   UNL     1      -6.453  -4.881  -3.152  1.00  0.00     0.023 H 
ENDBRANCH  59  78
ENDBRANCH  37  59
ENDBRANCH  11  14
ENDBRANCH   8  11
ENDBRANCH   5   8
ENDBRANCH   1   4
BRANCH   1  82
ATOM     82  C   UNL     1      -0.664  -1.034   0.151  1.00  0.00    -0.036 C 
ATOM     83  H   UNL     1      -0.489   0.021   0.121  1.00  0.00     0.028 H 
ATOM     84  H   UNL     1      -0.889  -1.802  -0.558  1.00  0.00     0.028 H 
BRANCH  82  85
ATOM     85  C   UNL     1       0.941  -1.646   0.438  1.00  0.00    -0.052 C 
ATOM     86  H   UNL     1       1.194  -1.300   1.418  1.00  0.00     0.027 H 
ATOM     87  H   UNL     1       1.412  -1.305  -0.460  1.00  0.00     0.027 H 
BRANCH  85  88
ATOM     88  C   UNL     1       1.404  -3.121   0.409  1.00  0.00    -0.052 C 
ATOM     89  H   UNL     1       0.654  -3.720   0.882  1.00  0.00     0.027 H 
ATOM     90  H   UNL     1       2.344  -3.162   0.919  1.00  0.00     0.027 H 
BRANCH  88  91
ATOM     91  C   UNL     1       1.638  -3.665  -0.996  1.00  0.00    -0.036 C 
ATOM     92  H   UNL     1       0.800  -3.412  -1.610  1.00  0.00     0.028 H 
ATOM     93  H   UNL     1       1.755  -4.726  -0.930  1.00  0.00     0.028 H 
BRANCH  91  94
ATOM     94  C   UNL     1       2.894  -3.084  -1.612  1.00  0.00     0.018 C 
ATOM     95  H   UNL     1       2.872  -2.018  -1.526  1.00  0.00     0.049 H 
ATOM     96  H   UNL     1       2.941  -3.362  -2.645  1.00  0.00     0.049 H 
BRANCH  94  97
ATOM     97  N   UNL     1       4.067  -3.602  -0.920  1.00  0.00    -0.352 N 
ATOM     98  C   UNL     1       5.226  -4.043  -1.499  1.00  0.00     0.251 C 
ATOM     99  H   UNL     1       4.021  -3.638   0.062  1.00  0.00     0.163 HD
ATOM    100  O   UNL     1       6.037  -4.726  -0.901  1.00  0.00    -0.269 OA
BRANCH  98 101
ATOM    101  C   UNL     1       5.438  -3.636  -2.893  1.00  0.00     0.039 A 
ATOM    102  C   UNL     1       5.598  -4.608  -3.877  1.00  0.00    -0.049 A 
ATOM    103  C   UNL     1       5.330  -2.276  -3.205  1.00  0.00    -0.049 A 
ATOM    104  C   UNL     1       5.645  -4.205  -5.206  1.00  0.00    -0.053 A 
ATOM    105  H   UNL     1       5.679  -5.605  -3.624  1.00  0.00     0.063 H 
ATOM    106  C   UNL     1       5.286  -1.892  -4.530  1.00  0.00    -0.053 A 
ATOM    107  H   UNL     1       5.284  -1.570  -2.454  1.00  0.00     0.063 H 
ATOM    108  C   UNL     1       5.477  -2.849  -5.537  1.00  0.00    -0.014 A 
ATOM    109  H   UNL     1       5.803  -4.902  -5.951  1.00  0.00     0.063 H 
ATOM    110  H   UNL     1       5.113  -0.905  -4.779  1.00  0.00     0.063 H 
BRANCH 108 111
ATOM    111  C   UNL     1       5.568  -2.389  -6.936  1.00  0.00     0.031 A 
ATOM    112  C   UNL     1       6.690  -1.468  -7.322  1.00  0.00     0.074 A 
ATOM    113  C   UNL     1       4.619  -2.747  -7.819  1.00  0.00     0.049 A 
ATOM    114  N   UNL     1       6.921  -0.881  -8.466  1.00  0.00    -0.248 NA
ATOM    115  C   UNL     1       7.663  -1.129  -6.268  1.00  0.00    -0.034 C 
ATOM    116  C   UNL     1       3.460  -3.591  -7.521  1.00  0.00    -0.036 A 
ATOM    117  N   UNL     1       4.474  -2.435  -9.144  1.00  0.00    -0.354 N 
ATOM    118  C   UNL     1       8.046  -0.094  -8.261  1.00  0.00     0.074 A 
ATOM    119  C   UNL     1       8.414  -0.222  -6.871  1.00  0.00    -0.034 C 
ATOM    120  H   UNL     1       7.738  -1.502  -5.308  1.00  0.00     0.065 H 
ATOM    121  C   UNL     1       2.734  -3.748  -8.640  1.00  0.00    -0.036 A 
ATOM    122  H   UNL     1       3.237  -3.999  -6.600  1.00  0.00     0.065 H 
ATOM    123  C   UNL     1       3.354  -2.985  -9.718  1.00  0.00     0.049 A 
ATOM    124  H   UNL     1       5.111  -1.871  -9.639  1.00  0.00     0.167 HD
ATOM    125  C   UNL     1       8.726   0.645  -9.165  1.00  0.00     0.037 A 
ATOM    126  H   UNL     1       9.162   0.320  -6.410  1.00  0.00     0.065 H 
ATOM    127  H   UNL     1       1.876  -4.316  -8.723  1.00  0.00     0.065 H 
ATOM    128  C   UNL     1       2.885  -2.871 -10.974  1.00  0.00     0.037 A 
ATOM    129  C   UNL     1       8.366   0.728 -10.554  1.00  0.00     0.049 A 
ATOM    130  C   UNL     1       3.670  -2.048 -11.962  1.00  0.00     0.074 A 
ATOM    131  C   UNL     1       9.025   1.382 -11.578  1.00  0.00    -0.036 A 
ATOM    132  N   UNL     1       7.242   0.134 -11.110  1.00  0.00    -0.354 N 
ATOM    133  N   UNL     1       4.782  -1.375 -11.782  1.00  0.00    -0.248 NA
ATOM    134  C   UNL     1       3.140  -1.975 -13.329  1.00  0.00    -0.034 C 
ATOM    135  C   UNL     1       8.268   1.233 -12.743  1.00  0.00    -0.036 A 
ATOM    136  H   UNL     1       9.919   1.890 -11.496  1.00  0.00     0.065 H 
ATOM    137  C   UNL     1       7.171   0.433 -12.460  1.00  0.00     0.049 A 
ATOM    138  H   UNL     1       6.591  -0.418 -10.618  1.00  0.00     0.167 HD
ATOM    139  C   UNL     1       5.098  -0.822 -13.015  1.00  0.00     0.074 A 
ATOM    140  C   UNL     1       4.072  -1.257 -13.940  1.00  0.00    -0.034 C 
ATOM    141  H   UNL     1       2.271  -2.377 -13.714  1.00  0.00     0.065 H 
ATOM    142  H   UNL     1       8.488   1.649 -13.661  1.00  0.00     0.065 H 
ATOM    143  C   UNL     1       6.138  -0.021 -13.355  1.00  0.00     0.037 A 
ATOM    144  H   UNL     1       4.067  -1.036 -14.948  1.00  0.00     0.065 H 
BRANCH 125 145
ATOM    145  C   UNL     1       9.923   1.413  -8.685  1.00  0.00     0.064 A 
ATOM    146  C   UNL     1      11.099   0.768  -8.273  1.00  0.00     0.173 A 
ATOM    147  C   UNL     1       9.906   2.815  -8.676  1.00  0.00     0.173 A 
ATOM    148  F   UNL     1      11.162  -0.572  -8.245  1.00  0.00    -0.203 F 
ATOM    149  C   UNL     1      12.206   1.499  -7.849  1.00  0.00     0.198 A 
ATOM    150  C   UNL     1      11.026   3.543  -8.283  1.00  0.00     0.198 A 
ATOM    151  F   UNL     1       8.806   3.482  -9.057  1.00  0.00    -0.203 F 
ATOM    152  F   UNL     1      13.302   0.861  -7.415  1.00  0.00    -0.200 F 
ATOM    153  C   UNL     1      12.172   2.885  -7.864  1.00  0.00     0.200 A 
ATOM    154  F   UNL     1      10.995   4.883  -8.309  1.00  0.00    -0.200 F 
ATOM    155  F   UNL     1      13.244   3.587  -7.470  1.00  0.00    -0.200 F 
ENDBRANCH 125 145
BRANCH 128 156
ATOM    156  C   UNL     1       1.625  -3.553 -11.369  1.00  0.00     0.064 A 
ATOM    157  C   UNL     1       1.630  -4.604 -12.296  1.00  0.00     0.173 A 
ATOM    158  C   UNL     1       0.386  -3.158 -10.841  1.00  0.00     0.173 A 
ATOM    159  F   UNL     1       2.786  -5.011 -12.841  1.00  0.00    -0.203 F 
ATOM    160  C   UNL     1       0.444  -5.211 -12.706  1.00  0.00     0.198 A 
ATOM    161  C   UNL     1      -0.796  -3.788 -11.226  1.00  0.00     0.198 A 
ATOM    162  F   UNL     1       0.324  -2.165  -9.942  1.00  0.00    -0.203 F 
ATOM    163  F   UNL     1       0.473  -6.173 -13.638  1.00  0.00    -0.200 F 
ATOM    164  C   UNL     1      -0.768  -4.805 -12.168  1.00  0.00     0.200 A 
ATOM    165  F   UNL     1      -1.962  -3.405 -10.688  1.00  0.00    -0.200 F 
ATOM    166  F   UNL     1      -1.908  -5.387 -12.562  1.00  0.00    -0.200 F 
ENDBRANCH 128 156
BRANCH 143 167
ATOM    167  C   UNL     1       6.232   0.407 -14.790  1.00  0.00     0.064 A 
ATOM    168  C   UNL     1       5.328   1.325 -15.344  1.00  0.00     0.173 A 
ATOM    169  C   UNL     1       7.268  -0.072 -15.606  1.00  0.00     0.173 A 
ATOM    170  F   UNL     1       4.313   1.802 -14.608  1.00  0.00    -0.203 F 
ATOM    171  C   UNL     1       5.440   1.724 -16.673  1.00  0.00     0.198 A 
ATOM    172  C   UNL     1       7.399   0.357 -16.923  1.00  0.00     0.198 A 
ATOM    173  F   UNL     1       8.165  -0.943 -15.120  1.00  0.00    -0.203 F 
ATOM    174  F   UNL     1       4.533   2.560 -17.197  1.00  0.00    -0.200 F 
ATOM    175  C   UNL     1       6.480   1.247 -17.458  1.00  0.00     0.200 A 
ATOM    176  F   UNL     1       8.415  -0.089 -17.674  1.00  0.00    -0.200 F 
ATOM    177  F   UNL     1       6.592   1.641 -18.733  1.00  0.00    -0.200 F 
ENDBRANCH 143 167
ENDBRANCH 108 111
ENDBRANCH  98 101
ENDBRANCH  94  97
ENDBRANCH  91  94
ENDBRANCH  88  91
ENDBRANCH  85  88
ENDBRANCH  82  85
ENDBRANCH   1  82
TORSDOF 26
