REMARK SMILES CC(=O)NS(=O)(=O)c1ccc(-c2ccn(C(F)F)c(=O)c2)cc1C(=O)NCCCCCCNC(=O)c1ccc(-c2c3nc(c(-c4c(F)c(F)c(F)c(F)c4F)c4ccc([nH]4)c(-c4c(F)c(F)c(F)c(F)c4F)c4nc(c(-c5c(F)c(F)c(F)c(F)c5F)c5ccc2[nH]5)C=C4)C=C3)cc1
REMARK SMILES IDX 29 1 28 4 27 7 26 10 24 11 25 12 23 14 8 15 9 16 10 17 22 19
REMARK SMILES IDX 11 20 5 23 6 24 7 25 4 26 2 27 3 28 1 30 12 34 13 35 21 36
REMARK SMILES IDX 14 37 19 39 15 41 20 43 16 44 17 45 18 46 30 48 31 51 32 54
REMARK SMILES IDX 33 57 34 58 35 60 36 61 37 62 98 63 38 64 97 66 39 68 40 71
REMARK SMILES IDX 41 72 91 73 42 74 96 75 90 76 92 77 43 78 95 79 89 81 88 83
REMARK SMILES IDX 44 85 76 88 56 89 75 90 57 91 60 92 74 93 93 94 58 95 59 97
REMARK SMILES IDX 73 99 94 100 61 103 45 105 46 106 54 107 47 108 48 109
REMARK SMILES IDX 52 110 55 111 49 112 50 113 53 114 51 115 77 116 78 117
REMARK SMILES IDX 86 118 79 119 80 120 84 121 87 122 81 123 82 124 85 125
REMARK SMILES IDX 83 126 62 127 63 128 71 129 64 130 65 131 69 132 72 133
REMARK SMILES IDX 66 134 67 135 70 136 68 137
REMARK H PARENT 29 2 29 3 28 5 28 6 27 8 27 9 26 13 9 18 10 21 22 22 4 29 1 31
REMARK H PARENT 1 32 1 33 13 38 21 40 14 42 16 47 30 49 30 50 31 52 31 53
REMARK H PARENT 32 55 32 56 33 59 37 65 98 67 38 69 97 70 96 80 90 82 92 84
REMARK H PARENT 95 86 89 87 57 96 60 98 93 101 58 102 94 104
REMARK Flexibility Score: inf
ROOT
ATOM      1  C   UNL     1       1.769   6.991  -0.688  1.00  0.00    -0.052 C 
ATOM      2  H   UNL     1       1.717   7.447   0.279  1.00  0.00     0.027 H 
ATOM      3  H   UNL     1       0.978   7.298  -1.340  1.00  0.00     0.027 H 
ENDROOT
BRANCH   1   4
ATOM      4  C   UNL     1       1.620   5.479  -0.511  1.00  0.00    -0.036 C 
ATOM      5  H   UNL     1       0.577   5.250  -0.454  1.00  0.00     0.028 H 
ATOM      6  H   UNL     1       2.103   5.025  -1.351  1.00  0.00     0.028 H 
BRANCH   4   7
ATOM      7  C   UNL     1       2.303   4.914   0.742  1.00  0.00     0.018 C 
ATOM      8  H   UNL     1       2.922   4.085   0.468  1.00  0.00     0.049 H 
ATOM      9  H   UNL     1       2.906   5.675   1.194  1.00  0.00     0.049 H 
BRANCH   7  10
ATOM     10  N   UNL     1       1.290   4.471   1.690  1.00  0.00    -0.352 N 
ATOM     11  C   UNL     1       0.975   3.242   2.195  1.00  0.00     0.252 C 
ATOM     12  O   UNL     1       0.019   3.119   2.958  1.00  0.00    -0.269 OA
ATOM     13  H   UNL     1       0.723   5.199   2.033  1.00  0.00     0.163 HD
BRANCH  11  14
ATOM     14  C   UNL     1       1.812   2.050   1.959  1.00  0.00     0.060 A 
ATOM     15  C   UNL     1       2.004   1.411   0.735  1.00  0.00     0.100 A 
ATOM     16  C   UNL     1       2.777   0.239   0.671  1.00  0.00    -0.040 A 
ATOM     17  C   UNL     1       3.253  -0.359   1.841  1.00  0.00    -0.053 A 
ATOM     18  H   UNL     1       2.995  -0.183  -0.245  1.00  0.00     0.064 H 
ATOM     19  C   UNL     1       2.300   1.436   3.131  1.00  0.00    -0.040 A 
ATOM     20  C   UNL     1       2.983   0.212   3.089  1.00  0.00    -0.017 A 
ATOM     21  H   UNL     1       3.807  -1.228   1.783  1.00  0.00     0.063 H 
ATOM     22  H   UNL     1       2.149   1.898   4.041  1.00  0.00     0.064 H 
BRANCH  15  23
ATOM     23  S   UNL     1       1.166   1.911  -0.739  1.00  0.00     0.264 S 
ATOM     24  O   UNL     1       2.182   2.432  -1.628  1.00  0.00    -0.201 OA
ATOM     25  O   UNL     1      -0.019   2.664  -0.413  1.00  0.00    -0.201 OA
BRANCH  23  26
ATOM     26  N   UNL     1       0.662   0.482  -1.408  1.00  0.00    -0.249 N 
ATOM     27  C   UNL     1      -0.416  -0.333  -1.040  1.00  0.00     0.230 C 
ATOM     28  O   UNL     1      -0.711  -1.267  -1.774  1.00  0.00    -0.274 OA
ATOM     29  H   UNL     1       1.195   0.161  -2.171  1.00  0.00     0.183 HD
BRANCH  27  30
ATOM     30  C   UNL     1      -1.135  -0.076   0.252  1.00  0.00     0.016 C 
ATOM     31  H   UNL     1      -1.924  -0.789   0.369  1.00  0.00     0.033 H 
ATOM     32  H   UNL     1      -1.546   0.912   0.242  1.00  0.00     0.033 H 
ATOM     33  H   UNL     1      -0.448  -0.168   1.067  1.00  0.00     0.033 H 
ENDBRANCH  27  30
ENDBRANCH  23  26
ENDBRANCH  15  23
BRANCH  20  34
ATOM     34  C   UNL     1       3.283  -0.521   4.342  1.00  0.00    -0.011 A 
ATOM     35  C   UNL     1       2.263  -0.759   5.352  1.00  0.00    -0.038 A 
ATOM     36  C   UNL     1       4.508  -1.042   4.535  1.00  0.00     0.012 A 
ATOM     37  C   UNL     1       2.526  -1.497   6.436  1.00  0.00     0.013 A 
ATOM     38  H   UNL     1       1.323  -0.351   5.231  1.00  0.00     0.064 H 
ATOM     39  C   UNL     1       4.816  -1.870   5.738  1.00  0.00     0.255 A 
ATOM     40  H   UNL     1       5.248  -0.866   3.839  1.00  0.00     0.069 H 
ATOM     41  N   UNL     1       3.775  -2.051   6.633  1.00  0.00    -0.258 N 
ATOM     42  H   UNL     1       1.784  -1.656   7.136  1.00  0.00     0.082 H 
ATOM     43  O   UNL     1       5.944  -2.342   5.846  1.00  0.00    -0.269 OA
BRANCH  41  44
ATOM     44  C   UNL     1       4.032  -2.882   7.782  1.00  0.00     0.321 C 
ATOM     45  F   UNL     1       4.337  -4.148   7.404  1.00  0.00    -0.185 F 
ATOM     46  F   UNL     1       5.065  -2.401   8.515  1.00  0.00    -0.185 F 
ATOM     47  H   UNL     1       3.140  -2.879   8.372  1.00  0.00     0.131 H 
ENDBRANCH  41  44
ENDBRANCH  20  34
ENDBRANCH  11  14
ENDBRANCH   7  10
ENDBRANCH   4   7
ENDBRANCH   1   4
BRANCH   1  48
ATOM     48  C   UNL     1       3.075   7.433  -1.353  1.00  0.00    -0.052 C 
ATOM     49  H   UNL     1       3.880   7.154  -0.706  1.00  0.00     0.027 H 
ATOM     50  H   UNL     1       2.973   8.487  -1.506  1.00  0.00     0.027 H 
BRANCH  48  51
ATOM     51  C   UNL     1       3.367   6.845  -2.743  1.00  0.00    -0.036 C 
ATOM     52  H   UNL     1       3.680   5.831  -2.607  1.00  0.00     0.028 H 
ATOM     53  H   UNL     1       4.108   7.489  -3.169  1.00  0.00     0.028 H 
BRANCH  51  54
ATOM     54  C   UNL     1       2.212   6.842  -3.748  1.00  0.00     0.018 C 
ATOM     55  H   UNL     1       1.419   6.244  -3.352  1.00  0.00     0.049 H 
ATOM     56  H   UNL     1       2.593   6.449  -4.668  1.00  0.00     0.049 H 
BRANCH  54  57
ATOM     57  N   UNL     1       1.694   8.168  -4.029  1.00  0.00    -0.352 N 
ATOM     58  C   UNL     1       1.149   8.662  -5.188  1.00  0.00     0.251 C 
ATOM     59  H   UNL     1       1.739   8.805  -3.280  1.00  0.00     0.163 HD
ATOM     60  O   UNL     1       0.830   9.846  -5.259  1.00  0.00    -0.269 OA
BRANCH  58  61
ATOM     61  C   UNL     1       0.974   7.795  -6.376  1.00  0.00     0.039 A 
ATOM     62  C   UNL     1       1.410   8.280  -7.615  1.00  0.00    -0.049 A 
ATOM     63  C   UNL     1       0.346   6.547  -6.298  1.00  0.00    -0.049 A 
ATOM     64  C   UNL     1       1.275   7.496  -8.763  1.00  0.00    -0.053 A 
ATOM     65  H   UNL     1       1.832   9.220  -7.680  1.00  0.00     0.063 H 
ATOM     66  C   UNL     1       0.222   5.757  -7.446  1.00  0.00    -0.053 A 
ATOM     67  H   UNL     1      -0.025   6.210  -5.396  1.00  0.00     0.063 H 
ATOM     68  C   UNL     1       0.696   6.221  -8.682  1.00  0.00    -0.014 A 
ATOM     69  H   UNL     1       1.602   7.855  -9.673  1.00  0.00     0.063 H 
ATOM     70  H   UNL     1      -0.220   4.827  -7.382  1.00  0.00     0.063 H 
BRANCH  68  71
ATOM     71  C   UNL     1       0.623   5.352  -9.880  1.00  0.00     0.031 A 
ATOM     72  C   UNL     1      -0.645   5.236 -10.671  1.00  0.00     0.074 A 
ATOM     73  C   UNL     1       1.708   4.646 -10.247  1.00  0.00     0.049 A 
ATOM     74  N   UNL     1      -0.912   4.456 -11.688  1.00  0.00    -0.248 NA
ATOM     75  C   UNL     1      -1.759   6.104 -10.264  1.00  0.00    -0.034 C 
ATOM     76  C   UNL     1       3.002   4.672  -9.565  1.00  0.00    -0.036 A 
ATOM     77  N   UNL     1       1.891   3.767 -11.284  1.00  0.00    -0.354 N 
ATOM     78  C   UNL     1      -2.231   4.718 -12.028  1.00  0.00     0.074 A 
ATOM     79  C   UNL     1      -2.706   5.743 -11.121  1.00  0.00    -0.034 C 
ATOM     80  H   UNL     1      -1.795   6.808  -9.511  1.00  0.00     0.065 H 
ATOM     81  C   UNL     1       3.849   3.848 -10.205  1.00  0.00    -0.036 A 
ATOM     82  H   UNL     1       3.228   5.232  -8.728  1.00  0.00     0.065 H 
ATOM     83  C   UNL     1       3.151   3.229 -11.329  1.00  0.00     0.049 A 
ATOM     84  H   UNL     1       1.185   3.544 -11.933  1.00  0.00     0.167 HD
ATOM     85  C   UNL     1      -2.979   4.145 -13.000  1.00  0.00     0.037 A 
ATOM     86  H   UNL     1      -3.658   6.141 -11.139  1.00  0.00     0.065 H 
ATOM     87  H   UNL     1       4.833   3.680  -9.944  1.00  0.00     0.065 H 
ATOM     88  C   UNL     1       3.683   2.330 -12.177  1.00  0.00     0.037 A 
ATOM     89  C   UNL     1      -2.516   3.138 -13.916  1.00  0.00     0.049 A 
ATOM     90  C   UNL     1       2.849   1.756 -13.282  1.00  0.00     0.074 A 
ATOM     91  C   UNL     1      -3.223   2.473 -14.904  1.00  0.00    -0.036 A 
ATOM     92  N   UNL     1      -1.216   2.660 -13.964  1.00  0.00    -0.354 N 
ATOM     93  N   UNL     1       1.589   1.976 -13.562  1.00  0.00    -0.248 NA
ATOM     94  C   UNL     1       3.511   0.804 -14.187  1.00  0.00    -0.034 C 
ATOM     95  C   UNL     1      -2.346   1.597 -15.557  1.00  0.00    -0.036 A 
ATOM     96  H   UNL     1      -4.223   2.601 -15.121  1.00  0.00     0.065 H 
ATOM     97  C   UNL     1      -1.096   1.720 -14.976  1.00  0.00     0.049 A 
ATOM     98  H   UNL     1      -0.486   2.946 -13.369  1.00  0.00     0.167 HD
ATOM     99  C   UNL     1       1.302   1.185 -14.664  1.00  0.00     0.074 A 
ATOM    100  C   UNL     1       2.523   0.490 -15.015  1.00  0.00    -0.034 C 
ATOM    101  H   UNL     1       4.487   0.469 -14.180  1.00  0.00     0.065 H 
ATOM    102  H   UNL     1      -2.591   0.968 -16.338  1.00  0.00     0.065 H 
ATOM    103  C   UNL     1       0.125   1.042 -15.316  1.00  0.00     0.037 A 
ATOM    104  H   UNL     1       2.613  -0.165 -15.807  1.00  0.00     0.065 H 
BRANCH  85 105
ATOM    105  C   UNL     1      -4.402   4.587 -13.111  1.00  0.00     0.064 A 
ATOM    106  C   UNL     1      -4.761   5.675 -13.916  1.00  0.00     0.173 A 
ATOM    107  C   UNL     1      -5.417   3.893 -12.437  1.00  0.00     0.173 A 
ATOM    108  F   UNL     1      -3.820   6.370 -14.571  1.00  0.00    -0.203 F 
ATOM    109  C   UNL     1      -6.094   6.056 -14.042  1.00  0.00     0.198 A 
ATOM    110  C   UNL     1      -6.748   4.274 -12.568  1.00  0.00     0.198 A 
ATOM    111  F   UNL     1      -5.113   2.848 -11.652  1.00  0.00    -0.203 F 
ATOM    112  F   UNL     1      -6.420   7.104 -14.810  1.00  0.00    -0.200 F 
ATOM    113  C   UNL     1      -7.086   5.354 -13.371  1.00  0.00     0.200 A 
ATOM    114  F   UNL     1      -7.705   3.599 -11.917  1.00  0.00    -0.200 F 
ATOM    115  F   UNL     1      -8.368   5.723 -13.493  1.00  0.00    -0.200 F 
ENDBRANCH  85 105
BRANCH  88 116
ATOM    116  C   UNL     1       5.090   1.911 -12.000  1.00  0.00     0.064 A 
ATOM    117  C   UNL     1       6.120   2.542 -12.708  1.00  0.00     0.173 A 
ATOM    118  C   UNL     1       5.429   0.888 -11.105  1.00  0.00     0.173 A 
ATOM    119  F   UNL     1       5.832   3.515 -13.584  1.00  0.00    -0.203 F 
ATOM    120  C   UNL     1       7.447   2.162 -12.526  1.00  0.00     0.198 A 
ATOM    121  C   UNL     1       6.757   0.513 -10.921  1.00  0.00     0.198 A 
ATOM    122  F   UNL     1       4.469   0.258 -10.413  1.00  0.00    -0.203 F 
ATOM    123  F   UNL     1       8.418   2.771 -13.221  1.00  0.00    -0.200 F 
ATOM    124  C   UNL     1       7.764   1.150 -11.631  1.00  0.00     0.200 A 
ATOM    125  F   UNL     1       7.061  -0.465 -10.057  1.00  0.00    -0.200 F 
ATOM    126  F   UNL     1       9.042   0.785 -11.456  1.00  0.00    -0.200 F 
ENDBRANCH  88 116
BRANCH 103 127
ATOM    127  C   UNL     1       0.102   0.093 -16.470  1.00  0.00     0.064 A 
ATOM    128  C   UNL     1      -0.184  -1.265 -16.275  1.00  0.00     0.173 A 
ATOM    129  C   UNL     1       0.340   0.543 -17.775  1.00  0.00     0.173 A 
ATOM    130  F   UNL     1      -0.405  -1.738 -15.040  1.00  0.00    -0.203 F 
ATOM    131  C   UNL     1      -0.227  -2.145 -17.353  1.00  0.00     0.198 A 
ATOM    132  C   UNL     1       0.294  -0.339 -18.851  1.00  0.00     0.198 A 
ATOM    133  F   UNL     1       0.628   1.833 -18.002  1.00  0.00    -0.203 F 
ATOM    134  F   UNL     1      -0.489  -3.443 -17.147  1.00  0.00    -0.200 F 
ATOM    135  C   UNL     1       0.011  -1.681 -18.639  1.00  0.00     0.200 A 
ATOM    136  F   UNL     1       0.533   0.106 -20.092  1.00  0.00    -0.200 F 
ATOM    137  F   UNL     1      -0.025  -2.530 -19.675  1.00  0.00    -0.200 F 
ENDBRANCH 103 127
ENDBRANCH  68  71
ENDBRANCH  58  61
ENDBRANCH  54  57
ENDBRANCH  51  54
ENDBRANCH  48  51
ENDBRANCH   1  48
TORSDOF 18
