REMARK SMILES Nn1c(S[C@@H](C(=O)NCCCCCCNC(=O)c2ccc(-c3c4nc(c(-c5c(F)c(F)c(F)c(F)c5F)c5ccc([nH]5)c(-c5c(F)c(F)c(F)c(F)c5F)c5nc(c(-c6c(F)c(F)c(F)c(F)c6F)c6ccc3[nH]6)C=C5)C=C4)cc2)c2ccccc2)nc2ccc(Br)cc2c1=O
REMARK SMILES IDX 11 1 10 4 9 7 8 10 6 11 7 12 5 14 4 16 3 17 2 18 95 19 87 20
REMARK SMILES IDX 94 21 96 22 88 23 93 24 89 25 91 26 90 28 92 30 1 32 81 35
REMARK SMILES IDX 82 36 86 37 83 38 85 40 84 42 12 46 13 49 14 52 15 55 16 56
REMARK SMILES IDX 17 58 18 59 19 60 80 61 20 62 79 64 21 66 22 69 23 70 73 71
REMARK SMILES IDX 24 72 78 73 72 74 74 75 25 76 77 77 71 79 70 81 26 83 58 86
REMARK SMILES IDX 38 87 57 88 39 89 42 90 56 91 75 92 40 93 41 95 55 97 76 98
REMARK SMILES IDX 43 101 27 103 28 104 36 105 29 106 30 107 34 108 37 109
REMARK SMILES IDX 31 110 32 111 35 112 33 113 59 114 60 115 68 116 61 117
REMARK SMILES IDX 62 118 66 119 69 120 63 121 64 122 67 123 65 124 44 125
REMARK SMILES IDX 45 126 53 127 46 128 47 129 51 130 54 131 48 132 49 133
REMARK SMILES IDX 52 134 50 135
REMARK H PARENT 11 2 11 3 10 5 10 6 9 8 9 9 8 13 5 15 93 27 89 29 90 31 1 33
REMARK H PARENT 1 34 82 39 86 41 83 43 85 44 84 45 12 47 12 48 13 50 13 51
REMARK H PARENT 14 53 14 54 15 57 19 63 80 65 20 67 79 68 78 78 72 80 74 82
REMARK H PARENT 77 84 71 85 39 94 42 96 75 99 40 100 76 102
REMARK Flexibility Score: inf
ROOT
ATOM      1  C   UNL     1       5.068   2.610  -2.511  1.00  0.00    -0.052 C 
ATOM      2  H   UNL     1       4.607   2.890  -1.587  1.00  0.00     0.027 H 
ATOM      3  H   UNL     1       4.786   3.223  -3.341  1.00  0.00     0.027 H 
ENDROOT
BRANCH   1   4
ATOM      4  C   UNL     1       4.596   1.193  -2.860  1.00  0.00    -0.036 C 
ATOM      5  H   UNL     1       3.527   1.203  -2.909  1.00  0.00     0.028 H 
ATOM      6  H   UNL     1       5.065   0.946  -3.789  1.00  0.00     0.028 H 
BRANCH   4   7
ATOM      7  C   UNL     1       5.014   0.100  -1.869  1.00  0.00     0.017 C 
ATOM      8  H   UNL     1       4.660  -0.843  -2.229  1.00  0.00     0.049 H 
ATOM      9  H   UNL     1       6.082   0.118  -1.797  1.00  0.00     0.049 H 
BRANCH   7  10
ATOM     10  N   UNL     1       4.478   0.322  -0.537  1.00  0.00    -0.355 N 
ATOM     11  C   UNL     1       3.401  -0.234   0.105  1.00  0.00     0.238 C 
ATOM     12  O   UNL     1       3.174   0.192   1.244  1.00  0.00    -0.273 OA
ATOM     13  H   UNL     1       4.973   0.985  -0.003  1.00  0.00     0.163 HD
BRANCH  11  14
ATOM     14  C   UNL     1       2.568  -1.355  -0.544  1.00  0.00     0.116 C 
ATOM     15  H   UNL     1       3.325  -2.090  -0.720  1.00  0.00     0.057 H 
BRANCH  14  16
ATOM     16  S   UNL     1       1.894  -0.928  -2.158  1.00  0.00    -0.068 SA
BRANCH  16  17
ATOM     17  C   UNL     1       0.448   0.029  -2.041  1.00  0.00     0.191 A 
ATOM     18  N   UNL     1       0.207   1.000  -1.073  1.00  0.00    -0.202 N 
ATOM     19  C   UNL     1      -1.041   1.628  -0.975  1.00  0.00     0.280 A 
ATOM     20  N   UNL     1      -0.368  -0.181  -3.028  1.00  0.00    -0.222 NA
ATOM     21  C   UNL     1      -1.928   1.475  -2.139  1.00  0.00     0.069 A 
ATOM     22  O   UNL     1      -1.363   2.355  -0.036  1.00  0.00    -0.267 OA
ATOM     23  C   UNL     1      -1.497   0.630  -3.158  1.00  0.00     0.079 A 
ATOM     24  C   UNL     1      -3.063   2.277  -2.290  1.00  0.00    -0.033 A 
ATOM     25  C   UNL     1      -2.181   0.638  -4.375  1.00  0.00    -0.034 A 
ATOM     26  C   UNL     1      -3.739   2.267  -3.508  1.00  0.00     0.018 A 
ATOM     27  H   UNL     1      -3.396   2.868  -1.511  1.00  0.00     0.064 H 
ATOM     28  C   UNL     1      -3.293   1.465  -4.558  1.00  0.00    -0.046 A 
ATOM     29  H   UNL     1      -1.864   0.029  -5.145  1.00  0.00     0.065 H 
ATOM     30  Br  UNL     1      -5.240   3.386  -3.759  1.00  0.00    -0.051 Br
ATOM     31  H   UNL     1      -3.781   1.482  -5.467  1.00  0.00     0.064 H 
BRANCH  18  32
ATOM     32  N   UNL     1       1.242   1.598  -0.302  1.00  0.00    -0.334 N 
ATOM     33  H   UNL     1       2.149   1.216  -0.316  1.00  0.00     0.178 HD
ATOM     34  H   UNL     1       1.050   2.393   0.246  1.00  0.00     0.178 HD
ENDBRANCH  18  32
ENDBRANCH  16  17
ENDBRANCH  14  16
BRANCH  14  35
ATOM     35  C   UNL     1       1.611  -2.149   0.346  1.00  0.00    -0.025 A 
ATOM     36  C   UNL     1       1.502  -3.541   0.147  1.00  0.00    -0.057 A 
ATOM     37  C   UNL     1       0.823  -1.583   1.360  1.00  0.00    -0.057 A 
ATOM     38  C   UNL     1       0.655  -4.326   0.936  1.00  0.00    -0.062 A 
ATOM     39  H   UNL     1       2.060  -3.989  -0.596  1.00  0.00     0.063 H 
ATOM     40  C   UNL     1      -0.030  -2.366   2.144  1.00  0.00    -0.062 A 
ATOM     41  H   UNL     1       0.875  -0.567   1.532  1.00  0.00     0.063 H 
ATOM     42  C   UNL     1      -0.114  -3.737   1.933  1.00  0.00    -0.062 A 
ATOM     43  H   UNL     1       0.601  -5.344   0.776  1.00  0.00     0.062 H 
ATOM     44  H   UNL     1      -0.600  -1.924   2.882  1.00  0.00     0.062 H 
ATOM     45  H   UNL     1      -0.742  -4.315   2.513  1.00  0.00     0.062 H 
ENDBRANCH  14  35
ENDBRANCH  11  14
ENDBRANCH   7  10
ENDBRANCH   4   7
ENDBRANCH   1   4
BRANCH   1  46
ATOM     46  C   UNL     1       6.580   2.788  -2.355  1.00  0.00    -0.052 C 
ATOM     47  H   UNL     1       6.883   2.275  -1.467  1.00  0.00     0.027 H 
ATOM     48  H   UNL     1       6.750   3.844  -2.321  1.00  0.00     0.027 H 
BRANCH  46  49
ATOM     49  C   UNL     1       7.423   2.262  -3.516  1.00  0.00    -0.036 C 
ATOM     50  H   UNL     1       7.278   1.203  -3.579  1.00  0.00     0.028 H 
ATOM     51  H   UNL     1       8.435   2.538  -3.302  1.00  0.00     0.028 H 
BRANCH  49  52
ATOM     52  C   UNL     1       7.092   2.867  -4.874  1.00  0.00     0.018 C 
ATOM     53  H   UNL     1       6.032   2.831  -5.016  1.00  0.00     0.049 H 
ATOM     54  H   UNL     1       7.610   2.298  -5.617  1.00  0.00     0.049 H 
BRANCH  52  55
ATOM     55  N   UNL     1       7.530   4.249  -4.995  1.00  0.00    -0.352 N 
ATOM     56  C   UNL     1       8.417   4.803  -5.892  1.00  0.00     0.251 C 
ATOM     57  H   UNL     1       7.138   4.876  -4.345  1.00  0.00     0.163 HD
ATOM     58  O   UNL     1       8.796   5.956  -5.771  1.00  0.00    -0.269 OA
BRANCH  56  59
ATOM     59  C   UNL     1       8.942   3.962  -6.991  1.00  0.00     0.039 A 
ATOM     60  C   UNL     1       8.071   3.215  -7.788  1.00  0.00    -0.049 A 
ATOM     61  C   UNL     1      10.322   3.883  -7.186  1.00  0.00    -0.049 A 
ATOM     62  C   UNL     1       8.586   2.266  -8.664  1.00  0.00    -0.053 A 
ATOM     63  H   UNL     1       7.052   3.368  -7.728  1.00  0.00     0.063 H 
ATOM     64  C   UNL     1      10.836   2.982  -8.123  1.00  0.00    -0.053 A 
ATOM     65  H   UNL     1      10.959   4.485  -6.641  1.00  0.00     0.063 H 
ATOM     66  C   UNL     1       9.974   2.133  -8.835  1.00  0.00    -0.014 A 
ATOM     67  H   UNL     1       7.944   1.655  -9.193  1.00  0.00     0.063 H 
ATOM     68  H   UNL     1      11.853   2.942  -8.293  1.00  0.00     0.063 H 
BRANCH  66  69
ATOM     69  C   UNL     1      10.508   1.100  -9.759  1.00  0.00     0.031 A 
ATOM     70  C   UNL     1      11.317  -0.056  -9.234  1.00  0.00     0.074 A 
ATOM     71  C   UNL     1      10.234   1.189 -11.074  1.00  0.00     0.049 A 
ATOM     72  N   UNL     1      11.908  -1.018  -9.898  1.00  0.00    -0.248 NA
ATOM     73  C   UNL     1      11.486  -0.146  -7.775  1.00  0.00    -0.034 C 
ATOM     74  C   UNL     1       9.443   2.251 -11.698  1.00  0.00    -0.036 A 
ATOM     75  N   UNL     1      10.578   0.371 -12.120  1.00  0.00    -0.354 N 
ATOM     76  C   UNL     1      12.536  -1.810  -8.945  1.00  0.00     0.074 A 
ATOM     77  C   UNL     1      12.266  -1.213  -7.655  1.00  0.00    -0.034 C 
ATOM     78  H   UNL     1      11.099   0.462  -7.037  1.00  0.00     0.065 H 
ATOM     79  C   UNL     1       9.337   2.005 -13.012  1.00  0.00    -0.036 A 
ATOM     80  H   UNL     1       9.033   3.060 -11.206  1.00  0.00     0.065 H 
ATOM     81  C   UNL     1      10.104   0.805 -13.333  1.00  0.00     0.049 A 
ATOM     82  H   UNL     1      11.114  -0.448 -12.011  1.00  0.00     0.167 HD
ATOM     83  C   UNL     1      13.265  -2.935  -9.134  1.00  0.00     0.037 A 
ATOM     84  H   UNL     1      12.633  -1.570  -6.758  1.00  0.00     0.065 H 
ATOM     85  H   UNL     1       8.800   2.572 -13.687  1.00  0.00     0.065 H 
ATOM     86  C   UNL     1      10.286   0.309 -14.571  1.00  0.00     0.037 A 
ATOM     87  C   UNL     1      13.509  -3.542 -10.417  1.00  0.00     0.049 A 
ATOM     88  C   UNL     1      11.117  -0.929 -14.749  1.00  0.00     0.074 A 
ATOM     89  C   UNL     1      14.236  -4.685 -10.706  1.00  0.00    -0.036 A 
ATOM     90  N   UNL     1      13.023  -3.063 -11.624  1.00  0.00    -0.354 N 
ATOM     91  N   UNL     1      11.722  -1.655 -13.842  1.00  0.00    -0.248 NA
ATOM     92  C   UNL     1      11.294  -1.415 -16.125  1.00  0.00    -0.034 C 
ATOM     93  C   UNL     1      14.216  -4.880 -12.090  1.00  0.00    -0.036 A 
ATOM     94  H   UNL     1      14.712  -5.289 -10.018  1.00  0.00     0.065 H 
ATOM     95  C   UNL     1      13.440  -3.884 -12.659  1.00  0.00     0.049 A 
ATOM     96  H   UNL     1      12.466  -2.258 -11.729  1.00  0.00     0.167 HD
ATOM     97  C   UNL     1      12.337  -2.690 -14.531  1.00  0.00     0.074 A 
ATOM     98  C   UNL     1      12.016  -2.510 -15.931  1.00  0.00    -0.034 C 
ATOM     99  H   UNL     1      10.948  -1.010 -17.009  1.00  0.00     0.065 H 
ATOM    100  H   UNL     1      14.698  -5.636 -12.601  1.00  0.00     0.065 H 
ATOM    101  C   UNL     1      13.102  -3.697 -14.046  1.00  0.00     0.037 A 
ATOM    102  H   UNL     1      12.312  -3.152 -16.683  1.00  0.00     0.065 H 
BRANCH  83 103
ATOM    103  C   UNL     1      13.868  -3.600  -7.932  1.00  0.00     0.064 A 
ATOM    104  C   UNL     1      13.092  -4.368  -7.053  1.00  0.00     0.173 A 
ATOM    105  C   UNL     1      15.255  -3.558  -7.720  1.00  0.00     0.173 A 
ATOM    106  F   UNL     1      11.761  -4.431  -7.207  1.00  0.00    -0.203 F 
ATOM    107  C   UNL     1      13.683  -5.072  -6.006  1.00  0.00     0.198 A 
ATOM    108  C   UNL     1      15.845  -4.280  -6.686  1.00  0.00     0.198 A 
ATOM    109  F   UNL     1      16.042  -2.841  -8.537  1.00  0.00    -0.203 F 
ATOM    110  F   UNL     1      12.921  -5.791  -5.170  1.00  0.00    -0.200 F 
ATOM    111  C   UNL     1      15.058  -5.038  -5.831  1.00  0.00     0.200 A 
ATOM    112  F   UNL     1      17.175  -4.255  -6.526  1.00  0.00    -0.200 F 
ATOM    113  F   UNL     1      15.627  -5.736  -4.839  1.00  0.00    -0.200 F 
ENDBRANCH  83 103
BRANCH  86 114
ATOM    114  C   UNL     1       9.673   0.998 -15.734  1.00  0.00     0.064 A 
ATOM    115  C   UNL     1       8.615   0.415 -16.443  1.00  0.00     0.173 A 
ATOM    116  C   UNL     1      10.122   2.261 -16.149  1.00  0.00     0.173 A 
ATOM    117  F   UNL     1       8.166  -0.800 -16.097  1.00  0.00    -0.203 F 
ATOM    118  C   UNL     1       8.034   1.065 -17.530  1.00  0.00     0.198 A 
ATOM    119  C   UNL     1       9.522   2.923 -17.216  1.00  0.00     0.198 A 
ATOM    120  F   UNL     1      11.130   2.861 -15.500  1.00  0.00    -0.203 F 
ATOM    121  F   UNL     1       7.047   0.471 -18.214  1.00  0.00    -0.200 F 
ATOM    122  C   UNL     1       8.482   2.322 -17.910  1.00  0.00     0.200 A 
ATOM    123  F   UNL     1       9.947   4.143 -17.569  1.00  0.00    -0.200 F 
ATOM    124  F   UNL     1       7.916   2.952 -18.948  1.00  0.00    -0.200 F 
ENDBRANCH  86 114
BRANCH 101 125
ATOM    125  C   UNL     1      13.618  -4.703 -15.031  1.00  0.00     0.064 A 
ATOM    126  C   UNL     1      14.660  -4.395 -15.916  1.00  0.00     0.173 A 
ATOM    127  C   UNL     1      13.090  -6.002 -15.058  1.00  0.00     0.173 A 
ATOM    128  F   UNL     1      15.188  -3.161 -15.935  1.00  0.00    -0.203 F 
ATOM    129  C   UNL     1      15.141  -5.346 -16.811  1.00  0.00     0.198 A 
ATOM    130  C   UNL     1      13.591  -6.958 -15.937  1.00  0.00     0.198 A 
ATOM    131  F   UNL     1      12.097  -6.347 -14.225  1.00  0.00    -0.203 F 
ATOM    132  F   UNL     1      16.110  -5.019 -17.677  1.00  0.00    -0.200 F 
ATOM    133  C   UNL     1      14.611  -6.628 -16.816  1.00  0.00     0.200 A 
ATOM    134  F   UNL     1      13.085  -8.200 -15.933  1.00  0.00    -0.200 F 
ATOM    135  F   UNL     1      15.079  -7.545 -17.674  1.00  0.00    -0.200 F 
ENDBRANCH 101 125
ENDBRANCH  66  69
ENDBRANCH  56  59
ENDBRANCH  52  55
ENDBRANCH  49  52
ENDBRANCH  46  49
ENDBRANCH   1  46
TORSDOF 17
