REMARK SMILES C[C@@H](C(=O)NCCCCCCNC(=O)c1ccc(-c2c3nc(c(-c4c(F)c(F)c(F)c(F)c4F)c4ccc([nH]4)c(-c4c(F)c(F)c(F)c(F)c4F)c4nc(c(-c5c(F)c(F)c(F)c(F)c5F)c5ccc2[nH]5)C=C4)C=C3)cc1)c1ccc(NC2CCCC2)cc1F
REMARK SMILES IDX 8 1 7 4 6 7 5 10 3 11 4 12 2 14 1 16 78 20 79 21 89 22 80 23
REMARK SMILES IDX 88 25 90 26 81 27 82 30 83 32 84 33 87 34 85 36 86 39 9 46
REMARK SMILES IDX 10 49 11 52 12 55 13 56 14 58 15 59 16 60 77 61 17 62 76 64
REMARK SMILES IDX 18 66 19 69 20 70 70 71 21 72 75 73 69 74 71 75 22 76 74 77
REMARK SMILES IDX 68 79 67 81 23 83 55 86 35 87 54 88 36 89 39 90 53 91 72 92
REMARK SMILES IDX 37 93 38 95 52 97 73 98 40 101 24 103 25 104 33 105 26 106
REMARK SMILES IDX 27 107 31 108 34 109 28 110 29 111 32 112 30 113 56 114
REMARK SMILES IDX 57 115 65 116 58 117 59 118 63 119 66 120 60 121 61 122
REMARK SMILES IDX 64 123 62 124 41 125 42 126 50 127 43 128 44 129 48 130
REMARK SMILES IDX 51 131 45 132 46 133 49 134 47 135
REMARK H PARENT 8 2 8 3 7 5 7 6 6 8 6 9 5 13 2 15 1 17 1 18 1 19 79 24 80 28
REMARK H PARENT 88 29 82 31 83 35 84 37 84 38 87 40 87 41 85 42 85 43 86 44
REMARK H PARENT 86 45 9 47 9 48 10 50 10 51 11 53 11 54 12 57 16 63 77 65
REMARK H PARENT 17 67 76 68 75 78 69 80 71 82 74 84 68 85 36 94 39 96 72 99
REMARK H PARENT 37 100 73 102
REMARK Flexibility Score: inf
ROOT
ATOM      1  C   UNL     1       5.119   2.386  -1.664  1.00  0.00    -0.052 C 
ATOM      2  H   UNL     1       4.377   2.982  -2.153  1.00  0.00     0.027 H 
ATOM      3  H   UNL     1       5.739   1.836  -2.341  1.00  0.00     0.027 H 
ENDROOT
BRANCH   1   4
ATOM      4  C   UNL     1       4.396   1.341  -0.803  1.00  0.00    -0.036 C 
ATOM      5  H   UNL     1       3.817   0.717  -1.451  1.00  0.00     0.028 H 
ATOM      6  H   UNL     1       5.155   0.802  -0.276  1.00  0.00     0.028 H 
BRANCH   4   7
ATOM      7  C   UNL     1       3.461   1.931   0.257  1.00  0.00     0.017 C 
ATOM      8  H   UNL     1       3.085   1.143   0.875  1.00  0.00     0.049 H 
ATOM      9  H   UNL     1       4.007   2.633   0.851  1.00  0.00     0.049 H 
BRANCH   7  10
ATOM     10  N   UNL     1       2.351   2.612  -0.378  1.00  0.00    -0.356 N 
ATOM     11  C   UNL     1       1.067   2.189  -0.573  1.00  0.00     0.227 C 
ATOM     12  O   UNL     1       0.411   2.789  -1.426  1.00  0.00    -0.274 OA
ATOM     13  H   UNL     1       2.551   3.514  -0.719  1.00  0.00     0.163 HD
BRANCH  11  14
ATOM     14  C   UNL     1       0.502   1.034   0.278  1.00  0.00     0.063 C 
ATOM     15  H   UNL     1       0.897   1.075   1.272  1.00  0.00     0.045 H 
BRANCH  14  16
ATOM     16  C   UNL     1       0.950  -0.284  -0.364  1.00  0.00    -0.049 C 
ATOM     17  H   UNL     1       2.012  -0.278  -0.487  1.00  0.00     0.024 H 
ATOM     18  H   UNL     1       0.481  -0.393  -1.320  1.00  0.00     0.024 H 
ATOM     19  H   UNL     1       0.668  -1.102   0.266  1.00  0.00     0.024 H 
ENDBRANCH  14  16
BRANCH  14  20
ATOM     20  C   UNL     1      -1.007   1.153   0.509  1.00  0.00     0.000 A 
ATOM     21  C   UNL     1      -1.595   2.412   0.697  1.00  0.00    -0.053 A 
ATOM     22  C   UNL     1      -1.867   0.055   0.579  1.00  0.00     0.129 A 
ATOM     23  C   UNL     1      -2.983   2.562   0.829  1.00  0.00    -0.038 A 
ATOM     24  H   UNL     1      -0.992   3.249   0.740  1.00  0.00     0.063 H 
ATOM     25  C   UNL     1      -3.248   0.205   0.740  1.00  0.00    -0.003 A 
ATOM     26  F   UNL     1      -1.398  -1.198   0.491  1.00  0.00    -0.207 F 
ATOM     27  C   UNL     1      -3.843   1.465   0.839  1.00  0.00     0.037 A 
ATOM     28  H   UNL     1      -3.379   3.510   0.921  1.00  0.00     0.064 H 
ATOM     29  H   UNL     1      -3.843  -0.637   0.786  1.00  0.00     0.068 H 
BRANCH  27  30
ATOM     30  N   UNL     1      -5.217   1.545   0.916  1.00  0.00    -0.382 N 
ATOM     31  H   UNL     1      -5.679   0.690   1.073  1.00  0.00     0.160 HD
BRANCH  30  32
ATOM     32  C   UNL     1      -6.083   2.705   0.798  1.00  0.00     0.026 C 
ATOM     33  C   UNL     1      -5.973   3.701   1.946  1.00  0.00    -0.033 C 
ATOM     34  C   UNL     1      -5.905   3.508  -0.491  1.00  0.00    -0.033 C 
ATOM     35  H   UNL     1      -7.047   2.240   0.810  1.00  0.00     0.053 H 
ATOM     36  C   UNL     1      -6.570   4.970   1.357  1.00  0.00    -0.051 C 
ATOM     37  H   UNL     1      -4.952   3.851   2.228  1.00  0.00     0.029 H 
ATOM     38  H   UNL     1      -6.471   3.375   2.835  1.00  0.00     0.029 H 
ATOM     39  C   UNL     1      -6.144   4.968  -0.107  1.00  0.00    -0.051 C 
ATOM     40  H   UNL     1      -6.616   3.194  -1.226  1.00  0.00     0.029 H 
ATOM     41  H   UNL     1      -4.932   3.365  -0.913  1.00  0.00     0.029 H 
ATOM     42  H   UNL     1      -6.185   5.833   1.859  1.00  0.00     0.027 H 
ATOM     43  H   UNL     1      -7.634   5.000   1.465  1.00  0.00     0.027 H 
ATOM     44  H   UNL     1      -5.245   5.534  -0.231  1.00  0.00     0.027 H 
ATOM     45  H   UNL     1      -6.894   5.412  -0.727  1.00  0.00     0.027 H 
ENDBRANCH  30  32
ENDBRANCH  27  30
ENDBRANCH  14  20
ENDBRANCH  11  14
ENDBRANCH   7  10
ENDBRANCH   4   7
ENDBRANCH   1   4
BRANCH   1  46
ATOM     46  C   UNL     1       6.053   3.326  -0.899  1.00  0.00    -0.052 C 
ATOM     47  H   UNL     1       5.455   3.929  -0.248  1.00  0.00     0.027 H 
ATOM     48  H   UNL     1       6.580   3.890  -1.640  1.00  0.00     0.027 H 
BRANCH  46  49
ATOM     49  C   UNL     1       7.124   2.634  -0.051  1.00  0.00    -0.036 C 
ATOM     50  H   UNL     1       6.630   2.094   0.730  1.00  0.00     0.028 H 
ATOM     51  H   UNL     1       7.768   3.410   0.306  1.00  0.00     0.028 H 
BRANCH  49  52
ATOM     52  C   UNL     1       8.019   1.655  -0.808  1.00  0.00     0.018 C 
ATOM     53  H   UNL     1       7.404   0.899  -1.251  1.00  0.00     0.049 H 
ATOM     54  H   UNL     1       8.711   1.237  -0.107  1.00  0.00     0.049 H 
BRANCH  52  55
ATOM     55  N   UNL     1       8.789   2.302  -1.856  1.00  0.00    -0.352 N 
ATOM     56  C   UNL     1      10.126   2.216  -2.137  1.00  0.00     0.251 C 
ATOM     57  H   UNL     1       8.272   2.890  -2.453  1.00  0.00     0.163 HD
ATOM     58  O   UNL     1      10.626   2.970  -2.976  1.00  0.00    -0.269 OA
BRANCH  56  59
ATOM     59  C   UNL     1      10.988   1.247  -1.428  1.00  0.00     0.039 A 
ATOM     60  C   UNL     1      12.243   1.671  -0.984  1.00  0.00    -0.049 A 
ATOM     61  C   UNL     1      10.588  -0.079  -1.229  1.00  0.00    -0.049 A 
ATOM     62  C   UNL     1      13.075   0.785  -0.297  1.00  0.00    -0.053 A 
ATOM     63  H   UNL     1      12.555   2.638  -1.164  1.00  0.00     0.063 H 
ATOM     64  C   UNL     1      11.396  -0.948  -0.495  1.00  0.00    -0.053 A 
ATOM     65  H   UNL     1       9.696  -0.414  -1.625  1.00  0.00     0.063 H 
ATOM     66  C   UNL     1      12.647  -0.524  -0.024  1.00  0.00    -0.014 A 
ATOM     67  H   UNL     1      14.010   1.094   0.012  1.00  0.00     0.063 H 
ATOM     68  H   UNL     1      11.071  -1.908  -0.297  1.00  0.00     0.063 H 
BRANCH  66  69
ATOM     69  C   UNL     1      13.504  -1.447   0.762  1.00  0.00     0.031 A 
ATOM     70  C   UNL     1      14.125  -2.653   0.116  1.00  0.00     0.074 A 
ATOM     71  C   UNL     1      13.698  -1.211   2.074  1.00  0.00     0.049 A 
ATOM     72  N   UNL     1      14.894  -3.571   0.646  1.00  0.00    -0.248 NA
ATOM     73  C   UNL     1      13.829  -2.868  -1.309  1.00  0.00    -0.034 C 
ATOM     74  C   UNL     1      13.106  -0.105   2.829  1.00  0.00    -0.036 A 
ATOM     75  N   UNL     1      14.443  -1.889   3.006  1.00  0.00    -0.354 N 
ATOM     76  C   UNL     1      15.172  -4.469  -0.376  1.00  0.00     0.074 A 
ATOM     77  C   UNL     1      14.450  -4.015  -1.545  1.00  0.00    -0.034 C 
ATOM     78  H   UNL     1      13.281  -2.279  -1.955  1.00  0.00     0.065 H 
ATOM     79  C   UNL     1      13.524  -0.170   4.103  1.00  0.00    -0.036 A 
ATOM     80  H   UNL     1      12.469   0.609   2.444  1.00  0.00     0.065 H 
ATOM     81  C   UNL     1      14.396  -1.331   4.260  1.00  0.00     0.049 A 
ATOM     82  H   UNL     1      14.963  -2.698   2.796  1.00  0.00     0.167 HD
ATOM     83  C   UNL     1      15.976  -5.559  -0.348  1.00  0.00     0.037 A 
ATOM     84  H   UNL     1      14.423  -4.518  -2.446  1.00  0.00     0.065 H 
ATOM     85  H   UNL     1      13.271   0.494   4.852  1.00  0.00     0.065 H 
ATOM     86  C   UNL     1      14.991  -1.711   5.406  1.00  0.00     0.037 A 
ATOM     87  C   UNL     1      16.708  -6.003   0.810  1.00  0.00     0.049 A 
ATOM     88  C   UNL     1      15.896  -2.912   5.402  1.00  0.00     0.074 A 
ATOM     89  C   UNL     1      17.573  -7.077   0.926  1.00  0.00    -0.036 A 
ATOM     90  N   UNL     1      16.661  -5.392   2.054  1.00  0.00    -0.354 N 
ATOM     91  N   UNL     1      16.196  -3.718   4.413  1.00  0.00    -0.248 NA
ATOM     92  C   UNL     1      16.557  -3.247   6.671  1.00  0.00    -0.034 C 
ATOM     93  C   UNL     1      18.030  -7.132   2.248  1.00  0.00    -0.036 A 
ATOM     94  H   UNL     1      17.837  -7.726   0.168  1.00  0.00     0.065 H 
ATOM     95  C   UNL     1      17.477  -6.071   2.945  1.00  0.00     0.049 A 
ATOM     96  H   UNL     1      16.127  -4.594   2.272  1.00  0.00     0.167 HD
ATOM     97  C   UNL     1      17.090  -4.643   4.934  1.00  0.00     0.074 A 
ATOM     98  C   UNL     1      17.304  -4.284   6.321  1.00  0.00    -0.034 C 
ATOM     99  H   UNL     1      16.464  -2.793   7.594  1.00  0.00     0.065 H 
ATOM    100  H   UNL     1      18.669  -7.843   2.637  1.00  0.00     0.065 H 
ATOM    101  C   UNL     1      17.677  -5.699   4.321  1.00  0.00     0.037 A 
ATOM    102  H   UNL     1      17.954  -4.773   6.955  1.00  0.00     0.065 H 
BRANCH  83 103
ATOM    103  C   UNL     1      16.125  -6.342  -1.618  1.00  0.00     0.064 A 
ATOM    104  C   UNL     1      16.871  -5.845  -2.697  1.00  0.00     0.173 A 
ATOM    105  C   UNL     1      15.563  -7.622  -1.741  1.00  0.00     0.173 A 
ATOM    106  F   UNL     1      17.418  -4.622  -2.632  1.00  0.00    -0.203 F 
ATOM    107  C   UNL     1      17.034  -6.593  -3.860  1.00  0.00     0.198 A 
ATOM    108  C   UNL     1      15.749  -8.377  -2.897  1.00  0.00     0.198 A 
ATOM    109  F   UNL     1      14.845  -8.145  -0.736  1.00  0.00    -0.203 F 
ATOM    110  F   UNL     1      17.722  -6.083  -4.891  1.00  0.00    -0.200 F 
ATOM    111  C   UNL     1      16.480  -7.860  -3.956  1.00  0.00     0.200 A 
ATOM    112  F   UNL     1      15.221  -9.606  -2.985  1.00  0.00    -0.200 F 
ATOM    113  F   UNL     1      16.646  -8.583  -5.072  1.00  0.00    -0.200 F 
ENDBRANCH  83 103
BRANCH  86 114
ATOM    114  C   UNL     1      14.772  -0.931   6.649  1.00  0.00     0.064 A 
ATOM    115  C   UNL     1      15.795  -0.145   7.198  1.00  0.00     0.173 A 
ATOM    116  C   UNL     1      13.541  -0.963   7.320  1.00  0.00     0.173 A 
ATOM    117  F   UNL     1      16.996  -0.100   6.603  1.00  0.00    -0.203 F 
ATOM    118  C   UNL     1      15.603   0.560   8.384  1.00  0.00     0.198 A 
ATOM    119  C   UNL     1      13.341  -0.237   8.492  1.00  0.00     0.198 A 
ATOM    120  F   UNL     1      12.529  -1.696   6.831  1.00  0.00    -0.203 F 
ATOM    121  F   UNL     1      16.612   1.265   8.912  1.00  0.00    -0.200 F 
ATOM    122  C   UNL     1      14.375   0.516   9.027  1.00  0.00     0.200 A 
ATOM    123  F   UNL     1      12.150  -0.272   9.104  1.00  0.00    -0.200 F 
ATOM    124  F   UNL     1      14.190   1.195  10.168  1.00  0.00    -0.200 F 
ENDBRANCH  86 114
BRANCH 101 125
ATOM    125  C   UNL     1      18.617  -6.528   5.145  1.00  0.00     0.064 A 
ATOM    126  C   UNL     1      18.145  -7.398   6.139  1.00  0.00     0.173 A 
ATOM    127  C   UNL     1      20.001  -6.466   4.926  1.00  0.00     0.173 A 
ATOM    128  F   UNL     1      16.831  -7.480   6.395  1.00  0.00    -0.203 F 
ATOM    129  C   UNL     1      19.028  -8.155   6.904  1.00  0.00     0.198 A 
ATOM    130  C   UNL     1      20.879  -7.243   5.676  1.00  0.00     0.198 A 
ATOM    131  F   UNL     1      20.501  -5.652   3.984  1.00  0.00    -0.203 F 
ATOM    132  F   UNL     1      18.558  -8.943   7.881  1.00  0.00    -0.200 F 
ATOM    133  C   UNL     1      20.393  -8.080   6.669  1.00  0.00     0.200 A 
ATOM    134  F   UNL     1      22.197  -7.176   5.444  1.00  0.00    -0.200 F 
ATOM    135  F   UNL     1      21.241  -8.808   7.408  1.00  0.00    -0.200 F 
ENDBRANCH 101 125
ENDBRANCH  66  69
ENDBRANCH  56  59
ENDBRANCH  52  55
ENDBRANCH  49  52
ENDBRANCH  46  49
ENDBRANCH   1  46
TORSDOF 17
