REMARK SMILES O=C(Cc1ccccc1Nc1c(F)cccc1C(F)(F)F)NCCCCCCNC(=O)c1ccc(-c2c3nc(c(-c4c(F)c(F)c(F)c(F)c4F)c4ccc([nH]4)c(-c4c(F)c(F)c(F)c(F)c4F)c4nc(c(-c5c(F)c(F)c(F)c(F)c5F)c5ccc2[nH]5)C=C4)C=C3)cc1
REMARK SMILES IDX 24 1 23 4 22 7 1 8 2 9 3 11 4 14 5 15 9 16 6 17 8 19 7 20
REMARK SMILES IDX 10 24 11 26 12 27 17 28 13 29 14 30 16 31 15 32 18 36 19 37
REMARK SMILES IDX 20 38 21 39 25 40 26 43 27 46 28 49 29 52 30 53 31 55 32 56
REMARK SMILES IDX 33 57 94 58 34 59 93 61 35 63 36 66 37 67 87 68 38 69 92 70
REMARK SMILES IDX 86 71 88 72 39 73 91 74 85 76 84 78 40 80 72 83 52 84 71 85
REMARK SMILES IDX 53 86 56 87 70 88 89 89 54 90 55 92 69 94 90 95 57 98 41 100
REMARK SMILES IDX 42 101 50 102 43 103 44 104 48 105 51 106 45 107 46 108
REMARK SMILES IDX 49 109 47 110 73 111 74 112 82 113 75 114 76 115 80 116
REMARK SMILES IDX 83 117 77 118 78 119 81 120 79 121 58 122 59 123 67 124
REMARK SMILES IDX 60 125 61 126 65 127 68 128 62 129 63 130 66 131 64 132
REMARK H PARENT 24 2 24 3 23 5 23 6 22 10 3 12 3 13 5 18 6 21 8 22 7 23 10 25
REMARK H PARENT 14 33 16 34 15 35 25 41 25 42 26 44 26 45 27 47 27 48 28 50
REMARK H PARENT 28 51 29 54 33 60 94 62 34 64 93 65 92 75 86 77 88 79 91 81
REMARK H PARENT 85 82 53 91 56 93 89 96 54 97 90 99
REMARK Flexibility Score: inf
ROOT
ATOM      1  C   UNL     1       2.360   3.435  -0.332  1.00  0.00    -0.036 C 
ATOM      2  H   UNL     1       2.160   3.346   0.715  1.00  0.00     0.028 H 
ATOM      3  H   UNL     1       1.827   4.236  -0.800  1.00  0.00     0.028 H 
ENDROOT
BRANCH   1   4
ATOM      4  C   UNL     1       1.889   2.148  -1.016  1.00  0.00     0.017 C 
ATOM      5  H   UNL     1       0.854   1.993  -0.793  1.00  0.00     0.049 H 
ATOM      6  H   UNL     1       2.036   2.252  -2.071  1.00  0.00     0.049 H 
BRANCH   4   7
ATOM      7  N   UNL     1       2.646   1.002  -0.561  1.00  0.00    -0.356 N 
ATOM      8  O   UNL     1       0.901  -0.186   0.331  1.00  0.00    -0.275 OA
ATOM      9  C   UNL     1       2.103  -0.066   0.111  1.00  0.00     0.224 C 
ATOM     10  H   UNL     1       3.613   0.988  -0.744  1.00  0.00     0.163 HD
BRANCH   9  11
ATOM     11  C   UNL     1       3.130  -1.020   0.697  1.00  0.00     0.054 C 
ATOM     12  H   UNL     1       2.610  -1.707   1.330  1.00  0.00     0.042 H 
ATOM     13  H   UNL     1       3.839  -0.396   1.201  1.00  0.00     0.042 H 
BRANCH  11  14
ATOM     14  C   UNL     1       3.945  -1.831  -0.291  1.00  0.00    -0.015 A 
ATOM     15  C   UNL     1       3.582  -3.176  -0.498  1.00  0.00    -0.056 A 
ATOM     16  C   UNL     1       5.063  -1.312  -0.982  1.00  0.00     0.042 A 
ATOM     17  C   UNL     1       4.328  -4.003  -1.337  1.00  0.00    -0.062 A 
ATOM     18  H   UNL     1       2.749  -3.555  -0.021  1.00  0.00     0.063 H 
ATOM     19  C   UNL     1       5.811  -2.169  -1.806  1.00  0.00    -0.038 A 
ATOM     20  C   UNL     1       5.449  -3.503  -1.983  1.00  0.00    -0.060 A 
ATOM     21  H   UNL     1       4.046  -4.986  -1.477  1.00  0.00     0.062 H 
ATOM     22  H   UNL     1       6.646  -1.803  -2.291  1.00  0.00     0.064 H 
ATOM     23  H   UNL     1       6.013  -4.116  -2.593  1.00  0.00     0.062 H 
BRANCH  16  24
ATOM     24  N   UNL     1       5.443   0.043  -0.838  1.00  0.00    -0.352 N 
ATOM     25  H   UNL     1       5.165   0.472   0.004  1.00  0.00     0.167 HD
BRANCH  24  26
ATOM     26  C   UNL     1       6.167   0.870  -1.731  1.00  0.00     0.087 A 
ATOM     27  C   UNL     1       7.191   1.669  -1.181  1.00  0.00     0.147 A 
ATOM     28  C   UNL     1       5.939   0.950  -3.120  1.00  0.00     0.082 A 
ATOM     29  F   UNL     1       7.385   1.648   0.148  1.00  0.00    -0.205 F 
ATOM     30  C   UNL     1       7.996   2.495  -1.957  1.00  0.00    -0.024 A 
ATOM     31  C   UNL     1       6.784   1.775  -3.903  1.00  0.00    -0.048 A 
ATOM     32  C   UNL     1       7.799   2.541  -3.329  1.00  0.00    -0.059 A 
ATOM     33  H   UNL     1       8.733   3.069  -1.516  1.00  0.00     0.065 H 
ATOM     34  H   UNL     1       6.644   1.811  -4.925  1.00  0.00     0.063 H 
ATOM     35  H   UNL     1       8.399   3.136  -3.921  1.00  0.00     0.062 H 
BRANCH  28  36
ATOM     36  C   UNL     1       4.794   0.274  -3.841  1.00  0.00     0.418 C 
ATOM     37  F   UNL     1       4.326   1.041  -4.874  1.00  0.00    -0.166 F 
ATOM     38  F   UNL     1       5.151  -0.908  -4.412  1.00  0.00    -0.166 F 
ATOM     39  F   UNL     1       3.695   0.034  -3.079  1.00  0.00    -0.166 F 
ENDBRANCH  28  36
ENDBRANCH  24  26
ENDBRANCH  16  24
ENDBRANCH  11  14
ENDBRANCH   9  11
ENDBRANCH   4   7
ENDBRANCH   1   4
BRANCH   1  40
ATOM     40  C   UNL     1       3.851   3.752  -0.507  1.00  0.00    -0.052 C 
ATOM     41  H   UNL     1       4.413   2.966  -0.048  1.00  0.00     0.027 H 
ATOM     42  H   UNL     1       4.007   4.709  -0.055  1.00  0.00     0.027 H 
BRANCH  40  43
ATOM     43  C   UNL     1       4.321   3.886  -1.956  1.00  0.00    -0.052 C 
ATOM     44  H   UNL     1       4.103   2.966  -2.457  1.00  0.00     0.027 H 
ATOM     45  H   UNL     1       5.364   4.117  -1.900  1.00  0.00     0.027 H 
BRANCH  43  46
ATOM     46  C   UNL     1       3.693   5.016  -2.762  1.00  0.00    -0.036 C 
ATOM     47  H   UNL     1       2.636   4.854  -2.796  1.00  0.00     0.028 H 
ATOM     48  H   UNL     1       4.152   4.992  -3.728  1.00  0.00     0.028 H 
BRANCH  46  49
ATOM     49  C   UNL     1       3.942   6.409  -2.199  1.00  0.00     0.018 C 
ATOM     50  H   UNL     1       3.574   6.442  -1.195  1.00  0.00     0.049 H 
ATOM     51  H   UNL     1       3.434   7.106  -2.833  1.00  0.00     0.049 H 
BRANCH  49  52
ATOM     52  N   UNL     1       5.351   6.775  -2.190  1.00  0.00    -0.352 N 
ATOM     53  C   UNL     1       5.970   7.895  -2.697  1.00  0.00     0.251 C 
ATOM     54  H   UNL     1       5.950   6.125  -1.757  1.00  0.00     0.163 HD
ATOM     55  O   UNL     1       7.192   7.967  -2.726  1.00  0.00    -0.269 OA
BRANCH  53  56
ATOM     56  C   UNL     1       5.151   8.997  -3.248  1.00  0.00     0.039 A 
ATOM     57  C   UNL     1       5.511   9.558  -4.476  1.00  0.00    -0.049 A 
ATOM     58  C   UNL     1       4.013   9.450  -2.577  1.00  0.00    -0.049 A 
ATOM     59  C   UNL     1       4.675  10.502  -5.076  1.00  0.00    -0.053 A 
ATOM     60  H   UNL     1       6.389   9.275  -4.937  1.00  0.00     0.063 H 
ATOM     61  C   UNL     1       3.138  10.325  -3.213  1.00  0.00    -0.053 A 
ATOM     62  H   UNL     1       3.821   9.136  -1.612  1.00  0.00     0.063 H 
ATOM     63  C   UNL     1       3.455  10.851  -4.474  1.00  0.00    -0.014 A 
ATOM     64  H   UNL     1       4.954  10.945  -5.966  1.00  0.00     0.063 H 
ATOM     65  H   UNL     1       2.252  10.589  -2.754  1.00  0.00     0.063 H 
BRANCH  63  66
ATOM     66  C   UNL     1       2.477  11.732  -5.163  1.00  0.00     0.031 A 
ATOM     67  C   UNL     1       2.087  13.051  -4.563  1.00  0.00     0.074 A 
ATOM     68  C   UNL     1       1.873  11.297  -6.286  1.00  0.00     0.049 A 
ATOM     69  N   UNL     1       1.192  13.915  -4.972  1.00  0.00    -0.248 NA
ATOM     70  C   UNL     1       2.772  13.438  -3.321  1.00  0.00    -0.034 C 
ATOM     71  C   UNL     1       2.116  10.006  -6.931  1.00  0.00    -0.036 A 
ATOM     72  N   UNL     1       0.913  11.886  -7.072  1.00  0.00    -0.354 N 
ATOM     73  C   UNL     1       1.200  14.939  -4.035  1.00  0.00     0.074 A 
ATOM     74  C   UNL     1       2.143  14.560  -3.004  1.00  0.00    -0.034 C 
ATOM     75  H   UNL     1       3.541  12.960  -2.825  1.00  0.00     0.065 H 
ATOM     76  C   UNL     1       1.338   9.905  -8.019  1.00  0.00    -0.036 A 
ATOM     77  H   UNL     1       2.779   9.288  -6.600  1.00  0.00     0.065 H 
ATOM     78  C   UNL     1       0.514  11.104  -8.129  1.00  0.00     0.049 A 
ATOM     79  H   UNL     1       0.547  12.782  -6.896  1.00  0.00     0.167 HD
ATOM     80  C   UNL     1       0.505  16.102  -4.046  1.00  0.00     0.037 A 
ATOM     81  H   UNL     1       2.305  15.095  -2.137  1.00  0.00     0.065 H 
ATOM     82  H   UNL     1       1.325   9.107  -8.674  1.00  0.00     0.065 H 
ATOM     83  C   UNL     1      -0.422  11.322  -9.072  1.00  0.00     0.037 A 
ATOM     84  C   UNL     1      -0.426  16.478  -5.078  1.00  0.00     0.049 A 
ATOM     85  C   UNL     1      -1.191  12.614  -9.061  1.00  0.00     0.074 A 
ATOM     86  C   UNL     1      -1.130  17.661  -5.217  1.00  0.00    -0.036 A 
ATOM     87  N   UNL     1      -0.791  15.669  -6.145  1.00  0.00    -0.354 N 
ATOM     88  N   UNL     1      -1.114  13.613  -8.216  1.00  0.00    -0.248 NA
ATOM     89  C   UNL     1      -2.171  12.812 -10.137  1.00  0.00    -0.034 C 
ATOM     90  C   UNL     1      -1.959  17.548  -6.339  1.00  0.00    -0.036 A 
ATOM     91  H   UNL     1      -1.057  18.485  -4.599  1.00  0.00     0.065 H 
ATOM     92  C   UNL     1      -1.734  16.315  -6.930  1.00  0.00     0.049 A 
ATOM     93  H   UNL     1      -0.433  14.769  -6.320  1.00  0.00     0.167 HD
ATOM     94  C   UNL     1      -2.024  14.562  -8.662  1.00  0.00     0.074 A 
ATOM     95  C   UNL     1      -2.625  14.028  -9.867  1.00  0.00    -0.034 C 
ATOM     96  H   UNL     1      -2.436  12.172 -10.902  1.00  0.00     0.065 H 
ATOM     97  H   UNL     1      -2.626  18.263  -6.670  1.00  0.00     0.065 H 
ATOM     98  C   UNL     1      -2.334  15.765  -8.119  1.00  0.00     0.037 A 
ATOM     99  H   UNL     1      -3.318  14.530 -10.443  1.00  0.00     0.065 H 
BRANCH  80 100
ATOM    100  C   UNL     1       0.730  17.048  -2.902  1.00  0.00     0.064 A 
ATOM    101  C   UNL     1       1.954  17.715  -2.729  1.00  0.00     0.173 A 
ATOM    102  C   UNL     1      -0.289  17.302  -1.972  1.00  0.00     0.173 A 
ATOM    103  F   UNL     1       2.966  17.500  -3.583  1.00  0.00    -0.203 F 
ATOM    104  C   UNL     1       2.162  18.564  -1.646  1.00  0.00     0.198 A 
ATOM    105  C   UNL     1      -0.089  18.179  -0.909  1.00  0.00     0.198 A 
ATOM    106  F   UNL     1      -1.481  16.698  -2.093  1.00  0.00    -0.203 F 
ATOM    107  F   UNL     1       3.360  19.138  -1.468  1.00  0.00    -0.200 F 
ATOM    108  C   UNL     1       1.140  18.800  -0.740  1.00  0.00     0.200 A 
ATOM    109  F   UNL     1      -1.082  18.416  -0.041  1.00  0.00    -0.200 F 
ATOM    110  F   UNL     1       1.341  19.617   0.303  1.00  0.00    -0.200 F 
ENDBRANCH  80 100
BRANCH  83 111
ATOM    111  C   UNL     1      -0.669  10.289 -10.110  1.00  0.00     0.064 A 
ATOM    112  C   UNL     1      -0.273  10.492 -11.439  1.00  0.00     0.173 A 
ATOM    113  C   UNL     1      -1.277   9.066  -9.789  1.00  0.00     0.173 A 
ATOM    114  F   UNL     1       0.295  11.653 -11.797  1.00  0.00    -0.203 F 
ATOM    115  C   UNL     1      -0.484   9.515 -12.410  1.00  0.00     0.198 A 
ATOM    116  C   UNL     1      -1.463   8.079 -10.755  1.00  0.00     0.198 A 
ATOM    117  F   UNL     1      -1.669   8.820  -8.530  1.00  0.00    -0.203 F 
ATOM    118  F   UNL     1      -0.125   9.748 -13.679  1.00  0.00    -0.200 F 
ATOM    119  C   UNL     1      -1.071   8.307 -12.066  1.00  0.00     0.200 A 
ATOM    120  F   UNL     1      -2.016   6.907 -10.415  1.00  0.00    -0.200 F 
ATOM    121  F   UNL     1      -1.261   7.362 -12.997  1.00  0.00    -0.200 F 
ENDBRANCH  83 111
BRANCH  98 122
ATOM    122  C   UNL     1      -3.369  16.590  -8.828  1.00  0.00     0.064 A 
ATOM    123  C   UNL     1      -4.727  16.238  -8.807  1.00  0.00     0.173 A 
ATOM    124  C   UNL     1      -3.005  17.766  -9.502  1.00  0.00     0.173 A 
ATOM    125  F   UNL     1      -5.124  15.114  -8.191  1.00  0.00    -0.203 F 
ATOM    126  C   UNL     1      -5.680  17.022  -9.453  1.00  0.00     0.198 A 
ATOM    127  C   UNL     1      -3.964  18.563 -10.121  1.00  0.00     0.198 A 
ATOM    128  F   UNL     1      -1.721  18.149  -9.547  1.00  0.00    -0.203 F 
ATOM    129  F   UNL     1      -6.965  16.643  -9.458  1.00  0.00    -0.200 F 
ATOM    130  C   UNL     1      -5.299  18.187 -10.102  1.00  0.00     0.200 A 
ATOM    131  F   UNL     1      -3.596  19.695 -10.737  1.00  0.00    -0.200 F 
ATOM    132  F   UNL     1      -6.218  18.945 -10.716  1.00  0.00    -0.200 F 
ENDBRANCH  98 122
ENDBRANCH  63  66
ENDBRANCH  53  56
ENDBRANCH  49  52
ENDBRANCH  46  49
ENDBRANCH  43  46
ENDBRANCH  40  43
ENDBRANCH   1  40
TORSDOF 17
