REMARK SMILES C[C@@H](C(=O)NCCCCCCNC(=O)c1ccc(-c2c3nc(c(-c4c(F)c(F)c(F)c(F)c4F)c4ccc([nH]4)c(-c4c(F)c(F)c(F)c(F)c4F)c4nc(c(-c5c(F)c(F)c(F)c(F)c5F)c5ccc2[nH]5)C=C4)C=C3)cc1)c1ccc(C[C@H]2CCC[C@@H]2O)cc1
REMARK SMILES IDX 7 1 6 4 5 7 3 8 4 9 2 11 1 13 78 17 79 18 90 19 80 20 89 22
REMARK SMILES IDX 81 24 82 27 83 30 84 31 87 32 85 34 86 37 88 43 8 45 9 48
REMARK SMILES IDX 10 51 11 54 12 57 13 58 14 60 15 61 16 62 77 63 17 64 76 66
REMARK SMILES IDX 18 68 19 71 20 72 70 73 21 74 75 75 69 76 71 77 22 78 74 79
REMARK SMILES IDX 68 81 67 83 23 85 55 88 35 89 54 90 36 91 39 92 53 93 72 94
REMARK SMILES IDX 37 95 38 97 52 99 73 100 40 103 24 105 25 106 33 107 26 108
REMARK SMILES IDX 27 109 31 110 34 111 28 112 29 113 32 114 30 115 56 116
REMARK SMILES IDX 57 117 65 118 58 119 59 120 63 121 66 122 60 123 61 124
REMARK SMILES IDX 64 125 62 126 41 127 42 128 50 129 43 130 44 131 48 132
REMARK SMILES IDX 51 133 45 134 46 135 49 136 47 137
REMARK H PARENT 7 2 7 3 6 5 6 6 5 10 2 12 1 14 1 15 1 16 79 21 90 23 80 25
REMARK H PARENT 89 26 82 28 82 29 83 33 84 35 84 36 87 38 85 39 85 40 86 41
REMARK H PARENT 86 42 88 44 8 46 8 47 9 49 9 50 10 52 10 53 11 55 11 56 12 59
REMARK H PARENT 16 65 77 67 17 69 76 70 75 80 69 82 71 84 74 86 68 87 36 96
REMARK H PARENT 39 98 72 101 37 102 73 104
REMARK Flexibility Score: inf
ROOT
ATOM      1  C   UNL     1       4.209  -1.335  -0.707  1.00  0.00    -0.036 C 
ATOM      2  H   UNL     1       3.521  -1.593   0.071  1.00  0.00     0.028 H 
ATOM      3  H   UNL     1       4.961  -0.648  -0.379  1.00  0.00     0.028 H 
ENDROOT
BRANCH   1   4
ATOM      4  C   UNL     1       3.430  -0.639  -1.826  1.00  0.00     0.017 C 
ATOM      5  H   UNL     1       2.962   0.241  -1.437  1.00  0.00     0.049 H 
ATOM      6  H   UNL     1       4.108  -0.376  -2.611  1.00  0.00     0.049 H 
BRANCH   4   7
ATOM      7  N   UNL     1       2.417  -1.523  -2.355  1.00  0.00    -0.356 N 
ATOM      8  C   UNL     1       1.069  -1.541  -2.157  1.00  0.00     0.227 C 
ATOM      9  O   UNL     1       0.472  -2.516  -2.615  1.00  0.00    -0.274 OA
ATOM     10  H   UNL     1       2.755  -2.227  -2.955  1.00  0.00     0.163 HD
BRANCH   8  11
ATOM     11  C   UNL     1       0.388  -0.359  -1.449  1.00  0.00     0.060 C 
ATOM     12  H   UNL     1       0.801   0.488  -1.956  1.00  0.00     0.045 H 
BRANCH  11  13
ATOM     13  C   UNL     1       0.708  -0.274   0.048  1.00  0.00    -0.049 C 
ATOM     14  H   UNL     1       1.769  -0.282   0.187  1.00  0.00     0.024 H 
ATOM     15  H   UNL     1       0.276  -1.112   0.553  1.00  0.00     0.024 H 
ATOM     16  H   UNL     1       0.303   0.632   0.448  1.00  0.00     0.024 H 
ENDBRANCH  11  13
BRANCH  11  17
ATOM     17  C   UNL     1      -1.129  -0.344  -1.593  1.00  0.00    -0.036 A 
ATOM     18  C   UNL     1      -1.785   0.846  -1.933  1.00  0.00    -0.058 A 
ATOM     19  C   UNL     1      -1.901  -1.473  -1.279  1.00  0.00    -0.058 A 
ATOM     20  C   UNL     1      -3.178   0.914  -1.913  1.00  0.00    -0.059 A 
ATOM     21  H   UNL     1      -1.235   1.677  -2.200  1.00  0.00     0.063 H 
ATOM     22  C   UNL     1      -3.291  -1.404  -1.262  1.00  0.00    -0.059 A 
ATOM     23  H   UNL     1      -1.432  -2.365  -1.059  1.00  0.00     0.063 H 
ATOM     24  C   UNL     1      -3.940  -0.195  -1.527  1.00  0.00    -0.048 A 
ATOM     25  H   UNL     1      -3.651   1.790  -2.185  1.00  0.00     0.063 H 
ATOM     26  H   UNL     1      -3.844  -2.249  -1.052  1.00  0.00     0.063 H 
BRANCH  24  27
ATOM     27  C   UNL     1      -5.429  -0.078  -1.313  1.00  0.00    -0.023 C 
ATOM     28  H   UNL     1      -5.856  -1.054  -1.411  1.00  0.00     0.032 H 
ATOM     29  H   UNL     1      -5.784   0.614  -2.048  1.00  0.00     0.032 H 
BRANCH  27  30
ATOM     30  C   UNL     1      -5.843   0.492   0.056  1.00  0.00    -0.011 C 
ATOM     31  C   UNL     1      -5.314  -0.246   1.298  1.00  0.00    -0.048 C 
ATOM     32  C   UNL     1      -5.457   1.954   0.298  1.00  0.00     0.057 C 
ATOM     33  H   UNL     1      -6.901   0.365  -0.038  1.00  0.00     0.033 H 
ATOM     34  C   UNL     1      -5.054   0.834   2.355  1.00  0.00    -0.050 C 
ATOM     35  H   UNL     1      -4.406  -0.763   1.065  1.00  0.00     0.027 H 
ATOM     36  H   UNL     1      -6.014  -0.975   1.648  1.00  0.00     0.027 H 
ATOM     37  C   UNL     1      -5.665   2.109   1.796  1.00  0.00    -0.027 C 
ATOM     38  H   UNL     1      -4.461   2.192  -0.011  1.00  0.00     0.060 H 
ATOM     39  H   UNL     1      -4.003   0.960   2.510  1.00  0.00     0.027 H 
ATOM     40  H   UNL     1      -5.481   0.572   3.301  1.00  0.00     0.027 H 
ATOM     41  H   UNL     1      -5.157   2.975   2.168  1.00  0.00     0.029 H 
ATOM     42  H   UNL     1      -6.690   2.243   2.070  1.00  0.00     0.029 H 
BRANCH  32  43
ATOM     43  O   UNL     1      -6.282   2.830  -0.444  1.00  0.00    -0.393 OA
ATOM     44  H   UNL     1      -7.211   2.672  -0.215  1.00  0.00     0.210 HD
ENDBRANCH  32  43
ENDBRANCH  27  30
ENDBRANCH  24  27
ENDBRANCH  11  17
ENDBRANCH   8  11
ENDBRANCH   4   7
ENDBRANCH   1   4
BRANCH   1  45
ATOM     45  C   UNL     1       4.935  -2.611  -1.155  1.00  0.00    -0.052 C 
ATOM     46  H   UNL     1       4.196  -3.341  -1.412  1.00  0.00     0.027 H 
ATOM     47  H   UNL     1       5.555  -2.909  -0.335  1.00  0.00     0.027 H 
BRANCH  45  48
ATOM     48  C   UNL     1       5.867  -2.433  -2.357  1.00  0.00    -0.052 C 
ATOM     49  H   UNL     1       5.268  -2.197  -3.212  1.00  0.00     0.027 H 
ATOM     50  H   UNL     1       6.405  -3.351  -2.463  1.00  0.00     0.027 H 
BRANCH  48  51
ATOM     51  C   UNL     1       6.913  -1.331  -2.189  1.00  0.00    -0.036 C 
ATOM     52  H   UNL     1       6.404  -0.398  -2.072  1.00  0.00     0.028 H 
ATOM     53  H   UNL     1       7.532  -1.357  -3.062  1.00  0.00     0.028 H 
BRANCH  51  54
ATOM     54  C   UNL     1       7.833  -1.528  -0.993  1.00  0.00     0.018 C 
ATOM     55  H   UNL     1       7.236  -1.623  -0.110  1.00  0.00     0.049 H 
ATOM     56  H   UNL     1       8.482  -0.679  -0.931  1.00  0.00     0.049 H 
BRANCH  54  57
ATOM     57  N   UNL     1       8.659  -2.716  -1.133  1.00  0.00    -0.352 N 
ATOM     58  C   UNL     1      10.020  -2.832  -1.027  1.00  0.00     0.251 C 
ATOM     59  H   UNL     1       8.175  -3.550  -1.331  1.00  0.00     0.163 HD
ATOM     60  O   UNL     1      10.587  -3.864  -1.380  1.00  0.00    -0.269 OA
BRANCH  58  61
ATOM     61  C   UNL     1      10.808  -1.701  -0.497  1.00  0.00     0.039 A 
ATOM     62  C   UNL     1      12.000  -1.348  -1.131  1.00  0.00    -0.049 A 
ATOM     63  C   UNL     1      10.371  -0.996   0.628  1.00  0.00    -0.049 A 
ATOM     64  C   UNL     1      12.739  -0.264  -0.656  1.00  0.00    -0.053 A 
ATOM     65  H   UNL     1      12.334  -1.886  -1.946  1.00  0.00     0.063 H 
ATOM     66  C   UNL     1      11.059   0.137   1.045  1.00  0.00    -0.053 A 
ATOM     67  H   UNL     1       9.540  -1.317   1.149  1.00  0.00     0.063 H 
ATOM     68  C   UNL     1      12.264   0.499   0.424  1.00  0.00    -0.014 A 
ATOM     69  H   UNL     1      13.638  -0.021  -1.099  1.00  0.00     0.063 H 
ATOM     70  H   UNL     1      10.683   0.714   1.813  1.00  0.00     0.063 H 
BRANCH  68  71
ATOM     71  C   UNL     1      13.037   1.650   0.951  1.00  0.00     0.031 A 
ATOM     72  C   UNL     1      13.575   1.608   2.355  1.00  0.00     0.074 A 
ATOM     73  C   UNL     1      13.211   2.748   0.192  1.00  0.00     0.049 A 
ATOM     74  N   UNL     1      14.234   2.523   3.020  1.00  0.00    -0.248 NA
ATOM     75  C   UNL     1      13.306   0.385   3.128  1.00  0.00    -0.034 C 
ATOM     76  C   UNL     1      12.704   2.924  -1.169  1.00  0.00    -0.036 A 
ATOM     77  N   UNL     1      13.864   3.925   0.459  1.00  0.00    -0.354 N 
ATOM     78  C   UNL     1      14.437   1.995   4.288  1.00  0.00     0.074 A 
ATOM     79  C   UNL     1      13.776   0.709   4.322  1.00  0.00    -0.034 C 
ATOM     80  H   UNL     1      12.866  -0.496   2.820  1.00  0.00     0.065 H 
ATOM     81  C   UNL     1      13.094   4.122  -1.631  1.00  0.00    -0.036 A 
ATOM     82  H   UNL     1      12.136   2.237  -1.690  1.00  0.00     0.065 H 
ATOM     83  C   UNL     1      13.844   4.814  -0.587  1.00  0.00     0.049 A 
ATOM     84  H   UNL     1      14.304   4.114   1.319  1.00  0.00     0.167 HD
ATOM     85  C   UNL     1      15.133   2.522   5.324  1.00  0.00     0.037 A 
ATOM     86  H   UNL     1      13.684   0.122   5.166  1.00  0.00     0.065 H 
ATOM     87  H   UNL     1      12.896   4.495  -2.573  1.00  0.00     0.065 H 
ATOM     88  C   UNL     1      14.374   6.048  -0.688  1.00  0.00     0.037 A 
ATOM     89  C   UNL     1      15.810   3.791   5.274  1.00  0.00     0.049 A 
ATOM     90  C   UNL     1      15.135   6.617   0.479  1.00  0.00     0.074 A 
ATOM     91  C   UNL     1      16.597   4.389   6.242  1.00  0.00    -0.036 A 
ATOM     92  N   UNL     1      15.773   4.663   4.194  1.00  0.00    -0.354 N 
ATOM     93  N   UNL     1      15.385   6.080   1.649  1.00  0.00    -0.248 NA
ATOM     94  C   UNL     1      15.697   7.963   0.305  1.00  0.00    -0.034 C 
ATOM     95  C   UNL     1      16.985   5.649   5.773  1.00  0.00    -0.036 A 
ATOM     96  H   UNL     1      16.855   3.977   7.152  1.00  0.00     0.065 H 
ATOM     97  C   UNL     1      16.500   5.807   4.484  1.00  0.00     0.049 A 
ATOM     98  H   UNL     1      15.300   4.493   3.347  1.00  0.00     0.167 HD
ATOM     99  C   UNL     1      16.168   7.000   2.333  1.00  0.00     0.074 A 
ATOM    100  C   UNL     1      16.355   8.128   1.444  1.00  0.00    -0.034 C 
ATOM    101  H   UNL     1      15.604   8.610  -0.494  1.00  0.00     0.065 H 
ATOM    102  H   UNL     1      17.538   6.344   6.298  1.00  0.00     0.065 H 
ATOM    103  C   UNL     1      16.689   6.916   3.582  1.00  0.00     0.037 A 
ATOM    104  H   UNL     1      16.929   8.956   1.668  1.00  0.00     0.065 H 
BRANCH  85 105
ATOM    105  C   UNL     1      15.181   1.730   6.601  1.00  0.00     0.064 A 
ATOM    106  C   UNL     1      15.847   0.496   6.686  1.00  0.00     0.173 A 
ATOM    107  C   UNL     1      14.555   2.213   7.759  1.00  0.00     0.173 A 
ATOM    108  F   UNL     1      16.454  -0.021   5.606  1.00  0.00    -0.203 F 
ATOM    109  C   UNL     1      15.841  -0.244   7.866  1.00  0.00     0.198 A 
ATOM    110  C   UNL     1      14.585   1.490   8.949  1.00  0.00     0.198 A 
ATOM    111  F   UNL     1      13.909   3.389   7.740  1.00  0.00    -0.203 F 
ATOM    112  F   UNL     1      16.421  -1.452   7.900  1.00  0.00    -0.200 F 
ATOM    113  C   UNL     1      15.216   0.256   8.998  1.00  0.00     0.200 A 
ATOM    114  F   UNL     1      13.993   1.982  10.046  1.00  0.00    -0.200 F 
ATOM    115  F   UNL     1      15.211  -0.456  10.133  1.00  0.00    -0.200 F 
ENDBRANCH  85 105
BRANCH  88 116
ATOM    116  C   UNL     1      14.246   6.807  -1.960  1.00  0.00     0.064 A 
ATOM    117  C   UNL     1      15.367   7.045  -2.768  1.00  0.00     0.173 A 
ATOM    118  C   UNL     1      13.010   7.306  -2.396  1.00  0.00     0.173 A 
ATOM    119  F   UNL     1      16.574   6.604  -2.384  1.00  0.00    -0.203 F 
ATOM    120  C   UNL     1      15.261   7.769  -3.953  1.00  0.00     0.198 A 
ATOM    121  C   UNL     1      12.900   8.005  -3.597  1.00  0.00     0.198 A 
ATOM    122  F   UNL     1      11.906   7.100  -1.664  1.00  0.00    -0.203 F 
ATOM    123  F   UNL     1      16.357   8.020  -4.682  1.00  0.00    -0.200 F 
ATOM    124  C   UNL     1      14.027   8.243  -4.370  1.00  0.00     0.200 A 
ATOM    125  F   UNL     1      11.703   8.447  -4.004  1.00  0.00    -0.200 F 
ATOM    126  F   UNL     1      13.924   8.935  -5.513  1.00  0.00    -0.200 F 
ENDBRANCH  88 116
BRANCH 103 127
ATOM    127  C   UNL     1      17.566   8.047   4.043  1.00  0.00     0.064 A 
ATOM    128  C   UNL     1      17.052   9.321   4.325  1.00  0.00     0.173 A 
ATOM    129  C   UNL     1      18.941   7.837   4.236  1.00  0.00     0.173 A 
ATOM    130  F   UNL     1      15.748   9.579   4.144  1.00  0.00    -0.203 F 
ATOM    131  C   UNL     1      17.887  10.351   4.751  1.00  0.00     0.198 A 
ATOM    132  C   UNL     1      19.766   8.858   4.698  1.00  0.00     0.198 A 
ATOM    133  F   UNL     1      19.483   6.635   3.990  1.00  0.00    -0.203 F 
ATOM    134  F   UNL     1      17.384  11.576   4.958  1.00  0.00    -0.200 F 
ATOM    135  C   UNL     1      19.241  10.117   4.944  1.00  0.00     0.200 A 
ATOM    136  F   UNL     1      21.070   8.624   4.902  1.00  0.00    -0.200 F 
ATOM    137  F   UNL     1      20.041  11.108   5.362  1.00  0.00    -0.200 F 
ENDBRANCH 103 127
ENDBRANCH  68  71
ENDBRANCH  58  61
ENDBRANCH  54  57
ENDBRANCH  51  54
ENDBRANCH  48  51
ENDBRANCH  45  48
ENDBRANCH   1  45
TORSDOF 18
