REMARK SMILES Cc1c(-c2nn(-c3ccccc3)cc2/C=N/O)nnn1-c1ccc(C(=O)NCCCCCCNC(=O)c2ccc(-c3c4nc(c(-c5c(F)c(F)c(F)c(F)c5F)c5ccc([nH]5)c(-c5c(F)c(F)c(F)c(F)c5F)c5nc(c(-c6c(F)c(F)c(F)c(F)c6F)c6ccc3[nH]6)C=C5)C=C4)cc2)cc1
REMARK SMILES IDX 29 1 28 4 27 7 25 8 26 9 24 11 21 12 22 13 101 14 23 15
REMARK SMILES IDX 100 17 20 21 2 22 3 23 18 24 19 25 1 26 4 30 5 31 14 32 6 33
REMARK SMILES IDX 13 34 15 36 16 37 17 39 7 41 8 42 12 43 9 44 11 46 10 48
REMARK SMILES IDX 30 52 31 55 32 58 33 61 34 64 35 65 36 67 37 68 38 69 99 70
REMARK SMILES IDX 39 71 98 73 40 75 41 78 42 79 92 80 43 81 97 82 91 83 93 84
REMARK SMILES IDX 44 85 96 86 90 88 89 90 45 92 77 95 57 96 76 97 58 98 61 99
REMARK SMILES IDX 75 100 94 101 59 102 60 104 74 106 95 107 62 110 46 112
REMARK SMILES IDX 47 113 55 114 48 115 49 116 53 117 56 118 50 119 51 120
REMARK SMILES IDX 54 121 52 122 78 123 79 124 87 125 80 126 81 127 85 128
REMARK SMILES IDX 88 129 82 130 83 131 86 132 84 133 63 134 64 135 72 136
REMARK SMILES IDX 65 137 66 138 70 139 73 140 67 141 68 142 71 143 69 144
REMARK H PARENT 29 2 29 3 28 5 28 6 27 10 22 16 101 18 23 19 100 20 1 27 1 28
REMARK H PARENT 1 29 13 35 15 38 17 40 8 45 12 47 9 49 11 50 10 51 30 53 30 54
REMARK H PARENT 31 56 31 57 32 59 32 60 33 62 33 63 34 66 38 72 99 74 39 76
REMARK H PARENT 98 77 97 87 91 89 93 91 96 93 90 94 58 103 61 105 94 108
REMARK H PARENT 59 109 95 111
REMARK Flexibility Score: inf
ROOT
ATOM      1  C   UNL     1       4.323   6.811  -0.644  1.00  0.00    -0.036 C 
ATOM      2  H   UNL     1       4.033   6.800  -1.674  1.00  0.00     0.028 H 
ATOM      3  H   UNL     1       5.147   6.156  -0.451  1.00  0.00     0.028 H 
ENDROOT
BRANCH   1   4
ATOM      4  C   UNL     1       3.144   6.320   0.199  1.00  0.00     0.018 C 
ATOM      5  H   UNL     1       3.093   5.252   0.149  1.00  0.00     0.049 H 
ATOM      6  H   UNL     1       3.285   6.628   1.214  1.00  0.00     0.049 H 
BRANCH   4   7
ATOM      7  N   UNL     1       1.909   6.883  -0.303  1.00  0.00    -0.352 N 
ATOM      8  C   UNL     1       0.862   6.382  -1.029  1.00  0.00     0.251 C 
ATOM      9  O   UNL     1      -0.032   7.175  -1.328  1.00  0.00    -0.269 OA
ATOM     10  H   UNL     1       1.797   7.834  -0.072  1.00  0.00     0.163 HD
BRANCH   8  11
ATOM     11  C   UNL     1       0.710   4.947  -1.407  1.00  0.00     0.039 A 
ATOM     12  C   UNL     1       0.171   2.248  -1.969  1.00  0.00     0.067 A 
ATOM     13  C   UNL     1      -0.864   3.182  -2.019  1.00  0.00    -0.036 A 
ATOM     14  C   UNL     1       1.482   2.661  -1.719  1.00  0.00    -0.036 A 
ATOM     15  C   UNL     1      -0.596   4.514  -1.700  1.00  0.00    -0.047 A 
ATOM     16  H   UNL     1      -1.817   2.891  -2.288  1.00  0.00     0.065 H 
ATOM     17  C   UNL     1       1.751   4.018  -1.504  1.00  0.00    -0.047 A 
ATOM     18  H   UNL     1       2.248   1.970  -1.692  1.00  0.00     0.065 H 
ATOM     19  H   UNL     1      -1.371   5.195  -1.679  1.00  0.00     0.063 H 
ATOM     20  H   UNL     1       2.728   4.337  -1.417  1.00  0.00     0.063 H 
BRANCH  12  21
ATOM     21  N   UNL     1      -0.109   0.891  -2.227  1.00  0.00    -0.217 N 
ATOM     22  C   UNL     1       0.358  -0.231  -1.573  1.00  0.00     0.071 A 
ATOM     23  C   UNL     1      -0.073  -1.262  -2.384  1.00  0.00     0.137 A 
ATOM     24  N   UNL     1      -0.848  -0.778  -3.396  1.00  0.00    -0.128 NA
ATOM     25  N   UNL     1      -0.930   0.538  -3.244  1.00  0.00    -0.061 NA
BRANCH  22  26
ATOM     26  C   UNL     1       1.036  -0.231  -0.256  1.00  0.00    -0.020 C 
ATOM     27  H   UNL     1       1.291  -1.235   0.014  1.00  0.00     0.030 H 
ATOM     28  H   UNL     1       0.380   0.180   0.483  1.00  0.00     0.030 H 
ATOM     29  H   UNL     1       1.925   0.360  -0.312  1.00  0.00     0.030 H 
ENDBRANCH  22  26
BRANCH  23  30
ATOM     30  C   UNL     1       0.109  -2.695  -2.201  1.00  0.00     0.124 A 
ATOM     31  N   UNL     1      -0.610  -3.382  -1.308  1.00  0.00    -0.165 NA
ATOM     32  C   UNL     1       1.040  -3.504  -2.890  1.00  0.00     0.044 A 
ATOM     33  N   UNL     1      -0.088  -4.626  -1.340  1.00  0.00    -0.240 N 
ATOM     34  C   UNL     1       0.911  -4.739  -2.280  1.00  0.00     0.040 A 
ATOM     35  H   UNL     1       1.462  -5.586  -2.491  1.00  0.00     0.085 H 
BRANCH  32  36
ATOM     36  C   UNL     1       1.944  -3.209  -3.973  1.00  0.00     0.077 C 
ATOM     37  N   UNL     1       2.117  -1.989  -4.360  1.00  0.00    -0.097 NA
ATOM     38  H   UNL     1       2.455  -3.975  -4.440  1.00  0.00     0.088 H 
BRANCH  37  39
ATOM     39  O   UNL     1       3.011  -1.968  -5.437  1.00  0.00    -0.411 OA
ATOM     40  H   UNL     1       3.244  -1.154  -5.837  1.00  0.00     0.330 HD
ENDBRANCH  37  39
ENDBRANCH  32  36
BRANCH  33  41
ATOM     41  C   UNL     1      -0.545  -5.618  -0.443  1.00  0.00     0.065 A 
ATOM     42  C   UNL     1      -1.882  -5.592  -0.021  1.00  0.00    -0.036 A 
ATOM     43  C   UNL     1       0.331  -6.593   0.047  1.00  0.00    -0.036 A 
ATOM     44  C   UNL     1      -2.345  -6.555   0.874  1.00  0.00    -0.060 A 
ATOM     45  H   UNL     1      -2.521  -4.862  -0.373  1.00  0.00     0.065 H 
ATOM     46  C   UNL     1      -0.129  -7.521   0.983  1.00  0.00    -0.060 A 
ATOM     47  H   UNL     1       1.309  -6.625  -0.281  1.00  0.00     0.065 H 
ATOM     48  C   UNL     1      -1.466  -7.508   1.387  1.00  0.00    -0.062 A 
ATOM     49  H   UNL     1      -3.337  -6.562   1.157  1.00  0.00     0.062 H 
ATOM     50  H   UNL     1       0.520  -8.218   1.378  1.00  0.00     0.062 H 
ATOM     51  H   UNL     1      -1.804  -8.207   2.067  1.00  0.00     0.062 H 
ENDBRANCH  33  41
ENDBRANCH  23  30
ENDBRANCH  12  21
ENDBRANCH   8  11
ENDBRANCH   4   7
ENDBRANCH   1   4
BRANCH   1  52
ATOM     52  C   UNL     1       4.775   8.233  -0.280  1.00  0.00    -0.052 C 
ATOM     53  H   UNL     1       3.976   8.904  -0.519  1.00  0.00     0.027 H 
ATOM     54  H   UNL     1       5.669   8.410  -0.840  1.00  0.00     0.027 H 
BRANCH  52  55
ATOM     55  C   UNL     1       5.152   8.452   1.197  1.00  0.00    -0.052 C 
ATOM     56  H   UNL     1       4.252   8.410   1.773  1.00  0.00     0.027 H 
ATOM     57  H   UNL     1       5.651   9.399   1.227  1.00  0.00     0.027 H 
BRANCH  55  58
ATOM     58  C   UNL     1       6.144   7.446   1.802  1.00  0.00    -0.036 C 
ATOM     59  H   UNL     1       5.796   6.457   1.590  1.00  0.00     0.028 H 
ATOM     60  H   UNL     1       6.191   7.639   2.853  1.00  0.00     0.028 H 
BRANCH  58  61
ATOM     61  C   UNL     1       7.552   7.591   1.252  1.00  0.00     0.018 C 
ATOM     62  H   UNL     1       7.508   7.560   0.183  1.00  0.00     0.049 H 
ATOM     63  H   UNL     1       8.139   6.787   1.643  1.00  0.00     0.049 H 
BRANCH  61  64
ATOM     64  N   UNL     1       8.185   8.851   1.662  1.00  0.00    -0.352 N 
ATOM     65  C   UNL     1       9.413   9.358   1.286  1.00  0.00     0.251 C 
ATOM     66  H   UNL     1       7.666   9.406   2.288  1.00  0.00     0.163 HD
ATOM     67  O   UNL     1       9.980  10.227   1.945  1.00  0.00    -0.269 OA
BRANCH  65  68
ATOM     68  C   UNL     1      10.025   8.843   0.055  1.00  0.00     0.039 A 
ATOM     69  C   UNL     1      11.391   8.571  -0.062  1.00  0.00    -0.049 A 
ATOM     70  C   UNL     1       9.152   8.582  -0.991  1.00  0.00    -0.049 A 
ATOM     71  C   UNL     1      11.850   7.972  -1.234  1.00  0.00    -0.053 A 
ATOM     72  H   UNL     1      12.045   8.808   0.700  1.00  0.00     0.063 H 
ATOM     73  C   UNL     1       9.555   7.767  -2.003  1.00  0.00    -0.053 A 
ATOM     74  H   UNL     1       8.210   9.002  -1.002  1.00  0.00     0.063 H 
ATOM     75  C   UNL     1      10.914   7.570  -2.196  1.00  0.00    -0.014 A 
ATOM     76  H   UNL     1      12.860   7.826  -1.389  1.00  0.00     0.063 H 
ATOM     77  H   UNL     1       8.863   7.304  -2.613  1.00  0.00     0.063 H 
BRANCH  75  78
ATOM     78  C   UNL     1      11.288   6.933  -3.447  1.00  0.00     0.031 A 
ATOM     79  C   UNL     1      11.988   5.627  -3.323  1.00  0.00     0.074 A 
ATOM     80  C   UNL     1      10.776   7.375  -4.617  1.00  0.00     0.049 A 
ATOM     81  N   UNL     1      13.165   5.314  -3.751  1.00  0.00    -0.248 NA
ATOM     82  C   UNL     1      11.336   4.562  -2.544  1.00  0.00    -0.034 C 
ATOM     83  C   UNL     1       9.795   8.449  -4.854  1.00  0.00    -0.036 A 
ATOM     84  N   UNL     1      10.941   6.859  -5.860  1.00  0.00    -0.354 N 
ATOM     85  C   UNL     1      13.350   3.968  -3.439  1.00  0.00     0.074 A 
ATOM     86  C   UNL     1      12.263   3.603  -2.570  1.00  0.00    -0.034 C 
ATOM     87  H   UNL     1      10.406   4.558  -2.096  1.00  0.00     0.065 H 
ATOM     88  C   UNL     1       9.285   8.337  -6.099  1.00  0.00    -0.036 A 
ATOM     89  H   UNL     1       9.537   9.177  -4.170  1.00  0.00     0.065 H 
ATOM     90  C   UNL     1      10.033   7.318  -6.805  1.00  0.00     0.049 A 
ATOM     91  H   UNL     1      11.650   6.210  -6.076  1.00  0.00     0.167 HD
ATOM     92  C   UNL     1      14.280   3.212  -4.088  1.00  0.00     0.037 A 
ATOM     93  H   UNL     1      12.208   2.719  -2.039  1.00  0.00     0.065 H 
ATOM     94  H   UNL     1       8.497   8.883  -6.481  1.00  0.00     0.065 H 
ATOM     95  C   UNL     1       9.897   6.858  -8.071  1.00  0.00     0.037 A 
ATOM     96  C   UNL     1      15.221   4.045  -4.794  1.00  0.00     0.049 A 
ATOM     97  C   UNL     1      11.155   6.140  -8.406  1.00  0.00     0.074 A 
ATOM     98  C   UNL     1      16.147   4.993  -4.406  1.00  0.00    -0.036 A 
ATOM     99  N   UNL     1      15.020   4.254  -6.137  1.00  0.00    -0.354 N 
ATOM    100  N   UNL     1      12.313   6.731  -8.520  1.00  0.00    -0.248 NA
ATOM    101  C   UNL     1      11.207   4.713  -8.123  1.00  0.00    -0.034 C 
ATOM    102  C   UNL     1      16.057   6.019  -5.394  1.00  0.00    -0.036 A 
ATOM    103  H   UNL     1      16.769   4.966  -3.583  1.00  0.00     0.065 H 
ATOM    104  C   UNL     1      15.140   5.604  -6.360  1.00  0.00     0.049 A 
ATOM    105  H   UNL     1      14.827   3.565  -6.814  1.00  0.00     0.167 HD
ATOM    106  C   UNL     1      13.217   5.865  -7.921  1.00  0.00     0.074 A 
ATOM    107  C   UNL     1      12.488   4.607  -7.761  1.00  0.00    -0.034 C 
ATOM    108  H   UNL     1      10.469   3.994  -8.185  1.00  0.00     0.065 H 
ATOM    109  H   UNL     1      16.577   6.910  -5.393  1.00  0.00     0.065 H 
ATOM    110  C   UNL     1      14.366   6.327  -7.344  1.00  0.00     0.037 A 
ATOM    111  H   UNL     1      12.915   3.737  -7.408  1.00  0.00     0.065 H 
BRANCH  92 112
ATOM    112  C   UNL     1      14.168   1.732  -4.353  1.00  0.00     0.064 A 
ATOM    113  C   UNL     1      15.273   1.043  -4.896  1.00  0.00     0.173 A 
ATOM    114  C   UNL     1      12.947   1.024  -4.366  1.00  0.00     0.173 A 
ATOM    115  F   UNL     1      16.483   1.620  -4.945  1.00  0.00    -0.203 F 
ATOM    116  C   UNL     1      15.144  -0.221  -5.479  1.00  0.00     0.198 A 
ATOM    117  C   UNL     1      12.834  -0.259  -4.899  1.00  0.00     0.198 A 
ATOM    118  F   UNL     1      11.797   1.581  -3.969  1.00  0.00    -0.203 F 
ATOM    119  F   UNL     1      16.195  -0.782  -6.092  1.00  0.00    -0.200 F 
ATOM    120  C   UNL     1      13.922  -0.868  -5.486  1.00  0.00     0.200 A 
ATOM    121  F   UNL     1      11.637  -0.864  -4.909  1.00  0.00    -0.200 F 
ATOM    122  F   UNL     1      13.781  -2.051  -6.097  1.00  0.00    -0.200 F 
ENDBRANCH  92 112
BRANCH  95 123
ATOM    123  C   UNL     1       8.646   6.707  -8.847  1.00  0.00     0.064 A 
ATOM    124  C   UNL     1       8.669   6.561 -10.242  1.00  0.00     0.173 A 
ATOM    125  C   UNL     1       7.421   6.431  -8.206  1.00  0.00     0.173 A 
ATOM    126  F   UNL     1       9.808   6.761 -10.919  1.00  0.00    -0.203 F 
ATOM    127  C   UNL     1       7.539   6.139 -10.952  1.00  0.00     0.198 A 
ATOM    128  C   UNL     1       6.294   6.014  -8.916  1.00  0.00     0.198 A 
ATOM    129  F   UNL     1       7.322   6.466  -6.869  1.00  0.00    -0.203 F 
ATOM    130  F   UNL     1       7.615   5.952 -12.277  1.00  0.00    -0.200 F 
ATOM    131  C   UNL     1       6.357   5.856 -10.288  1.00  0.00     0.200 A 
ATOM    132  F   UNL     1       5.169   5.704  -8.255  1.00  0.00    -0.200 F 
ATOM    133  F   UNL     1       5.295   5.390 -10.960  1.00  0.00    -0.200 F 
ENDBRANCH  95 123
BRANCH 110 134
ATOM    134  C   UNL     1      14.729   7.774  -7.557  1.00  0.00     0.064 A 
ATOM    135  C   UNL     1      13.961   8.855  -7.087  1.00  0.00     0.173 A 
ATOM    136  C   UNL     1      15.977   8.076  -8.115  1.00  0.00     0.173 A 
ATOM    137  F   UNL     1      12.806   8.652  -6.447  1.00  0.00    -0.203 F 
ATOM    138  C   UNL     1      14.402  10.172  -7.208  1.00  0.00     0.198 A 
ATOM    139  C   UNL     1      16.433   9.389  -8.203  1.00  0.00     0.198 A 
ATOM    140  F   UNL     1      16.784   7.086  -8.527  1.00  0.00    -0.203 F 
ATOM    141  F   UNL     1      13.642  11.180  -6.755  1.00  0.00    -0.200 F 
ATOM    142  C   UNL     1      15.642  10.437  -7.759  1.00  0.00     0.200 A 
ATOM    143  F   UNL     1      17.657   9.637  -8.689  1.00  0.00    -0.200 F 
ATOM    144  F   UNL     1      16.088  11.699  -7.837  1.00  0.00    -0.200 F 
ENDBRANCH 110 134
ENDBRANCH  75  78
ENDBRANCH  65  68
ENDBRANCH  61  64
ENDBRANCH  58  61
ENDBRANCH  55  58
ENDBRANCH  52  55
ENDBRANCH   1  52
TORSDOF 19
