REMARK SMILES CC(=O)Oc1ccccc1SCCCCCC(=O)NCCCCCCNC(=O)c1ccc(-c2c3nc(c(-c4c(F)c(F)c(F)c(F)c4F)c4ccc([nH]4)c(-c4c(F)c(F)c(F)c(F)c4F)c4nc(c(-c5c(F)c(F)c(F)c(F)c5F)c5ccc2[nH]5)C=C4)C=C3)cc1
REMARK SMILES IDX 17 1 18 2 19 3 16 5 15 8 14 11 13 14 12 17 11 20 10 21 5 22
REMARK SMILES IDX 6 23 7 24 9 26 8 27 4 31 2 32 3 33 1 34 20 38 21 41 22 44
REMARK SMILES IDX 23 47 24 50 25 53 26 56 27 57 28 59 29 60 30 61 91 62 31 63
REMARK SMILES IDX 90 65 32 67 33 70 34 71 84 72 35 73 89 74 83 75 85 76 36 77
REMARK SMILES IDX 88 78 82 80 81 82 37 84 69 87 49 88 68 89 50 90 53 91 67 92
REMARK SMILES IDX 86 93 51 94 52 96 66 98 87 99 54 102 38 104 39 105 47 106
REMARK SMILES IDX 40 107 41 108 45 109 48 110 42 111 43 112 46 113 44 114
REMARK SMILES IDX 70 115 71 116 79 117 72 118 73 119 77 120 80 121 74 122
REMARK SMILES IDX 75 123 78 124 76 125 55 126 56 127 64 128 57 129 58 130
REMARK SMILES IDX 62 131 65 132 59 133 60 134 63 135 61 136
REMARK H PARENT 19 4 16 6 16 7 15 9 15 10 14 12 14 13 13 15 13 16 12 18 12 19
REMARK H PARENT 6 25 7 28 9 29 8 30 1 35 1 36 1 37 20 39 20 40 21 42 21 43
REMARK H PARENT 22 45 22 46 23 48 23 49 24 51 24 52 25 54 25 55 26 58 30 64
REMARK H PARENT 91 66 31 68 90 69 89 79 83 81 85 83 88 85 82 86 50 95 53 97
REMARK H PARENT 86 100 51 101 87 103
REMARK Flexibility Score: inf
ROOT
ATOM      1  C   UNL     1       4.202   1.138  -0.159  1.00  0.00     0.219 C 
ATOM      2  O   UNL     1       5.251   0.984   0.468  1.00  0.00    -0.275 OA
ATOM      3  N   UNL     1       4.253   1.690  -1.400  1.00  0.00    -0.356 N 
ATOM      4  H   UNL     1       5.154   1.842  -1.765  1.00  0.00     0.163 HD
ENDROOT
BRANCH   1   5
ATOM      5  C   UNL     1       2.871   0.701   0.415  1.00  0.00     0.026 C 
ATOM      6  H   UNL     1       2.252   0.366  -0.391  1.00  0.00     0.037 H 
ATOM      7  H   UNL     1       3.081  -0.072   1.125  1.00  0.00     0.037 H 
BRANCH   5   8
ATOM      8  C   UNL     1       2.121   1.799   1.172  1.00  0.00    -0.044 C 
ATOM      9  H   UNL     1       1.656   1.332   2.015  1.00  0.00     0.027 H 
ATOM     10  H   UNL     1       2.881   2.525   1.371  1.00  0.00     0.027 H 
BRANCH   8  11
ATOM     11  C   UNL     1       1.026   2.616   0.454  1.00  0.00    -0.052 C 
ATOM     12  H   UNL     1       0.460   3.113   1.214  1.00  0.00     0.027 H 
ATOM     13  H   UNL     1       1.578   3.233  -0.224  1.00  0.00     0.027 H 
BRANCH  11  14
ATOM     14  C   UNL     1       0.019   1.901  -0.454  1.00  0.00    -0.044 C 
ATOM     15  H   UNL     1       0.043   2.432  -1.383  1.00  0.00     0.028 H 
ATOM     16  H   UNL     1       0.367   0.893  -0.377  1.00  0.00     0.028 H 
BRANCH  14  17
ATOM     17  C   UNL     1      -1.473   1.711  -0.128  1.00  0.00    -0.002 C 
ATOM     18  H   UNL     1      -1.956   1.673  -1.082  1.00  0.00     0.038 H 
ATOM     19  H   UNL     1      -1.386   0.882   0.544  1.00  0.00     0.038 H 
BRANCH  17  20
ATOM     20  S   UNL     1      -2.546   2.772   0.888  1.00  0.00    -0.122 SA
BRANCH  20  21
ATOM     21  C   UNL     1      -1.650   3.203   2.358  1.00  0.00     0.050 A 
ATOM     22  C   UNL     1      -0.778   2.436   3.136  1.00  0.00     0.144 A 
ATOM     23  C   UNL     1       0.063   3.051   4.082  1.00  0.00    -0.018 A 
ATOM     24  C   UNL     1       0.000   4.426   4.302  1.00  0.00    -0.058 A 
ATOM     25  H   UNL     1       0.734   2.478   4.617  1.00  0.00     0.066 H 
ATOM     26  C   UNL     1      -1.763   4.574   2.672  1.00  0.00    -0.045 A 
ATOM     27  C   UNL     1      -0.938   5.185   3.618  1.00  0.00    -0.061 A 
ATOM     28  H   UNL     1       0.646   4.875   4.970  1.00  0.00     0.062 H 
ATOM     29  H   UNL     1      -2.477   5.142   2.188  1.00  0.00     0.064 H 
ATOM     30  H   UNL     1      -1.025   6.196   3.807  1.00  0.00     0.062 H 
BRANCH  22  31
ATOM     31  O   UNL     1      -0.419   1.082   2.890  1.00  0.00    -0.426 OA
BRANCH  31  32
ATOM     32  C   UNL     1      -1.201  -0.025   2.566  1.00  0.00     0.308 C 
ATOM     33  O   UNL     1      -2.415  -0.095   2.588  1.00  0.00    -0.252 OA
BRANCH  32  34
ATOM     34  C   UNL     1      -0.264  -1.135   2.160  1.00  0.00     0.034 C 
ATOM     35  H   UNL     1      -0.831  -2.005   1.904  1.00  0.00     0.035 H 
ATOM     36  H   UNL     1       0.393  -1.363   2.974  1.00  0.00     0.035 H 
ATOM     37  H   UNL     1       0.313  -0.822   1.314  1.00  0.00     0.035 H 
ENDBRANCH  32  34
ENDBRANCH  31  32
ENDBRANCH  22  31
ENDBRANCH  20  21
ENDBRANCH  17  20
ENDBRANCH  14  17
ENDBRANCH  11  14
ENDBRANCH   8  11
ENDBRANCH   5   8
ENDBRANCH   1   5
BRANCH   3  38
ATOM     38  C   UNL     1       3.156   2.083  -2.253  1.00  0.00     0.017 C 
ATOM     39  H   UNL     1       2.265   1.584  -1.935  1.00  0.00     0.049 H 
ATOM     40  H   UNL     1       3.385   1.813  -3.263  1.00  0.00     0.049 H 
BRANCH  38  41
ATOM     41  C   UNL     1       2.943   3.593  -2.176  1.00  0.00    -0.036 C 
ATOM     42  H   UNL     1       3.349   3.945  -1.251  1.00  0.00     0.028 H 
ATOM     43  H   UNL     1       1.890   3.765  -2.251  1.00  0.00     0.028 H 
BRANCH  41  44
ATOM     44  C   UNL     1       3.602   4.360  -3.313  1.00  0.00    -0.052 C 
ATOM     45  H   UNL     1       4.637   4.091  -3.348  1.00  0.00     0.027 H 
ATOM     46  H   UNL     1       3.461   5.402  -3.114  1.00  0.00     0.027 H 
BRANCH  44  47
ATOM     47  C   UNL     1       2.979   4.072  -4.682  1.00  0.00    -0.052 C 
ATOM     48  H   UNL     1       3.171   3.047  -4.924  1.00  0.00     0.027 H 
ATOM     49  H   UNL     1       3.429   4.763  -5.364  1.00  0.00     0.027 H 
BRANCH  47  50
ATOM     50  C   UNL     1       1.466   4.307  -4.774  1.00  0.00    -0.036 C 
ATOM     51  H   UNL     1       0.977   3.574  -4.166  1.00  0.00     0.028 H 
ATOM     52  H   UNL     1       1.209   4.231  -5.810  1.00  0.00     0.028 H 
BRANCH  50  53
ATOM     53  C   UNL     1       1.010   5.690  -4.313  1.00  0.00     0.018 C 
ATOM     54  H   UNL     1       1.176   5.778  -3.260  1.00  0.00     0.049 H 
ATOM     55  H   UNL     1      -0.029   5.796  -4.544  1.00  0.00     0.049 H 
BRANCH  53  56
ATOM     56  N   UNL     1       1.742   6.743  -4.998  1.00  0.00    -0.352 N 
ATOM     57  C   UNL     1       1.323   7.605  -5.975  1.00  0.00     0.251 C 
ATOM     58  H   UNL     1       2.680   6.852  -4.717  1.00  0.00     0.163 HD
ATOM     59  O   UNL     1       2.142   8.205  -6.663  1.00  0.00    -0.269 OA
BRANCH  57  60
ATOM     60  C   UNL     1      -0.119   7.815  -6.194  1.00  0.00     0.039 A 
ATOM     61  C   UNL     1      -0.604   7.890  -7.502  1.00  0.00    -0.049 A 
ATOM     62  C   UNL     1      -0.983   7.983  -5.108  1.00  0.00    -0.049 A 
ATOM     63  C   UNL     1      -1.966   8.092  -7.720  1.00  0.00    -0.053 A 
ATOM     64  H   UNL     1       0.042   7.797  -8.301  1.00  0.00     0.063 H 
ATOM     65  C   UNL     1      -2.350   8.109  -5.325  1.00  0.00    -0.053 A 
ATOM     66  H   UNL     1      -0.607   8.014  -4.148  1.00  0.00     0.063 H 
ATOM     67  C   UNL     1      -2.852   8.178  -6.633  1.00  0.00    -0.014 A 
ATOM     68  H   UNL     1      -2.325   8.179  -8.683  1.00  0.00     0.063 H 
ATOM     69  H   UNL     1      -2.997   8.151  -4.523  1.00  0.00     0.063 H 
BRANCH  67  70
ATOM     70  C   UNL     1      -4.309   8.353  -6.845  1.00  0.00     0.031 A 
ATOM     71  C   UNL     1      -4.994   9.605  -6.376  1.00  0.00     0.074 A 
ATOM     72  C   UNL     1      -5.021   7.356  -7.404  1.00  0.00     0.049 A 
ATOM     73  N   UNL     1      -6.265   9.916  -6.409  1.00  0.00    -0.248 NA
ATOM     74  C   UNL     1      -4.140  10.633  -5.761  1.00  0.00    -0.034 C 
ATOM     75  C   UNL     1      -4.472   6.076  -7.852  1.00  0.00    -0.036 A 
ATOM     76  N   UNL     1      -6.361   7.259  -7.678  1.00  0.00    -0.354 N 
ATOM     77  C   UNL     1      -6.362  11.168  -5.815  1.00  0.00     0.074 A 
ATOM     78  C   UNL     1      -5.033  11.531  -5.373  1.00  0.00    -0.034 C 
ATOM     79  H   UNL     1      -3.113  10.651  -5.659  1.00  0.00     0.065 H 
ATOM     80  C   UNL     1      -5.463   5.327  -8.358  1.00  0.00    -0.036 A 
ATOM     81  H   UNL     1      -3.481   5.794  -7.788  1.00  0.00     0.065 H 
ATOM     82  C   UNL     1      -6.721   6.057  -8.236  1.00  0.00     0.049 A 
ATOM     83  H   UNL     1      -7.003   7.981  -7.492  1.00  0.00     0.167 HD
ATOM     84  C   UNL     1      -7.456  11.954  -5.676  1.00  0.00     0.037 A 
ATOM     85  H   UNL     1      -4.811  12.378  -4.827  1.00  0.00     0.065 H 
ATOM     86  H   UNL     1      -5.354   4.386  -8.768  1.00  0.00     0.065 H 
ATOM     87  C   UNL     1      -7.932   5.594  -8.598  1.00  0.00     0.037 A 
ATOM     88  C   UNL     1      -8.773  11.588  -6.128  1.00  0.00     0.049 A 
ATOM     89  C   UNL     1      -9.135   6.480  -8.422  1.00  0.00     0.074 A 
ATOM     90  C   UNL     1      -9.941  12.328  -6.077  1.00  0.00    -0.036 A 
ATOM     91  N   UNL     1      -9.097  10.370  -6.710  1.00  0.00    -0.354 N 
ATOM     92  N   UNL     1      -9.206   7.690  -7.923  1.00  0.00    -0.248 NA
ATOM     93  C   UNL     1     -10.425   5.940  -8.871  1.00  0.00    -0.034 C 
ATOM     94  C   UNL     1     -10.980  11.540  -6.583  1.00  0.00    -0.036 A 
ATOM     95  H   UNL     1     -10.030  13.295  -5.727  1.00  0.00     0.065 H 
ATOM     96  C   UNL     1     -10.451  10.330  -7.003  1.00  0.00     0.049 A 
ATOM     97  H   UNL     1      -8.459   9.642  -6.888  1.00  0.00     0.167 HD
ATOM     98  C   UNL     1     -10.538   8.067  -8.019  1.00  0.00     0.074 A 
ATOM     99  C   UNL     1     -11.238   6.962  -8.642  1.00  0.00    -0.034 C 
ATOM    100  H   UNL     1     -10.642   5.010  -9.261  1.00  0.00     0.065 H 
ATOM    101  H   UNL     1     -11.974  11.814  -6.634  1.00  0.00     0.065 H 
ATOM    102  C   UNL     1     -11.130   9.222  -7.626  1.00  0.00     0.037 A 
ATOM    103  H   UNL     1     -12.243   6.969  -8.878  1.00  0.00     0.065 H 
BRANCH  84 104
ATOM    104  C   UNL     1      -7.270  13.287  -5.010  1.00  0.00     0.064 A 
ATOM    105  C   UNL     1      -6.537  14.318  -5.620  1.00  0.00     0.173 A 
ATOM    106  C   UNL     1      -7.847  13.548  -3.758  1.00  0.00     0.173 A 
ATOM    107  F   UNL     1      -5.955  14.119  -6.812  1.00  0.00    -0.203 F 
ATOM    108  C   UNL     1      -6.359  15.545  -4.986  1.00  0.00     0.198 A 
ATOM    109  C   UNL     1      -7.695  14.788  -3.142  1.00  0.00     0.198 A 
ATOM    110  F   UNL     1      -8.562  12.602  -3.131  1.00  0.00    -0.203 F 
ATOM    111  F   UNL     1      -5.606  16.492  -5.562  1.00  0.00    -0.200 F 
ATOM    112  C   UNL     1      -6.943  15.781  -3.751  1.00  0.00     0.200 A 
ATOM    113  F   UNL     1      -8.272  15.020  -1.955  1.00  0.00    -0.200 F 
ATOM    114  F   UNL     1      -6.774  16.964  -3.143  1.00  0.00    -0.200 F 
ENDBRANCH  84 104
BRANCH  87 115
ATOM    115  C   UNL     1      -8.058   4.231  -9.177  1.00  0.00     0.064 A 
ATOM    116  C   UNL     1      -8.391   4.048 -10.526  1.00  0.00     0.173 A 
ATOM    117  C   UNL     1      -7.838   3.086  -8.398  1.00  0.00     0.173 A 
ATOM    118  F   UNL     1      -8.628   5.112 -11.307  1.00  0.00    -0.203 F 
ATOM    119  C   UNL     1      -8.520   2.771 -11.068  1.00  0.00     0.198 A 
ATOM    120  C   UNL     1      -7.937   1.810  -8.949  1.00  0.00     0.198 A 
ATOM    121  F   UNL     1      -7.507   3.207  -7.104  1.00  0.00    -0.203 F 
ATOM    122  F   UNL     1      -8.883   2.624 -12.350  1.00  0.00    -0.200 F 
ATOM    123  C   UNL     1      -8.286   1.653 -10.281  1.00  0.00     0.200 A 
ATOM    124  F   UNL     1      -7.691   0.734  -8.190  1.00  0.00    -0.200 F 
ATOM    125  F   UNL     1      -8.402   0.426 -10.806  1.00  0.00    -0.200 F 
ENDBRANCH  87 115
BRANCH 102 126
ATOM    126  C   UNL     1     -12.602   9.364  -7.888  1.00  0.00     0.064 A 
ATOM    127  C   UNL     1     -13.554   8.627  -7.168  1.00  0.00     0.173 A 
ATOM    128  C   UNL     1     -13.066  10.278  -8.846  1.00  0.00     0.173 A 
ATOM    129  F   UNL     1     -13.161   7.729  -6.252  1.00  0.00    -0.203 F 
ATOM    130  C   UNL     1     -14.915   8.781  -7.417  1.00  0.00     0.198 A 
ATOM    131  C   UNL     1     -14.429  10.453  -9.069  1.00  0.00     0.198 A 
ATOM    132  F   UNL     1     -12.198  11.012  -9.558  1.00  0.00    -0.203 F 
ATOM    133  F   UNL     1     -15.805   8.030  -6.753  1.00  0.00    -0.200 F 
ATOM    134  C   UNL     1     -15.352   9.699  -8.360  1.00  0.00     0.200 A 
ATOM    135  F   UNL     1     -14.849  11.351  -9.970  1.00  0.00    -0.200 F 
ATOM    136  F   UNL     1     -16.663   9.851  -8.592  1.00  0.00    -0.200 F 
ENDBRANCH 102 126
ENDBRANCH  67  70
ENDBRANCH  57  60
ENDBRANCH  53  56
ENDBRANCH  50  53
ENDBRANCH  47  50
ENDBRANCH  44  47
ENDBRANCH  41  44
ENDBRANCH  38  41
ENDBRANCH   3  38
TORSDOF 22
