REMARK SMILES O=C(Cc1ccn(-c2ccccc2F)c1)NCCCCCCNC(=O)c1ccc(-c2c3nc(c(-c4c(F)c(F)c(F)c(F)c4F)c4ccc([nH]4)c(-c4c(F)c(F)c(F)c(F)c4F)c4nc(c(-c5c(F)c(F)c(F)c(F)c5F)c5ccc2[nH]5)C=C4)C=C3)cc1
REMARK SMILES IDX 19 1 18 4 17 7 16 10 1 11 2 12 3 14 4 17 5 18 15 19 6 20
REMARK SMILES IDX 7 22 8 25 9 26 13 27 10 28 12 30 14 31 11 32 20 36 21 39
REMARK SMILES IDX 22 42 23 45 24 46 25 48 26 49 27 50 88 51 28 52 87 54 29 56
REMARK SMILES IDX 30 59 31 60 81 61 32 62 86 63 80 64 82 65 33 66 85 67 79 69
REMARK SMILES IDX 78 71 34 73 66 76 46 77 65 78 47 79 50 80 64 81 83 82 48 83
REMARK SMILES IDX 49 85 63 87 84 88 51 91 35 93 36 94 44 95 37 96 38 97 42 98
REMARK SMILES IDX 45 99 39 100 40 101 43 102 41 103 67 104 68 105 76 106
REMARK SMILES IDX 69 107 70 108 74 109 77 110 71 111 72 112 75 113 73 114
REMARK SMILES IDX 52 115 53 116 61 117 54 118 55 119 59 120 62 121 56 122
REMARK SMILES IDX 57 123 60 124 58 125
REMARK H PARENT 19 2 19 3 18 5 18 6 17 8 17 9 16 13 3 15 3 16 5 21 15 23 6 24
REMARK H PARENT 9 29 10 33 12 34 11 35 20 37 20 38 21 40 21 41 22 43 22 44
REMARK H PARENT 23 47 27 53 88 55 28 57 87 58 86 68 80 70 82 72 85 74 79 75
REMARK H PARENT 47 84 50 86 83 89 48 90 84 92
REMARK Flexibility Score: inf
ROOT
ATOM      1  C   UNL     1       4.205   1.976  -3.113  1.00  0.00    -0.052 C 
ATOM      2  H   UNL     1       4.744   1.734  -2.221  1.00  0.00     0.027 H 
ATOM      3  H   UNL     1       4.420   2.954  -3.492  1.00  0.00     0.027 H 
ENDROOT
BRANCH   1   4
ATOM      4  C   UNL     1       2.707   1.972  -2.779  1.00  0.00    -0.036 C 
ATOM      5  H   UNL     1       2.541   2.665  -1.981  1.00  0.00     0.028 H 
ATOM      6  H   UNL     1       2.194   2.238  -3.679  1.00  0.00     0.028 H 
BRANCH   4   7
ATOM      7  C   UNL     1       2.157   0.611  -2.351  1.00  0.00     0.017 C 
ATOM      8  H   UNL     1       1.107   0.703  -2.164  1.00  0.00     0.049 H 
ATOM      9  H   UNL     1       2.342  -0.090  -3.138  1.00  0.00     0.049 H 
BRANCH   7  10
ATOM     10  N   UNL     1       2.809   0.133  -1.153  1.00  0.00    -0.356 N 
ATOM     11  O   UNL     1       0.958   0.236   0.201  1.00  0.00    -0.275 OA
ATOM     12  C   UNL     1       2.152  -0.013   0.050  1.00  0.00     0.224 C 
ATOM     13  H   UNL     1       3.764  -0.099  -1.198  1.00  0.00     0.163 HD
BRANCH  12  14
ATOM     14  C   UNL     1       3.047  -0.394   1.216  1.00  0.00     0.053 C 
ATOM     15  H   UNL     1       2.428  -0.582   2.068  1.00  0.00     0.042 H 
ATOM     16  H   UNL     1       3.720   0.424   1.368  1.00  0.00     0.042 H 
BRANCH  14  17
ATOM     17  C   UNL     1       3.887  -1.607   0.968  1.00  0.00    -0.021 A 
ATOM     18  C   UNL     1       5.302  -1.655   0.861  1.00  0.00    -0.040 A 
ATOM     19  C   UNL     1       3.444  -2.911   0.840  1.00  0.00     0.013 A 
ATOM     20  C   UNL     1       5.667  -2.980   0.763  1.00  0.00     0.009 A 
ATOM     21  H   UNL     1       5.941  -0.845   0.858  1.00  0.00     0.064 H 
ATOM     22  N   UNL     1       4.528  -3.759   0.757  1.00  0.00    -0.321 N 
ATOM     23  H   UNL     1       2.454  -3.204   0.811  1.00  0.00     0.083 H 
ATOM     24  H   UNL     1       6.635  -3.333   0.704  1.00  0.00     0.082 H 
BRANCH  22  25
ATOM     25  C   UNL     1       4.485  -5.172   0.739  1.00  0.00     0.081 A 
ATOM     26  C   UNL     1       5.466  -5.907   1.419  1.00  0.00    -0.035 A 
ATOM     27  C   UNL     1       3.455  -5.843   0.077  1.00  0.00     0.147 A 
ATOM     28  C   UNL     1       5.388  -7.302   1.454  1.00  0.00    -0.060 A 
ATOM     29  H   UNL     1       6.243  -5.419   1.892  1.00  0.00     0.065 H 
ATOM     30  C   UNL     1       3.402  -7.235   0.080  1.00  0.00    -0.024 A 
ATOM     31  F   UNL     1       2.534  -5.178  -0.635  1.00  0.00    -0.205 F 
ATOM     32  C   UNL     1       4.362  -7.965   0.779  1.00  0.00    -0.059 A 
ATOM     33  H   UNL     1       6.092  -7.843   1.980  1.00  0.00     0.062 H 
ATOM     34  H   UNL     1       2.654  -7.725  -0.435  1.00  0.00     0.065 H 
ATOM     35  H   UNL     1       4.315  -8.996   0.797  1.00  0.00     0.062 H 
ENDBRANCH  22  25
ENDBRANCH  14  17
ENDBRANCH  12  14
ENDBRANCH   7  10
ENDBRANCH   4   7
ENDBRANCH   1   4
BRANCH   1  36
ATOM     36  C   UNL     1       4.636   0.994  -4.208  1.00  0.00    -0.052 C 
ATOM     37  H   UNL     1       4.463   0.001  -3.849  1.00  0.00     0.027 H 
ATOM     38  H   UNL     1       5.667   1.204  -4.406  1.00  0.00     0.027 H 
BRANCH  36  39
ATOM     39  C   UNL     1       3.907   1.146  -5.550  1.00  0.00    -0.036 C 
ATOM     40  H   UNL     1       2.856   1.045  -5.376  1.00  0.00     0.028 H 
ATOM     41  H   UNL     1       4.290   0.388  -6.200  1.00  0.00     0.028 H 
BRANCH  39  42
ATOM     42  C   UNL     1       4.153   2.488  -6.240  1.00  0.00     0.018 C 
ATOM     43  H   UNL     1       3.941   3.280  -5.553  1.00  0.00     0.049 H 
ATOM     44  H   UNL     1       3.514   2.555  -7.096  1.00  0.00     0.049 H 
BRANCH  42  45
ATOM     45  N   UNL     1       5.533   2.598  -6.682  1.00  0.00    -0.352 N 
ATOM     46  C   UNL     1       6.143   3.559  -7.446  1.00  0.00     0.251 C 
ATOM     47  H   UNL     1       6.123   1.868  -6.386  1.00  0.00     0.163 HD
ATOM     48  O   UNL     1       7.197   3.292  -8.011  1.00  0.00    -0.269 OA
BRANCH  46  49
ATOM     49  C   UNL     1       5.557   4.906  -7.613  1.00  0.00     0.039 A 
ATOM     50  C   UNL     1       5.718   5.535  -8.855  1.00  0.00    -0.049 A 
ATOM     51  C   UNL     1       4.961   5.594  -6.550  1.00  0.00    -0.049 A 
ATOM     52  C   UNL     1       5.234   6.824  -9.050  1.00  0.00    -0.053 A 
ATOM     53  H   UNL     1       6.196   5.042  -9.625  1.00  0.00     0.063 H 
ATOM     54  C   UNL     1       4.455   6.876  -6.746  1.00  0.00    -0.053 A 
ATOM     55  H   UNL     1       4.897   5.150  -5.620  1.00  0.00     0.063 H 
ATOM     56  C   UNL     1       4.576   7.481  -8.003  1.00  0.00    -0.014 A 
ATOM     57  H   UNL     1       5.358   7.293  -9.961  1.00  0.00     0.063 H 
ATOM     58  H   UNL     1       3.993   7.376  -5.971  1.00  0.00     0.063 H 
BRANCH  56  59
ATOM     59  C   UNL     1       3.845   8.732  -8.304  1.00  0.00     0.031 A 
ATOM     60  C   UNL     1       2.480   8.440  -8.971  1.00  0.00     0.074 A 
ATOM     61  C   UNL     1       4.472   9.904  -7.979  1.00  0.00     0.049 A 
ATOM     62  N   UNL     1       1.726   9.197  -9.709  1.00  0.00    -0.248 NA
ATOM     63  C   UNL     1       1.880   7.081  -8.830  1.00  0.00    -0.034 C 
ATOM     64  C   UNL     1       5.774   9.992  -7.284  1.00  0.00    -0.036 A 
ATOM     65  N   UNL     1       4.171  11.243  -8.155  1.00  0.00    -0.354 N 
ATOM     66  C   UNL     1       0.519   8.500  -9.957  1.00  0.00     0.074 A 
ATOM     67  C   UNL     1       0.714   7.169  -9.474  1.00  0.00    -0.034 C 
ATOM     68  H   UNL     1       2.276   6.261  -8.345  1.00  0.00     0.065 H 
ATOM     69  C   UNL     1       6.184  11.274  -7.180  1.00  0.00    -0.036 A 
ATOM     70  H   UNL     1       6.301   9.180  -6.925  1.00  0.00     0.065 H 
ATOM     71  C   UNL     1       5.200  12.152  -7.779  1.00  0.00     0.049 A 
ATOM     72  H   UNL     1       3.307  11.545  -8.516  1.00  0.00     0.167 HD
ATOM     73  C   UNL     1      -0.607   9.106 -10.441  1.00  0.00     0.037 A 
ATOM     74  H   UNL     1       0.050   6.390  -9.605  1.00  0.00     0.065 H 
ATOM     75  H   UNL     1       7.066  11.582  -6.741  1.00  0.00     0.065 H 
ATOM     76  C   UNL     1       5.273  13.507  -7.982  1.00  0.00     0.037 A 
ATOM     77  C   UNL     1      -0.329  10.469 -10.731  1.00  0.00     0.049 A 
ATOM     78  C   UNL     1       3.947  13.887  -8.489  1.00  0.00     0.074 A 
ATOM     79  C   UNL     1       0.390  11.059 -11.736  1.00  0.00    -0.036 A 
ATOM     80  N   UNL     1      -0.519  11.372  -9.716  1.00  0.00    -0.354 N 
ATOM     81  N   UNL     1       2.867  13.931  -7.768  1.00  0.00    -0.248 NA
ATOM     82  C   UNL     1       3.795  14.160  -9.923  1.00  0.00    -0.034 C 
ATOM     83  C   UNL     1       1.025  12.134 -11.087  1.00  0.00    -0.036 A 
ATOM     84  H   UNL     1       0.452  10.782 -12.728  1.00  0.00     0.065 H 
ATOM     85  C   UNL     1       0.493  12.293  -9.802  1.00  0.00     0.049 A 
ATOM     86  H   UNL     1      -1.245  11.361  -9.052  1.00  0.00     0.167 HD
ATOM     87  C   UNL     1       1.885  13.896  -8.726  1.00  0.00     0.074 A 
ATOM     88  C   UNL     1       2.481  14.360  -9.959  1.00  0.00    -0.034 C 
ATOM     89  H   UNL     1       4.498  14.189 -10.678  1.00  0.00     0.065 H 
ATOM     90  H   UNL     1       1.771  12.718 -11.496  1.00  0.00     0.065 H 
ATOM     91  C   UNL     1       0.877  12.996  -8.604  1.00  0.00     0.037 A 
ATOM     92  H   UNL     1       1.965  14.782 -10.747  1.00  0.00     0.065 H 
BRANCH  73  93
ATOM     93  C   UNL     1      -2.050   8.684 -10.516  1.00  0.00     0.064 A 
ATOM     94  C   UNL     1      -2.672   7.890  -9.546  1.00  0.00     0.173 A 
ATOM     95  C   UNL     1      -2.916   9.400 -11.384  1.00  0.00     0.173 A 
ATOM     96  F   UNL     1      -1.952   7.183  -8.666  1.00  0.00    -0.203 F 
ATOM     97  C   UNL     1      -4.064   7.887  -9.393  1.00  0.00     0.198 A 
ATOM     98  C   UNL     1      -4.296   9.433 -11.197  1.00  0.00     0.198 A 
ATOM     99  F   UNL     1      -2.423  10.151 -12.383  1.00  0.00    -0.203 F 
ATOM    100  F   UNL     1      -4.620   7.157  -8.416  1.00  0.00    -0.200 F 
ATOM    101  C   UNL     1      -4.869   8.689 -10.186  1.00  0.00     0.200 A 
ATOM    102  F   UNL     1      -5.055  10.240 -11.952  1.00  0.00    -0.200 F 
ATOM    103  F   UNL     1      -6.186   8.770  -9.954  1.00  0.00    -0.200 F 
ENDBRANCH  73  93
BRANCH  76 104
ATOM    104  C   UNL     1       6.307  14.618  -7.930  1.00  0.00     0.064 A 
ATOM    105  C   UNL     1       6.004  15.893  -8.498  1.00  0.00     0.173 A 
ATOM    106  C   UNL     1       7.628  14.501  -7.483  1.00  0.00     0.173 A 
ATOM    107  F   UNL     1       4.750  16.246  -8.809  1.00  0.00    -0.203 F 
ATOM    108  C   UNL     1       6.967  16.859  -8.791  1.00  0.00     0.198 A 
ATOM    109  C   UNL     1       8.589  15.504  -7.720  1.00  0.00     0.198 A 
ATOM    110  F   UNL     1       8.035  13.428  -6.798  1.00  0.00    -0.203 F 
ATOM    111  F   UNL     1       6.615  17.967  -9.460  1.00  0.00    -0.200 F 
ATOM    112  C   UNL     1       8.271  16.654  -8.421  1.00  0.00     0.200 A 
ATOM    113  F   UNL     1       9.846  15.335  -7.284  1.00  0.00    -0.200 F 
ATOM    114  F   UNL     1       9.209  17.562  -8.725  1.00  0.00    -0.200 F 
ENDBRANCH  76 104
BRANCH  91 115
ATOM    115  C   UNL     1       0.583  12.580  -7.178  1.00  0.00     0.064 A 
ATOM    116  C   UNL     1       0.843  11.302  -6.656  1.00  0.00     0.173 A 
ATOM    117  C   UNL     1       0.116  13.535  -6.262  1.00  0.00     0.173 A 
ATOM    118  F   UNL     1       1.287  10.324  -7.441  1.00  0.00    -0.203 F 
ATOM    119  C   UNL     1       0.651  10.990  -5.307  1.00  0.00     0.198 A 
ATOM    120  C   UNL     1      -0.072  13.229  -4.911  1.00  0.00     0.198 A 
ATOM    121  F   UNL     1      -0.168  14.777  -6.681  1.00  0.00    -0.203 F 
ATOM    122  F   UNL     1       0.901   9.748  -4.862  1.00  0.00    -0.200 F 
ATOM    123  C   UNL     1       0.195  11.957  -4.434  1.00  0.00     0.200 A 
ATOM    124  F   UNL     1      -0.524  14.171  -4.072  1.00  0.00    -0.200 F 
ATOM    125  F   UNL     1      -0.002  11.660  -3.142  1.00  0.00    -0.200 F 
ENDBRANCH  91 115
ENDBRANCH  56  59
ENDBRANCH  46  49
ENDBRANCH  42  45
ENDBRANCH  39  42
ENDBRANCH  36  39
ENDBRANCH   1  36
TORSDOF 15
