REMARK SMILES O=C(CNC(=O)CNC(=O)OCc1ccccc1)NCCCCCCNC(=O)c1ccc(-c2c3nc(c(-c4c(F)c(F)c(F)c(F)c4F)c4ccc([nH]4)c(-c4c(F)c(F)c(F)c(F)c4F)c4nc(c(-c5c(F)c(F)c(F)c(F)c5F)c5ccc2[nH]5)C=C4)C=C3)cc1
REMARK SMILES IDX 20 1 19 4 1 5 2 6 3 8 4 11 5 12 6 14 7 15 8 18 9 19 10 21
REMARK SMILES IDX 11 22 12 23 13 26 14 27 18 28 15 29 17 31 16 33 21 37 22 40
REMARK SMILES IDX 23 43 24 46 25 49 26 52 27 53 28 55 29 56 30 57 91 58 31 59
REMARK SMILES IDX 90 61 32 63 33 66 34 67 84 68 35 69 89 70 83 71 85 72 36 73
REMARK SMILES IDX 88 74 82 76 81 78 37 80 69 83 49 84 68 85 50 86 53 87 67 88
REMARK SMILES IDX 86 89 51 90 52 92 66 94 87 95 54 98 38 100 39 101 47 102
REMARK SMILES IDX 40 103 41 104 45 105 48 106 42 107 43 108 46 109 44 110
REMARK SMILES IDX 70 111 71 112 79 113 72 114 73 115 77 116 80 117 74 118
REMARK SMILES IDX 75 119 78 120 76 121 55 122 56 123 64 124 57 125 58 126
REMARK SMILES IDX 62 127 65 128 59 129 60 130 63 131 61 132
REMARK H PARENT 20 2 20 3 19 7 3 9 3 10 4 13 7 16 7 17 8 20 12 24 12 25 14 30
REMARK H PARENT 18 32 15 34 17 35 16 36 21 38 21 39 22 41 22 42 23 44 23 45
REMARK H PARENT 24 47 24 48 25 50 25 51 26 54 30 60 91 62 31 64 90 65 89 75
REMARK H PARENT 83 77 85 79 88 81 82 82 50 91 53 93 86 96 51 97 87 99
REMARK Flexibility Score: inf
ROOT
ATOM      1  C   UNL     1       2.125   1.900   1.169  1.00  0.00     0.017 C 
ATOM      2  H   UNL     1       1.066   1.748   1.198  1.00  0.00     0.049 H 
ATOM      3  H   UNL     1       2.384   2.874   0.812  1.00  0.00     0.049 H 
ENDROOT
BRANCH   1   4
ATOM      4  N   UNL     1       2.703   0.938   0.249  1.00  0.00    -0.355 N 
ATOM      5  O   UNL     1       0.978  -0.572   0.361  1.00  0.00    -0.273 OA
ATOM      6  C   UNL     1       2.054  -0.221  -0.116  1.00  0.00     0.239 C 
ATOM      7  H   UNL     1       3.593   1.121  -0.129  1.00  0.00     0.163 HD
BRANCH   6   8
ATOM      8  C   UNL     1       2.804  -1.114  -1.118  1.00  0.00     0.097 C 
ATOM      9  H   UNL     1       2.099  -1.464  -1.843  1.00  0.00     0.059 H 
ATOM     10  H   UNL     1       3.247  -1.902  -0.545  1.00  0.00     0.059 H 
BRANCH   8  11
ATOM     11  N   UNL     1       3.897  -0.457  -1.826  1.00  0.00    -0.346 N 
ATOM     12  C   UNL     1       5.240  -0.684  -1.743  1.00  0.00     0.239 C 
ATOM     13  H   UNL     1       3.626   0.252  -2.454  1.00  0.00     0.164 HD
ATOM     14  O   UNL     1       5.990   0.002  -2.440  1.00  0.00    -0.273 OA
BRANCH  12  15
ATOM     15  C   UNL     1       5.788  -1.704  -0.744  1.00  0.00     0.100 C 
ATOM     16  H   UNL     1       6.824  -1.887  -0.937  1.00  0.00     0.060 H 
ATOM     17  H   UNL     1       5.268  -2.635  -0.827  1.00  0.00     0.060 H 
BRANCH  15  18
ATOM     18  N   UNL     1       5.621  -1.136   0.578  1.00  0.00    -0.312 N 
ATOM     19  C   UNL     1       4.943  -1.685   1.617  1.00  0.00     0.407 C 
ATOM     20  H   UNL     1       6.043  -0.262   0.739  1.00  0.00     0.167 HD
ATOM     21  O   UNL     1       4.571  -0.980   2.546  1.00  0.00    -0.225 OA
BRANCH  19  22
ATOM     22  O   UNL     1       4.718  -3.012   1.492  1.00  0.00    -0.445 OA
BRANCH  22  23
ATOM     23  C   UNL     1       3.892  -3.593   2.517  1.00  0.00     0.118 C 
ATOM     24  H   UNL     1       3.416  -4.462   2.114  1.00  0.00     0.076 H 
ATOM     25  H   UNL     1       3.188  -2.844   2.814  1.00  0.00     0.076 H 
BRANCH  23  26
ATOM     26  C   UNL     1       4.659  -3.998   3.757  1.00  0.00    -0.011 A 
ATOM     27  C   UNL     1       4.970  -5.342   4.003  1.00  0.00    -0.056 A 
ATOM     28  C   UNL     1       5.040  -3.043   4.712  1.00  0.00    -0.056 A 
ATOM     29  C   UNL     1       5.639  -5.714   5.174  1.00  0.00    -0.062 A 
ATOM     30  H   UNL     1       4.704  -6.064   3.315  1.00  0.00     0.063 H 
ATOM     31  C   UNL     1       5.726  -3.410   5.869  1.00  0.00    -0.062 A 
ATOM     32  H   UNL     1       4.808  -2.049   4.555  1.00  0.00     0.063 H 
ATOM     33  C   UNL     1       6.022  -4.748   6.103  1.00  0.00    -0.062 A 
ATOM     34  H   UNL     1       5.851  -6.709   5.350  1.00  0.00     0.062 H 
ATOM     35  H   UNL     1       6.014  -2.691   6.551  1.00  0.00     0.062 H 
ATOM     36  H   UNL     1       6.522  -5.026   6.962  1.00  0.00     0.062 H 
ENDBRANCH  23  26
ENDBRANCH  22  23
ENDBRANCH  19  22
ENDBRANCH  15  18
ENDBRANCH  12  15
ENDBRANCH   8  11
ENDBRANCH   6   8
ENDBRANCH   1   4
BRANCH   1  37
ATOM     37  C   UNL     1       2.671   1.782   2.593  1.00  0.00    -0.036 C 
ATOM     38  H   UNL     1       2.519   0.776   2.924  1.00  0.00     0.028 H 
ATOM     39  H   UNL     1       2.142   2.507   3.176  1.00  0.00     0.028 H 
BRANCH  37  40
ATOM     40  C   UNL     1       4.160   2.114   2.748  1.00  0.00    -0.052 C 
ATOM     41  H   UNL     1       4.713   1.415   2.155  1.00  0.00     0.027 H 
ATOM     42  H   UNL     1       4.357   2.056   3.798  1.00  0.00     0.027 H 
BRANCH  40  43
ATOM     43  C   UNL     1       4.590   3.521   2.330  1.00  0.00    -0.052 C 
ATOM     44  H   UNL     1       4.406   3.622   1.281  1.00  0.00     0.027 H 
ATOM     45  H   UNL     1       5.622   3.601   2.602  1.00  0.00     0.027 H 
BRANCH  43  46
ATOM     46  C   UNL     1       3.884   4.673   3.043  1.00  0.00    -0.036 C 
ATOM     47  H   UNL     1       2.844   4.624   2.797  1.00  0.00     0.028 H 
ATOM     48  H   UNL     1       4.367   5.566   2.705  1.00  0.00     0.028 H 
BRANCH  46  49
ATOM     49  C   UNL     1       4.006   4.683   4.565  1.00  0.00     0.018 C 
ATOM     50  H   UNL     1       3.601   3.768   4.946  1.00  0.00     0.049 H 
ATOM     51  H   UNL     1       3.472   5.537   4.924  1.00  0.00     0.049 H 
BRANCH  49  52
ATOM     52  N   UNL     1       5.381   4.806   5.024  1.00  0.00    -0.352 N 
ATOM     53  C   UNL     1       5.948   5.688   5.910  1.00  0.00     0.251 C 
ATOM     54  H   UNL     1       6.006   4.150   4.637  1.00  0.00     0.163 HD
ATOM     55  O   UNL     1       7.168   5.704   6.058  1.00  0.00    -0.269 OA
BRANCH  53  56
ATOM     56  C   UNL     1       5.113   6.646   6.671  1.00  0.00     0.039 A 
ATOM     57  C   UNL     1       5.571   7.960   6.817  1.00  0.00    -0.049 A 
ATOM     58  C   UNL     1       3.907   6.263   7.264  1.00  0.00    -0.049 A 
ATOM     59  C   UNL     1       4.790   8.902   7.491  1.00  0.00    -0.053 A 
ATOM     60  H   UNL     1       6.486   8.234   6.426  1.00  0.00     0.063 H 
ATOM     61  C   UNL     1       3.097   7.218   7.880  1.00  0.00    -0.053 A 
ATOM     62  H   UNL     1       3.616   5.273   7.247  1.00  0.00     0.063 H 
ATOM     63  C   UNL     1       3.528   8.548   7.995  1.00  0.00    -0.014 A 
ATOM     64  H   UNL     1       5.142   9.863   7.619  1.00  0.00     0.063 H 
ATOM     65  H   UNL     1       2.175   6.944   8.253  1.00  0.00     0.063 H 
BRANCH  63  66
ATOM     66  C   UNL     1       2.643   9.570   8.612  1.00  0.00     0.031 A 
ATOM     67  C   UNL     1       2.290   9.505  10.071  1.00  0.00     0.074 A 
ATOM     68  C   UNL     1       2.112  10.535   7.837  1.00  0.00     0.049 A 
ATOM     69  N   UNL     1       1.530  10.308  10.775  1.00  0.00    -0.248 NA
ATOM     70  C   UNL     1       2.841   8.378  10.836  1.00  0.00    -0.034 C 
ATOM     71  C   UNL     1       2.328  10.674   6.396  1.00  0.00    -0.036 A 
ATOM     72  N   UNL     1       1.280  11.581   8.151  1.00  0.00    -0.354 N 
ATOM     73  C   UNL     1       1.501   9.777  12.057  1.00  0.00     0.074 A 
ATOM     74  C   UNL     1       2.283   8.559  12.025  1.00  0.00    -0.034 C 
ATOM     75  H   UNL     1       3.493   7.639  10.529  1.00  0.00     0.065 H 
ATOM     76  C   UNL     1       1.674  11.761   5.957  1.00  0.00    -0.036 A 
ATOM     77  H   UNL     1       2.892  10.038   5.811  1.00  0.00     0.065 H 
ATOM     78  C   UNL     1       0.971  12.379   7.077  1.00  0.00     0.049 A 
ATOM     79  H   UNL     1       0.938  11.744   9.060  1.00  0.00     0.167 HD
ATOM     80  C   UNL     1       0.896  10.271  13.164  1.00  0.00     0.037 A 
ATOM     81  H   UNL     1       2.390   7.914  12.823  1.00  0.00     0.065 H 
ATOM     82  H   UNL     1       1.669  12.104   4.984  1.00  0.00     0.065 H 
ATOM     83  C   UNL     1       0.212  13.488   7.004  1.00  0.00     0.037 A 
ATOM     84  C   UNL     1       0.143  11.498  13.203  1.00  0.00     0.049 A 
ATOM     85  C   UNL     1      -0.437  14.022   8.250  1.00  0.00     0.074 A 
ATOM     86  C   UNL     1      -0.431  12.125  14.295  1.00  0.00    -0.036 A 
ATOM     87  N   UNL     1      -0.147  12.281  12.095  1.00  0.00    -0.354 N 
ATOM     88  N   UNL     1      -0.383  13.560   9.474  1.00  0.00    -0.248 NA
ATOM     89  C   UNL     1      -1.248  15.239   8.101  1.00  0.00    -0.034 C 
ATOM     90  C   UNL     1      -1.106  13.265  13.842  1.00  0.00    -0.036 A 
ATOM     91  H   UNL     1      -0.372  11.807  15.275  1.00  0.00     0.065 H 
ATOM     92  C   UNL     1      -0.916  13.372  12.474  1.00  0.00     0.049 A 
ATOM     93  H   UNL     1       0.150  12.091  11.176  1.00  0.00     0.167 HD
ATOM     94  C   UNL     1      -1.134  14.436  10.246  1.00  0.00     0.074 A 
ATOM     95  C   UNL     1      -1.618  15.469   9.353  1.00  0.00    -0.034 C 
ATOM     96  H   UNL     1      -1.472  15.773   7.246  1.00  0.00     0.065 H 
ATOM     97  H   UNL     1      -1.651  13.916  14.428  1.00  0.00     0.065 H 
ATOM     98  C   UNL     1      -1.399  14.388  11.574  1.00  0.00     0.037 A 
ATOM     99  H   UNL     1      -2.179  16.281   9.653  1.00  0.00     0.065 H 
BRANCH  80 100
ATOM    100  C   UNL     1       1.024   9.478  14.433  1.00  0.00     0.064 A 
ATOM    101  C   UNL     1       2.240   9.393  15.127  1.00  0.00     0.173 A 
ATOM    102  C   UNL     1      -0.090   8.821  14.977  1.00  0.00     0.173 A 
ATOM    103  F   UNL     1       3.337   9.995  14.644  1.00  0.00    -0.203 F 
ATOM    104  C   UNL     1       2.344   8.652  16.302  1.00  0.00     0.198 A 
ATOM    105  C   UNL     1       0.011   8.104  16.166  1.00  0.00     0.198 A 
ATOM    106  F   UNL     1      -1.278   8.877  14.357  1.00  0.00    -0.203 F 
ATOM    107  F   UNL     1       3.528   8.543  16.921  1.00  0.00    -0.200 F 
ATOM    108  C   UNL     1       1.229   8.013  16.823  1.00  0.00     0.200 A 
ATOM    109  F   UNL     1      -1.070   7.497  16.675  1.00  0.00    -0.200 F 
ATOM    110  F   UNL     1       1.331   7.303  17.955  1.00  0.00    -0.200 F 
ENDBRANCH  80 100
BRANCH  83 111
ATOM    111  C   UNL     1       0.065  14.195   5.707  1.00  0.00     0.064 A 
ATOM    112  C   UNL     1       0.698  15.427   5.490  1.00  0.00     0.173 A 
ATOM    113  C   UNL     1      -0.698  13.657   4.662  1.00  0.00     0.173 A 
ATOM    114  F   UNL     1       1.420  15.990   6.470  1.00  0.00    -0.203 F 
ATOM    115  C   UNL     1       0.564  16.100   4.278  1.00  0.00     0.198 A 
ATOM    116  C   UNL     1      -0.812  14.320   3.442  1.00  0.00     0.198 A 
ATOM    117  F   UNL     1      -1.320  12.480   4.821  1.00  0.00    -0.203 F 
ATOM    118  F   UNL     1       1.151  17.293   4.108  1.00  0.00    -0.200 F 
ATOM    119  C   UNL     1      -0.186  15.543   3.253  1.00  0.00     0.200 A 
ATOM    120  F   UNL     1      -1.528  13.774   2.449  1.00  0.00    -0.200 F 
ATOM    121  F   UNL     1      -0.309  16.188   2.085  1.00  0.00    -0.200 F 
ENDBRANCH  83 111
BRANCH  98 122
ATOM    122  C   UNL     1      -2.240  15.493  12.141  1.00  0.00     0.064 A 
ATOM    123  C   UNL     1      -3.616  15.575  11.880  1.00  0.00     0.173 A 
ATOM    124  C   UNL     1      -1.668  16.474  12.965  1.00  0.00     0.173 A 
ATOM    125  F   UNL     1      -4.206  14.671  11.084  1.00  0.00    -0.203 F 
ATOM    126  C   UNL     1      -4.382  16.614  12.400  1.00  0.00     0.198 A 
ATOM    127  C   UNL     1      -2.442  17.497  13.505  1.00  0.00     0.198 A 
ATOM    128  F   UNL     1      -0.357  16.439  13.248  1.00  0.00    -0.203 F 
ATOM    129  F   UNL     1      -5.684  16.702  12.095  1.00  0.00    -0.200 F 
ATOM    130  C   UNL     1      -3.797  17.571  13.216  1.00  0.00     0.200 A 
ATOM    131  F   UNL     1      -1.877  18.415  14.301  1.00  0.00    -0.200 F 
ATOM    132  F   UNL     1      -4.536  18.572  13.714  1.00  0.00    -0.200 F 
ENDBRANCH  98 122
ENDBRANCH  63  66
ENDBRANCH  53  56
ENDBRANCH  49  52
ENDBRANCH  46  49
ENDBRANCH  43  46
ENDBRANCH  40  43
ENDBRANCH  37  40
ENDBRANCH   1  37
TORSDOF 19
