REMARK SMILES CCOc1cccc(OCC)c1-c1ccc([C@@H](C)C(=O)NCCCCCCNC(=O)c2ccc(-c3c4nc(c(-c5c(F)c(F)c(F)c(F)c5F)c5ccc([nH]5)c(-c5c(F)c(F)c(F)c(F)c5F)c5nc(c(-c6c(F)c(F)c(F)c(F)c6F)c6ccc3[nH]6)C=C5)C=C4)cc2)cc1F
REMARK SMILES IDX 23 1 22 4 21 7 19 8 20 9 17 11 16 13 13 14 14 15 95 16 15 17
REMARK SMILES IDX 94 19 96 20 12 23 4 24 5 25 6 26 8 28 7 29 3 32 2 33 1 36
REMARK SMILES IDX 9 40 10 41 11 44 18 48 24 52 25 55 26 58 27 61 28 64 29 65
REMARK SMILES IDX 30 67 31 68 32 69 93 70 33 71 92 73 34 75 35 78 36 79 86 80
REMARK SMILES IDX 37 81 91 82 85 83 87 84 38 85 90 86 84 88 83 90 39 92 71 95
REMARK SMILES IDX 51 96 70 97 52 98 55 99 69 100 88 101 53 102 54 104 68 106
REMARK SMILES IDX 89 107 56 110 40 112 41 113 49 114 42 115 43 116 47 117
REMARK SMILES IDX 50 118 44 119 45 120 48 121 46 122 72 123 73 124 81 125
REMARK SMILES IDX 74 126 75 127 79 128 82 129 76 130 77 131 80 132 78 133
REMARK SMILES IDX 57 134 58 135 66 136 59 137 60 138 64 139 67 140 61 141
REMARK SMILES IDX 62 142 65 143 63 144
REMARK H PARENT 23 2 23 3 22 5 22 6 21 10 17 12 14 18 15 21 94 22 5 27 6 30
REMARK H PARENT 7 31 2 34 2 35 1 37 1 38 1 39 10 42 10 43 11 45 11 46 11 47
REMARK H PARENT 18 49 18 50 18 51 24 53 24 54 25 56 25 57 26 59 26 60 27 62
REMARK H PARENT 27 63 28 66 32 72 93 74 33 76 92 77 91 87 85 89 87 91 90 93
REMARK H PARENT 84 94 52 103 55 105 88 108 53 109 89 111
REMARK Flexibility Score: inf
ROOT
ATOM      1  C   UNL     1       2.853   2.518   3.615  1.00  0.00    -0.036 C 
ATOM      2  H   UNL     1       2.162   2.365   2.813  1.00  0.00     0.028 H 
ATOM      3  H   UNL     1       3.866   2.283   3.365  1.00  0.00     0.028 H 
ENDROOT
BRANCH   1   4
ATOM      4  C   UNL     1       2.469   1.561   4.762  1.00  0.00     0.017 C 
ATOM      5  H   UNL     1       3.072   0.680   4.696  1.00  0.00     0.049 H 
ATOM      6  H   UNL     1       2.633   2.066   5.691  1.00  0.00     0.049 H 
BRANCH   4   7
ATOM      7  N   UNL     1       1.064   1.181   4.690  1.00  0.00    -0.356 N 
ATOM      8  C   UNL     1       0.388   0.072   4.280  1.00  0.00     0.227 C 
ATOM      9  O   UNL     1      -0.847   0.180   4.288  1.00  0.00    -0.274 OA
ATOM     10  H   UNL     1       0.464   1.891   5.013  1.00  0.00     0.163 HD
BRANCH   8  11
ATOM     11  C   UNL     1       1.019  -1.264   3.824  1.00  0.00     0.060 C 
ATOM     12  H   UNL     1       0.189  -1.939   3.828  1.00  0.00     0.045 H 
BRANCH  11  13
ATOM     13  C   UNL     1       1.524  -1.266   2.391  1.00  0.00    -0.033 A 
ATOM     14  C   UNL     1       2.464  -1.107  -0.291  1.00  0.00     0.025 A 
ATOM     15  C   UNL     1       2.846  -0.178   0.670  1.00  0.00    -0.051 A 
ATOM     16  C   UNL     1       1.571  -2.111   0.106  1.00  0.00     0.131 A 
ATOM     17  C   UNL     1       2.468  -0.332   1.991  1.00  0.00    -0.057 A 
ATOM     18  H   UNL     1       3.419   0.635   0.395  1.00  0.00     0.063 H 
ATOM     19  C   UNL     1       1.081  -2.177   1.422  1.00  0.00    -0.022 A 
ATOM     20  F   UNL     1       1.146  -3.026  -0.778  1.00  0.00    -0.206 F 
ATOM     21  H   UNL     1       2.904   0.271   2.706  1.00  0.00     0.063 H 
ATOM     22  H   UNL     1       0.390  -2.900   1.676  1.00  0.00     0.066 H 
BRANCH  14  23
ATOM     23  C   UNL     1       2.961  -0.901  -1.655  1.00  0.00     0.069 A 
ATOM     24  C   UNL     1       2.042  -0.379  -2.605  1.00  0.00     0.130 A 
ATOM     25  C   UNL     1       2.432   0.000  -3.890  1.00  0.00    -0.019 A 
ATOM     26  C   UNL     1       3.764  -0.111  -4.257  1.00  0.00    -0.055 A 
ATOM     27  H   UNL     1       1.736   0.360  -4.561  1.00  0.00     0.066 H 
ATOM     28  C   UNL     1       4.315  -1.024  -2.047  1.00  0.00     0.130 A 
ATOM     29  C   UNL     1       4.685  -0.629  -3.348  1.00  0.00    -0.019 A 
ATOM     30  H   UNL     1       4.072   0.188  -5.195  1.00  0.00     0.063 H 
ATOM     31  H   UNL     1       5.671  -0.726  -3.637  1.00  0.00     0.066 H 
BRANCH  24  32
ATOM     32  O   UNL     1       0.706  -0.309  -2.282  1.00  0.00    -0.493 OA
BRANCH  32  33
ATOM     33  C   UNL     1       0.253   1.024  -2.024  1.00  0.00     0.085 C 
ATOM     34  H   UNL     1       1.076   1.704  -2.096  1.00  0.00     0.070 H 
ATOM     35  H   UNL     1      -0.492   1.299  -2.742  1.00  0.00     0.070 H 
BRANCH  33  36
ATOM     36  C   UNL     1      -0.336   1.082  -0.623  1.00  0.00    -0.031 C 
ATOM     37  H   UNL     1      -0.678   2.076  -0.420  1.00  0.00     0.027 H 
ATOM     38  H   UNL     1       0.414   0.811   0.091  1.00  0.00     0.027 H 
ATOM     39  H   UNL     1      -1.158   0.401  -0.553  1.00  0.00     0.027 H 
ENDBRANCH  33  36
ENDBRANCH  32  33
ENDBRANCH  24  32
BRANCH  28  40
ATOM     40  O   UNL     1       5.414  -1.499  -1.382  1.00  0.00    -0.493 OA
BRANCH  40  41
ATOM     41  C   UNL     1       5.502  -1.682   0.023  1.00  0.00     0.085 C 
ATOM     42  H   UNL     1       6.169  -2.492   0.231  1.00  0.00     0.070 H 
ATOM     43  H   UNL     1       4.526  -1.899   0.405  1.00  0.00     0.070 H 
BRANCH  41  44
ATOM     44  C   UNL     1       6.023  -0.419   0.697  1.00  0.00    -0.031 C 
ATOM     45  H   UNL     1       7.000  -0.192   0.322  1.00  0.00     0.027 H 
ATOM     46  H   UNL     1       6.074  -0.573   1.754  1.00  0.00     0.027 H 
ATOM     47  H   UNL     1       5.362   0.396   0.486  1.00  0.00     0.027 H 
ENDBRANCH  41  44
ENDBRANCH  40  41
ENDBRANCH  28  40
ENDBRANCH  14  23
ENDBRANCH  11  13
BRANCH  11  48
ATOM     48  C   UNL     1       2.019  -1.862   4.809  1.00  0.00    -0.049 C 
ATOM     49  H   UNL     1       2.886  -1.238   4.861  1.00  0.00     0.024 H 
ATOM     50  H   UNL     1       2.303  -2.840   4.479  1.00  0.00     0.024 H 
ATOM     51  H   UNL     1       1.569  -1.929   5.777  1.00  0.00     0.024 H 
ENDBRANCH  11  48
ENDBRANCH   8  11
ENDBRANCH   4   7
ENDBRANCH   1   4
BRANCH   1  52
ATOM     52  C   UNL     1       2.844   4.005   3.964  1.00  0.00    -0.052 C 
ATOM     53  H   UNL     1       1.889   4.242   4.385  1.00  0.00     0.027 H 
ATOM     54  H   UNL     1       3.047   4.528   3.053  1.00  0.00     0.027 H 
BRANCH  52  55
ATOM     55  C   UNL     1       3.924   4.440   4.958  1.00  0.00    -0.052 C 
ATOM     56  H   UNL     1       3.724   3.956   5.891  1.00  0.00     0.027 H 
ATOM     57  H   UNL     1       3.866   5.508   5.000  1.00  0.00     0.027 H 
BRANCH  55  58
ATOM     58  C   UNL     1       5.369   4.117   4.561  1.00  0.00    -0.036 C 
ATOM     59  H   UNL     1       5.465   3.053   4.499  1.00  0.00     0.028 H 
ATOM     60  H   UNL     1       5.988   4.561   5.312  1.00  0.00     0.028 H 
BRANCH  58  61
ATOM     61  C   UNL     1       5.830   4.711   3.230  1.00  0.00     0.018 C 
ATOM     62  H   UNL     1       5.192   4.349   2.451  1.00  0.00     0.049 H 
ATOM     63  H   UNL     1       6.845   4.412   3.070  1.00  0.00     0.049 H 
BRANCH  61  64
ATOM     64  N   UNL     1       5.786   6.165   3.236  1.00  0.00    -0.352 N 
ATOM     65  C   UNL     1       6.805   7.078   3.148  1.00  0.00     0.251 C 
ATOM     66  H   UNL     1       4.885   6.553   3.316  1.00  0.00     0.163 HD
ATOM     67  O   UNL     1       6.591   8.263   3.408  1.00  0.00    -0.269 OA
BRANCH  65  68
ATOM     68  C   UNL     1       8.164   6.655   2.751  1.00  0.00     0.039 A 
ATOM     69  C   UNL     1       9.264   7.173   3.442  1.00  0.00    -0.049 A 
ATOM     70  C   UNL     1       8.361   5.788   1.672  1.00  0.00    -0.049 A 
ATOM     71  C   UNL     1      10.556   6.776   3.090  1.00  0.00    -0.053 A 
ATOM     72  H   UNL     1       9.121   7.847   4.210  1.00  0.00     0.063 H 
ATOM     73  C   UNL     1       9.646   5.344   1.364  1.00  0.00    -0.053 A 
ATOM     74  H   UNL     1       7.557   5.478   1.105  1.00  0.00     0.063 H 
ATOM     75  C   UNL     1      10.756   5.834   2.068  1.00  0.00    -0.014 A 
ATOM     76  H   UNL     1      11.368   7.178   3.584  1.00  0.00     0.063 H 
ATOM     77  H   UNL     1       9.781   4.649   0.613  1.00  0.00     0.063 H 
BRANCH  75  78
ATOM     78  C   UNL     1      12.118   5.349   1.724  1.00  0.00     0.031 A 
ATOM     79  C   UNL     1      12.709   5.643   0.373  1.00  0.00     0.074 A 
ATOM     80  C   UNL     1      12.796   4.590   2.607  1.00  0.00     0.049 A 
ATOM     81  N   UNL     1      13.842   5.237  -0.142  1.00  0.00    -0.248 NA
ATOM     82  C   UNL     1      11.908   6.486  -0.529  1.00  0.00    -0.034 C 
ATOM     83  C   UNL     1      12.312   4.200   3.932  1.00  0.00    -0.036 A 
ATOM     84  N   UNL     1      14.030   3.997   2.516  1.00  0.00    -0.354 N 
ATOM     85  C   UNL     1      13.886   5.766  -1.425  1.00  0.00     0.074 A 
ATOM     86  C   UNL     1      12.643   6.477  -1.632  1.00  0.00    -0.034 C 
ATOM     87  H   UNL     1      11.009   6.960  -0.350  1.00  0.00     0.065 H 
ATOM     88  C   UNL     1      13.242   3.442   4.534  1.00  0.00    -0.036 A 
ATOM     89  H   UNL     1      11.401   4.465   4.338  1.00  0.00     0.065 H 
ATOM     90  C   UNL     1      14.371   3.262   3.626  1.00  0.00     0.049 A 
ATOM     91  H   UNL     1      14.617   4.089   1.731  1.00  0.00     0.167 HD
ATOM     92  C   UNL     1      14.883   5.686  -2.338  1.00  0.00     0.037 A 
ATOM     93  H   UNL     1      12.366   6.920  -2.521  1.00  0.00     0.065 H 
ATOM     94  H   UNL     1      13.171   3.050   5.486  1.00  0.00     0.065 H 
ATOM     95  C   UNL     1      15.463   2.515   3.877  1.00  0.00     0.037 A 
ATOM     96  C   UNL     1      16.127   4.992  -2.124  1.00  0.00     0.049 A 
ATOM     97  C   UNL     1      16.552   2.436   2.841  1.00  0.00     0.074 A 
ATOM     98  C   UNL     1      17.215   4.888  -2.972  1.00  0.00    -0.036 A 
ATOM     99  N   UNL     1      16.446   4.282  -0.976  1.00  0.00    -0.354 N 
ATOM    100  N   UNL     1      16.607   2.990   1.654  1.00  0.00    -0.248 NA
ATOM    101  C   UNL     1      17.736   1.635   3.183  1.00  0.00    -0.034 C 
ATOM    102  C   UNL     1      18.177   4.082  -2.354  1.00  0.00    -0.036 A 
ATOM    103  H   UNL     1      17.303   5.330  -3.901  1.00  0.00     0.065 H 
ATOM    104  C   UNL     1      17.708   3.725  -1.100  1.00  0.00     0.049 A 
ATOM    105  H   UNL     1      15.862   4.188  -0.189  1.00  0.00     0.167 HD
ATOM    106  C   UNL     1      17.836   2.627   1.120  1.00  0.00     0.074 A 
ATOM    107  C   UNL     1      18.504   1.821   2.120  1.00  0.00    -0.034 C 
ATOM    108  H   UNL     1      17.920   1.074   4.030  1.00  0.00     0.065 H 
ATOM    109  H   UNL     1      19.082   3.802  -2.762  1.00  0.00     0.065 H 
ATOM    110  C   UNL     1      18.363   2.933  -0.091  1.00  0.00     0.037 A 
ATOM    111  H   UNL     1      19.458   1.440   2.017  1.00  0.00     0.065 H 
BRANCH  92 112
ATOM    112  C   UNL     1      14.678   6.378  -3.655  1.00  0.00     0.064 A 
ATOM    113  C   UNL     1      14.677   7.778  -3.754  1.00  0.00     0.173 A 
ATOM    114  C   UNL     1      14.529   5.637  -4.838  1.00  0.00     0.173 A 
ATOM    115  F   UNL     1      14.805   8.532  -2.652  1.00  0.00    -0.203 F 
ATOM    116  C   UNL     1      14.509   8.410  -4.984  1.00  0.00     0.198 A 
ATOM    117  C   UNL     1      14.392   6.273  -6.069  1.00  0.00     0.198 A 
ATOM    118  F   UNL     1      14.529   4.296  -4.801  1.00  0.00    -0.203 F 
ATOM    119  F   UNL     1      14.468   9.748  -5.047  1.00  0.00    -0.200 F 
ATOM    120  C   UNL     1      14.375   7.657  -6.141  1.00  0.00     0.200 A 
ATOM    121  F   UNL     1      14.276   5.544  -7.188  1.00  0.00    -0.200 F 
ATOM    122  F   UNL     1      14.225   8.267  -7.324  1.00  0.00    -0.200 F 
ENDBRANCH  92 112
BRANCH  95 123
ATOM    123  C   UNL     1      15.588   1.790   5.168  1.00  0.00     0.064 A 
ATOM    124  C   UNL     1      16.543   2.172   6.122  1.00  0.00     0.173 A 
ATOM    125  C   UNL     1      14.768   0.693   5.470  1.00  0.00     0.173 A 
ATOM    126  F   UNL     1      17.364   3.203   5.871  1.00  0.00    -0.203 F 
ATOM    127  C   UNL     1      16.689   1.469   7.316  1.00  0.00     0.198 A 
ATOM    128  C   UNL     1      14.895   0.010   6.678  1.00  0.00     0.198 A 
ATOM    129  F   UNL     1      13.834   0.291   4.596  1.00  0.00    -0.203 F 
ATOM    130  F   UNL     1      17.644   1.824   8.186  1.00  0.00    -0.200 F 
ATOM    131  C   UNL     1      15.862   0.392   7.595  1.00  0.00     0.200 A 
ATOM    132  F   UNL     1      14.083  -1.021   6.950  1.00  0.00    -0.200 F 
ATOM    133  F   UNL     1      16.003  -0.284   8.744  1.00  0.00    -0.200 F 
ENDBRANCH  95 123
BRANCH 110 134
ATOM    134  C   UNL     1      19.743   2.423  -0.389  1.00  0.00     0.064 A 
ATOM    135  C   UNL     1      19.988   1.065  -0.638  1.00  0.00     0.173 A 
ATOM    136  C   UNL     1      20.827   3.311  -0.462  1.00  0.00     0.173 A 
ATOM    137  F   UNL     1      18.988   0.173  -0.564  1.00  0.00    -0.203 F 
ATOM    138  C   UNL     1      21.272   0.611  -0.926  1.00  0.00     0.198 A 
ATOM    139  C   UNL     1      22.104   2.858  -0.780  1.00  0.00     0.198 A 
ATOM    140  F   UNL     1      20.644   4.621  -0.238  1.00  0.00    -0.203 F 
ATOM    141  F   UNL     1      21.492  -0.698  -1.113  1.00  0.00    -0.200 F 
ATOM    142  C   UNL     1      22.327   1.508  -1.004  1.00  0.00     0.200 A 
ATOM    143  F   UNL     1      23.119   3.728  -0.868  1.00  0.00    -0.200 F 
ATOM    144  F   UNL     1      23.561   1.070  -1.288  1.00  0.00    -0.200 F 
ENDBRANCH 110 134
ENDBRANCH  75  78
ENDBRANCH  65  68
ENDBRANCH  61  64
ENDBRANCH  58  61
ENDBRANCH  55  58
ENDBRANCH  52  55
ENDBRANCH   1  52
TORSDOF 22
