REMARK SMILES O=C1NC(=O)/C(=C/c2ccc(OCc3cn(-c4ccc(C(=O)NCCCCCCNC(=O)c5ccc(-c6c7nc(c(-c8c(F)c(F)c(F)c(F)c8F)c8ccc([nH]8)c(-c8c(F)c(F)c(F)c(F)c8F)c8nc(c(-c9c(F)c(F)c(F)c(F)c9F)c9ccc6[nH]9)C=C8)C=C7)cc5)cc4)nn3)cc2)S1
REMARK SMILES IDX 25 1 24 4 23 7 21 8 22 9 20 11 17 12 18 13 97 14 19 15 96 17
REMARK SMILES IDX 16 21 14 22 15 23 99 24 98 26 13 27 12 30 11 31 8 32 9 33
REMARK SMILES IDX 101 34 10 35 100 37 7 41 1 42 2 43 3 44 102 45 4 46 6 48
REMARK SMILES IDX 5 49 26 51 27 54 28 57 29 60 30 63 31 64 32 66 33 67 34 68
REMARK SMILES IDX 95 69 35 70 94 72 36 74 37 77 38 78 88 79 39 80 93 81 87 82
REMARK SMILES IDX 89 83 40 84 92 85 86 87 85 89 41 91 73 94 53 95 72 96 54 97
REMARK SMILES IDX 57 98 71 99 90 100 55 101 56 103 70 105 91 106 58 109 42 111
REMARK SMILES IDX 43 112 51 113 44 114 45 115 49 116 52 117 46 118 47 119
REMARK SMILES IDX 50 120 48 121 74 122 75 123 83 124 76 125 77 126 81 127
REMARK SMILES IDX 84 128 78 129 79 130 82 131 80 132 59 133 60 134 68 135
REMARK SMILES IDX 61 136 62 137 66 138 69 139 63 140 64 141 67 142 65 143
REMARK H PARENT 25 2 25 3 24 5 24 6 23 10 18 16 97 18 19 19 96 20 15 25 13 28
REMARK H PARENT 13 29 9 36 101 38 10 39 100 40 3 47 7 50 26 52 26 53 27 55
REMARK H PARENT 27 56 28 58 28 59 29 61 29 62 30 65 34 71 95 73 35 75 94 76
REMARK H PARENT 93 86 87 88 89 90 92 92 86 93 54 102 57 104 90 107 55 108
REMARK H PARENT 91 110
REMARK Flexibility Score: inf
ROOT
ATOM      1  C   UNL     1      -8.103  10.046  -2.422  1.00  0.00    -0.036 C 
ATOM      2  H   UNL     1      -8.086   8.977  -2.464  1.00  0.00     0.028 H 
ATOM      3  H   UNL     1      -7.417  10.477  -3.121  1.00  0.00     0.028 H 
ENDROOT
BRANCH   1   4
ATOM      4  C   UNL     1      -7.678  10.489  -1.020  1.00  0.00     0.018 C 
ATOM      5  H   UNL     1      -6.614  10.422  -0.932  1.00  0.00     0.049 H 
ATOM      6  H   UNL     1      -7.987  11.500  -0.857  1.00  0.00     0.049 H 
BRANCH   4   7
ATOM      7  N   UNL     1      -8.298   9.630  -0.034  1.00  0.00    -0.352 N 
ATOM      8  C   UNL     1      -7.837   8.574   0.706  1.00  0.00     0.251 C 
ATOM      9  O   UNL     1      -8.647   7.991   1.426  1.00  0.00    -0.269 OA
ATOM     10  H   UNL     1      -9.242   9.849   0.141  1.00  0.00     0.163 HD
BRANCH   8  11
ATOM     11  C   UNL     1      -6.404   8.171   0.745  1.00  0.00     0.039 A 
ATOM     12  C   UNL     1      -3.691   7.597   1.121  1.00  0.00     0.066 A 
ATOM     13  C   UNL     1      -4.626   7.190   2.079  1.00  0.00    -0.036 A 
ATOM     14  C   UNL     1      -4.110   8.210  -0.059  1.00  0.00    -0.036 A 
ATOM     15  C   UNL     1      -5.970   7.514   1.906  1.00  0.00    -0.047 A 
ATOM     16  H   UNL     1      -4.322   6.656   2.908  1.00  0.00     0.065 H 
ATOM     17  C   UNL     1      -5.474   8.418  -0.270  1.00  0.00    -0.047 A 
ATOM     18  H   UNL     1      -3.420   8.505  -0.767  1.00  0.00     0.065 H 
ATOM     19  H   UNL     1      -6.654   7.267   2.639  1.00  0.00     0.063 H 
ATOM     20  H   UNL     1      -5.801   8.759  -1.188  1.00  0.00     0.063 H 
BRANCH  12  21
ATOM     21  N   UNL     1      -2.326   7.348   1.343  1.00  0.00    -0.220 N 
ATOM     22  C   UNL     1      -0.147   7.368   1.378  1.00  0.00     0.120 A 
ATOM     23  C   UNL     1      -1.238   8.079   0.923  1.00  0.00     0.058 A 
ATOM     24  N   UNL     1      -0.603   6.279   2.075  1.00  0.00    -0.131 NA
ATOM     25  H   UNL     1      -1.238   8.962   0.388  1.00  0.00     0.086 H 
ATOM     26  N   UNL     1      -1.921   6.297   2.081  1.00  0.00    -0.062 NA
BRANCH  22  27
ATOM     27  C   UNL     1       1.316   7.665   1.324  1.00  0.00     0.134 C 
ATOM     28  H   UNL     1       1.432   8.719   1.177  1.00  0.00     0.078 H 
ATOM     29  H   UNL     1       1.721   7.309   2.248  1.00  0.00     0.078 H 
BRANCH  27  30
ATOM     30  O   UNL     1       2.051   6.990   0.287  1.00  0.00    -0.487 OA
BRANCH  30  31
ATOM     31  C   UNL     1       2.178   5.629   0.354  1.00  0.00     0.119 A 
ATOM     32  C   UNL     1       2.209   2.827   0.122  1.00  0.00    -0.024 A 
ATOM     33  C   UNL     1       2.688   3.623  -0.921  1.00  0.00    -0.051 A 
ATOM     34  C   UNL     1       1.814   3.437   1.314  1.00  0.00    -0.051 A 
ATOM     35  C   UNL     1       2.662   5.019  -0.805  1.00  0.00    -0.019 A 
ATOM     36  H   UNL     1       3.060   3.183  -1.777  1.00  0.00     0.063 H 
ATOM     37  C   UNL     1       1.835   4.827   1.439  1.00  0.00    -0.019 A 
ATOM     38  H   UNL     1       1.504   2.856   2.108  1.00  0.00     0.063 H 
ATOM     39  H   UNL     1       3.005   5.602  -1.585  1.00  0.00     0.066 H 
ATOM     40  H   UNL     1       1.595   5.264   2.343  1.00  0.00     0.066 H 
BRANCH  32  41
ATOM     41  C   UNL     1       2.140   1.370  -0.012  1.00  0.00    -0.035 C 
ATOM     42  O   UNL     1      -2.450  -0.717   0.024  1.00  0.00    -0.261 OA
ATOM     43  C   UNL     1      -1.253  -0.436  -0.001  1.00  0.00     0.290 C 
ATOM     44  N   UNL     1      -0.237  -1.325  -0.045  1.00  0.00    -0.282 N 
ATOM     45  S   UNL     1      -0.623   1.196   0.010  1.00  0.00    -0.022 SA
ATOM     46  C   UNL     1       1.039  -0.841  -0.076  1.00  0.00     0.265 C 
ATOM     47  H   UNL     1      -0.412  -2.294  -0.053  1.00  0.00     0.174 HD
ATOM     48  C   UNL     1       1.012   0.645  -0.032  1.00  0.00     0.083 C 
ATOM     49  O   UNL     1       2.042  -1.529  -0.119  1.00  0.00    -0.268 OA
ATOM     50  H   UNL     1       3.033   0.859  -0.098  1.00  0.00     0.064 H 
ENDBRANCH  32  41
ENDBRANCH  30  31
ENDBRANCH  27  30
ENDBRANCH  22  27
ENDBRANCH  12  21
ENDBRANCH   8  11
ENDBRANCH   4   7
ENDBRANCH   1   4
BRANCH   1  51
ATOM     51  C   UNL     1      -9.511  10.531  -2.789  1.00  0.00    -0.052 C 
ATOM     52  H   UNL     1     -10.209  10.051  -2.136  1.00  0.00     0.027 H 
ATOM     53  H   UNL     1      -9.654  10.283  -3.820  1.00  0.00     0.027 H 
BRANCH  51  54
ATOM     54  C   UNL     1      -9.723  12.052  -2.679  1.00  0.00    -0.052 C 
ATOM     55  H   UNL     1      -9.719  12.309  -1.641  1.00  0.00     0.027 H 
ATOM     56  H   UNL     1     -10.650  12.250  -3.176  1.00  0.00     0.027 H 
BRANCH  54  57
ATOM     57  C   UNL     1      -8.678  12.931  -3.386  1.00  0.00    -0.036 C 
ATOM     58  H   UNL     1      -7.703  12.615  -3.079  1.00  0.00     0.028 H 
ATOM     59  H   UNL     1      -8.876  13.945  -3.110  1.00  0.00     0.028 H 
BRANCH  57  60
ATOM     60  C   UNL     1      -8.758  12.850  -4.900  1.00  0.00     0.018 C 
ATOM     61  H   UNL     1      -8.693  11.823  -5.196  1.00  0.00     0.049 H 
ATOM     62  H   UNL     1      -7.948  13.419  -5.306  1.00  0.00     0.049 H 
BRANCH  60  63
ATOM     63  N   UNL     1     -10.014  13.414  -5.414  1.00  0.00    -0.352 N 
ATOM     64  C   UNL     1     -10.518  13.429  -6.702  1.00  0.00     0.251 C 
ATOM     65  H   UNL     1     -10.585  13.846  -4.738  1.00  0.00     0.163 HD
ATOM     66  O   UNL     1     -11.369  14.243  -7.040  1.00  0.00    -0.269 OA
BRANCH  64  67
ATOM     67  C   UNL     1     -10.030  12.425  -7.659  1.00  0.00     0.039 A 
ATOM     68  C   UNL     1      -9.882  12.666  -9.029  1.00  0.00    -0.049 A 
ATOM     69  C   UNL     1      -9.678  11.200  -7.120  1.00  0.00    -0.049 A 
ATOM     70  C   UNL     1      -9.378  11.640  -9.827  1.00  0.00    -0.053 A 
ATOM     71  H   UNL     1     -10.137  13.579  -9.438  1.00  0.00     0.063 H 
ATOM     72  C   UNL     1      -8.847  10.391  -7.821  1.00  0.00    -0.053 A 
ATOM     73  H   UNL     1     -10.041  10.908  -6.200  1.00  0.00     0.063 H 
ATOM     74  C   UNL     1      -8.886  10.492  -9.196  1.00  0.00    -0.014 A 
ATOM     75  H   UNL     1      -9.369  11.725 -10.856  1.00  0.00     0.063 H 
ATOM     76  H   UNL     1      -8.214   9.728  -7.347  1.00  0.00     0.063 H 
BRANCH  74  77
ATOM     77  C   UNL     1      -8.331   9.348  -9.889  1.00  0.00     0.031 A 
ATOM     78  C   UNL     1      -7.032   9.632 -10.529  1.00  0.00     0.074 A 
ATOM     79  C   UNL     1      -8.793   8.096  -9.663  1.00  0.00     0.049 A 
ATOM     80  N   UNL     1      -6.793   9.735 -11.791  1.00  0.00    -0.248 NA
ATOM     81  C   UNL     1      -5.910  10.049  -9.671  1.00  0.00    -0.034 C 
ATOM     82  C   UNL     1      -9.843   7.653  -8.733  1.00  0.00    -0.036 A 
ATOM     83  N   UNL     1      -8.312   6.917 -10.142  1.00  0.00    -0.354 N 
ATOM     84  C   UNL     1      -5.432   9.997 -11.889  1.00  0.00     0.074 A 
ATOM     85  C   UNL     1      -5.019  10.438 -10.585  1.00  0.00    -0.034 C 
ATOM     86  H   UNL     1      -5.834  10.041  -8.642  1.00  0.00     0.065 H 
ATOM     87  C   UNL     1      -9.757   6.315  -8.551  1.00  0.00    -0.036 A 
ATOM     88  H   UNL     1     -10.540   8.270  -8.287  1.00  0.00     0.065 H 
ATOM     89  C   UNL     1      -8.749   5.787  -9.449  1.00  0.00     0.049 A 
ATOM     90  H   UNL     1      -7.703   6.865 -10.915  1.00  0.00     0.167 HD
ATOM     91  C   UNL     1      -4.712   9.533 -12.948  1.00  0.00     0.037 A 
ATOM     92  H   UNL     1      -4.162  10.977 -10.385  1.00  0.00     0.065 H 
ATOM     93  H   UNL     1     -10.316   5.762  -7.883  1.00  0.00     0.065 H 
ATOM     94  C   UNL     1      -8.231   4.538  -9.586  1.00  0.00     0.037 A 
ATOM     95  C   UNL     1      -5.596   9.083 -14.001  1.00  0.00     0.049 A 
ATOM     96  C   UNL     1      -7.487   4.521 -10.881  1.00  0.00     0.074 A 
ATOM     97  C   UNL     1      -6.617   9.680 -14.719  1.00  0.00    -0.036 A 
ATOM     98  N   UNL     1      -5.792   7.728 -14.139  1.00  0.00    -0.354 N 
ATOM     99  N   UNL     1      -8.070   4.629 -12.046  1.00  0.00    -0.248 NA
ATOM    100  C   UNL     1      -6.087   4.927 -10.845  1.00  0.00    -0.034 C 
ATOM    101  C   UNL     1      -7.641   8.687 -14.789  1.00  0.00    -0.036 A 
ATOM    102  H   UNL     1      -6.634  10.632 -15.117  1.00  0.00     0.065 H 
ATOM    103  C   UNL     1      -7.146   7.516 -14.216  1.00  0.00     0.049 A 
ATOM    104  H   UNL     1      -5.091   7.038 -14.175  1.00  0.00     0.167 HD
ATOM    105  C   UNL     1      -7.268   5.508 -12.762  1.00  0.00     0.074 A 
ATOM    106  C   UNL     1      -6.033   5.618 -11.988  1.00  0.00    -0.034 C 
ATOM    107  H   UNL     1      -5.354   4.736 -10.144  1.00  0.00     0.065 H 
ATOM    108  H   UNL     1      -8.582   8.814 -15.193  1.00  0.00     0.065 H 
ATOM    109  C   UNL     1      -7.787   6.313 -13.738  1.00  0.00     0.037 A 
ATOM    110  H   UNL     1      -5.212   6.167 -12.289  1.00  0.00     0.065 H 
BRANCH  91 111
ATOM    111  C   UNL     1      -3.264   9.102 -12.886  1.00  0.00     0.064 A 
ATOM    112  C   UNL     1      -2.630   8.720 -14.085  1.00  0.00     0.173 A 
ATOM    113  C   UNL     1      -2.567   8.768 -11.703  1.00  0.00     0.173 A 
ATOM    114  F   UNL     1      -3.195   8.988 -15.272  1.00  0.00    -0.203 F 
ATOM    115  C   UNL     1      -1.453   7.968 -14.094  1.00  0.00     0.198 A 
ATOM    116  C   UNL     1      -1.364   8.066 -11.718  1.00  0.00     0.198 A 
ATOM    117  F   UNL     1      -3.058   8.999 -10.482  1.00  0.00    -0.203 F 
ATOM    118  F   UNL     1      -0.968   7.509 -15.255  1.00  0.00    -0.200 F 
ATOM    119  C   UNL     1      -0.827   7.632 -12.909  1.00  0.00     0.200 A 
ATOM    120  F   UNL     1      -0.779   7.743 -10.556  1.00  0.00    -0.200 F 
ATOM    121  F   UNL     1       0.263   6.855 -12.909  1.00  0.00    -0.200 F 
ENDBRANCH  91 111
BRANCH  94 122
ATOM    122  C   UNL     1      -8.046   3.501  -8.537  1.00  0.00     0.064 A 
ATOM    123  C   UNL     1      -7.754   2.166  -8.866  1.00  0.00     0.173 A 
ATOM    124  C   UNL     1      -7.887   3.852  -7.181  1.00  0.00     0.173 A 
ATOM    125  F   UNL     1      -7.827   1.755 -10.141  1.00  0.00    -0.203 F 
ATOM    126  C   UNL     1      -7.316   1.247  -7.902  1.00  0.00     0.198 A 
ATOM    127  C   UNL     1      -7.457   2.934  -6.220  1.00  0.00     0.198 A 
ATOM    128  F   UNL     1      -8.052   5.119  -6.775  1.00  0.00    -0.203 F 
ATOM    129  F   UNL     1      -6.993  -0.003  -8.266  1.00  0.00    -0.200 F 
ATOM    130  C   UNL     1      -7.160   1.635  -6.582  1.00  0.00     0.200 A 
ATOM    131  F   UNL     1      -7.271   3.338  -4.955  1.00  0.00    -0.200 F 
ATOM    132  F   UNL     1      -6.685   0.774  -5.671  1.00  0.00    -0.200 F 
ENDBRANCH  94 122
BRANCH 109 133
ATOM    133  C   UNL     1      -9.201   6.078 -14.195  1.00  0.00     0.064 A 
ATOM    134  C   UNL     1     -10.331   6.162 -13.362  1.00  0.00     0.173 A 
ATOM    135  C   UNL     1      -9.431   5.934 -15.570  1.00  0.00     0.173 A 
ATOM    136  F   UNL     1     -10.207   6.410 -12.053  1.00  0.00    -0.203 F 
ATOM    137  C   UNL     1     -11.623   6.059 -13.878  1.00  0.00     0.198 A 
ATOM    138  C   UNL     1     -10.722   5.872 -16.088  1.00  0.00     0.198 A 
ATOM    139  F   UNL     1      -8.396   5.908 -16.424  1.00  0.00    -0.203 F 
ATOM    140  F   UNL     1     -12.682   6.133 -13.058  1.00  0.00    -0.200 F 
ATOM    141  C   UNL     1     -11.817   5.923 -15.242  1.00  0.00     0.200 A 
ATOM    142  F   UNL     1     -10.902   5.796 -17.414  1.00  0.00    -0.200 F 
ATOM    143  F   UNL     1     -13.058   5.868 -15.745  1.00  0.00    -0.200 F 
ENDBRANCH 109 133
ENDBRANCH  74  77
ENDBRANCH  64  67
ENDBRANCH  60  63
ENDBRANCH  57  60
ENDBRANCH  54  57
ENDBRANCH  51  54
ENDBRANCH   1  51
TORSDOF 18
