REMARK SMILES CC1=C(CC(=O)NCCCCCCNC(=O)c2ccc(-c3c4nc(c(-c5c(F)c(F)c(F)c(F)c5F)c5ccc([nH]5)c(-c5c(F)c(F)c(F)c(F)c5F)c5nc(c(-c6c(F)c(F)c(F)c(F)c6F)c6ccc3[nH]6)C=C5)C=C4)cc2)c2cc(F)ccc2/C1=C\c1ccc([S@@+](C)O)cc1
REMARK SMILES IDX 9 1 8 4 7 7 5 8 6 9 4 11 3 14 2 15 87 16 80 17 86 18 88 19
REMARK SMILES IDX 81 20 85 21 82 23 84 25 83 27 1 29 89 33 90 34 97 35 91 36
REMARK SMILES IDX 96 38 92 40 93 43 94 44 95 48 10 50 11 53 12 56 13 59 14 62
REMARK SMILES IDX 15 63 16 65 17 66 18 67 79 68 19 69 78 71 20 73 21 76 22 77
REMARK SMILES IDX 72 78 23 79 77 80 71 81 73 82 24 83 76 84 70 86 69 88 25 90
REMARK SMILES IDX 57 93 37 94 56 95 38 96 41 97 55 98 74 99 39 100 40 102
REMARK SMILES IDX 54 104 75 105 42 108 26 110 27 111 35 112 28 113 29 114
REMARK SMILES IDX 33 115 36 116 30 117 31 118 34 119 32 120 58 121 59 122
REMARK SMILES IDX 67 123 60 124 61 125 65 126 68 127 62 128 63 129 66 130
REMARK SMILES IDX 64 131 43 132 44 133 52 134 45 135 46 136 50 137 53 138
REMARK SMILES IDX 47 139 48 140 51 141 49 142
REMARK H PARENT 9 2 9 3 8 5 8 6 7 10 4 12 4 13 88 22 81 24 85 26 84 28 1 30
REMARK H PARENT 1 31 1 32 90 37 97 39 91 41 96 42 94 45 94 46 94 47 95 49
REMARK H PARENT 10 51 10 52 11 54 11 55 12 57 12 58 13 60 13 61 14 64 18 70
REMARK H PARENT 79 72 19 74 78 75 77 85 71 87 73 89 76 91 70 92 38 101 41 103
REMARK H PARENT 74 106 39 107 75 109
REMARK Flexibility Score: inf
ROOT
ATOM      1  C   UNL     1      -3.009   0.724  -0.708  1.00  0.00    -0.036 C 
ATOM      2  H   UNL     1      -2.579   1.207  -1.560  1.00  0.00     0.028 H 
ATOM      3  H   UNL     1      -2.771   1.219   0.210  1.00  0.00     0.028 H 
ENDROOT
BRANCH   1   4
ATOM      4  C   UNL     1      -2.428  -0.688  -0.612  1.00  0.00     0.017 C 
ATOM      5  H   UNL     1      -1.396  -0.622  -0.337  1.00  0.00     0.049 H 
ATOM      6  H   UNL     1      -2.982  -1.231   0.125  1.00  0.00     0.049 H 
BRANCH   4   7
ATOM      7  N   UNL     1      -2.536  -1.389  -1.873  1.00  0.00    -0.356 N 
ATOM      8  C   UNL     1      -1.569  -1.644  -2.798  1.00  0.00     0.224 C 
ATOM      9  O   UNL     1      -1.902  -2.184  -3.856  1.00  0.00    -0.275 OA
ATOM     10  H   UNL     1      -3.434  -1.730  -2.093  1.00  0.00     0.163 HD
BRANCH   8  11
ATOM     11  C   UNL     1      -0.106  -1.321  -2.501  1.00  0.00     0.053 C 
ATOM     12  H   UNL     1       0.156  -1.783  -1.572  1.00  0.00     0.042 H 
ATOM     13  H   UNL     1       0.462  -1.693  -3.328  1.00  0.00     0.042 H 
BRANCH  11  14
ATOM     14  C   UNL     1       0.198   0.139  -2.399  1.00  0.00    -0.027 C 
ATOM     15  C   UNL     1       0.745   0.831  -1.371  1.00  0.00    -0.039 C 
ATOM     16  C   UNL     1       0.836   2.257  -1.726  1.00  0.00    -0.014 C 
ATOM     17  C   UNL     1      -0.023   1.082  -3.509  1.00  0.00    -0.011 A 
ATOM     18  C   UNL     1       0.411   2.368  -3.136  1.00  0.00    -0.010 A 
ATOM     19  C   UNL     1       1.190   3.233  -0.865  1.00  0.00    -0.047 C 
ATOM     20  C   UNL     1      -0.538   0.849  -4.778  1.00  0.00    -0.018 A 
ATOM     21  C   UNL     1       0.394   3.409  -4.055  1.00  0.00    -0.051 A 
ATOM     22  H   UNL     1       1.429   2.952   0.099  1.00  0.00     0.064 H 
ATOM     23  C   UNL     1      -0.604   1.915  -5.670  1.00  0.00     0.123 A 
ATOM     24  H   UNL     1      -0.863  -0.092  -5.053  1.00  0.00     0.066 H 
ATOM     25  C   UNL     1      -0.136   3.182  -5.327  1.00  0.00    -0.026 A 
ATOM     26  H   UNL     1       0.768   4.337  -3.802  1.00  0.00     0.063 H 
ATOM     27  F   UNL     1      -1.113   1.719  -6.894  1.00  0.00    -0.207 F 
ATOM     28  H   UNL     1      -0.180   3.952  -6.012  1.00  0.00     0.065 H 
BRANCH  15  29
ATOM     29  C   UNL     1       1.224   0.303  -0.058  1.00  0.00    -0.039 C 
ATOM     30  H   UNL     1       1.060  -0.754  -0.017  1.00  0.00     0.028 H 
ATOM     31  H   UNL     1       0.686   0.778   0.736  1.00  0.00     0.028 H 
ATOM     32  H   UNL     1       2.269   0.506   0.049  1.00  0.00     0.028 H 
ENDBRANCH  15  29
BRANCH  19  33
ATOM     33  C   UNL     1       1.262   4.660  -1.188  1.00  0.00    -0.025 A 
ATOM     34  C   UNL     1       0.106   5.401  -1.458  1.00  0.00    -0.050 A 
ATOM     35  C   UNL     1       2.514   5.254  -1.359  1.00  0.00    -0.050 A 
ATOM     36  C   UNL     1       0.208   6.673  -2.030  1.00  0.00    -0.003 A 
ATOM     37  H   UNL     1      -0.823   5.009  -1.234  1.00  0.00     0.063 H 
ATOM     38  C   UNL     1       2.613   6.533  -1.913  1.00  0.00    -0.003 A 
ATOM     39  H   UNL     1       3.367   4.747  -1.076  1.00  0.00     0.063 H 
ATOM     40  C   UNL     1       1.463   7.236  -2.291  1.00  0.00     0.189 A 
ATOM     41  H   UNL     1      -0.648   7.201  -2.262  1.00  0.00     0.068 H 
ATOM     42  H   UNL     1       3.542   6.963  -2.044  1.00  0.00     0.068 H 
BRANCH  40  43
ATOM     43  S   UNL     1       1.585   8.721  -3.325  1.00  0.00     0.178 S 
BRANCH  43  44
ATOM     44  C   UNL     1       0.527   9.825  -2.355  1.00  0.00     0.137 C 
ATOM     45  H   UNL     1      -0.496   9.664  -2.622  1.00  0.00     0.085 H 
ATOM     46  H   UNL     1       0.793  10.841  -2.557  1.00  0.00     0.085 H 
ATOM     47  H   UNL     1       0.660   9.621  -1.313  1.00  0.00     0.085 H 
ENDBRANCH  43  44
BRANCH  43  48
ATOM     48  O   UNL     1       2.940   9.264  -2.647  1.00  0.00    -0.182 OA
ATOM     49  H   UNL     1       3.701   8.796  -3.026  1.00  0.00     0.283 HD
ENDBRANCH  43  48
ENDBRANCH  40  43
ENDBRANCH  19  33
ENDBRANCH  11  14
ENDBRANCH   8  11
ENDBRANCH   4   7
ENDBRANCH   1   4
BRANCH   1  50
ATOM     50  C   UNL     1      -4.536   0.761  -0.851  1.00  0.00    -0.052 C 
ATOM     51  H   UNL     1      -4.793   0.290  -1.777  1.00  0.00     0.027 H 
ATOM     52  H   UNL     1      -4.812   1.794  -0.804  1.00  0.00     0.027 H 
BRANCH  50  53
ATOM     53  C   UNL     1      -5.319   0.064   0.268  1.00  0.00    -0.052 C 
ATOM     54  H   UNL     1      -5.119  -0.985   0.207  1.00  0.00     0.027 H 
ATOM     55  H   UNL     1      -6.347   0.314   0.111  1.00  0.00     0.027 H 
BRANCH  53  56
ATOM     56  C   UNL     1      -4.981   0.527   1.686  1.00  0.00    -0.036 C 
ATOM     57  H   UNL     1      -3.942   0.339   1.860  1.00  0.00     0.028 H 
ATOM     58  H   UNL     1      -5.625  -0.019   2.343  1.00  0.00     0.028 H 
BRANCH  56  59
ATOM     59  C   UNL     1      -5.246   2.004   1.953  1.00  0.00     0.018 C 
ATOM     60  H   UNL     1      -4.735   2.583   1.212  1.00  0.00     0.049 H 
ATOM     61  H   UNL     1      -4.893   2.222   2.939  1.00  0.00     0.049 H 
BRANCH  59  62
ATOM     62  N   UNL     1      -6.662   2.339   1.910  1.00  0.00    -0.352 N 
ATOM     63  C   UNL     1      -7.406   3.084   2.794  1.00  0.00     0.251 C 
ATOM     64  H   UNL     1      -7.157   1.981   1.138  1.00  0.00     0.163 HD
ATOM     65  O   UNL     1      -8.627   3.145   2.682  1.00  0.00    -0.269 OA
BRANCH  63  66
ATOM     66  C   UNL     1      -6.733   3.786   3.909  1.00  0.00     0.039 A 
ATOM     67  C   UNL     1      -5.550   4.494   3.693  1.00  0.00    -0.049 A 
ATOM     68  C   UNL     1      -7.280   3.710   5.193  1.00  0.00    -0.049 A 
ATOM     69  C   UNL     1      -4.825   4.970   4.780  1.00  0.00    -0.053 A 
ATOM     70  H   UNL     1      -5.214   4.662   2.732  1.00  0.00     0.063 H 
ATOM     71  C   UNL     1      -6.593   4.269   6.276  1.00  0.00    -0.053 A 
ATOM     72  H   UNL     1      -8.189   3.244   5.342  1.00  0.00     0.063 H 
ATOM     73  C   UNL     1      -5.332   4.855   6.086  1.00  0.00    -0.014 A 
ATOM     74  H   UNL     1      -3.906   5.412   4.626  1.00  0.00     0.063 H 
ATOM     75  H   UNL     1      -7.014   4.250   7.218  1.00  0.00     0.063 H 
BRANCH  73  76
ATOM     76  C   UNL     1      -4.511   5.340   7.227  1.00  0.00     0.031 A 
ATOM     77  C   UNL     1      -3.979   4.378   8.256  1.00  0.00     0.074 A 
ATOM     78  C   UNL     1      -4.177   6.644   7.290  1.00  0.00     0.049 A 
ATOM     79  N   UNL     1      -3.198   4.616   9.281  1.00  0.00    -0.248 NA
ATOM     80  C   UNL     1      -4.373   2.967   8.123  1.00  0.00    -0.034 C 
ATOM     81  C   UNL     1      -4.625   7.671   6.348  1.00  0.00    -0.036 A 
ATOM     82  N   UNL     1      -3.360   7.323   8.158  1.00  0.00    -0.354 N 
ATOM     83  C   UNL     1      -3.020   3.394   9.917  1.00  0.00     0.074 A 
ATOM     84  C   UNL     1      -3.800   2.420   9.187  1.00  0.00    -0.034 C 
ATOM     85  H   UNL     1      -4.946   2.518   7.392  1.00  0.00     0.065 H 
ATOM     86  C   UNL     1      -4.028   8.833   6.649  1.00  0.00    -0.036 A 
ATOM     87  H   UNL     1      -5.293   7.524   5.575  1.00  0.00     0.065 H 
ATOM     88  C   UNL     1      -3.205   8.651   7.840  1.00  0.00     0.049 A 
ATOM     89  H   UNL     1      -2.927   6.900   8.934  1.00  0.00     0.167 HD
ATOM     90  C   UNL     1      -2.258   3.109  11.000  1.00  0.00     0.037 A 
ATOM     91  H   UNL     1      -3.897   1.429   9.458  1.00  0.00     0.065 H 
ATOM     92  H   UNL     1      -4.134   9.715   6.123  1.00  0.00     0.065 H 
ATOM     93  C   UNL     1      -2.485   9.616   8.443  1.00  0.00     0.037 A 
ATOM     94  C   UNL     1      -1.458   4.073  11.709  1.00  0.00     0.049 A 
ATOM     95  C   UNL     1      -1.685   9.278   9.669  1.00  0.00     0.074 A 
ATOM     96  C   UNL     1      -0.631   3.869  12.800  1.00  0.00    -0.036 A 
ATOM     97  N   UNL     1      -1.383   5.421  11.396  1.00  0.00    -0.354 N 
ATOM     98  N   UNL     1      -1.512   8.115  10.246  1.00  0.00    -0.248 NA
ATOM     99  C   UNL     1      -0.991  10.389  10.335  1.00  0.00    -0.034 C 
ATOM    100  C   UNL     1      -0.088   5.101  13.174  1.00  0.00    -0.036 A 
ATOM    101  H   UNL     1      -0.447   2.963  13.259  1.00  0.00     0.065 H 
ATOM    102  C   UNL     1      -0.541   6.066  12.288  1.00  0.00     0.049 A 
ATOM    103  H   UNL     1      -1.856   5.856  10.650  1.00  0.00     0.167 HD
ATOM    104  C   UNL     1      -0.685   8.350  11.336  1.00  0.00     0.074 A 
ATOM    105  C   UNL     1      -0.370   9.763  11.325  1.00  0.00    -0.034 C 
ATOM    106  H   UNL     1      -0.987  11.393  10.094  1.00  0.00     0.065 H 
ATOM    107  H   UNL     1       0.543   5.265  13.973  1.00  0.00     0.065 H 
ATOM    108  C   UNL     1      -0.236   7.473  12.265  1.00  0.00     0.037 A 
ATOM    109  H   UNL     1       0.258  10.225  12.002  1.00  0.00     0.065 H 
BRANCH  90 110
ATOM    110  C   UNL     1      -2.238   1.692  11.495  1.00  0.00     0.064 A 
ATOM    111  C   UNL     1      -1.550   0.684  10.803  1.00  0.00     0.173 A 
ATOM    112  C   UNL     1      -2.838   1.356  12.718  1.00  0.00     0.173 A 
ATOM    113  F   UNL     1      -0.968   0.952   9.624  1.00  0.00    -0.203 F 
ATOM    114  C   UNL     1      -1.472  -0.609  11.313  1.00  0.00     0.198 A 
ATOM    115  C   UNL     1      -2.736   0.068  13.238  1.00  0.00     0.198 A 
ATOM    116  F   UNL     1      -3.501   2.285  13.424  1.00  0.00    -0.203 F 
ATOM    117  F   UNL     1      -0.830  -1.562  10.622  1.00  0.00    -0.200 F 
ATOM    118  C   UNL     1      -2.055  -0.913  12.534  1.00  0.00     0.200 A 
ATOM    119  F   UNL     1      -3.287  -0.220  14.425  1.00  0.00    -0.200 F 
ATOM    120  F   UNL     1      -1.961  -2.154  13.033  1.00  0.00    -0.200 F 
ENDBRANCH  90 110
BRANCH  93 121
ATOM    121  C   UNL     1      -2.489  10.993   7.885  1.00  0.00     0.064 A 
ATOM    122  C   UNL     1      -1.340  11.534   7.293  1.00  0.00     0.173 A 
ATOM    123  C   UNL     1      -3.645  11.788   7.912  1.00  0.00     0.173 A 
ATOM    124  F   UNL     1      -0.204  10.821   7.263  1.00  0.00    -0.203 F 
ATOM    125  C   UNL     1      -1.345  12.819   6.756  1.00  0.00     0.198 A 
ATOM    126  C   UNL     1      -3.657  13.061   7.348  1.00  0.00     0.198 A 
ATOM    127  F   UNL     1      -4.772  11.315   8.466  1.00  0.00    -0.203 F 
ATOM    128  F   UNL     1      -0.223  13.326   6.225  1.00  0.00    -0.200 F 
ATOM    129  C   UNL     1      -2.506  13.578   6.775  1.00  0.00     0.200 A 
ATOM    130  F   UNL     1      -4.786  13.783   7.354  1.00  0.00    -0.200 F 
ATOM    131  F   UNL     1      -2.514  14.809   6.245  1.00  0.00    -0.200 F 
ENDBRANCH  93 121
BRANCH 108 132
ATOM    132  C   UNL     1       0.647   8.007  13.354  1.00  0.00     0.064 A 
ATOM    133  C   UNL     1       0.124   8.778  14.402  1.00  0.00     0.173 A 
ATOM    134  C   UNL     1       2.010   7.677  13.393  1.00  0.00     0.173 A 
ATOM    135  F   UNL     1      -1.170   9.130  14.400  1.00  0.00    -0.203 F 
ATOM    136  C   UNL     1       0.937   9.207  15.447  1.00  0.00     0.198 A 
ATOM    137  C   UNL     1       2.814   8.086  14.453  1.00  0.00     0.198 A 
ATOM    138  F   UNL     1       2.555   6.935  12.417  1.00  0.00    -0.203 F 
ATOM    139  F   UNL     1       0.423   9.966  16.424  1.00  0.00    -0.200 F 
ATOM    140  C   UNL     1       2.278   8.852  15.477  1.00  0.00     0.200 A 
ATOM    141  F   UNL     1       4.105   7.729  14.489  1.00  0.00    -0.200 F 
ATOM    142  F   UNL     1       3.054   9.250  16.494  1.00  0.00    -0.200 F 
ENDBRANCH 108 132
ENDBRANCH  73  76
ENDBRANCH  63  66
ENDBRANCH  59  62
ENDBRANCH  56  59
ENDBRANCH  53  56
ENDBRANCH  50  53
ENDBRANCH   1  50
TORSDOF 19
