REMARK SMILES [NH3+][C@@H](Cc1c[nH]c2ccccc12)C(=O)N[C@@H](CS)C(=O)N[C@@H](CO)C(=O)NCCCCCCNC(=O)c1ccc(-c2c3nc(c(-c4c(F)c(F)c(F)c(F)c4F)c4ccc([nH]4)c(-c4c(F)c(F)c(F)c(F)c4F)c4nc(c(-c5c(F)c(F)c(F)c(F)c5F)c5ccc2[nH]5)C=C4)C=C3)cc1
REMARK SMILES IDX 28 1 27 4 25 5 26 6 22 8 21 10 19 11 20 12 16 14 15 16 13 17
REMARK SMILES IDX 14 18 2 20 1 22 3 26 4 29 5 30 12 31 6 32 7 34 11 35 8 37
REMARK SMILES IDX 10 38 9 40 17 44 18 47 23 49 24 52 29 54 30 57 31 60 32 63
REMARK SMILES IDX 33 66 34 69 35 70 36 72 37 73 38 74 99 75 39 76 98 78 40 80
REMARK SMILES IDX 41 83 42 84 92 85 43 86 97 87 91 88 93 89 44 90 96 91 90 93
REMARK SMILES IDX 89 95 45 97 77 100 57 101 76 102 58 103 61 104 75 105 94 106
REMARK SMILES IDX 59 107 60 109 74 111 95 112 62 115 46 117 47 118 55 119
REMARK SMILES IDX 48 120 49 121 53 122 56 123 50 124 51 125 54 126 52 127
REMARK SMILES IDX 78 128 79 129 87 130 80 131 81 132 85 133 88 134 82 135
REMARK SMILES IDX 83 136 86 137 84 138 63 139 64 140 72 141 65 142 66 143
REMARK SMILES IDX 70 144 73 145 67 146 68 147 71 148 69 149
REMARK H PARENT 28 2 28 3 27 7 22 9 21 13 16 15 15 19 2 21 1 23 1 24 1 25 3 27
REMARK H PARENT 3 28 5 33 6 36 11 39 8 41 10 42 9 43 17 45 17 46 18 48 23 50
REMARK H PARENT 23 51 24 53 29 55 29 56 30 58 30 59 31 61 31 62 32 64 32 65
REMARK H PARENT 33 67 33 68 34 71 38 77 99 79 39 81 98 82 97 92 91 94 93 96
REMARK H PARENT 96 98 90 99 58 108 61 110 94 113 59 114 95 116
REMARK Flexibility Score: inf
ROOT
ATOM      1  C   UNL     1      -5.305   1.539   5.864  1.00  0.00     0.017 C 
ATOM      2  H   UNL     1      -4.713   0.712   5.531  1.00  0.00     0.049 H 
ATOM      3  H   UNL     1      -6.263   1.212   6.209  1.00  0.00     0.049 H 
ENDROOT
BRANCH   1   4
ATOM      4  N   UNL     1      -5.512   2.444   4.752  1.00  0.00    -0.354 N 
ATOM      5  C   UNL     1      -5.283   2.290   3.420  1.00  0.00     0.244 C 
ATOM      6  O   UNL     1      -5.829   3.093   2.658  1.00  0.00    -0.273 OA
ATOM      7  H   UNL     1      -5.882   3.321   5.003  1.00  0.00     0.163 HD
BRANCH   5   8
ATOM      8  C   UNL     1      -4.452   1.131   2.864  1.00  0.00     0.131 C 
ATOM      9  H   UNL     1      -4.208   1.375   1.851  1.00  0.00     0.066 H 
BRANCH   8  10
ATOM     10  N   UNL     1      -3.186   0.996   3.575  1.00  0.00    -0.340 N 
ATOM     11  C   UNL     1      -2.091   0.365   3.107  1.00  0.00     0.244 C 
ATOM     12  O   UNL     1      -1.702  -0.577   3.805  1.00  0.00    -0.273 OA
ATOM     13  H   UNL     1      -3.126   1.400   4.470  1.00  0.00     0.164 HD
BRANCH  11  14
ATOM     14  C   UNL     1      -1.460   0.706   1.746  1.00  0.00     0.117 C 
ATOM     15  H   UNL     1      -0.401   0.740   1.895  1.00  0.00     0.064 H 
BRANCH  14  16
ATOM     16  N   UNL     1      -1.718  -0.369   0.811  1.00  0.00    -0.338 N 
ATOM     17  C   UNL     1      -0.882  -1.436   0.585  1.00  0.00     0.279 C 
ATOM     18  O   UNL     1      -1.426  -2.514   0.323  1.00  0.00    -0.268 OA
ATOM     19  H   UNL     1      -2.558  -0.333   0.297  1.00  0.00     0.164 HD
BRANCH  17  20
ATOM     20  C   UNL     1       0.674  -1.291   0.537  1.00  0.00     0.168 C 
ATOM     21  H   UNL     1       1.012  -2.211   0.108  1.00  0.00     0.107 H 
BRANCH  20  22
ATOM     22  N   UNL     1       1.044  -0.175  -0.359  1.00  0.00    -0.347 N 
ATOM     23  H   UNL     1       2.059  -0.084  -0.387  1.00  0.00     0.345 HD
ATOM     24  H   UNL     1       0.635   0.692  -0.010  1.00  0.00     0.345 HD
ATOM     25  H   UNL     1       0.693  -0.362  -1.298  1.00  0.00     0.345 HD
ENDBRANCH  20  22
BRANCH  20  26
ATOM     26  C   UNL     1       1.512  -1.453   1.835  1.00  0.00     0.036 C 
ATOM     27  H   UNL     1       2.526  -1.605   1.527  1.00  0.00     0.038 H 
ATOM     28  H   UNL     1       1.015  -2.255   2.341  1.00  0.00     0.038 H 
BRANCH  26  29
ATOM     29  C   UNL     1       1.539  -0.363   2.880  1.00  0.00    -0.016 A 
ATOM     30  C   UNL     1       1.173  -0.554   4.202  1.00  0.00     0.005 A 
ATOM     31  C   UNL     1       1.870   1.036   2.766  1.00  0.00     0.003 A 
ATOM     32  N   UNL     1       1.072   0.665   4.813  1.00  0.00    -0.361 N 
ATOM     33  H   UNL     1       1.005  -1.467   4.652  1.00  0.00     0.082 H 
ATOM     34  C   UNL     1       1.405   1.661   3.928  1.00  0.00     0.046 A 
ATOM     35  C   UNL     1       2.397   1.860   1.750  1.00  0.00    -0.053 A 
ATOM     36  H   UNL     1       0.801   0.808   5.748  1.00  0.00     0.166 HD
ATOM     37  C   UNL     1       1.315   3.052   4.065  1.00  0.00    -0.038 A 
ATOM     38  C   UNL     1       2.314   3.253   1.868  1.00  0.00    -0.062 A 
ATOM     39  H   UNL     1       2.842   1.437   0.920  1.00  0.00     0.063 H 
ATOM     40  C   UNL     1       1.752   3.838   2.997  1.00  0.00    -0.060 A 
ATOM     41  H   UNL     1       0.939   3.481   4.926  1.00  0.00     0.064 H 
ATOM     42  H   UNL     1       2.674   3.852   1.108  1.00  0.00     0.062 H 
ATOM     43  H   UNL     1       1.656   4.864   3.047  1.00  0.00     0.062 H 
ENDBRANCH  26  29
ENDBRANCH  20  26
ENDBRANCH  17  20
ENDBRANCH  14  16
BRANCH  14  44
ATOM     44  C   UNL     1      -1.507   2.157   1.245  1.00  0.00     0.020 C 
ATOM     45  H   UNL     1      -0.570   2.355   0.768  1.00  0.00     0.040 H 
ATOM     46  H   UNL     1      -1.724   2.726   2.125  1.00  0.00     0.040 H 
BRANCH  44  47
ATOM     47  S   UNL     1      -2.813   2.641   0.077  1.00  0.00    -0.177 SA
ATOM     48  H   UNL     1      -2.642   1.974  -1.096  1.00  0.00     0.102 HD
ENDBRANCH  44  47
ENDBRANCH  14  44
ENDBRANCH  11  14
ENDBRANCH   8  10
BRANCH   8  49
ATOM     49  C   UNL     1      -5.247  -0.184   2.773  1.00  0.00     0.072 C 
ATOM     50  H   UNL     1      -4.749  -0.832   2.082  1.00  0.00     0.059 H 
ATOM     51  H   UNL     1      -6.236   0.071   2.456  1.00  0.00     0.059 H 
BRANCH  49  52
ATOM     52  O   UNL     1      -5.373  -0.866   4.018  1.00  0.00    -0.394 OA
ATOM     53  H   UNL     1      -4.492  -1.115   4.341  1.00  0.00     0.210 HD
ENDBRANCH  49  52
ENDBRANCH   8  49
ENDBRANCH   5   8
ENDBRANCH   1   4
BRANCH   1  54
ATOM     54  C   UNL     1      -4.591   2.220   7.025  1.00  0.00    -0.036 C 
ATOM     55  H   UNL     1      -3.654   2.597   6.670  1.00  0.00     0.028 H 
ATOM     56  H   UNL     1      -4.473   1.485   7.793  1.00  0.00     0.028 H 
BRANCH  54  57
ATOM     57  C   UNL     1      -5.376   3.382   7.638  1.00  0.00    -0.052 C 
ATOM     58  H   UNL     1      -5.352   4.201   6.949  1.00  0.00     0.027 H 
ATOM     59  H   UNL     1      -4.906   3.606   8.572  1.00  0.00     0.027 H 
BRANCH  57  60
ATOM     60  C   UNL     1      -6.841   3.064   7.953  1.00  0.00    -0.052 C 
ATOM     61  H   UNL     1      -7.356   2.917   7.026  1.00  0.00     0.027 H 
ATOM     62  H   UNL     1      -7.213   3.893   8.517  1.00  0.00     0.027 H 
BRANCH  60  63
ATOM     63  C   UNL     1      -7.059   1.822   8.821  1.00  0.00    -0.036 C 
ATOM     64  H   UNL     1      -6.727   0.966   8.271  1.00  0.00     0.028 H 
ATOM     65  H   UNL     1      -8.104   1.788   9.051  1.00  0.00     0.028 H 
BRANCH  63  66
ATOM     66  C   UNL     1      -6.321   1.852  10.149  1.00  0.00     0.018 C 
ATOM     67  H   UNL     1      -5.270   1.922   9.960  1.00  0.00     0.049 H 
ATOM     68  H   UNL     1      -6.556   0.954  10.681  1.00  0.00     0.049 H 
BRANCH  66  69
ATOM     69  N   UNL     1      -6.728   2.981  10.966  1.00  0.00    -0.352 N 
ATOM     70  C   UNL     1      -7.173   2.991  12.262  1.00  0.00     0.251 C 
ATOM     71  H   UNL     1      -6.677   3.861  10.528  1.00  0.00     0.163 HD
ATOM     72  O   UNL     1      -7.687   3.996  12.734  1.00  0.00    -0.269 OA
BRANCH  70  73
ATOM     73  C   UNL     1      -7.039   1.769  13.080  1.00  0.00     0.039 A 
ATOM     74  C   UNL     1      -8.115   1.373  13.876  1.00  0.00    -0.049 A 
ATOM     75  C   UNL     1      -5.857   1.022  13.062  1.00  0.00    -0.049 A 
ATOM     76  C   UNL     1      -8.017   0.202  14.627  1.00  0.00    -0.053 A 
ATOM     77  H   UNL     1      -8.975   1.942  13.908  1.00  0.00     0.063 H 
ATOM     78  C   UNL     1      -5.795  -0.189  13.742  1.00  0.00    -0.053 A 
ATOM     79  H   UNL     1      -5.034   1.369  12.546  1.00  0.00     0.063 H 
ATOM     80  C   UNL     1      -6.867  -0.601  14.545  1.00  0.00    -0.014 A 
ATOM     81  H   UNL     1      -8.794  -0.076  15.246  1.00  0.00     0.063 H 
ATOM     82  H   UNL     1      -4.957  -0.786  13.654  1.00  0.00     0.063 H 
BRANCH  80  83
ATOM     83  C   UNL     1      -6.774  -1.869  15.310  1.00  0.00     0.031 A 
ATOM     84  C   UNL     1      -5.736  -2.032  16.384  1.00  0.00     0.074 A 
ATOM     85  C   UNL     1      -7.604  -2.885  15.008  1.00  0.00     0.049 A 
ATOM     86  N   UNL     1      -5.505  -3.059  17.162  1.00  0.00    -0.248 NA
ATOM     87  C   UNL     1      -4.814  -0.904  16.595  1.00  0.00    -0.034 C 
ATOM     88  C   UNL     1      -8.608  -2.867  13.943  1.00  0.00    -0.036 A 
ATOM     89  N   UNL     1      -7.736  -4.130  15.568  1.00  0.00    -0.354 N 
ATOM     90  C   UNL     1      -4.411  -2.705  17.941  1.00  0.00     0.074 A 
ATOM     91  C   UNL     1      -3.982  -1.397  17.499  1.00  0.00    -0.034 C 
ATOM     92  H   UNL     1      -4.816   0.028  16.152  1.00  0.00     0.065 H 
ATOM     93  C   UNL     1      -9.277  -4.030  13.949  1.00  0.00    -0.036 A 
ATOM     94  H   UNL     1      -8.774  -2.084  13.291  1.00  0.00     0.065 H 
ATOM     95  C   UNL     1      -8.727  -4.889  14.994  1.00  0.00     0.049 A 
ATOM     96  H   UNL     1      -7.175  -4.450  16.311  1.00  0.00     0.167 HD
ATOM     97  C   UNL     1      -3.836  -3.397  18.953  1.00  0.00     0.037 A 
ATOM     98  H   UNL     1      -3.139  -0.912  17.843  1.00  0.00     0.065 H 
ATOM     99  H   UNL     1     -10.054  -4.278  13.318  1.00  0.00     0.065 H 
ATOM    100  C   UNL     1      -9.145  -6.136  15.280  1.00  0.00     0.037 A 
ATOM    101  C   UNL     1      -4.283  -4.689  19.401  1.00  0.00     0.049 A 
ATOM    102  C   UNL     1      -8.496  -6.881  16.415  1.00  0.00     0.074 A 
ATOM    103  C   UNL     1      -3.815  -5.446  20.459  1.00  0.00    -0.036 A 
ATOM    104  N   UNL     1      -5.302  -5.421  18.806  1.00  0.00    -0.354 N 
ATOM    105  N   UNL     1      -7.521  -6.500  17.205  1.00  0.00    -0.248 NA
ATOM    106  C   UNL     1      -9.014  -8.224  16.707  1.00  0.00    -0.034 C 
ATOM    107  C   UNL     1      -4.508  -6.660  20.469  1.00  0.00    -0.036 A 
ATOM    108  H   UNL     1      -3.080  -5.163  21.127  1.00  0.00     0.065 H 
ATOM    109  C   UNL     1      -5.457  -6.634  19.459  1.00  0.00     0.049 A 
ATOM    110  H   UNL     1      -5.836  -5.123  18.035  1.00  0.00     0.167 HD
ATOM    111  C   UNL     1      -7.330  -7.540  18.106  1.00  0.00     0.074 A 
ATOM    112  C   UNL     1      -8.301  -8.561  17.772  1.00  0.00    -0.034 C 
ATOM    113  H   UNL     1      -9.742  -8.762  16.213  1.00  0.00     0.065 H 
ATOM    114  H   UNL     1      -4.342  -7.445  21.119  1.00  0.00     0.065 H 
ATOM    115  C   UNL     1      -6.433  -7.638  19.118  1.00  0.00     0.037 A 
ATOM    116  H   UNL     1      -8.422  -9.441  18.298  1.00  0.00     0.065 H 
BRANCH  97 117
ATOM    117  C   UNL     1      -2.657  -2.769  19.643  1.00  0.00     0.064 A 
ATOM    118  C   UNL     1      -2.790  -1.615  20.432  1.00  0.00     0.173 A 
ATOM    119  C   UNL     1      -1.382  -3.344  19.538  1.00  0.00     0.173 A 
ATOM    120  F   UNL     1      -3.984  -1.017  20.559  1.00  0.00    -0.203 F 
ATOM    121  C   UNL     1      -1.686  -1.041  21.057  1.00  0.00     0.198 A 
ATOM    122  C   UNL     1      -0.286  -2.788  20.193  1.00  0.00     0.198 A 
ATOM    123  F   UNL     1      -1.197  -4.451  18.802  1.00  0.00    -0.203 F 
ATOM    124  F   UNL     1      -1.828   0.095  21.754  1.00  0.00    -0.200 F 
ATOM    125  C   UNL     1      -0.437  -1.632  20.943  1.00  0.00     0.200 A 
ATOM    126  F   UNL     1       0.917  -3.369  20.095  1.00  0.00    -0.200 F 
ATOM    127  F   UNL     1       0.624  -1.082  21.550  1.00  0.00    -0.200 F 
ENDBRANCH  97 117
BRANCH 100 128
ATOM    128  C   UNL     1     -10.257  -6.740  14.501  1.00  0.00     0.064 A 
ATOM    129  C   UNL     1     -11.509  -6.971  15.088  1.00  0.00     0.173 A 
ATOM    130  C   UNL     1     -10.095  -7.089  13.152  1.00  0.00     0.173 A 
ATOM    131  F   UNL     1     -11.708  -6.669  16.379  1.00  0.00    -0.203 F 
ATOM    132  C   UNL     1     -12.549  -7.547  14.362  1.00  0.00     0.198 A 
ATOM    133  C   UNL     1     -11.146  -7.636  12.418  1.00  0.00     0.198 A 
ATOM    134  F   UNL     1      -8.920  -6.880  12.540  1.00  0.00    -0.203 F 
ATOM    135  F   UNL     1     -13.722  -7.798  14.960  1.00  0.00    -0.200 F 
ATOM    136  C   UNL     1     -12.369  -7.873  13.026  1.00  0.00     0.200 A 
ATOM    137  F   UNL     1     -10.972  -7.932  11.123  1.00  0.00    -0.200 F 
ATOM    138  F   UNL     1     -13.372  -8.419  12.326  1.00  0.00    -0.200 F 
ENDBRANCH 100 128
BRANCH 115 139
ATOM    139  C   UNL     1      -6.486  -8.875  19.968  1.00  0.00     0.064 A 
ATOM    140  C   UNL     1      -6.086 -10.127  19.479  1.00  0.00     0.173 A 
ATOM    141  C   UNL     1      -6.903  -8.796  21.306  1.00  0.00     0.173 A 
ATOM    142  F   UNL     1      -5.692 -10.260  18.203  1.00  0.00    -0.203 F 
ATOM    143  C   UNL     1      -6.131 -11.259  20.288  1.00  0.00     0.198 A 
ATOM    144  C   UNL     1      -6.912  -9.923  22.122  1.00  0.00     0.198 A 
ATOM    145  F   UNL     1      -7.287  -7.621  21.827  1.00  0.00    -0.203 F 
ATOM    146  F   UNL     1      -5.795 -12.455  19.784  1.00  0.00    -0.200 F 
ATOM    147  C   UNL     1      -6.535 -11.155  21.611  1.00  0.00     0.200 A 
ATOM    148  F   UNL     1      -7.287  -9.816  23.405  1.00  0.00    -0.200 F 
ATOM    149  F   UNL     1      -6.568 -12.244  22.391  1.00  0.00    -0.200 F 
ENDBRANCH 115 139
ENDBRANCH  80  83
ENDBRANCH  70  73
ENDBRANCH  66  69
ENDBRANCH  63  66
ENDBRANCH  60  63
ENDBRANCH  57  60
ENDBRANCH  54  57
ENDBRANCH   1  54
TORSDOF 24
