REMARK SMILES CC/C=C/C/C=C/C/C=C/C/C=C/CC/C=C/COCC(=O)NCCCCCCNC(=O)c1ccc(-c2c3nc(c(-c4c(F)c(F)c(F)c(F)c4F)c4ccc([nH]4)c(-c4c(F)c(F)c(F)c(F)c4F)c4nc(c(-c5c(F)c(F)c(F)c(F)c5F)c5ccc2[nH]5)C=C4)C=C3)cc1
REMARK SMILES IDX 18 1 17 4 16 5 15 8 14 11 13 14 12 15 11 18 10 21 9 22 8 25
REMARK SMILES IDX 7 28 6 29 5 32 4 35 3 36 2 39 1 42 19 46 20 47 21 50 22 51
REMARK SMILES IDX 23 52 24 54 25 57 26 60 27 63 28 66 29 69 30 72 31 73 32 75
REMARK SMILES IDX 33 76 34 77 95 78 35 79 94 81 36 83 37 86 38 87 88 88 39 89
REMARK SMILES IDX 93 90 87 91 89 92 40 93 92 94 86 96 85 98 41 100 73 103
REMARK SMILES IDX 53 104 72 105 54 106 57 107 71 108 90 109 55 110 56 112
REMARK SMILES IDX 70 114 91 115 58 118 42 120 43 121 51 122 44 123 45 124
REMARK SMILES IDX 49 125 52 126 46 127 47 128 50 129 48 130 74 131 75 132
REMARK SMILES IDX 83 133 76 134 77 135 81 136 84 137 78 138 79 139 82 140
REMARK SMILES IDX 80 141 59 142 60 143 68 144 61 145 62 146 66 147 69 148
REMARK SMILES IDX 63 149 64 150 67 151 65 152
REMARK H PARENT 18 2 18 3 16 6 17 7 15 9 15 10 14 12 14 13 12 16 13 17 11 19
REMARK H PARENT 11 20 9 23 10 24 8 26 8 27 6 30 7 31 5 33 5 34 3 37 4 38 2 40
REMARK H PARENT 2 41 1 43 1 44 1 45 20 48 20 49 23 53 24 55 24 56 25 58 25 59
REMARK H PARENT 26 61 26 62 27 64 27 65 28 67 28 68 29 70 29 71 30 74 34 80
REMARK H PARENT 95 82 35 84 94 85 93 95 87 97 89 99 92 101 86 102 54 111
REMARK H PARENT 57 113 90 116 55 117 91 119
REMARK Flexibility Score: inf
ROOT
ATOM      1  C   UNL     1      -7.981  10.570 -10.427  1.00  0.00     0.065 C 
ATOM      2  H   UNL     1      -7.628   9.634 -10.807  1.00  0.00     0.061 H 
ATOM      3  H   UNL     1      -7.693  11.363 -11.085  1.00  0.00     0.061 H 
ENDROOT
BRANCH   1   4
ATOM      4  C   UNL     1      -7.381  10.813  -9.078  1.00  0.00    -0.063 C 
ATOM      5  C   UNL     1      -6.581   9.925  -8.468  1.00  0.00    -0.086 C 
ATOM      6  H   UNL     1      -6.277   9.101  -9.010  1.00  0.00     0.057 H 
ATOM      7  H   UNL     1      -7.591  11.701  -8.597  1.00  0.00     0.060 H 
BRANCH   5   8
ATOM      8  C   UNL     1      -6.099  10.048  -7.050  1.00  0.00    -0.032 C 
ATOM      9  H   UNL     1      -5.032   9.968  -7.041  1.00  0.00     0.031 H 
ATOM     10  H   UNL     1      -6.422  10.996  -6.675  1.00  0.00     0.031 H 
BRANCH   8  11
ATOM     11  C   UNL     1      -6.685   8.957  -6.138  1.00  0.00    -0.032 C 
ATOM     12  H   UNL     1      -6.376   9.151  -5.132  1.00  0.00     0.031 H 
ATOM     13  H   UNL     1      -7.749   8.989  -6.242  1.00  0.00     0.031 H 
BRANCH  11  14
ATOM     14  C   UNL     1      -6.237   7.570  -6.517  1.00  0.00    -0.088 C 
ATOM     15  C   UNL     1      -5.426   6.806  -5.771  1.00  0.00    -0.085 C 
ATOM     16  H   UNL     1      -5.116   7.172  -4.857  1.00  0.00     0.058 H 
ATOM     17  H   UNL     1      -6.578   7.182  -7.411  1.00  0.00     0.057 H 
BRANCH  15  18
ATOM     18  C   UNL     1      -4.943   5.447  -6.190  1.00  0.00    -0.017 C 
ATOM     19  H   UNL     1      -5.295   4.716  -5.492  1.00  0.00     0.035 H 
ATOM     20  H   UNL     1      -5.319   5.230  -7.168  1.00  0.00     0.035 H 
BRANCH  18  21
ATOM     21  C   UNL     1      -3.442   5.414  -6.225  1.00  0.00    -0.084 C 
ATOM     22  C   UNL     1      -2.690   4.577  -5.492  1.00  0.00    -0.084 C 
ATOM     23  H   UNL     1      -3.175   3.890  -4.894  1.00  0.00     0.058 H 
ATOM     24  H   UNL     1      -2.958   6.077  -6.851  1.00  0.00     0.058 H 
BRANCH  22  25
ATOM     25  C   UNL     1      -1.189   4.575  -5.489  1.00  0.00    -0.017 C 
ATOM     26  H   UNL     1      -0.837   3.621  -5.820  1.00  0.00     0.035 H 
ATOM     27  H   UNL     1      -0.841   5.346  -6.145  1.00  0.00     0.035 H 
BRANCH  25  28
ATOM     28  C   UNL     1      -0.666   4.842  -4.106  1.00  0.00    -0.084 C 
ATOM     29  C   UNL     1       0.106   3.988  -3.415  1.00  0.00    -0.084 C 
ATOM     30  H   UNL     1       0.373   3.101  -3.870  1.00  0.00     0.058 H 
ATOM     31  H   UNL     1      -0.916   5.738  -3.659  1.00  0.00     0.058 H 
BRANCH  29  32
ATOM     32  C   UNL     1       0.605   4.241  -2.021  1.00  0.00    -0.017 C 
ATOM     33  H   UNL     1       1.674   4.254  -2.029  1.00  0.00     0.035 H 
ATOM     34  H   UNL     1       0.223   5.183  -1.687  1.00  0.00     0.035 H 
BRANCH  32  35
ATOM     35  C   UNL     1       0.131   3.169  -1.083  1.00  0.00    -0.085 C 
ATOM     36  C   UNL     1       0.948   2.355  -0.395  1.00  0.00    -0.089 C 
ATOM     37  H   UNL     1       1.966   2.478  -0.511  1.00  0.00     0.057 H 
ATOM     38  H   UNL     1      -0.886   3.050  -0.958  1.00  0.00     0.058 H 
BRANCH  36  39
ATOM     39  C   UNL     1       0.469   1.276   0.533  1.00  0.00    -0.038 C 
ATOM     40  H   UNL     1       0.841   1.472   1.517  1.00  0.00     0.031 H 
ATOM     41  H   UNL     1      -0.601   1.276   0.527  1.00  0.00     0.031 H 
BRANCH  39  42
ATOM     42  C   UNL     1       0.954  -0.093   0.082  1.00  0.00    -0.062 C 
ATOM     43  H   UNL     1       0.597  -0.839   0.761  1.00  0.00     0.023 H 
ATOM     44  H   UNL     1       2.023  -0.106   0.068  1.00  0.00     0.023 H 
ATOM     45  H   UNL     1       0.581  -0.298  -0.900  1.00  0.00     0.023 H 
ENDBRANCH  39  42
ENDBRANCH  36  39
ENDBRANCH  32  35
ENDBRANCH  29  32
ENDBRANCH  25  28
ENDBRANCH  22  25
ENDBRANCH  18  21
ENDBRANCH  15  18
ENDBRANCH  11  14
ENDBRANCH   8  11
ENDBRANCH   5   8
ENDBRANCH   1   4
BRANCH   1  46
ATOM     46  O   UNL     1      -9.405  10.535 -10.333  1.00  0.00    -0.368 OA
BRANCH  46  47
ATOM     47  C   UNL     1      -9.909   9.454  -9.555  1.00  0.00     0.126 C 
ATOM     48  H   UNL     1     -10.976   9.533  -9.549  1.00  0.00     0.067 H 
ATOM     49  H   UNL     1      -9.437   9.562  -8.600  1.00  0.00     0.067 H 
BRANCH  47  50
ATOM     50  C   UNL     1      -9.555   8.032 -10.007  1.00  0.00     0.246 C 
ATOM     51  O   UNL     1      -8.926   7.252  -9.291  1.00  0.00    -0.272 OA
ATOM     52  N   UNL     1      -9.978   7.609 -11.234  1.00  0.00    -0.354 N 
ATOM     53  H   UNL     1      -9.799   6.665 -11.450  1.00  0.00     0.163 HD
BRANCH  52  54
ATOM     54  C   UNL     1     -10.657   8.377 -12.258  1.00  0.00     0.017 C 
ATOM     55  H   UNL     1     -10.907   9.339 -11.864  1.00  0.00     0.049 H 
ATOM     56  H   UNL     1     -11.540   7.847 -12.549  1.00  0.00     0.049 H 
BRANCH  54  57
ATOM     57  C   UNL     1      -9.773   8.557 -13.491  1.00  0.00    -0.036 C 
ATOM     58  H   UNL     1      -8.863   9.030 -13.185  1.00  0.00     0.028 H 
ATOM     59  H   UNL     1     -10.333   9.146 -14.187  1.00  0.00     0.028 H 
BRANCH  57  60
ATOM     60  C   UNL     1      -9.417   7.248 -14.209  1.00  0.00    -0.052 C 
ATOM     61  H   UNL     1      -8.821   6.658 -13.544  1.00  0.00     0.027 H 
ATOM     62  H   UNL     1      -8.905   7.530 -15.105  1.00  0.00     0.027 H 
BRANCH  60  63
ATOM     63  C   UNL     1     -10.614   6.400 -14.652  1.00  0.00    -0.052 C 
ATOM     64  H   UNL     1     -11.130   6.071 -13.774  1.00  0.00     0.027 H 
ATOM     65  H   UNL     1     -10.212   5.598 -15.235  1.00  0.00     0.027 H 
BRANCH  63  66
ATOM     66  C   UNL     1     -11.621   7.120 -15.552  1.00  0.00    -0.036 C 
ATOM     67  H   UNL     1     -12.033   7.940 -15.002  1.00  0.00     0.028 H 
ATOM     68  H   UNL     1     -12.352   6.391 -15.831  1.00  0.00     0.028 H 
BRANCH  66  69
ATOM     69  C   UNL     1     -11.037   7.665 -16.852  1.00  0.00     0.018 C 
ATOM     70  H   UNL     1     -10.230   8.327 -16.616  1.00  0.00     0.049 H 
ATOM     71  H   UNL     1     -11.820   8.175 -17.374  1.00  0.00     0.049 H 
BRANCH  69  72
ATOM     72  N   UNL     1     -10.538   6.609 -17.719  1.00  0.00    -0.352 N 
ATOM     73  C   UNL     1     -10.871   6.310 -19.016  1.00  0.00     0.251 C 
ATOM     74  H   UNL     1      -9.860   6.021 -17.314  1.00  0.00     0.163 HD
ATOM     75  O   UNL     1     -10.482   5.263 -19.528  1.00  0.00    -0.269 OA
BRANCH  73  76
ATOM     76  C   UNL     1     -11.724   7.233 -19.794  1.00  0.00     0.039 A 
ATOM     77  C   UNL     1     -12.780   6.706 -20.540  1.00  0.00    -0.049 A 
ATOM     78  C   UNL     1     -11.491   8.611 -19.784  1.00  0.00    -0.049 A 
ATOM     79  C   UNL     1     -13.653   7.566 -21.209  1.00  0.00    -0.053 A 
ATOM     80  H   UNL     1     -12.915   5.684 -20.597  1.00  0.00     0.063 H 
ATOM     81  C   UNL     1     -12.402   9.472 -20.392  1.00  0.00    -0.053 A 
ATOM     82  H   UNL     1     -10.647   8.990 -19.327  1.00  0.00     0.063 H 
ATOM     83  C   UNL     1     -13.500   8.959 -21.100  1.00  0.00    -0.014 A 
ATOM     84  H   UNL     1     -14.414   7.178 -21.788  1.00  0.00     0.063 H 
ATOM     85  H   UNL     1     -12.269  10.493 -20.322  1.00  0.00     0.063 H 
BRANCH  83  86
ATOM     86  C   UNL     1     -14.509   9.887 -21.673  1.00  0.00     0.031 A 
ATOM     87  C   UNL     1     -14.134  10.847 -22.767  1.00  0.00     0.074 A 
ATOM     88  C   UNL     1     -15.752   9.910 -21.152  1.00  0.00     0.049 A 
ATOM     89  N   UNL     1     -14.863  11.772 -23.340  1.00  0.00    -0.248 NA
ATOM     90  C   UNL     1     -12.754  10.773 -23.270  1.00  0.00    -0.034 C 
ATOM     91  C   UNL     1     -16.223   9.062 -20.055  1.00  0.00    -0.036 A 
ATOM     92  N   UNL     1     -16.843  10.684 -21.463  1.00  0.00    -0.354 N 
ATOM     93  C   UNL     1     -14.031  12.394 -24.261  1.00  0.00     0.074 A 
ATOM     94  C   UNL     1     -12.728  11.774 -24.139  1.00  0.00    -0.034 C 
ATOM     95  H   UNL     1     -12.002  10.114 -23.014  1.00  0.00     0.065 H 
ATOM     96  C   UNL     1     -17.508   9.348 -19.797  1.00  0.00    -0.036 A 
ATOM     97  H   UNL     1     -15.656   8.357 -19.559  1.00  0.00     0.065 H 
ATOM     98  C   UNL     1     -17.940  10.430 -20.676  1.00  0.00     0.049 A 
ATOM     99  H   UNL     1     -16.839  11.356 -22.182  1.00  0.00     0.167 HD
ATOM    100  C   UNL     1     -14.333  13.379 -25.140  1.00  0.00     0.037 A 
ATOM    101  H   UNL     1     -11.889  12.073 -24.660  1.00  0.00     0.065 H 
ATOM    102  H   UNL     1     -18.096   8.878 -19.091  1.00  0.00     0.065 H 
ATOM    103  C   UNL     1     -19.153  11.015 -20.651  1.00  0.00     0.037 A 
ATOM    104  C   UNL     1     -15.635  13.981 -25.268  1.00  0.00     0.049 A 
ATOM    105  C   UNL     1     -19.452  12.124 -21.624  1.00  0.00     0.074 A 
ATOM    106  C   UNL     1     -16.056  14.937 -26.177  1.00  0.00    -0.036 A 
ATOM    107  N   UNL     1     -16.724  13.695 -24.457  1.00  0.00    -0.354 N 
ATOM    108  N   UNL     1     -18.681  12.646 -22.546  1.00  0.00    -0.248 NA
ATOM    109  C   UNL     1     -20.791  12.725 -21.553  1.00  0.00    -0.034 C 
ATOM    110  C   UNL     1     -17.379  15.275 -25.876  1.00  0.00    -0.036 A 
ATOM    111  H   UNL     1     -15.491  15.333 -26.944  1.00  0.00     0.065 H 
ATOM    112  C   UNL     1     -17.804  14.484 -24.821  1.00  0.00     0.049 A 
ATOM    113  H   UNL     1     -16.728  13.030 -23.731  1.00  0.00     0.167 HD
ATOM    114  C   UNL     1     -19.446  13.616 -23.180  1.00  0.00     0.074 A 
ATOM    115  C   UNL     1     -20.750  13.594 -22.552  1.00  0.00    -0.034 C 
ATOM    116  H   UNL     1     -21.562  12.522 -20.897  1.00  0.00     0.065 H 
ATOM    117  H   UNL     1     -17.944  15.992 -26.358  1.00  0.00     0.065 H 
ATOM    118  C   UNL     1     -19.098  14.453 -24.188  1.00  0.00     0.037 A 
ATOM    119  H   UNL     1     -21.547  14.181 -22.846  1.00  0.00     0.065 H 
BRANCH 100 120
ATOM    120  C   UNL     1     -13.238  13.877 -26.040  1.00  0.00     0.064 A 
ATOM    121  C   UNL     1     -12.722  13.088 -27.079  1.00  0.00     0.173 A 
ATOM    122  C   UNL     1     -12.745  15.184 -25.903  1.00  0.00     0.173 A 
ATOM    123  F   UNL     1     -13.152  11.829 -27.249  1.00  0.00    -0.203 F 
ATOM    124  C   UNL     1     -11.739  13.581 -27.934  1.00  0.00     0.198 A 
ATOM    125  C   UNL     1     -11.785  15.684 -26.779  1.00  0.00     0.198 A 
ATOM    126  F   UNL     1     -13.209  15.983 -24.931  1.00  0.00    -0.203 F 
ATOM    127  F   UNL     1     -11.233  12.796 -28.895  1.00  0.00    -0.200 F 
ATOM    128  C   UNL     1     -11.279  14.881 -27.789  1.00  0.00     0.200 A 
ATOM    129  F   UNL     1     -11.354  16.946 -26.647  1.00  0.00    -0.200 F 
ATOM    130  F   UNL     1     -10.345  15.360 -28.622  1.00  0.00    -0.200 F 
ENDBRANCH 100 120
BRANCH 103 131
ATOM    131  C   UNL     1     -20.178  10.567 -19.671  1.00  0.00     0.064 A 
ATOM    132  C   UNL     1     -21.354   9.931 -20.093  1.00  0.00     0.173 A 
ATOM    133  C   UNL     1     -20.015  10.786 -18.294  1.00  0.00     0.173 A 
ATOM    134  F   UNL     1     -21.567   9.718 -21.400  1.00  0.00    -0.203 F 
ATOM    135  C   UNL     1     -22.338   9.556 -19.180  1.00  0.00     0.198 A 
ATOM    136  C   UNL     1     -20.984  10.379 -17.380  1.00  0.00     0.198 A 
ATOM    137  F   UNL     1     -18.906  11.386 -17.836  1.00  0.00    -0.203 F 
ATOM    138  F   UNL     1     -23.477   9.002 -19.617  1.00  0.00    -0.200 F 
ATOM    139  C   UNL     1     -22.150   9.775 -17.824  1.00  0.00     0.200 A 
ATOM    140  F   UNL     1     -20.789  10.578 -16.069  1.00  0.00    -0.200 F 
ATOM    141  F   UNL     1     -23.096   9.414 -16.947  1.00  0.00    -0.200 F 
ENDBRANCH 103 131
BRANCH 118 142
ATOM    142  C   UNL     1     -20.151  15.399 -24.692  1.00  0.00     0.064 A 
ATOM    143  C   UNL     1     -20.595  16.484 -23.923  1.00  0.00     0.173 A 
ATOM    144  C   UNL     1     -20.695  15.238 -25.976  1.00  0.00     0.173 A 
ATOM    145  F   UNL     1     -20.119  16.673 -22.683  1.00  0.00    -0.203 F 
ATOM    146  C   UNL     1     -21.565  17.357 -24.409  1.00  0.00     0.198 A 
ATOM    147  C   UNL     1     -21.639  16.133 -26.472  1.00  0.00     0.198 A 
ATOM    148  F   UNL     1     -20.301  14.221 -26.756  1.00  0.00    -0.203 F 
ATOM    149  F   UNL     1     -22.013  18.356 -23.635  1.00  0.00    -0.200 F 
ATOM    150  C   UNL     1     -22.080  17.186 -25.685  1.00  0.00     0.200 A 
ATOM    151  F   UNL     1     -22.123  15.975 -27.712  1.00  0.00    -0.200 F 
ATOM    152  F   UNL     1     -23.007  18.032 -26.155  1.00  0.00    -0.200 F 
ENDBRANCH 118 142
ENDBRANCH  83  86
ENDBRANCH  73  76
ENDBRANCH  69  72
ENDBRANCH  66  69
ENDBRANCH  63  66
ENDBRANCH  60  63
ENDBRANCH  57  60
ENDBRANCH  54  57
ENDBRANCH  52  54
ENDBRANCH  47  50
ENDBRANCH  46  47
ENDBRANCH   1  46
TORSDOF 27
