REMARK SMILES NS(=O)(=O)c1ccc(/N=C/c2ccc(O)c(C(=O)NCCCCCCNC(=O)c3ccc(-c4c5nc(c(-c6c(F)c(F)c(F)c(F)c6F)c6ccc([nH]6)c(-c6c(F)c(F)c(F)c(F)c6F)c6nc(c(-c7c(F)c(F)c(F)c(F)c7F)c7ccc4[nH]7)C=C6)C=C5)cc3)c2)cc1
REMARK SMILES IDX 21 1 20 4 19 7 17 8 18 9 16 11 11 12 12 13 92 14 13 15 14 18
REMARK SMILES IDX 10 20 9 21 8 23 5 24 6 25 94 26 7 27 93 29 2 33 3 34 4 35
REMARK SMILES IDX 1 36 15 39 22 41 23 44 24 47 25 50 26 53 27 54 28 56 29 57
REMARK SMILES IDX 30 58 91 59 31 60 90 62 32 64 33 67 34 68 84 69 35 70 89 71
REMARK SMILES IDX 83 72 85 73 36 74 88 75 82 77 81 79 37 81 69 84 49 85 68 86
REMARK SMILES IDX 50 87 53 88 67 89 86 90 51 91 52 93 66 95 87 96 54 99 38 101
REMARK SMILES IDX 39 102 47 103 40 104 41 105 45 106 48 107 42 108 43 109
REMARK SMILES IDX 46 110 44 111 70 112 71 113 79 114 72 115 73 116 77 117
REMARK SMILES IDX 80 118 74 119 75 120 78 121 76 122 55 123 56 124 64 125
REMARK SMILES IDX 57 126 58 127 62 128 65 129 59 130 60 131 63 132 61 133
REMARK H PARENT 21 2 21 3 20 5 20 6 19 10 12 16 92 17 13 19 10 22 6 28 94 30
REMARK H PARENT 7 31 93 32 1 37 1 38 15 40 22 42 22 43 23 45 23 46 24 48 24 49
REMARK H PARENT 25 51 25 52 26 55 30 61 91 63 31 65 90 66 89 76 83 78 85 80
REMARK H PARENT 88 82 82 83 50 92 53 94 86 97 51 98 87 100
REMARK Flexibility Score: inf
ROOT
ATOM      1  C   UNL     1      -1.074  -3.173  -9.658  1.00  0.00    -0.036 C 
ATOM      2  H   UNL     1      -1.286  -2.342 -10.299  1.00  0.00     0.028 H 
ATOM      3  H   UNL     1      -1.462  -3.085  -8.664  1.00  0.00     0.028 H 
ENDROOT
BRANCH   1   4
ATOM      4  C   UNL     1       0.439  -3.249  -9.488  1.00  0.00     0.018 C 
ATOM      5  H   UNL     1       0.771  -2.336  -9.039  1.00  0.00     0.049 H 
ATOM      6  H   UNL     1       0.634  -4.109  -8.882  1.00  0.00     0.049 H 
BRANCH   4   7
ATOM      7  N   UNL     1       1.176  -3.440 -10.727  1.00  0.00    -0.352 N 
ATOM      8  C   UNL     1       2.370  -2.899 -11.149  1.00  0.00     0.255 C 
ATOM      9  O   UNL     1       2.773  -3.145 -12.287  1.00  0.00    -0.269 OA
ATOM     10  H   UNL     1       0.753  -4.056 -11.368  1.00  0.00     0.163 HD
BRANCH   8  11
ATOM     11  C   UNL     1       3.163  -1.958 -10.317  1.00  0.00     0.082 A 
ATOM     12  C   UNL     1       3.740  -1.018  -8.159  1.00  0.00    -0.006 A 
ATOM     13  C   UNL     1       4.429   0.028  -8.771  1.00  0.00    -0.050 A 
ATOM     14  C   UNL     1       3.185  -2.047  -8.927  1.00  0.00    -0.037 A 
ATOM     15  C   UNL     1       4.527   0.054 -10.164  1.00  0.00    -0.019 A 
ATOM     16  H   UNL     1       4.862   0.773  -8.202  1.00  0.00     0.063 H 
ATOM     17  H   UNL     1       2.790  -2.879  -8.460  1.00  0.00     0.064 H 
ATOM     18  C   UNL     1       3.887  -0.924 -10.930  1.00  0.00     0.128 A 
ATOM     19  H   UNL     1       5.072   0.797 -10.629  1.00  0.00     0.066 H 
BRANCH  12  20
ATOM     20  C   UNL     1       3.444  -0.979  -6.711  1.00  0.00     0.035 C 
ATOM     21  N   UNL     1       2.512  -1.741  -6.235  1.00  0.00    -0.256 NA
ATOM     22  H   UNL     1       3.975  -0.351  -6.087  1.00  0.00     0.085 H 
BRANCH  21  23
ATOM     23  C   UNL     1       2.125  -1.643  -4.894  1.00  0.00     0.063 A 
ATOM     24  C   UNL     1       1.101  -1.581  -2.288  1.00  0.00     0.082 A 
ATOM     25  C   UNL     1       1.365  -2.809  -2.898  1.00  0.00    -0.040 A 
ATOM     26  C   UNL     1       1.347  -0.384  -2.965  1.00  0.00    -0.040 A 
ATOM     27  C   UNL     1       1.868  -2.831  -4.201  1.00  0.00    -0.035 A 
ATOM     28  H   UNL     1       1.190  -3.691  -2.392  1.00  0.00     0.064 H 
ATOM     29  C   UNL     1       1.850  -0.420  -4.269  1.00  0.00    -0.035 A 
ATOM     30  H   UNL     1       1.158   0.521  -2.506  1.00  0.00     0.064 H 
ATOM     31  H   UNL     1       2.053  -3.737  -4.659  1.00  0.00     0.065 H 
ATOM     32  H   UNL     1       2.021   0.463  -4.776  1.00  0.00     0.065 H 
BRANCH  24  33
ATOM     33  S   UNL     1       0.443  -1.563  -0.648  1.00  0.00     0.238 S 
ATOM     34  O   UNL     1       1.022  -2.657   0.102  1.00  0.00    -0.207 OA
ATOM     35  O   UNL     1      -0.975  -1.326  -0.731  1.00  0.00    -0.207 OA
BRANCH  33  36
ATOM     36  N   UNL     1       1.112  -0.180   0.036  1.00  0.00    -0.225 NA
ATOM     37  H   UNL     1       0.785  -0.084   0.998  1.00  0.00     0.137 HD
ATOM     38  H   UNL     1       0.828   0.638  -0.503  1.00  0.00     0.137 HD
ENDBRANCH  33  36
ENDBRANCH  24  33
ENDBRANCH  21  23
ENDBRANCH  12  20
BRANCH  18  39
ATOM     39  O   UNL     1       3.998  -0.799 -12.290  1.00  0.00    -0.507 OA
ATOM     40  H   UNL     1       4.492  -0.093 -12.656  1.00  0.00     0.293 HD
ENDBRANCH  18  39
ENDBRANCH   8  11
ENDBRANCH   4   7
ENDBRANCH   1   4
BRANCH   1  41
ATOM     41  C   UNL     1      -1.768  -4.400 -10.248  1.00  0.00    -0.052 C 
ATOM     42  H   UNL     1      -1.475  -4.474 -11.275  1.00  0.00     0.027 H 
ATOM     43  H   UNL     1      -2.813  -4.233 -10.090  1.00  0.00     0.027 H 
BRANCH  41  44
ATOM     44  C   UNL     1      -1.474  -5.748  -9.586  1.00  0.00    -0.052 C 
ATOM     45  H   UNL     1      -0.461  -6.006  -9.812  1.00  0.00     0.027 H 
ATOM     46  H   UNL     1      -2.206  -6.421  -9.981  1.00  0.00     0.027 H 
BRANCH  44  47
ATOM     47  C   UNL     1      -1.643  -5.819  -8.067  1.00  0.00    -0.036 C 
ATOM     48  H   UNL     1      -0.878  -5.215  -7.625  1.00  0.00     0.028 H 
ATOM     49  H   UNL     1      -1.580  -6.858  -7.820  1.00  0.00     0.028 H 
BRANCH  47  50
ATOM     50  C   UNL     1      -2.984  -5.347  -7.518  1.00  0.00     0.018 C 
ATOM     51  H   UNL     1      -3.149  -4.341  -7.842  1.00  0.00     0.049 H 
ATOM     52  H   UNL     1      -2.935  -5.425  -6.452  1.00  0.00     0.049 H 
BRANCH  50  53
ATOM     53  N   UNL     1      -4.104  -6.162  -7.958  1.00  0.00    -0.352 N 
ATOM     54  C   UNL     1      -5.112  -6.725  -7.211  1.00  0.00     0.251 C 
ATOM     55  H   UNL     1      -4.147  -6.336  -8.926  1.00  0.00     0.163 HD
ATOM     56  O   UNL     1      -5.926  -7.481  -7.733  1.00  0.00    -0.269 OA
BRANCH  54  57
ATOM     57  C   UNL     1      -5.198  -6.444  -5.761  1.00  0.00     0.039 A 
ATOM     58  C   UNL     1      -5.356  -7.512  -4.873  1.00  0.00    -0.049 A 
ATOM     59  C   UNL     1      -5.114  -5.136  -5.278  1.00  0.00    -0.049 A 
ATOM     60  C   UNL     1      -5.354  -7.277  -3.495  1.00  0.00    -0.053 A 
ATOM     61  H   UNL     1      -5.474  -8.472  -5.234  1.00  0.00     0.063 H 
ATOM     62  C   UNL     1      -5.048  -4.910  -3.906  1.00  0.00    -0.053 A 
ATOM     63  H   UNL     1      -5.099  -4.340  -5.936  1.00  0.00     0.063 H 
ATOM     64  C   UNL     1      -5.163  -5.978  -3.001  1.00  0.00    -0.014 A 
ATOM     65  H   UNL     1      -5.493  -8.062  -2.839  1.00  0.00     0.063 H 
ATOM     66  H   UNL     1      -4.915  -3.950  -3.551  1.00  0.00     0.063 H 
BRANCH  64  67
ATOM     67  C   UNL     1      -5.084  -5.691  -1.546  1.00  0.00     0.031 A 
ATOM     68  C   UNL     1      -6.134  -4.834  -0.900  1.00  0.00     0.074 A 
ATOM     69  C   UNL     1      -4.020  -6.110  -0.835  1.00  0.00     0.049 A 
ATOM     70  N   UNL     1      -6.160  -4.312   0.299  1.00  0.00    -0.248 NA
ATOM     71  C   UNL     1      -7.303  -4.498  -1.728  1.00  0.00    -0.034 C 
ATOM     72  C   UNL     1      -2.927  -6.934  -1.351  1.00  0.00    -0.036 A 
ATOM     73  N   UNL     1      -3.670  -5.873   0.472  1.00  0.00    -0.354 N 
ATOM     74  C   UNL     1      -7.325  -3.560   0.358  1.00  0.00     0.074 A 
ATOM     75  C   UNL     1      -7.966  -3.669  -0.935  1.00  0.00    -0.034 C 
ATOM     76  H   UNL     1      -7.544  -4.823  -2.678  1.00  0.00     0.065 H 
ATOM     77  C   UNL     1      -2.028  -7.132  -0.374  1.00  0.00    -0.036 A 
ATOM     78  H   UNL     1      -2.859  -7.304  -2.312  1.00  0.00     0.065 H 
ATOM     79  C   UNL     1      -2.454  -6.409   0.821  1.00  0.00     0.049 A 
ATOM     80  H   UNL     1      -4.236  -5.366   1.098  1.00  0.00     0.167 HD
ATOM     81  C   UNL     1      -7.819  -2.852   1.401  1.00  0.00     0.037 A 
ATOM     82  H   UNL     1      -8.827  -3.168  -1.204  1.00  0.00     0.065 H 
ATOM     83  H   UNL     1      -1.172  -7.704  -0.455  1.00  0.00     0.065 H 
ATOM     84  C   UNL     1      -1.752  -6.307   1.966  1.00  0.00     0.037 A 
ATOM     85  C   UNL     1      -7.193  -2.773   2.694  1.00  0.00     0.049 A 
ATOM     86  C   UNL     1      -2.317  -5.501   3.106  1.00  0.00     0.074 A 
ATOM     87  C   UNL     1      -7.644  -2.129   3.833  1.00  0.00    -0.036 A 
ATOM     88  N   UNL     1      -5.979  -3.360   3.018  1.00  0.00    -0.354 N 
ATOM     89  N   UNL     1      -3.446  -4.838   3.172  1.00  0.00    -0.248 NA
ATOM     90  C   UNL     1      -1.512  -5.431   4.335  1.00  0.00    -0.034 C 
ATOM     91  C   UNL     1      -6.686  -2.297   4.837  1.00  0.00    -0.036 A 
ATOM     92  H   UNL     1      -8.534  -1.614   3.925  1.00  0.00     0.065 H 
ATOM     93  C   UNL     1      -5.660  -3.084   4.338  1.00  0.00     0.049 A 
ATOM     94  H   UNL     1      -5.427  -3.894   2.403  1.00  0.00     0.167 HD
ATOM     95  C   UNL     1      -3.505  -4.307   4.453  1.00  0.00     0.074 A 
ATOM     96  C   UNL     1      -2.300  -4.726   5.136  1.00  0.00    -0.034 C 
ATOM     97  H   UNL     1      -0.579  -5.827   4.525  1.00  0.00     0.065 H 
ATOM     98  H   UNL     1      -6.735  -1.903   5.790  1.00  0.00     0.065 H 
ATOM     99  C   UNL     1      -4.473  -3.542   5.013  1.00  0.00     0.037 A 
ATOM    100  H   UNL     1      -2.081  -4.505   6.120  1.00  0.00     0.065 H 
BRANCH  81 101
ATOM    101  C   UNL     1      -9.100  -2.102   1.185  1.00  0.00     0.064 A 
ATOM    102  C   UNL     1     -10.328  -2.767   1.051  1.00  0.00     0.173 A 
ATOM    103  C   UNL     1      -9.105  -0.699   1.149  1.00  0.00     0.173 A 
ATOM    104  F   UNL     1     -10.375  -4.108   1.068  1.00  0.00    -0.203 F 
ATOM    105  C   UNL     1     -11.510  -2.057   0.859  1.00  0.00     0.198 A 
ATOM    106  C   UNL     1     -10.293   0.009   0.986  1.00  0.00     0.198 A 
ATOM    107  F   UNL     1      -7.960  -0.014   1.280  1.00  0.00    -0.203 F 
ATOM    108  F   UNL     1     -12.664  -2.715   0.687  1.00  0.00    -0.200 F 
ATOM    109  C   UNL     1     -11.493  -0.670   0.834  1.00  0.00     0.200 A 
ATOM    110  F   UNL     1     -10.277   1.349   0.975  1.00  0.00    -0.200 F 
ATOM    111  F   UNL     1     -12.632   0.012   0.656  1.00  0.00    -0.200 F 
ENDBRANCH  81 101
BRANCH  84 112
ATOM    112  C   UNL     1      -0.442  -6.999   2.098  1.00  0.00     0.064 A 
ATOM    113  C   UNL     1      -0.293  -8.092   2.963  1.00  0.00     0.173 A 
ATOM    114  C   UNL     1       0.683  -6.589   1.368  1.00  0.00     0.173 A 
ATOM    115  F   UNL     1      -1.337  -8.516   3.691  1.00  0.00    -0.203 F 
ATOM    116  C   UNL     1       0.935  -8.731   3.112  1.00  0.00     0.198 A 
ATOM    117  C   UNL     1       1.906  -7.242   1.501  1.00  0.00     0.198 A 
ATOM    118  F   UNL     1       0.587  -5.572   0.501  1.00  0.00    -0.203 F 
ATOM    119  F   UNL     1       1.058  -9.749   3.974  1.00  0.00    -0.200 F 
ATOM    120  C   UNL     1       2.034  -8.308   2.379  1.00  0.00     0.200 A 
ATOM    121  F   UNL     1       2.960  -6.845   0.775  1.00  0.00    -0.200 F 
ATOM    122  F   UNL     1       3.214  -8.926   2.520  1.00  0.00    -0.200 F 
ENDBRANCH  84 112
BRANCH  99 123
ATOM    123  C   UNL     1      -4.313  -3.160   6.454  1.00  0.00     0.064 A 
ATOM    124  C   UNL     1      -3.407  -2.170   6.859  1.00  0.00     0.173 A 
ATOM    125  C   UNL     1      -5.135  -3.742   7.431  1.00  0.00     0.173 A 
ATOM    126  F   UNL     1      -2.590  -1.595   5.964  1.00  0.00    -0.203 F 
ATOM    127  C   UNL     1      -3.324  -1.783   8.194  1.00  0.00     0.198 A 
ATOM    128  C   UNL     1      -5.067  -3.334   8.760  1.00  0.00     0.198 A 
ATOM    129  F   UNL     1      -6.023  -4.689   7.092  1.00  0.00    -0.203 F 
ATOM    130  F   UNL     1      -2.432  -0.854   8.565  1.00  0.00    -0.200 F 
ATOM    131  C   UNL     1      -4.160  -2.357   9.141  1.00  0.00     0.200 A 
ATOM    132  F   UNL     1      -5.885  -3.880   9.671  1.00  0.00    -0.200 F 
ATOM    133  F   UNL     1      -4.090  -1.970  10.422  1.00  0.00    -0.200 F 
ENDBRANCH  99 123
ENDBRANCH  64  67
ENDBRANCH  54  57
ENDBRANCH  50  53
ENDBRANCH  47  50
ENDBRANCH  44  47
ENDBRANCH  41  44
ENDBRANCH   1  41
TORSDOF 18
