REMARK SMILES NS(=O)(=O)c1ccc(-c2coc(=O)n2-c2ccc(C(=O)NCCCCCCNC(=O)c3ccc(-c4c5nc(c(-c6c(F)c(F)c(F)c(F)c6F)c6ccc([nH]6)c(-c6c(F)c(F)c(F)c(F)c6F)c6nc(c(-c7c(F)c(F)c(F)c(F)c7F)c7ccc4[nH]7)C=C6)C=C5)cc3)cc2)cc1
REMARK SMILES IDX 23 1 22 4 21 7 19 8 20 9 18 11 15 12 16 13 95 14 17 15 94 17
REMARK SMILES IDX 14 21 9 22 10 23 11 24 12 26 13 27 8 28 5 29 6 30 97 31 7 32
REMARK SMILES IDX 96 34 2 38 3 39 4 40 1 41 24 44 25 47 26 50 27 53 28 56
REMARK SMILES IDX 29 57 30 59 31 60 32 61 93 62 33 63 92 65 34 67 35 70 36 71
REMARK SMILES IDX 86 72 37 73 91 74 85 75 87 76 38 77 90 78 84 80 83 82 39 84
REMARK SMILES IDX 71 87 51 88 70 89 52 90 55 91 69 92 88 93 53 94 54 96 68 98
REMARK SMILES IDX 89 99 56 102 40 104 41 105 49 106 42 107 43 108 47 109
REMARK SMILES IDX 50 110 44 111 45 112 48 113 46 114 72 115 73 116 81 117
REMARK SMILES IDX 74 118 75 119 79 120 82 121 76 122 77 123 80 124 78 125
REMARK SMILES IDX 57 126 58 127 66 128 59 129 60 130 64 131 67 132 61 133
REMARK SMILES IDX 62 134 65 135 63 136
REMARK H PARENT 23 2 23 3 22 5 22 6 21 10 16 16 95 18 17 19 94 20 10 25 6 33
REMARK H PARENT 97 35 7 36 96 37 1 42 1 43 24 45 24 46 25 48 25 49 26 51 26 52
REMARK H PARENT 27 54 27 55 28 58 32 64 93 66 33 68 92 69 91 79 85 81 87 83
REMARK H PARENT 90 85 84 86 52 95 55 97 88 100 53 101 89 103
REMARK Flexibility Score: inf
ROOT
ATOM      1  C   UNL     1      -4.935  -2.294  -7.029  1.00  0.00    -0.036 C 
ATOM      2  H   UNL     1      -4.664  -2.052  -8.035  1.00  0.00     0.028 H 
ATOM      3  H   UNL     1      -5.014  -1.424  -6.410  1.00  0.00     0.028 H 
ENDROOT
BRANCH   1   4
ATOM      4  C   UNL     1      -3.837  -3.176  -6.428  1.00  0.00     0.018 C 
ATOM      5  H   UNL     1      -3.014  -2.560  -6.129  1.00  0.00     0.049 H 
ATOM      6  H   UNL     1      -4.232  -3.696  -5.582  1.00  0.00     0.049 H 
BRANCH   4   7
ATOM      7  N   UNL     1      -3.378  -4.145  -7.406  1.00  0.00    -0.352 N 
ATOM      8  C   UNL     1      -2.253  -4.238  -8.184  1.00  0.00     0.251 C 
ATOM      9  O   UNL     1      -2.158  -5.218  -8.924  1.00  0.00    -0.269 OA
ATOM     10  H   UNL     1      -4.006  -4.892  -7.538  1.00  0.00     0.163 HD
BRANCH   8  11
ATOM     11  C   UNL     1      -1.125  -3.263  -8.131  1.00  0.00     0.039 A 
ATOM     12  C   UNL     1       1.153  -1.621  -7.910  1.00  0.00     0.053 A 
ATOM     13  C   UNL     1       1.270  -2.899  -8.455  1.00  0.00    -0.037 A 
ATOM     14  C   UNL     1      -0.111  -1.139  -7.558  1.00  0.00    -0.037 A 
ATOM     15  C   UNL     1       0.142  -3.724  -8.531  1.00  0.00    -0.047 A 
ATOM     16  H   UNL     1       2.183  -3.234  -8.801  1.00  0.00     0.065 H 
ATOM     17  C   UNL     1      -1.247  -1.934  -7.728  1.00  0.00    -0.047 A 
ATOM     18  H   UNL     1      -0.206  -0.187  -7.169  1.00  0.00     0.065 H 
ATOM     19  H   UNL     1       0.242  -4.688  -8.886  1.00  0.00     0.063 H 
ATOM     20  H   UNL     1      -2.183  -1.534  -7.555  1.00  0.00     0.063 H 
BRANCH  12  21
ATOM     21  N   UNL     1       2.286  -0.817  -7.695  1.00  0.00    -0.242 N 
ATOM     22  C   UNL     1       2.660  -0.175  -6.549  1.00  0.00     0.095 A 
ATOM     23  C   UNL     1       3.715   0.564  -6.871  1.00  0.00     0.121 A 
ATOM     24  O   UNL     1       4.103   0.460  -8.205  1.00  0.00    -0.415 OA
ATOM     25  H   UNL     1       4.206   1.165  -6.190  1.00  0.00     0.107 H 
ATOM     26  C   UNL     1       3.177  -0.458  -8.703  1.00  0.00     0.424 A 
ATOM     27  O   UNL     1       3.177  -0.824  -9.871  1.00  0.00    -0.223 OA
BRANCH  22  28
ATOM     28  C   UNL     1       2.125  -0.431  -5.213  1.00  0.00     0.002 A 
ATOM     29  C   UNL     1       1.143  -0.978  -2.646  1.00  0.00     0.082 A 
ATOM     30  C   UNL     1       1.638  -2.020  -3.428  1.00  0.00    -0.041 A 
ATOM     31  C   UNL     1       1.139   0.335  -3.128  1.00  0.00    -0.041 A 
ATOM     32  C   UNL     1       2.126  -1.743  -4.707  1.00  0.00    -0.051 A 
ATOM     33  H   UNL     1       1.645  -2.986  -3.066  1.00  0.00     0.064 H 
ATOM     34  C   UNL     1       1.637   0.607  -4.408  1.00  0.00    -0.051 A 
ATOM     35  H   UNL     1       0.771   1.101  -2.542  1.00  0.00     0.064 H 
ATOM     36  H   UNL     1       2.492  -2.513  -5.289  1.00  0.00     0.063 H 
ATOM     37  H   UNL     1       1.644   1.576  -4.761  1.00  0.00     0.063 H 
BRANCH  29  38
ATOM     38  S   UNL     1       0.525  -1.323  -1.025  1.00  0.00     0.238 S 
ATOM     39  O   UNL     1       1.090  -2.579  -0.564  1.00  0.00    -0.207 OA
ATOM     40  O   UNL     1      -0.882  -1.048  -1.005  1.00  0.00    -0.207 OA
BRANCH  38  41
ATOM     41  N   UNL     1       1.262  -0.146  -0.078  1.00  0.00    -0.225 NA
ATOM     42  H   UNL     1       0.968  -0.257   0.892  1.00  0.00     0.137 HD
ATOM     43  H   UNL     1       0.991   0.779  -0.412  1.00  0.00     0.137 HD
ENDBRANCH  38  41
ENDBRANCH  29  38
ENDBRANCH  22  28
ENDBRANCH  12  21
ENDBRANCH   8  11
ENDBRANCH   4   7
ENDBRANCH   1   4
BRANCH   1  44
ATOM     44  C   UNL     1      -6.317  -2.962  -7.045  1.00  0.00    -0.052 C 
ATOM     45  H   UNL     1      -6.252  -3.836  -7.660  1.00  0.00     0.027 H 
ATOM     46  H   UNL     1      -6.995  -2.222  -7.414  1.00  0.00     0.027 H 
BRANCH  44  47
ATOM     47  C   UNL     1      -6.866  -3.389  -5.674  1.00  0.00    -0.052 C 
ATOM     48  H   UNL     1      -6.284  -4.220  -5.334  1.00  0.00     0.027 H 
ATOM     49  H   UNL     1      -7.900  -3.612  -5.838  1.00  0.00     0.027 H 
BRANCH  47  50
ATOM     50  C   UNL     1      -6.848  -2.321  -4.572  1.00  0.00    -0.036 C 
ATOM     51  H   UNL     1      -5.851  -1.942  -4.487  1.00  0.00     0.028 H 
ATOM     52  H   UNL     1      -7.186  -2.796  -3.675  1.00  0.00     0.028 H 
BRANCH  50  53
ATOM     53  C   UNL     1      -7.784  -1.149  -4.829  1.00  0.00     0.018 C 
ATOM     54  H   UNL     1      -7.558  -0.731  -5.788  1.00  0.00     0.049 H 
ATOM     55  H   UNL     1      -7.637  -0.432  -4.048  1.00  0.00     0.049 H 
BRANCH  53  56
ATOM     56  N   UNL     1      -9.189  -1.552  -4.811  1.00  0.00    -0.352 N 
ATOM     57  C   UNL     1     -10.302  -0.831  -5.185  1.00  0.00     0.251 C 
ATOM     58  H   UNL     1      -9.364  -2.464  -4.485  1.00  0.00     0.163 HD
ATOM     59  O   UNL     1     -11.419  -1.153  -4.798  1.00  0.00    -0.269 OA
BRANCH  57  60
ATOM     60  C   UNL     1     -10.130   0.352  -6.045  1.00  0.00     0.039 A 
ATOM     61  C   UNL     1     -10.832   1.529  -5.783  1.00  0.00    -0.049 A 
ATOM     62  C   UNL     1      -9.225   0.287  -7.099  1.00  0.00    -0.049 A 
ATOM     63  C   UNL     1     -10.544   2.667  -6.534  1.00  0.00    -0.053 A 
ATOM     64  H   UNL     1     -11.553   1.557  -5.045  1.00  0.00     0.063 H 
ATOM     65  C   UNL     1      -8.837   1.443  -7.737  1.00  0.00    -0.053 A 
ATOM     66  H   UNL     1      -8.845  -0.624  -7.401  1.00  0.00     0.063 H 
ATOM     67  C   UNL     1      -9.519   2.633  -7.495  1.00  0.00    -0.014 A 
ATOM     68  H   UNL     1     -11.083   3.534  -6.384  1.00  0.00     0.063 H 
ATOM     69  H   UNL     1      -8.042   1.429  -8.395  1.00  0.00     0.063 H 
BRANCH  67  70
ATOM     70  C   UNL     1      -9.122   3.864  -8.184  1.00  0.00     0.031 A 
ATOM     71  C   UNL     1      -8.915   5.064  -7.320  1.00  0.00     0.074 A 
ATOM     72  C   UNL     1      -8.792   3.929  -9.492  1.00  0.00     0.049 A 
ATOM     73  N   UNL     1      -9.564   6.183  -7.351  1.00  0.00    -0.248 NA
ATOM     74  C   UNL     1      -7.910   4.989  -6.249  1.00  0.00    -0.034 C 
ATOM     75  C   UNL     1      -8.643   2.840 -10.463  1.00  0.00    -0.036 A 
ATOM     76  N   UNL     1      -8.421   5.026 -10.213  1.00  0.00    -0.354 N 
ATOM     77  C   UNL     1      -8.966   7.014  -6.405  1.00  0.00     0.074 A 
ATOM     78  C   UNL     1      -8.027   6.193  -5.684  1.00  0.00    -0.034 C 
ATOM     79  H   UNL     1      -7.279   4.211  -6.001  1.00  0.00     0.065 H 
ATOM     80  C   UNL     1      -8.000   3.294 -11.560  1.00  0.00    -0.036 A 
ATOM     81  H   UNL     1      -8.980   1.873 -10.329  1.00  0.00     0.065 H 
ATOM     82  C   UNL     1      -7.869   4.733 -11.450  1.00  0.00     0.049 A 
ATOM     83  H   UNL     1      -8.536   5.946  -9.884  1.00  0.00     0.167 HD
ATOM     84  C   UNL     1      -9.169   8.362  -6.410  1.00  0.00     0.037 A 
ATOM     85  H   UNL     1      -7.513   6.496  -4.841  1.00  0.00     0.065 H 
ATOM     86  H   UNL     1      -7.659   2.714 -12.343  1.00  0.00     0.065 H 
ATOM     87  C   UNL     1      -7.333   5.607 -12.332  1.00  0.00     0.037 A 
ATOM     88  C   UNL     1     -10.329   8.715  -7.185  1.00  0.00     0.049 A 
ATOM     89  C   UNL     1      -7.886   6.945 -12.024  1.00  0.00     0.074 A 
ATOM     90  C   UNL     1     -11.679   8.433  -7.103  1.00  0.00    -0.036 A 
ATOM     91  N   UNL     1     -10.139   9.217  -8.447  1.00  0.00    -0.354 N 
ATOM     92  N   UNL     1      -9.134   7.277 -12.202  1.00  0.00    -0.248 NA
ATOM     93  C   UNL     1      -7.130   7.810 -11.133  1.00  0.00    -0.034 C 
ATOM     94  C   UNL     1     -12.114   8.308  -8.456  1.00  0.00    -0.036 A 
ATOM     95  H   UNL     1     -12.249   8.334  -6.248  1.00  0.00     0.065 H 
ATOM     96  C   UNL     1     -11.015   8.567  -9.276  1.00  0.00     0.049 A 
ATOM     97  H   UNL     1      -9.493   9.914  -8.709  1.00  0.00     0.167 HD
ATOM     98  C   UNL     1      -9.430   8.108 -11.134  1.00  0.00     0.074 A 
ATOM     99  C   UNL     1      -8.135   8.495 -10.584  1.00  0.00    -0.034 C 
ATOM    100  H   UNL     1      -6.112   7.875 -10.972  1.00  0.00     0.065 H 
ATOM    101  H   UNL     1     -13.067   8.069  -8.771  1.00  0.00     0.065 H 
ATOM    102  C   UNL     1     -10.697   8.178 -10.630  1.00  0.00     0.037 A 
ATOM    103  H   UNL     1      -8.011   9.216  -9.856  1.00  0.00     0.065 H 
BRANCH  84 104
ATOM    104  C   UNL     1      -8.145   9.395  -6.000  1.00  0.00     0.064 A 
ATOM    105  C   UNL     1      -8.524  10.753  -5.926  1.00  0.00     0.173 A 
ATOM    106  C   UNL     1      -6.756   9.152  -5.985  1.00  0.00     0.173 A 
ATOM    107  F   UNL     1      -9.819  11.105  -5.944  1.00  0.00    -0.203 F 
ATOM    108  C   UNL     1      -7.582  11.786  -5.931  1.00  0.00     0.198 A 
ATOM    109  C   UNL     1      -5.819  10.184  -5.937  1.00  0.00     0.198 A 
ATOM    110  F   UNL     1      -6.249   7.922  -6.130  1.00  0.00    -0.203 F 
ATOM    111  F   UNL     1      -7.991  13.060  -5.995  1.00  0.00    -0.200 F 
ATOM    112  C   UNL     1      -6.230  11.500  -5.946  1.00  0.00     0.200 A 
ATOM    113  F   UNL     1      -4.512   9.888  -5.968  1.00  0.00    -0.200 F 
ATOM    114  F   UNL     1      -5.326  12.486  -6.020  1.00  0.00    -0.200 F 
ENDBRANCH  84 104
BRANCH  87 115
ATOM    115  C   UNL     1      -6.200   5.396 -13.256  1.00  0.00     0.064 A 
ATOM    116  C   UNL     1      -5.986   6.251 -14.347  1.00  0.00     0.173 A 
ATOM    117  C   UNL     1      -5.147   4.523 -12.921  1.00  0.00     0.173 A 
ATOM    118  F   UNL     1      -6.926   7.138 -14.704  1.00  0.00    -0.203 F 
ATOM    119  C   UNL     1      -4.773   6.256 -15.042  1.00  0.00     0.198 A 
ATOM    120  C   UNL     1      -3.940   4.525 -13.619  1.00  0.00     0.198 A 
ATOM    121  F   UNL     1      -5.233   3.722 -11.848  1.00  0.00    -0.203 F 
ATOM    122  F   UNL     1      -4.578   7.134 -16.036  1.00  0.00    -0.200 F 
ATOM    123  C   UNL     1      -3.747   5.403 -14.670  1.00  0.00     0.200 A 
ATOM    124  F   UNL     1      -2.943   3.720 -13.225  1.00  0.00    -0.200 F 
ATOM    125  F   UNL     1      -2.561   5.457 -15.291  1.00  0.00    -0.200 F 
ENDBRANCH  87 115
BRANCH 102 126
ATOM    126  C   UNL     1     -11.808   7.576 -11.443  1.00  0.00     0.064 A 
ATOM    127  C   UNL     1     -11.903   6.209 -11.757  1.00  0.00     0.173 A 
ATOM    128  C   UNL     1     -12.885   8.395 -11.806  1.00  0.00     0.173 A 
ATOM    129  F   UNL     1     -10.967   5.341 -11.356  1.00  0.00    -0.203 F 
ATOM    130  C   UNL     1     -13.002   5.700 -12.447  1.00  0.00     0.198 A 
ATOM    131  C   UNL     1     -13.999   7.878 -12.461  1.00  0.00     0.198 A 
ATOM    132  F   UNL     1     -12.877   9.698 -11.482  1.00  0.00    -0.203 F 
ATOM    133  F   UNL     1     -13.060   4.394 -12.751  1.00  0.00    -0.200 F 
ATOM    134  C   UNL     1     -14.052   6.534 -12.793  1.00  0.00     0.200 A 
ATOM    135  F   UNL     1     -15.034   8.679 -12.750  1.00  0.00    -0.200 F 
ATOM    136  F   UNL     1     -15.127   6.038 -13.423  1.00  0.00    -0.200 F 
ENDBRANCH 102 126
ENDBRANCH  67  70
ENDBRANCH  57  60
ENDBRANCH  53  56
ENDBRANCH  50  53
ENDBRANCH  47  50
ENDBRANCH  44  47
ENDBRANCH   1  44
TORSDOF 17
