REMARK SMILES O=C(NCCCCCCNC(=O)[C@H]1C[C@](O)(c2ccccc2Cl)[C@@H](c2ccccc2Cl)O1)c1ccc(-c2c3nc(c(-c4c(F)c(F)c(F)c(F)c4F)c4ccc([nH]4)c(-c4c(F)c(F)c(F)c(F)c4F)c4nc(c(-c5c(F)c(F)c(F)c(F)c5F)c5ccc2[nH]5)C=C4)C=C3)cc1
REMARK SMILES IDX 6 1 5 4 4 7 3 10 1 11 2 12 33 14 34 15 95 16 35 17 94 19
REMARK SMILES IDX 36 21 37 24 38 25 88 26 39 27 93 28 87 29 89 30 40 31 92 32
REMARK SMILES IDX 86 34 85 36 41 38 73 41 53 42 72 43 54 44 57 45 71 46 90 47
REMARK SMILES IDX 55 48 56 50 70 52 91 53 58 56 42 58 43 59 51 60 44 61 45 62
REMARK SMILES IDX 49 63 52 64 46 65 47 66 50 67 48 68 74 69 75 70 83 71 76 72
REMARK SMILES IDX 77 73 81 74 84 75 78 76 79 77 82 78 80 79 59 80 60 81 68 82
REMARK SMILES IDX 61 83 62 84 66 85 69 86 63 87 64 88 67 89 65 90 7 91 8 94
REMARK SMILES IDX 9 97 10 100 11 101 12 103 13 104 14 105 32 106 15 108 24 111
REMARK SMILES IDX 17 113 18 114 22 115 19 116 21 118 23 119 20 120 16 124
REMARK SMILES IDX 25 126 26 127 30 128 27 129 29 131 31 132 28 133
REMARK H PARENT 6 2 6 3 5 5 5 6 4 8 4 9 3 13 34 18 95 20 35 22 94 23 93 33
REMARK H PARENT 87 35 89 37 92 39 86 40 54 49 57 51 90 54 55 55 91 57 7 92
REMARK H PARENT 7 93 8 95 8 96 9 98 9 99 10 102 13 107 14 109 14 110 24 112
REMARK H PARENT 18 117 19 121 21 122 20 123 16 125 26 130 27 134 29 135 28 136
REMARK Flexibility Score: inf
ROOT
ATOM      1  C   UNL     1      11.337 -11.044  -4.170  1.00  0.00    -0.052 C 
ATOM      2  H   UNL     1      11.814 -11.180  -5.118  1.00  0.00     0.027 H 
ATOM      3  H   UNL     1      11.666 -10.184  -3.625  1.00  0.00     0.027 H 
ENDROOT
BRANCH   1   4
ATOM      4  C   UNL     1      11.701 -12.242  -3.292  1.00  0.00    -0.036 C 
ATOM      5  H   UNL     1      12.763 -12.366  -3.334  1.00  0.00     0.028 H 
ATOM      6  H   UNL     1      11.323 -12.008  -2.319  1.00  0.00     0.028 H 
BRANCH   4   7
ATOM      7  C   UNL     1      11.062 -13.572  -3.670  1.00  0.00     0.018 C 
ATOM      8  H   UNL     1      11.377 -14.310  -2.961  1.00  0.00     0.049 H 
ATOM      9  H   UNL     1      10.003 -13.420  -3.662  1.00  0.00     0.049 H 
BRANCH   7  10
ATOM     10  N   UNL     1      11.411 -14.038  -4.999  1.00  0.00    -0.352 N 
ATOM     11  O   UNL     1      12.081 -15.511  -6.573  1.00  0.00    -0.269 OA
ATOM     12  C   UNL     1      11.749 -15.307  -5.413  1.00  0.00     0.251 C 
ATOM     13  H   UNL     1      11.405 -13.350  -5.704  1.00  0.00     0.163 HD
BRANCH  12  14
ATOM     14  C   UNL     1      11.754 -16.423  -4.439  1.00  0.00     0.039 A 
ATOM     15  C   UNL     1      10.696 -16.613  -3.547  1.00  0.00    -0.049 A 
ATOM     16  C   UNL     1      12.851 -17.290  -4.417  1.00  0.00    -0.049 A 
ATOM     17  C   UNL     1      10.800 -17.572  -2.544  1.00  0.00    -0.053 A 
ATOM     18  H   UNL     1       9.839 -16.045  -3.633  1.00  0.00     0.063 H 
ATOM     19  C   UNL     1      12.919 -18.304  -3.458  1.00  0.00    -0.053 A 
ATOM     20  H   UNL     1      13.609 -17.181  -5.109  1.00  0.00     0.063 H 
ATOM     21  C   UNL     1      11.912 -18.429  -2.488  1.00  0.00    -0.014 A 
ATOM     22  H   UNL     1      10.055 -17.655  -1.835  1.00  0.00     0.063 H 
ATOM     23  H   UNL     1      13.713 -18.963  -3.462  1.00  0.00     0.063 H 
BRANCH  21  24
ATOM     24  C   UNL     1      11.986 -19.470  -1.432  1.00  0.00     0.031 A 
ATOM     25  C   UNL     1      13.043 -19.420  -0.364  1.00  0.00     0.074 A 
ATOM     26  C   UNL     1      11.072 -20.458  -1.428  1.00  0.00     0.049 A 
ATOM     27  N   UNL     1      13.239 -20.234   0.644  1.00  0.00    -0.248 NA
ATOM     28  C   UNL     1      14.014 -18.318  -0.441  1.00  0.00    -0.034 C 
ATOM     29  C   UNL     1      10.005 -20.618  -2.418  1.00  0.00    -0.036 A 
ATOM     30  N   UNL     1      10.882 -21.503  -0.561  1.00  0.00    -0.354 N 
ATOM     31  C   UNL     1      14.364 -19.759   1.305  1.00  0.00     0.074 A 
ATOM     32  C   UNL     1      14.822 -18.598   0.572  1.00  0.00    -0.034 C 
ATOM     33  H   UNL     1      14.055 -17.533  -1.109  1.00  0.00     0.065 H 
ATOM     34  C   UNL     1       9.245 -21.669  -2.077  1.00  0.00    -0.036 A 
ATOM     35  H   UNL     1       9.861 -20.019  -3.245  1.00  0.00     0.065 H 
ATOM     36  C   UNL     1       9.801 -22.287  -0.878  1.00  0.00     0.049 A 
ATOM     37  H   UNL     1      11.464 -21.674   0.215  1.00  0.00     0.167 HD
ATOM     38  C   UNL     1      14.954 -20.244   2.425  1.00  0.00     0.037 A 
ATOM     39  H   UNL     1      15.670 -18.058   0.807  1.00  0.00     0.065 H 
ATOM     40  H   UNL     1       8.402 -21.988  -2.580  1.00  0.00     0.065 H 
ATOM     41  C   UNL     1       9.316 -23.389  -0.277  1.00  0.00     0.037 A 
ATOM     42  C   UNL     1      14.482 -21.389   3.163  1.00  0.00     0.049 A 
ATOM     43  C   UNL     1       9.998 -23.914   0.953  1.00  0.00     0.074 A 
ATOM     44  C   UNL     1      14.983 -21.929   4.335  1.00  0.00    -0.036 A 
ATOM     45  N   UNL     1      13.400 -22.176   2.793  1.00  0.00    -0.354 N 
ATOM     46  N   UNL     1      11.035 -23.432   1.592  1.00  0.00    -0.248 NA
ATOM     47  C   UNL     1       9.442 -25.138   1.543  1.00  0.00    -0.034 C 
ATOM     48  C   UNL     1      14.234 -23.068   4.650  1.00  0.00    -0.036 A 
ATOM     49  H   UNL     1      15.774 -21.556   4.882  1.00  0.00     0.065 H 
ATOM     50  C   UNL     1      13.234 -23.211   3.701  1.00  0.00     0.049 A 
ATOM     51  H   UNL     1      12.835 -22.023   2.002  1.00  0.00     0.167 HD
ATOM     52  C   UNL     1      11.245 -24.279   2.670  1.00  0.00     0.074 A 
ATOM     53  C   UNL     1      10.217 -25.298   2.606  1.00  0.00    -0.034 C 
ATOM     54  H   UNL     1       8.655 -25.721   1.216  1.00  0.00     0.065 H 
ATOM     55  H   UNL     1      14.398 -23.696   5.452  1.00  0.00     0.065 H 
ATOM     56  C   UNL     1      12.204 -24.216   3.626  1.00  0.00     0.037 A 
ATOM     57  H   UNL     1      10.103 -26.052   3.301  1.00  0.00     0.065 H 
BRANCH  38  58
ATOM     58  C   UNL     1      16.194 -19.550   2.912  1.00  0.00     0.064 A 
ATOM     59  C   UNL     1      16.147 -18.275   3.496  1.00  0.00     0.173 A 
ATOM     60  C   UNL     1      17.443 -20.182   2.820  1.00  0.00     0.173 A 
ATOM     61  F   UNL     1      14.980 -17.622   3.600  1.00  0.00    -0.203 F 
ATOM     62  C   UNL     1      17.309 -17.647   3.941  1.00  0.00     0.198 A 
ATOM     63  C   UNL     1      18.599 -19.563   3.290  1.00  0.00     0.198 A 
ATOM     64  F   UNL     1      17.544 -21.405   2.278  1.00  0.00    -0.203 F 
ATOM     65  F   UNL     1      17.246 -16.409   4.450  1.00  0.00    -0.200 F 
ATOM     66  C   UNL     1      18.532 -18.293   3.842  1.00  0.00     0.200 A 
ATOM     67  F   UNL     1      19.778 -20.194   3.205  1.00  0.00    -0.200 F 
ATOM     68  F   UNL     1      19.648 -17.688   4.271  1.00  0.00    -0.200 F 
ENDBRANCH  38  58
BRANCH  41  69
ATOM     69  C   UNL     1       8.104 -24.047  -0.827  1.00  0.00     0.064 A 
ATOM     70  C   UNL     1       6.881 -23.979  -0.148  1.00  0.00     0.173 A 
ATOM     71  C   UNL     1       8.136 -24.725  -2.054  1.00  0.00     0.173 A 
ATOM     72  F   UNL     1       6.807 -23.355   1.038  1.00  0.00    -0.203 F 
ATOM     73  C   UNL     1       5.734 -24.569  -0.674  1.00  0.00     0.198 A 
ATOM     74  C   UNL     1       6.984 -25.292  -2.591  1.00  0.00     0.198 A 
ATOM     75  F   UNL     1       9.283 -24.812  -2.743  1.00  0.00    -0.203 F 
ATOM     76  F   UNL     1       4.582 -24.513   0.008  1.00  0.00    -0.200 F 
ATOM     77  C   UNL     1       5.784 -25.217  -1.899  1.00  0.00     0.200 A 
ATOM     78  F   UNL     1       7.033 -25.903  -3.783  1.00  0.00    -0.200 F 
ATOM     79  F   UNL     1       4.678 -25.772  -2.411  1.00  0.00    -0.200 F 
ENDBRANCH  41  69
BRANCH  56  80
ATOM     80  C   UNL     1      12.163 -25.262   4.701  1.00  0.00     0.064 A 
ATOM     81  C   UNL     1      12.533 -26.591   4.449  1.00  0.00     0.173 A 
ATOM     82  C   UNL     1      11.770 -24.924   6.005  1.00  0.00     0.173 A 
ATOM     83  F   UNL     1      12.899 -26.968   3.215  1.00  0.00    -0.203 F 
ATOM     84  C   UNL     1      12.485 -27.550   5.458  1.00  0.00     0.198 A 
ATOM     85  C   UNL     1      11.749 -25.879   7.017  1.00  0.00     0.198 A 
ATOM     86  F   UNL     1      11.410 -23.665   6.297  1.00  0.00    -0.203 F 
ATOM     87  F   UNL     1      12.795 -28.825   5.184  1.00  0.00    -0.200 F 
ATOM     88  C   UNL     1      12.099 -27.192   6.742  1.00  0.00     0.200 A 
ATOM     89  F   UNL     1      11.385 -25.529   8.258  1.00  0.00    -0.200 F 
ATOM     90  F   UNL     1      12.055 -28.116   7.712  1.00  0.00    -0.200 F 
ENDBRANCH  56  80
ENDBRANCH  21  24
ENDBRANCH  12  14
ENDBRANCH   7  10
ENDBRANCH   4   7
ENDBRANCH   1   4
BRANCH   1  91
ATOM     91  C   UNL     1       9.845 -10.813  -4.428  1.00  0.00    -0.052 C 
ATOM     92  H   UNL     1       9.497 -11.611  -5.050  1.00  0.00     0.027 H 
ATOM     93  H   UNL     1       9.786  -9.840  -4.870  1.00  0.00     0.027 H 
BRANCH  91  94
ATOM     94  C   UNL     1       8.928 -10.751  -3.198  1.00  0.00    -0.036 C 
ATOM     95  H   UNL     1       8.963 -11.704  -2.713  1.00  0.00     0.028 H 
ATOM     96  H   UNL     1       7.959 -10.489  -3.568  1.00  0.00     0.028 H 
BRANCH  94  97
ATOM     97  C   UNL     1       9.284  -9.684  -2.165  1.00  0.00     0.017 C 
ATOM     98  H   UNL     1      10.304  -9.819  -1.874  1.00  0.00     0.049 H 
ATOM     99  H   UNL     1       8.613  -9.803  -1.341  1.00  0.00     0.049 H 
BRANCH  97 100
ATOM    100  N   UNL     1       9.120  -8.336  -2.662  1.00  0.00    -0.354 N 
ATOM    101  C   UNL     1       9.088  -7.129  -2.036  1.00  0.00     0.249 C 
ATOM    102  H   UNL     1       9.012  -8.282  -3.639  1.00  0.00     0.163 HD
ATOM    103  O   UNL     1       8.981  -6.157  -2.795  1.00  0.00    -0.272 OA
BRANCH 101 104
ATOM    104  C   UNL     1       9.126  -6.932  -0.493  1.00  0.00     0.140 C 
ATOM    105  C   UNL     1       9.807  -7.950   0.402  1.00  0.00     0.019 C 
ATOM    106  O   UNL     1       9.725  -5.659  -0.193  1.00  0.00    -0.357 OA
ATOM    107  H   UNL     1       8.088  -7.038  -0.255  1.00  0.00     0.071 H 
ATOM    108  C   UNL     1      10.928  -7.229   1.159  1.00  0.00     0.124 C 
ATOM    109  H   UNL     1      10.217  -8.740  -0.192  1.00  0.00     0.033 H 
ATOM    110  H   UNL     1       9.105  -8.376   1.088  1.00  0.00     0.033 H 
ATOM    111  C   UNL     1      11.005  -5.857   0.439  1.00  0.00     0.118 C 
ATOM    112  H   UNL     1      11.258  -5.158   1.208  1.00  0.00     0.069 H 
BRANCH 108 113
ATOM    113  C   UNL     1      10.669  -7.370   2.673  1.00  0.00     0.005 A 
ATOM    114  C   UNL     1      10.833  -8.685   3.199  1.00  0.00    -0.055 A 
ATOM    115  C   UNL     1      10.265  -6.387   3.596  1.00  0.00     0.047 A 
ATOM    116  C   UNL     1      10.654  -8.995   4.548  1.00  0.00    -0.062 A 
ATOM    117  H   UNL     1      11.097  -9.444   2.551  1.00  0.00     0.063 H 
ATOM    118  C   UNL     1      10.122  -6.699   4.963  1.00  0.00    -0.043 A 
ATOM    119  Cl  UNL     1       9.828  -4.766   3.206  1.00  0.00    -0.084 Cl
ATOM    120  C   UNL     1      10.316  -7.992   5.439  1.00  0.00    -0.061 A 
ATOM    121  H   UNL     1      10.773  -9.965   4.879  1.00  0.00     0.062 H 
ATOM    122  H   UNL     1       9.868  -5.950   5.627  1.00  0.00     0.064 H 
ATOM    123  H   UNL     1      10.209  -8.200   6.444  1.00  0.00     0.062 H 
ENDBRANCH 108 113
BRANCH 108 124
ATOM    124  O   UNL     1      12.148  -7.971   0.921  1.00  0.00    -0.382 OA
ATOM    125  H   UNL     1      12.375  -7.927  -0.021  1.00  0.00     0.212 HD
ENDBRANCH 108 124
BRANCH 111 126
ATOM    126  C   UNL     1      12.114  -5.610  -0.588  1.00  0.00     0.003 A 
ATOM    127  C   UNL     1      12.274  -6.454  -1.704  1.00  0.00    -0.055 A 
ATOM    128  C   UNL     1      12.989  -4.508  -0.493  1.00  0.00     0.046 A 
ATOM    129  C   UNL     1      13.203  -6.179  -2.712  1.00  0.00    -0.062 A 
ATOM    130  H   UNL     1      11.688  -7.301  -1.780  1.00  0.00     0.063 H 
ATOM    131  C   UNL     1      13.930  -4.241  -1.498  1.00  0.00    -0.043 A 
ATOM    132  Cl  UNL     1      13.001  -3.429   0.862  1.00  0.00    -0.084 Cl
ATOM    133  C   UNL     1      14.024  -5.065  -2.615  1.00  0.00    -0.061 A 
ATOM    134  H   UNL     1      13.277  -6.805  -3.529  1.00  0.00     0.062 H 
ATOM    135  H   UNL     1      14.557  -3.426  -1.409  1.00  0.00     0.064 H 
ATOM    136  H   UNL     1      14.700  -4.850  -3.365  1.00  0.00     0.062 H 
ENDBRANCH 111 126
ENDBRANCH 101 104
ENDBRANCH  97 100
ENDBRANCH  94  97
ENDBRANCH  91  94
ENDBRANCH   1  91
TORSDOF 16
