REMARK SMILES C/C(=N/OCc1ccccc1Nc1c(Cl)cccc1Cl)C(=O)NCCCCCCNC(=O)c1ccc(-c2c3nc(c(-c4c(F)c(F)c(F)c(F)c4F)c4ccc([nH]4)c(-c4c(F)c(F)c(F)c(F)c4F)c4nc(c(-c5c(F)c(F)c(F)c(F)c5F)c5ccc2[nH]5)C=C4)C=C3)cc1
REMARK SMILES IDX 25 1 24 4 23 7 21 8 22 9 2 11 3 12 1 13 4 17 5 18 6 21 7 22
REMARK SMILES IDX 11 23 8 24 10 26 9 27 12 31 13 33 14 34 19 35 15 36 16 37
REMARK SMILES IDX 18 38 20 39 17 40 26 44 27 47 28 50 29 53 30 56 31 57 32 59
REMARK SMILES IDX 33 60 34 61 95 62 35 63 94 65 36 67 37 70 38 71 88 72 39 73
REMARK SMILES IDX 93 74 87 75 89 76 40 77 92 78 86 80 85 82 41 84 73 87 53 88
REMARK SMILES IDX 72 89 54 90 57 91 71 92 90 93 55 94 56 96 70 98 91 99 58 102
REMARK SMILES IDX 42 104 43 105 51 106 44 107 45 108 49 109 52 110 46 111
REMARK SMILES IDX 47 112 50 113 48 114 74 115 75 116 83 117 76 118 77 119
REMARK SMILES IDX 81 120 84 121 78 122 79 123 82 124 80 125 59 126 60 127
REMARK SMILES IDX 68 128 61 129 62 130 66 131 69 132 63 133 64 134 67 135
REMARK SMILES IDX 65 136
REMARK H PARENT 25 2 25 3 24 5 24 6 23 10 1 14 1 15 1 16 5 19 5 20 7 25 8 28
REMARK H PARENT 10 29 9 30 12 32 16 41 18 42 17 43 26 45 26 46 27 48 27 49
REMARK H PARENT 28 51 28 52 29 54 29 55 30 58 34 64 95 66 35 68 94 69 93 79
REMARK H PARENT 87 81 89 83 92 85 86 86 54 95 57 97 90 100 55 101 91 103
REMARK Flexibility Score: inf
ROOT
ATOM      1  C   UNL     1      -1.245   0.541  -4.795  1.00  0.00    -0.036 C 
ATOM      2  H   UNL     1      -1.787   0.939  -3.962  1.00  0.00     0.028 H 
ATOM      3  H   UNL     1      -1.689  -0.355  -5.175  1.00  0.00     0.028 H 
ENDROOT
BRANCH   1   4
ATOM      4  C   UNL     1       0.173   0.182  -4.326  1.00  0.00     0.018 C 
ATOM      5  H   UNL     1       0.172  -0.803  -3.907  1.00  0.00     0.049 H 
ATOM      6  H   UNL     1       0.843   0.212  -5.160  1.00  0.00     0.049 H 
BRANCH   4   7
ATOM      7  N   UNL     1       0.602   1.132  -3.325  1.00  0.00    -0.351 N 
ATOM      8  C   UNL     1       0.446   1.154  -1.965  1.00  0.00     0.268 C 
ATOM      9  O   UNL     1       0.679   2.218  -1.386  1.00  0.00    -0.268 OA
ATOM     10  H   UNL     1       1.097   1.902  -3.687  1.00  0.00     0.163 HD
BRANCH   8  11
ATOM     11  C   UNL     1       0.155  -0.043  -1.074  1.00  0.00     0.141 C 
ATOM     12  N   UNL     1      -0.685  -1.028  -1.197  1.00  0.00    -0.086 NA
BRANCH  11  13
ATOM     13  C   UNL     1       0.968  -0.044   0.206  1.00  0.00    -0.013 C 
ATOM     14  H   UNL     1       0.718  -0.908   0.786  1.00  0.00     0.030 H 
ATOM     15  H   UNL     1       0.748   0.839   0.769  1.00  0.00     0.030 H 
ATOM     16  H   UNL     1       2.010  -0.064  -0.033  1.00  0.00     0.030 H 
ENDBRANCH  11  13
BRANCH  12  17
ATOM     17  O   UNL     1      -1.367  -1.101  -2.402  1.00  0.00    -0.390 OA
BRANCH  17  18
ATOM     18  C   UNL     1      -1.918  -2.426  -2.577  1.00  0.00     0.144 C 
ATOM     19  H   UNL     1      -2.678  -2.367  -3.328  1.00  0.00     0.079 H 
ATOM     20  H   UNL     1      -2.272  -2.716  -1.610  1.00  0.00     0.079 H 
BRANCH  18  21
ATOM     21  C   UNL     1      -0.934  -3.522  -2.995  1.00  0.00     0.016 A 
ATOM     22  C   UNL     1       0.370  -3.550  -2.456  1.00  0.00    -0.053 A 
ATOM     23  C   UNL     1      -1.341  -4.616  -3.797  1.00  0.00     0.045 A 
ATOM     24  C   UNL     1       1.246  -4.611  -2.681  1.00  0.00    -0.062 A 
ATOM     25  H   UNL     1       0.686  -2.757  -1.875  1.00  0.00     0.063 H 
ATOM     26  C   UNL     1      -0.445  -5.687  -3.997  1.00  0.00    -0.038 A 
ATOM     27  C   UNL     1       0.834  -5.689  -3.444  1.00  0.00    -0.060 A 
ATOM     28  H   UNL     1       2.197  -4.593  -2.281  1.00  0.00     0.062 H 
ATOM     29  H   UNL     1      -0.745  -6.492  -4.569  1.00  0.00     0.064 H 
ATOM     30  H   UNL     1       1.468  -6.487  -3.603  1.00  0.00     0.062 H 
BRANCH  23  31
ATOM     31  N   UNL     1      -2.633  -4.657  -4.377  1.00  0.00    -0.353 N 
ATOM     32  H   UNL     1      -3.112  -3.798  -4.413  1.00  0.00     0.167 HD
BRANCH  31  33
ATOM     33  C   UNL     1      -3.331  -5.773  -4.912  1.00  0.00     0.076 A 
ATOM     34  C   UNL     1      -3.724  -5.762  -6.269  1.00  0.00     0.066 A 
ATOM     35  C   UNL     1      -3.582  -6.949  -4.175  1.00  0.00     0.066 A 
ATOM     36  Cl  UNL     1      -3.463  -4.358  -7.254  1.00  0.00    -0.082 Cl
ATOM     37  C   UNL     1      -4.321  -6.876  -6.867  1.00  0.00    -0.041 A 
ATOM     38  C   UNL     1      -4.181  -8.064  -4.776  1.00  0.00    -0.041 A 
ATOM     39  Cl  UNL     1      -3.248  -7.061  -2.478  1.00  0.00    -0.082 Cl
ATOM     40  C   UNL     1      -4.543  -8.031  -6.121  1.00  0.00    -0.059 A 
ATOM     41  H   UNL     1      -4.598  -6.843  -7.861  1.00  0.00     0.064 H 
ATOM     42  H   UNL     1      -4.356  -8.915  -4.218  1.00  0.00     0.064 H 
ATOM     43  H   UNL     1      -4.973  -8.858  -6.562  1.00  0.00     0.062 H 
ENDBRANCH  31  33
ENDBRANCH  23  31
ENDBRANCH  18  21
ENDBRANCH  17  18
ENDBRANCH  12  17
ENDBRANCH   8  11
ENDBRANCH   4   7
ENDBRANCH   1   4
BRANCH   1  44
ATOM     44  C   UNL     1      -1.269   1.574  -5.929  1.00  0.00    -0.052 C 
ATOM     45  H   UNL     1      -0.663   2.406  -5.637  1.00  0.00     0.027 H 
ATOM     46  H   UNL     1      -2.295   1.838  -6.080  1.00  0.00     0.027 H 
BRANCH  44  47
ATOM     47  C   UNL     1      -0.750   1.051  -7.273  1.00  0.00    -0.052 C 
ATOM     48  H   UNL     1       0.284   0.801  -7.155  1.00  0.00     0.027 H 
ATOM     49  H   UNL     1      -0.919   1.833  -7.983  1.00  0.00     0.027 H 
BRANCH  47  50
ATOM     50  C   UNL     1      -1.478  -0.183  -7.814  1.00  0.00    -0.036 C 
ATOM     51  H   UNL     1      -1.367  -0.975  -7.103  1.00  0.00     0.028 H 
ATOM     52  H   UNL     1      -1.035  -0.407  -8.762  1.00  0.00     0.028 H 
BRANCH  50  53
ATOM     53  C   UNL     1      -2.968   0.024  -8.068  1.00  0.00     0.018 C 
ATOM     54  H   UNL     1      -3.428   0.376  -7.168  1.00  0.00     0.049 H 
ATOM     55  H   UNL     1      -3.389  -0.912  -8.372  1.00  0.00     0.049 H 
BRANCH  53  56
ATOM     56  N   UNL     1      -3.202   0.993  -9.128  1.00  0.00    -0.352 N 
ATOM     57  C   UNL     1      -3.855   0.833 -10.324  1.00  0.00     0.251 C 
ATOM     58  H   UNL     1      -2.840   1.894  -8.963  1.00  0.00     0.163 HD
ATOM     59  O   UNL     1      -3.752   1.679 -11.206  1.00  0.00    -0.269 OA
BRANCH  57  60
ATOM     60  C   UNL     1      -4.684  -0.369 -10.554  1.00  0.00     0.039 A 
ATOM     61  C   UNL     1      -4.598  -1.029 -11.783  1.00  0.00    -0.049 A 
ATOM     62  C   UNL     1      -5.567  -0.824  -9.570  1.00  0.00    -0.049 A 
ATOM     63  C   UNL     1      -5.362  -2.175 -12.007  1.00  0.00    -0.053 A 
ATOM     64  H   UNL     1      -3.972  -0.670 -12.521  1.00  0.00     0.063 H 
ATOM     65  C   UNL     1      -6.278  -2.003  -9.770  1.00  0.00    -0.053 A 
ATOM     66  H   UNL     1      -5.692  -0.286  -8.698  1.00  0.00     0.063 H 
ATOM     67  C   UNL     1      -6.189  -2.685 -10.993  1.00  0.00    -0.014 A 
ATOM     68  H   UNL     1      -5.319  -2.651 -12.922  1.00  0.00     0.063 H 
ATOM     69  H   UNL     1      -6.874  -2.378  -9.015  1.00  0.00     0.063 H 
BRANCH  67  70
ATOM     70  C   UNL     1      -6.983  -3.921 -11.196  1.00  0.00     0.031 A 
ATOM     71  C   UNL     1      -8.485  -3.856 -11.212  1.00  0.00     0.074 A 
ATOM     72  C   UNL     1      -6.354  -5.106 -11.301  1.00  0.00     0.049 A 
ATOM     73  N   UNL     1      -9.356  -4.830 -11.300  1.00  0.00    -0.248 NA
ATOM     74  C   UNL     1      -9.089  -2.521 -11.084  1.00  0.00    -0.034 C 
ATOM     75  C   UNL     1      -4.904  -5.300 -11.257  1.00  0.00    -0.036 A 
ATOM     76  N   UNL     1      -6.855  -6.374 -11.459  1.00  0.00    -0.354 N 
ATOM     77  C   UNL     1     -10.604  -4.228 -11.218  1.00  0.00     0.074 A 
ATOM     78  C   UNL     1     -10.380  -2.811 -11.026  1.00  0.00    -0.034 C 
ATOM     79  H   UNL     1      -8.627  -1.598 -11.049  1.00  0.00     0.065 H 
ATOM     80  C   UNL     1      -4.631  -6.605 -11.411  1.00  0.00    -0.036 A 
ATOM     81  H   UNL     1      -4.204  -4.553 -11.128  1.00  0.00     0.065 H 
ATOM     82  C   UNL     1      -5.885  -7.344 -11.526  1.00  0.00     0.049 A 
ATOM     83  H   UNL     1      -7.818  -6.569 -11.519  1.00  0.00     0.167 HD
ATOM     84  C   UNL     1     -11.827  -4.803 -11.314  1.00  0.00     0.037 A 
ATOM     85  H   UNL     1     -11.128  -2.118 -10.865  1.00  0.00     0.065 H 
ATOM     86  H   UNL     1      -3.686  -7.020 -11.443  1.00  0.00     0.065 H 
ATOM     87  C   UNL     1      -5.999  -8.679 -11.659  1.00  0.00     0.037 A 
ATOM     88  C   UNL     1     -12.044  -6.208 -11.534  1.00  0.00     0.049 A 
ATOM     89  C   UNL     1      -7.368  -9.292 -11.772  1.00  0.00     0.074 A 
ATOM     90  C   UNL     1     -13.241  -6.881 -11.704  1.00  0.00    -0.036 A 
ATOM     91  N   UNL     1     -11.036  -7.158 -11.616  1.00  0.00    -0.354 N 
ATOM     92  N   UNL     1      -8.541  -8.707 -11.748  1.00  0.00    -0.248 NA
ATOM     93  C   UNL     1      -7.429 -10.751 -11.933  1.00  0.00    -0.034 C 
ATOM     94  C   UNL     1     -12.960  -8.245 -11.846  1.00  0.00    -0.036 A 
ATOM     95  H   UNL     1     -14.179  -6.452 -11.724  1.00  0.00     0.065 H 
ATOM     96  C   UNL     1     -11.585  -8.415 -11.814  1.00  0.00     0.049 A 
ATOM     97  H   UNL     1     -10.073  -6.967 -11.545  1.00  0.00     0.167 HD
ATOM     98  C   UNL     1      -9.476  -9.718 -11.917  1.00  0.00     0.074 A 
ATOM     99  C   UNL     1      -8.733 -10.954 -12.056  1.00  0.00    -0.034 C 
ATOM    100  H   UNL     1      -6.659 -11.438 -11.947  1.00  0.00     0.065 H 
ATOM    101  H   UNL     1     -13.658  -8.996 -11.955  1.00  0.00     0.065 H 
ATOM    102  C   UNL     1     -10.828  -9.632 -11.954  1.00  0.00     0.037 A 
ATOM    103  H   UNL     1      -9.165 -11.875 -12.229  1.00  0.00     0.065 H 
BRANCH  84 104
ATOM    104  C   UNL     1     -13.027  -3.910 -11.181  1.00  0.00     0.064 A 
ATOM    105  C   UNL     1     -13.367  -2.979 -12.174  1.00  0.00     0.173 A 
ATOM    106  C   UNL     1     -13.869  -4.011 -10.063  1.00  0.00     0.173 A 
ATOM    107  F   UNL     1     -12.590  -2.835 -13.258  1.00  0.00    -0.203 F 
ATOM    108  C   UNL     1     -14.487  -2.163 -12.039  1.00  0.00     0.198 A 
ATOM    109  C   UNL     1     -15.005  -3.215  -9.946  1.00  0.00     0.198 A 
ATOM    110  F   UNL     1     -13.594  -4.889  -9.086  1.00  0.00    -0.203 F 
ATOM    111  F   UNL     1     -14.764  -1.247 -12.978  1.00  0.00    -0.200 F 
ATOM    112  C   UNL     1     -15.309  -2.286 -10.930  1.00  0.00     0.200 A 
ATOM    113  F   UNL     1     -15.806  -3.345  -8.879  1.00  0.00    -0.200 F 
ATOM    114  F   UNL     1     -16.391  -1.505 -10.805  1.00  0.00    -0.200 F 
ENDBRANCH  84 104
BRANCH  87 115
ATOM    115  C   UNL     1      -4.778  -9.524 -11.713  1.00  0.00     0.064 A 
ATOM    116  C   UNL     1      -4.396 -10.161 -12.902  1.00  0.00     0.173 A 
ATOM    117  C   UNL     1      -3.972  -9.713 -10.582  1.00  0.00     0.173 A 
ATOM    118  F   UNL     1      -5.149 -10.027 -14.004  1.00  0.00    -0.203 F 
ATOM    119  C   UNL     1      -3.264 -10.971 -12.952  1.00  0.00     0.198 A 
ATOM    120  C   UNL     1      -2.824 -10.501 -10.640  1.00  0.00     0.198 A 
ATOM    121  F   UNL     1      -4.295  -9.125  -9.421  1.00  0.00    -0.203 F 
ATOM    122  F   UNL     1      -2.947 -11.605 -14.089  1.00  0.00    -0.200 F 
ATOM    123  C   UNL     1      -2.475 -11.135 -11.823  1.00  0.00     0.200 A 
ATOM    124  F   UNL     1      -2.060 -10.646  -9.550  1.00  0.00    -0.200 F 
ATOM    125  F   UNL     1      -1.385 -11.912 -11.872  1.00  0.00    -0.200 F 
ENDBRANCH  87 115
BRANCH 102 126
ATOM    126  C   UNL     1     -11.591 -10.904 -12.182  1.00  0.00     0.064 A 
ATOM    127  C   UNL     1     -11.700 -11.886 -11.186  1.00  0.00     0.173 A 
ATOM    128  C   UNL     1     -12.257 -11.124 -13.398  1.00  0.00     0.173 A 
ATOM    129  F   UNL     1     -11.068 -11.729 -10.013  1.00  0.00    -0.203 F 
ATOM    130  C   UNL     1     -12.427 -13.052 -11.408  1.00  0.00     0.198 A 
ATOM    131  C   UNL     1     -13.008 -12.277 -13.605  1.00  0.00     0.198 A 
ATOM    132  F   UNL     1     -12.190 -10.213 -14.380  1.00  0.00    -0.203 F 
ATOM    133  F   UNL     1     -12.479 -13.997 -10.459  1.00  0.00    -0.200 F 
ATOM    134  C   UNL     1     -13.086 -13.243 -12.613  1.00  0.00     0.200 A 
ATOM    135  F   UNL     1     -13.654 -12.455 -14.766  1.00  0.00    -0.200 F 
ATOM    136  F   UNL     1     -13.792 -14.363 -12.822  1.00  0.00    -0.200 F 
ENDBRANCH 102 126
ENDBRANCH  67  70
ENDBRANCH  57  60
ENDBRANCH  53  56
ENDBRANCH  50  53
ENDBRANCH  47  50
ENDBRANCH  44  47
ENDBRANCH   1  44
TORSDOF 19
