REMARK SMILES CS(=O)(=O)c1ccc(-n2nc(C(F)(F)F)cc2-c2ccc(CC(=O)NCCCCCCNC(=O)c3ccc(-c4c5nc(c(-c6c(F)c(F)c(F)c(F)c6F)c6ccc([nH]6)c(-c6c(F)c(F)c(F)c(F)c6F)c6nc(c(-c7c(F)c(F)c(F)c(F)c7F)c7ccc4[nH]7)C=C6)C=C5)cc3)cc2)cc1
REMARK SMILES IDX 27 1 26 4 25 7 23 8 24 9 22 11 21 14 18 15 19 16 99 17 20 18
REMARK SMILES IDX 98 20 17 24 9 25 10 26 11 27 16 28 8 30 5 31 6 32 101 33
REMARK SMILES IDX 7 34 100 36 2 40 3 41 4 42 1 43 12 47 13 48 14 49 15 50
REMARK SMILES IDX 28 51 29 54 30 57 31 60 32 63 33 64 34 66 35 67 36 68 97 69
REMARK SMILES IDX 37 70 96 72 38 74 39 77 40 78 90 79 41 80 95 81 89 82 91 83
REMARK SMILES IDX 42 84 94 85 88 87 87 89 43 91 75 94 55 95 74 96 56 97 59 98
REMARK SMILES IDX 73 99 92 100 57 101 58 103 72 105 93 106 60 109 44 111
REMARK SMILES IDX 45 112 53 113 46 114 47 115 51 116 54 117 48 118 49 119
REMARK SMILES IDX 52 120 50 121 76 122 77 123 85 124 78 125 79 126 83 127
REMARK SMILES IDX 86 128 80 129 81 130 84 131 82 132 61 133 62 134 70 135
REMARK SMILES IDX 63 136 64 137 68 138 71 139 65 140 66 141 69 142 67 143
REMARK H PARENT 27 2 27 3 26 5 26 6 25 10 22 12 22 13 19 19 99 21 20 22 98 23
REMARK H PARENT 16 29 6 35 101 37 7 38 100 39 1 44 1 45 1 46 28 52 28 53 29 55
REMARK H PARENT 29 56 30 58 30 59 31 61 31 62 32 65 36 71 97 73 37 75 96 76
REMARK H PARENT 95 86 89 88 91 90 94 92 88 93 56 102 59 104 92 107 57 108
REMARK H PARENT 93 110
REMARK Flexibility Score: inf
ROOT
ATOM      1  C   UNL     1       4.756   1.671  -5.179  1.00  0.00    -0.036 C 
ATOM      2  H   UNL     1       3.829   2.194  -5.067  1.00  0.00     0.028 H 
ATOM      3  H   UNL     1       5.512   2.030  -4.512  1.00  0.00     0.028 H 
ENDROOT
BRANCH   1   4
ATOM      4  C   UNL     1       5.271   1.903  -6.601  1.00  0.00     0.017 C 
ATOM      5  H   UNL     1       5.569   2.926  -6.701  1.00  0.00     0.049 H 
ATOM      6  H   UNL     1       6.100   1.247  -6.769  1.00  0.00     0.049 H 
BRANCH   4   7
ATOM      7  N   UNL     1       4.252   1.609  -7.588  1.00  0.00    -0.356 N 
ATOM      8  C   UNL     1       3.590   2.460  -8.425  1.00  0.00     0.224 C 
ATOM      9  O   UNL     1       2.689   2.007  -9.133  1.00  0.00    -0.275 OA
ATOM     10  H   UNL     1       4.002   0.660  -7.667  1.00  0.00     0.163 HD
BRANCH   8  11
ATOM     11  C   UNL     1       3.999   3.921  -8.507  1.00  0.00     0.052 C 
ATOM     12  H   UNL     1       5.053   3.966  -8.691  1.00  0.00     0.042 H 
ATOM     13  H   UNL     1       3.425   4.360  -9.296  1.00  0.00     0.042 H 
BRANCH  11  14
ATOM     14  C   UNL     1       3.701   4.711  -7.257  1.00  0.00    -0.039 A 
ATOM     15  C   UNL     1       3.186   6.053  -4.850  1.00  0.00     0.000 A 
ATOM     16  C   UNL     1       2.144   5.442  -5.559  1.00  0.00    -0.053 A 
ATOM     17  C   UNL     1       4.477   6.041  -5.379  1.00  0.00    -0.053 A 
ATOM     18  C   UNL     1       2.400   4.766  -6.749  1.00  0.00    -0.058 A 
ATOM     19  H   UNL     1       1.179   5.492  -5.196  1.00  0.00     0.063 H 
ATOM     20  C   UNL     1       4.729   5.388  -6.584  1.00  0.00    -0.058 A 
ATOM     21  H   UNL     1       5.244   6.515  -4.878  1.00  0.00     0.063 H 
ATOM     22  H   UNL     1       1.628   4.306  -7.257  1.00  0.00     0.063 H 
ATOM     23  H   UNL     1       5.680   5.402  -6.984  1.00  0.00     0.063 H 
BRANCH  15  24
ATOM     24  C   UNL     1       2.926   6.726  -3.587  1.00  0.00     0.075 A 
ATOM     25  N   UNL     1       2.300   6.154  -2.494  1.00  0.00    -0.233 N 
ATOM     26  N   UNL     1       2.080   7.048  -1.496  1.00  0.00    -0.163 NA
ATOM     27  C   UNL     1       2.599   8.208  -1.949  1.00  0.00     0.167 A 
ATOM     28  C   UNL     1       3.154   8.041  -3.241  1.00  0.00    -0.003 A 
ATOM     29  H   UNL     1       3.632   8.758  -3.808  1.00  0.00     0.067 H 
BRANCH  25  30
ATOM     30  C   UNL     1       1.885   4.809  -2.360  1.00  0.00     0.065 A 
ATOM     31  C   UNL     1       1.016   2.177  -2.124  1.00  0.00     0.067 A 
ATOM     32  C   UNL     1       2.384   2.470  -2.042  1.00  0.00    -0.041 A 
ATOM     33  C   UNL     1       0.085   3.192  -2.354  1.00  0.00    -0.041 A 
ATOM     34  C   UNL     1       2.826   3.794  -2.159  1.00  0.00    -0.035 A 
ATOM     35  H   UNL     1       3.066   1.709  -1.895  1.00  0.00     0.064 H 
ATOM     36  C   UNL     1       0.525   4.509  -2.489  1.00  0.00    -0.035 A 
ATOM     37  H   UNL     1      -0.921   2.971  -2.423  1.00  0.00     0.064 H 
ATOM     38  H   UNL     1       3.831   4.017  -2.098  1.00  0.00     0.065 H 
ATOM     39  H   UNL     1      -0.152   5.262  -2.684  1.00  0.00     0.065 H 
BRANCH  31  40
ATOM     40  S   UNL     1       0.455   0.487  -2.067  1.00  0.00     0.175 S 
ATOM     41  O   UNL     1       1.276  -0.245  -3.024  1.00  0.00    -0.224 OA
ATOM     42  O   UNL     1      -0.984   0.492  -2.158  1.00  0.00    -0.224 OA
BRANCH  40  43
ATOM     43  C   UNL     1       0.872  -0.096  -0.457  1.00  0.00     0.043 C 
ATOM     44  H   UNL     1       0.561  -1.114  -0.354  1.00  0.00     0.040 H 
ATOM     45  H   UNL     1       0.378   0.504   0.279  1.00  0.00     0.040 H 
ATOM     46  H   UNL     1       1.931  -0.031  -0.317  1.00  0.00     0.040 H 
ENDBRANCH  40  43
ENDBRANCH  31  40
ENDBRANCH  25  30
BRANCH  27  47
ATOM     47  C   UNL     1       2.561   9.497  -1.170  1.00  0.00     0.435 C 
ATOM     48  F   UNL     1       1.296   9.878  -0.851  1.00  0.00    -0.164 F 
ATOM     49  F   UNL     1       3.258   9.415  -0.005  1.00  0.00    -0.164 F 
ATOM     50  F   UNL     1       3.109  10.527  -1.873  1.00  0.00    -0.164 F 
ENDBRANCH  27  47
ENDBRANCH  15  24
ENDBRANCH  11  14
ENDBRANCH   8  11
ENDBRANCH   4   7
ENDBRANCH   1   4
BRANCH   1  51
ATOM     51  C   UNL     1       4.523   0.194  -4.835  1.00  0.00    -0.052 C 
ATOM     52  H   UNL     1       3.695  -0.152  -5.417  1.00  0.00     0.027 H 
ATOM     53  H   UNL     1       4.354   0.163  -3.779  1.00  0.00     0.027 H 
BRANCH  51  54
ATOM     54  C   UNL     1       5.711  -0.745  -5.098  1.00  0.00    -0.052 C 
ATOM     55  H   UNL     1       5.866  -0.788  -6.155  1.00  0.00     0.027 H 
ATOM     56  H   UNL     1       5.440  -1.680  -4.653  1.00  0.00     0.027 H 
BRANCH  54  57
ATOM     57  C   UNL     1       7.045  -0.352  -4.445  1.00  0.00    -0.036 C 
ATOM     58  H   UNL     1       7.272   0.657  -4.720  1.00  0.00     0.028 H 
ATOM     59  H   UNL     1       7.781  -1.046  -4.796  1.00  0.00     0.028 H 
BRANCH  57  60
ATOM     60  C   UNL     1       7.036  -0.446  -2.928  1.00  0.00     0.018 C 
ATOM     61  H   UNL     1       6.215   0.130  -2.554  1.00  0.00     0.049 H 
ATOM     62  H   UNL     1       7.973  -0.071  -2.573  1.00  0.00     0.049 H 
BRANCH  60  63
ATOM     63  N   UNL     1       6.898  -1.824  -2.452  1.00  0.00    -0.352 N 
ATOM     64  C   UNL     1       6.808  -2.288  -1.153  1.00  0.00     0.251 C 
ATOM     65  H   UNL     1       6.865  -2.515  -3.153  1.00  0.00     0.163 HD
ATOM     66  O   UNL     1       7.086  -3.447  -0.873  1.00  0.00    -0.269 OA
BRANCH  64  67
ATOM     67  C   UNL     1       6.340  -1.365  -0.104  1.00  0.00     0.039 A 
ATOM     68  C   UNL     1       6.843  -1.395   1.202  1.00  0.00    -0.049 A 
ATOM     69  C   UNL     1       5.363  -0.443  -0.464  1.00  0.00    -0.049 A 
ATOM     70  C   UNL     1       6.385  -0.449   2.120  1.00  0.00    -0.053 A 
ATOM     71  H   UNL     1       7.540  -2.103   1.480  1.00  0.00     0.063 H 
ATOM     72  C   UNL     1       5.080   0.604   0.365  1.00  0.00    -0.053 A 
ATOM     73  H   UNL     1       4.854  -0.550  -1.355  1.00  0.00     0.063 H 
ATOM     74  C   UNL     1       5.503   0.549   1.685  1.00  0.00    -0.014 A 
ATOM     75  H   UNL     1       6.691  -0.484   3.105  1.00  0.00     0.063 H 
ATOM     76  H   UNL     1       4.561   1.424   0.015  1.00  0.00     0.063 H 
BRANCH  74  77
ATOM     77  C   UNL     1       5.079   1.662   2.524  1.00  0.00     0.031 A 
ATOM     78  C   UNL     1       6.187   2.563   2.917  1.00  0.00     0.074 A 
ATOM     79  C   UNL     1       3.777   2.005   2.654  1.00  0.00     0.049 A 
ATOM     80  N   UNL     1       6.644   2.756   4.108  1.00  0.00    -0.248 NA
ATOM     81  C   UNL     1       6.990   3.199   1.859  1.00  0.00    -0.034 C 
ATOM     82  C   UNL     1       2.605   1.354   2.070  1.00  0.00    -0.036 A 
ATOM     83  N   UNL     1       3.225   3.091   3.260  1.00  0.00    -0.354 N 
ATOM     84  C   UNL     1       7.634   3.723   3.975  1.00  0.00     0.074 A 
ATOM     85  C   UNL     1       7.962   3.767   2.577  1.00  0.00    -0.034 C 
ATOM     86  H   UNL     1       6.842   3.205   0.838  1.00  0.00     0.065 H 
ATOM     87  C   UNL     1       1.533   2.180   2.135  1.00  0.00    -0.036 A 
ATOM     88  H   UNL     1       2.595   0.404   1.667  1.00  0.00     0.065 H 
ATOM     89  C   UNL     1       1.893   3.345   2.915  1.00  0.00     0.049 A 
ATOM     90  H   UNL     1       3.724   3.656   3.893  1.00  0.00     0.167 HD
ATOM     91  C   UNL     1       7.864   4.611   4.983  1.00  0.00     0.037 A 
ATOM     92  H   UNL     1       8.824   4.177   2.184  1.00  0.00     0.065 H 
ATOM     93  H   UNL     1       0.613   2.007   1.701  1.00  0.00     0.065 H 
ATOM     94  C   UNL     1       1.158   4.437   3.260  1.00  0.00     0.037 A 
ATOM     95  C   UNL     1       7.288   4.133   6.221  1.00  0.00     0.049 A 
ATOM     96  C   UNL     1       1.858   5.064   4.407  1.00  0.00     0.074 A 
ATOM     97  C   UNL     1       7.412   2.969   6.959  1.00  0.00    -0.036 A 
ATOM     98  N   UNL     1       6.121   4.714   6.660  1.00  0.00    -0.354 N 
ATOM     99  N   UNL     1       1.909   4.519   5.589  1.00  0.00    -0.248 NA
ATOM    100  C   UNL     1       2.915   6.014   4.093  1.00  0.00    -0.034 C 
ATOM    101  C   UNL     1       6.085   2.657   7.382  1.00  0.00    -0.036 A 
ATOM    102  H   UNL     1       8.276   2.441   7.159  1.00  0.00     0.065 H 
ATOM    103  C   UNL     1       5.254   3.699   6.977  1.00  0.00     0.049 A 
ATOM    104  H   UNL     1       5.941   5.679   6.734  1.00  0.00     0.167 HD
ATOM    105  C   UNL     1       3.220   4.703   5.992  1.00  0.00     0.074 A 
ATOM    106  C   UNL     1       3.781   5.678   5.053  1.00  0.00    -0.034 C 
ATOM    107  H   UNL     1       2.977   6.730   3.352  1.00  0.00     0.065 H 
ATOM    108  H   UNL     1       5.793   1.811   7.896  1.00  0.00     0.065 H 
ATOM    109  C   UNL     1       3.825   3.818   6.836  1.00  0.00     0.037 A 
ATOM    110  H   UNL     1       4.736   6.061   5.125  1.00  0.00     0.065 H 
BRANCH  91 111
ATOM    111  C   UNL     1       8.228   6.067   4.770  1.00  0.00     0.064 A 
ATOM    112  C   UNL     1       8.473   6.870   5.904  1.00  0.00     0.173 A 
ATOM    113  C   UNL     1       8.065   6.776   3.559  1.00  0.00     0.173 A 
ATOM    114  F   UNL     1       8.642   6.313   7.112  1.00  0.00    -0.203 F 
ATOM    115  C   UNL     1       8.449   8.266   5.844  1.00  0.00     0.198 A 
ATOM    116  C   UNL     1       8.097   8.168   3.494  1.00  0.00     0.198 A 
ATOM    117  F   UNL     1       7.762   6.179   2.403  1.00  0.00    -0.203 F 
ATOM    118  F   UNL     1       8.546   8.979   6.974  1.00  0.00    -0.200 F 
ATOM    119  C   UNL     1       8.252   8.914   4.641  1.00  0.00     0.200 A 
ATOM    120  F   UNL     1       7.895   8.775   2.316  1.00  0.00    -0.200 F 
ATOM    121  F   UNL     1       8.165  10.249   4.590  1.00  0.00    -0.200 F 
ENDBRANCH  91 111
BRANCH  94 122
ATOM    122  C   UNL     1       0.060   5.158   2.567  1.00  0.00     0.064 A 
ATOM    123  C   UNL     1      -0.764   6.067   3.256  1.00  0.00     0.173 A 
ATOM    124  C   UNL     1       0.015   5.224   1.166  1.00  0.00     0.173 A 
ATOM    125  F   UNL     1      -0.770   6.085   4.596  1.00  0.00    -0.203 F 
ATOM    126  C   UNL     1      -1.540   7.021   2.586  1.00  0.00     0.198 A 
ATOM    127  C   UNL     1      -0.765   6.178   0.501  1.00  0.00     0.198 A 
ATOM    128  F   UNL     1       0.796   4.415   0.440  1.00  0.00    -0.203 F 
ATOM    129  F   UNL     1      -2.261   7.911   3.281  1.00  0.00    -0.200 F 
ATOM    130  C   UNL     1      -1.523   7.089   1.208  1.00  0.00     0.200 A 
ATOM    131  F   UNL     1      -0.762   6.264  -0.833  1.00  0.00    -0.200 F 
ATOM    132  F   UNL     1      -2.210   8.040   0.559  1.00  0.00    -0.200 F 
ENDBRANCH  94 122
BRANCH 109 133
ATOM    133  C   UNL     1       2.976   2.771   7.503  1.00  0.00     0.064 A 
ATOM    134  C   UNL     1       2.241   1.782   6.823  1.00  0.00     0.173 A 
ATOM    135  C   UNL     1       3.023   2.686   8.899  1.00  0.00     0.173 A 
ATOM    136  F   UNL     1       2.227   1.726   5.485  1.00  0.00    -0.203 F 
ATOM    137  C   UNL     1       1.550   0.787   7.516  1.00  0.00     0.198 A 
ATOM    138  C   UNL     1       2.364   1.671   9.587  1.00  0.00     0.198 A 
ATOM    139  F   UNL     1       3.751   3.570   9.600  1.00  0.00    -0.203 F 
ATOM    140  F   UNL     1       0.847  -0.138   6.845  1.00  0.00    -0.200 F 
ATOM    141  C   UNL     1       1.618   0.730   8.898  1.00  0.00     0.200 A 
ATOM    142  F   UNL     1       2.477   1.593  10.920  1.00  0.00    -0.200 F 
ATOM    143  F   UNL     1       0.988  -0.247   9.565  1.00  0.00    -0.200 F 
ENDBRANCH 109 133
ENDBRANCH  74  77
ENDBRANCH  64  67
ENDBRANCH  60  63
ENDBRANCH  57  60
ENDBRANCH  54  57
ENDBRANCH  51  54
ENDBRANCH   1  51
TORSDOF 19
