REMARK SMILES CCc1cc(C(=O)c2[nH]c3cc(Cl)ccc3c2CC(=O)NCCCCCCNC(=O)c2ccc(-c3c4nc(c(-c5c(F)c(F)c(F)c(F)c5F)c5ccc([nH]5)c(-c5c(F)c(F)c(F)c(F)c5F)c5nc(c(-c6c(F)c(F)c(F)c(F)c6F)c6ccc3[nH]6)C=C5)C=C4)cc2)ncc1Cl
REMARK SMILES IDX 23 1 22 4 21 7 19 8 20 9 18 11 17 14 8 15 9 16 10 17 16 19
REMARK SMILES IDX 11 20 15 21 12 22 14 24 13 26 6 28 7 29 5 30 3 31 4 32 96 33
REMARK SMILES IDX 95 35 97 36 94 37 2 39 1 42 24 46 25 49 26 52 27 55 28 58
REMARK SMILES IDX 29 59 30 61 31 62 32 63 93 64 33 65 92 67 34 69 35 72 36 73
REMARK SMILES IDX 86 74 37 75 91 76 85 77 87 78 38 79 90 80 84 82 83 84 39 86
REMARK SMILES IDX 71 89 51 90 70 91 52 92 55 93 69 94 88 95 53 96 54 98 68 100
REMARK SMILES IDX 89 101 56 104 40 106 41 107 49 108 42 109 43 110 47 111
REMARK SMILES IDX 50 112 44 113 45 114 48 115 46 116 72 117 73 118 81 119
REMARK SMILES IDX 74 120 75 121 79 122 82 123 76 124 77 125 80 126 78 127
REMARK SMILES IDX 57 128 58 129 66 130 59 131 60 132 64 133 67 134 61 135
REMARK SMILES IDX 62 136 65 137 63 138
REMARK H PARENT 23 2 23 3 22 5 22 6 21 10 18 12 18 13 9 18 11 23 15 25 14 27
REMARK H PARENT 4 34 95 38 2 40 2 41 1 43 1 44 1 45 24 47 24 48 25 50 25 51
REMARK H PARENT 26 53 26 54 27 56 27 57 28 60 32 66 93 68 33 70 92 71 91 81
REMARK H PARENT 85 83 87 85 90 87 84 88 52 97 55 99 88 102 53 103 89 105
REMARK Flexibility Score: inf
ROOT
ATOM      1  C   UNL     1      -1.483   8.455   1.998  1.00  0.00    -0.036 C 
ATOM      2  H   UNL     1      -1.550   7.414   2.238  1.00  0.00     0.028 H 
ATOM      3  H   UNL     1      -2.164   8.760   1.232  1.00  0.00     0.028 H 
ENDROOT
BRANCH   1   4
ATOM      4  C   UNL     1      -0.080   8.727   1.455  1.00  0.00     0.017 C 
ATOM      5  H   UNL     1       0.013   8.259   0.497  1.00  0.00     0.049 H 
ATOM      6  H   UNL     1       0.042   9.788   1.390  1.00  0.00     0.049 H 
BRANCH   4   7
ATOM      7  N   UNL     1       0.963   8.218   2.322  1.00  0.00    -0.356 N 
ATOM      8  C   UNL     1       1.732   7.097   2.190  1.00  0.00     0.224 C 
ATOM      9  O   UNL     1       2.638   6.910   3.005  1.00  0.00    -0.275 OA
ATOM     10  H   UNL     1       1.145   8.760   3.123  1.00  0.00     0.163 HD
BRANCH   8  11
ATOM     11  C   UNL     1       1.548   6.160   1.006  1.00  0.00     0.055 C 
ATOM     12  H   UNL     1       1.649   6.735   0.109  1.00  0.00     0.042 H 
ATOM     13  H   UNL     1       2.293   5.399   1.107  1.00  0.00     0.042 H 
BRANCH  11  14
ATOM     14  C   UNL     1       0.224   5.451   0.959  1.00  0.00    -0.002 A 
ATOM     15  C   UNL     1      -0.326   4.617   1.928  1.00  0.00     0.093 A 
ATOM     16  N   UNL     1      -1.592   4.280   1.511  1.00  0.00    -0.351 N 
ATOM     17  C   UNL     1      -1.816   4.726   0.233  1.00  0.00     0.048 A 
ATOM     18  H   UNL     1      -2.248   3.786   2.055  1.00  0.00     0.167 HD
ATOM     19  C   UNL     1      -0.695   5.464  -0.144  1.00  0.00     0.004 A 
ATOM     20  C   UNL     1      -2.924   4.542  -0.603  1.00  0.00    -0.019 A 
ATOM     21  C   UNL     1      -0.679   6.046  -1.430  1.00  0.00    -0.051 A 
ATOM     22  C   UNL     1      -2.876   5.127  -1.871  1.00  0.00     0.043 A 
ATOM     23  H   UNL     1      -3.743   3.995  -0.295  1.00  0.00     0.066 H 
ATOM     24  C   UNL     1      -1.774   5.868  -2.285  1.00  0.00    -0.043 A 
ATOM     25  H   UNL     1       0.135   6.600  -1.739  1.00  0.00     0.063 H 
ATOM     26  Cl  UNL     1      -4.211   4.924  -2.940  1.00  0.00    -0.084 Cl
ATOM     27  H   UNL     1      -1.764   6.290  -3.227  1.00  0.00     0.064 H 
BRANCH  15  28
ATOM     28  C   UNL     1       0.216   4.189   3.204  1.00  0.00     0.227 C 
ATOM     29  O   UNL     1       0.185   4.930   4.183  1.00  0.00    -0.285 OA
BRANCH  28  30
ATOM     30  C   UNL     1       0.752   2.779   3.313  1.00  0.00     0.113 A 
ATOM     31  C   UNL     1       1.067   0.526   2.449  1.00  0.00    -0.026 A 
ATOM     32  C   UNL     1       0.607   1.847   2.281  1.00  0.00    -0.028 A 
ATOM     33  C   UNL     1       1.693   0.203   3.658  1.00  0.00     0.062 A 
ATOM     34  H   UNL     1       0.161   2.128   1.394  1.00  0.00     0.065 H 
ATOM     35  C   UNL     1       1.805   1.193   4.629  1.00  0.00     0.047 A 
ATOM     36  Cl  UNL     1       2.324  -1.361   4.005  1.00  0.00    -0.082 Cl
ATOM     37  N   UNL     1       1.341   2.458   4.491  1.00  0.00    -0.251 NA
ATOM     38  H   UNL     1       2.273   0.947   5.515  1.00  0.00     0.086 H 
BRANCH  31  39
ATOM     39  C   UNL     1       0.826  -0.473   1.339  1.00  0.00    -0.029 C 
ATOM     40  H   UNL     1       1.144  -1.438   1.675  1.00  0.00     0.031 H 
ATOM     41  H   UNL     1      -0.220  -0.451   1.113  1.00  0.00     0.031 H 
BRANCH  39  42
ATOM     42  C   UNL     1       1.575  -0.135   0.057  1.00  0.00    -0.061 C 
ATOM     43  H   UNL     1       1.363  -0.876  -0.686  1.00  0.00     0.023 H 
ATOM     44  H   UNL     1       2.626  -0.116   0.252  1.00  0.00     0.023 H 
ATOM     45  H   UNL     1       1.260   0.824  -0.298  1.00  0.00     0.023 H 
ENDBRANCH  39  42
ENDBRANCH  31  39
ENDBRANCH  28  30
ENDBRANCH  15  28
ENDBRANCH  11  14
ENDBRANCH   8  11
ENDBRANCH   4   7
ENDBRANCH   1   4
BRANCH   1  46
ATOM     46  C   UNL     1      -1.861   9.256   3.250  1.00  0.00    -0.052 C 
ATOM     47  H   UNL     1      -1.165   9.003   4.023  1.00  0.00     0.027 H 
ATOM     48  H   UNL     1      -2.874   8.989   3.468  1.00  0.00     0.027 H 
BRANCH  46  49
ATOM     49  C   UNL     1      -1.860  10.781   3.100  1.00  0.00    -0.052 C 
ATOM     50  H   UNL     1      -0.846  11.095   2.968  1.00  0.00     0.027 H 
ATOM     51  H   UNL     1      -2.325  11.157   3.987  1.00  0.00     0.027 H 
BRANCH  49  52
ATOM     52  C   UNL     1      -2.680  11.345   1.934  1.00  0.00    -0.036 C 
ATOM     53  H   UNL     1      -2.241  10.995   1.024  1.00  0.00     0.028 H 
ATOM     54  H   UNL     1      -2.655  12.409   2.050  1.00  0.00     0.028 H 
BRANCH  52  55
ATOM     55  C   UNL     1      -4.161  10.966   1.916  1.00  0.00     0.018 C 
ATOM     56  H   UNL     1      -4.242   9.899   1.940  1.00  0.00     0.049 H 
ATOM     57  H   UNL     1      -4.588  11.376   1.024  1.00  0.00     0.049 H 
BRANCH  55  58
ATOM     58  N   UNL     1      -4.895  11.512   3.043  1.00  0.00    -0.352 N 
ATOM     59  C   UNL     1      -6.141  12.088   3.082  1.00  0.00     0.251 C 
ATOM     60  H   UNL     1      -4.430  11.463   3.910  1.00  0.00     0.163 HD
ATOM     61  O   UNL     1      -6.542  12.610   4.119  1.00  0.00    -0.269 OA
BRANCH  59  62
ATOM     62  C   UNL     1      -7.007  12.112   1.880  1.00  0.00     0.039 A 
ATOM     63  C   UNL     1      -7.677  13.301   1.566  1.00  0.00    -0.049 A 
ATOM     64  C   UNL     1      -7.218  10.969   1.102  1.00  0.00    -0.049 A 
ATOM     65  C   UNL     1      -8.515  13.361   0.449  1.00  0.00    -0.053 A 
ATOM     66  H   UNL     1      -7.551  14.134   2.161  1.00  0.00     0.063 H 
ATOM     67  C   UNL     1      -8.036  11.036  -0.029  1.00  0.00    -0.053 A 
ATOM     68  H   UNL     1      -6.769  10.077   1.363  1.00  0.00     0.063 H 
ATOM     69  C   UNL     1      -8.688  12.232  -0.364  1.00  0.00    -0.014 A 
ATOM     70  H   UNL     1      -9.007  14.239   0.222  1.00  0.00     0.063 H 
ATOM     71  H   UNL     1      -8.162  10.200  -0.620  1.00  0.00     0.063 H 
BRANCH  69  72
ATOM     72  C   UNL     1      -9.544  12.291  -1.573  1.00  0.00     0.031 A 
ATOM     73  C   UNL     1     -10.904  11.658  -1.574  1.00  0.00     0.074 A 
ATOM     74  C   UNL     1      -9.073  12.869  -2.693  1.00  0.00     0.049 A 
ATOM     75  N   UNL     1     -11.754  11.528  -2.563  1.00  0.00    -0.248 NA
ATOM     76  C   UNL     1     -11.364  11.083  -0.302  1.00  0.00    -0.034 C 
ATOM     77  C   UNL     1      -7.760  13.498  -2.832  1.00  0.00    -0.036 A 
ATOM     78  N   UNL     1      -9.644  13.005  -3.934  1.00  0.00    -0.354 N 
ATOM     79  C   UNL     1     -12.833  10.829  -2.043  1.00  0.00     0.074 A 
ATOM     80  C   UNL     1     -12.536  10.567  -0.649  1.00  0.00    -0.034 C 
ATOM     81  H   UNL     1     -10.898  11.081   0.619  1.00  0.00     0.065 H 
ATOM     82  C   UNL     1      -7.623  13.951  -4.089  1.00  0.00    -0.036 A 
ATOM     83  H   UNL     1      -7.053  13.580  -2.085  1.00  0.00     0.065 H 
ATOM     84  C   UNL     1      -8.831  13.630  -4.845  1.00  0.00     0.049 A 
ATOM     85  H   UNL     1     -10.550  12.686  -4.149  1.00  0.00     0.167 HD
ATOM     86  C   UNL     1     -13.967  10.438  -2.671  1.00  0.00     0.037 A 
ATOM     87  H   UNL     1     -13.156  10.046  -0.009  1.00  0.00     0.065 H 
ATOM     88  H   UNL     1      -6.798  14.447  -4.461  1.00  0.00     0.065 H 
ATOM     89  C   UNL     1      -9.033  13.903  -6.147  1.00  0.00     0.037 A 
ATOM     90  C   UNL     1     -14.291  10.728  -4.042  1.00  0.00     0.049 A 
ATOM     91  C   UNL     1     -10.322  13.509  -6.805  1.00  0.00     0.074 A 
ATOM     92  C   UNL     1     -15.444  10.416  -4.743  1.00  0.00    -0.036 A 
ATOM     93  N   UNL     1     -13.461  11.407  -4.919  1.00  0.00    -0.354 N 
ATOM     94  N   UNL     1     -11.343  12.867  -6.297  1.00  0.00    -0.248 NA
ATOM     95  C   UNL     1     -10.485  13.877  -8.220  1.00  0.00    -0.034 C 
ATOM     96  C   UNL     1     -15.307  10.899  -6.050  1.00  0.00    -0.036 A 
ATOM     97  H   UNL     1     -16.264   9.915  -4.366  1.00  0.00     0.065 H 
ATOM     98  C   UNL     1     -14.073  11.519  -6.157  1.00  0.00     0.049 A 
ATOM     99  H   UNL     1     -12.568  11.757  -4.696  1.00  0.00     0.167 HD
ATOM    100  C   UNL     1     -12.271  12.757  -7.322  1.00  0.00     0.074 A 
ATOM    101  C   UNL     1     -11.696  13.405  -8.482  1.00  0.00    -0.034 C 
ATOM    102  H   UNL     1      -9.829  14.373  -8.844  1.00  0.00     0.065 H 
ATOM    103  H   UNL     1     -16.005  10.807  -6.805  1.00  0.00     0.065 H 
ATOM    104  C   UNL     1     -13.489  12.167  -7.300  1.00  0.00     0.037 A 
ATOM    105  H   UNL     1     -12.168  13.488  -9.396  1.00  0.00     0.065 H 
BRANCH  86 106
ATOM    106  C   UNL     1     -14.944   9.635  -1.876  1.00  0.00     0.064 A 
ATOM    107  C   UNL     1     -15.875  10.250  -1.029  1.00  0.00     0.173 A 
ATOM    108  C   UNL     1     -14.969   8.238  -1.989  1.00  0.00     0.173 A 
ATOM    109  F   UNL     1     -15.877  11.583  -0.883  1.00  0.00    -0.203 F 
ATOM    110  C   UNL     1     -16.795   9.489  -0.312  1.00  0.00     0.198 A 
ATOM    111  C   UNL     1     -15.896   7.481  -1.279  1.00  0.00     0.198 A 
ATOM    112  F   UNL     1     -14.093   7.609  -2.787  1.00  0.00    -0.203 F 
ATOM    113  F   UNL     1     -17.666  10.092   0.508  1.00  0.00    -0.200 F 
ATOM    114  C   UNL     1     -16.807   8.107  -0.440  1.00  0.00     0.200 A 
ATOM    115  F   UNL     1     -15.907   6.147  -1.402  1.00  0.00    -0.200 F 
ATOM    116  F   UNL     1     -17.694   7.377   0.251  1.00  0.00    -0.200 F 
ENDBRANCH  86 106
BRANCH  89 117
ATOM    117  C   UNL     1      -7.974  14.596  -6.916  1.00  0.00     0.064 A 
ATOM    118  C   UNL     1      -8.038  15.977  -7.137  1.00  0.00     0.173 A 
ATOM    119  C   UNL     1      -6.876  13.892  -7.427  1.00  0.00     0.173 A 
ATOM    120  F   UNL     1      -9.083  16.680  -6.680  1.00  0.00    -0.203 F 
ATOM    121  C   UNL     1      -7.036  16.633  -7.847  1.00  0.00     0.198 A 
ATOM    122  C   UNL     1      -5.870  14.551  -8.128  1.00  0.00     0.198 A 
ATOM    123  F   UNL     1      -6.781  12.568  -7.239  1.00  0.00    -0.203 F 
ATOM    124  F   UNL     1      -7.123  17.953  -8.061  1.00  0.00    -0.200 F 
ATOM    125  C   UNL     1      -5.951  15.921  -8.339  1.00  0.00     0.200 A 
ATOM    126  F   UNL     1      -4.823  13.862  -8.601  1.00  0.00    -0.200 F 
ATOM    127  F   UNL     1      -4.986  16.553  -9.020  1.00  0.00    -0.200 F 
ENDBRANCH  89 117
BRANCH 104 128
ATOM    128  C   UNL     1     -14.284  12.202  -8.566  1.00  0.00     0.064 A 
ATOM    129  C   UNL     1     -14.084  11.245  -9.570  1.00  0.00     0.173 A 
ATOM    130  C   UNL     1     -15.272  13.176  -8.762  1.00  0.00     0.173 A 
ATOM    131  F   UNL     1     -13.138  10.305  -9.427  1.00  0.00    -0.203 F 
ATOM    132  C   UNL     1     -14.846  11.267 -10.734  1.00  0.00     0.198 A 
ATOM    133  C   UNL     1     -16.037  13.190  -9.925  1.00  0.00     0.198 A 
ATOM    134  F   UNL     1     -15.491  14.114  -7.828  1.00  0.00    -0.203 F 
ATOM    135  F   UNL     1     -14.629  10.354 -11.692  1.00  0.00    -0.200 F 
ATOM    136  C   UNL     1     -15.823  12.236 -10.910  1.00  0.00     0.200 A 
ATOM    137  F   UNL     1     -16.978  14.129 -10.096  1.00  0.00    -0.200 F 
ATOM    138  F   UNL     1     -16.553  12.257 -12.033  1.00  0.00    -0.200 F 
ENDBRANCH 104 128
ENDBRANCH  69  72
ENDBRANCH  59  62
ENDBRANCH  55  58
ENDBRANCH  52  55
ENDBRANCH  49  52
ENDBRANCH  46  49
ENDBRANCH   1  46
TORSDOF 18
