REMARK SMILES Nc1c(CC(=O)NCCCCCCNC(=O)c2ccc(-c3c4nc(c(-c5c(F)c(F)c(F)c(F)c5F)c5ccc([nH]5)c(-c5c(F)c(F)c(F)c(F)c5F)c5nc(c(-c6c(F)c(F)c(F)c(F)c6F)c6ccc3[nH]6)C=C5)C=C4)cc2)cccc1C(=O)c1ccc(Br)cc1
REMARK SMILES IDX 10 1 9 4 8 7 7 10 5 11 6 12 4 14 3 17 2 18 83 19 80 20 82 21
REMARK SMILES IDX 81 22 1 26 84 29 85 30 86 31 87 32 92 33 88 34 91 36 89 38
REMARK SMILES IDX 90 41 11 42 12 45 13 48 14 51 15 52 16 54 17 55 18 56 79 57
REMARK SMILES IDX 19 58 78 60 20 62 21 65 22 66 72 67 23 68 77 69 71 70 73 71
REMARK SMILES IDX 24 72 76 73 70 75 69 77 25 79 57 82 37 83 56 84 38 85 41 86
REMARK SMILES IDX 55 87 74 88 39 89 40 91 54 93 75 94 42 97 26 99 27 100
REMARK SMILES IDX 35 101 28 102 29 103 33 104 36 105 30 106 31 107 34 108
REMARK SMILES IDX 32 109 58 110 59 111 67 112 60 113 61 114 65 115 68 116
REMARK SMILES IDX 62 117 63 118 66 119 64 120 43 121 44 122 52 123 45 124
REMARK SMILES IDX 46 125 50 126 53 127 47 128 48 129 51 130 49 131
REMARK H PARENT 10 2 10 3 9 5 9 6 8 8 8 9 7 13 4 15 4 16 80 23 82 24 81 25
REMARK H PARENT 1 27 1 28 87 35 92 37 88 39 91 40 11 43 11 44 12 46 12 47
REMARK H PARENT 13 49 13 50 14 53 18 59 79 61 19 63 78 64 77 74 71 76 73 78
REMARK H PARENT 76 80 70 81 38 90 41 92 74 95 39 96 75 98
REMARK Flexibility Score: inf
ROOT
ATOM      1  C   UNL     1       0.248  -1.368   4.929  1.00  0.00    -0.052 C 
ATOM      2  H   UNL     1      -0.228  -2.324   4.866  1.00  0.00     0.027 H 
ATOM      3  H   UNL     1      -0.386  -0.607   5.334  1.00  0.00     0.027 H 
ENDROOT
BRANCH   1   4
ATOM      4  C   UNL     1       0.608  -0.919   3.507  1.00  0.00    -0.036 C 
ATOM      5  H   UNL     1      -0.293  -0.854   2.933  1.00  0.00     0.028 H 
ATOM      6  H   UNL     1       1.102   0.027   3.587  1.00  0.00     0.028 H 
BRANCH   4   7
ATOM      7  C   UNL     1       1.568  -1.875   2.799  1.00  0.00     0.017 C 
ATOM      8  H   UNL     1       1.973  -1.389   1.937  1.00  0.00     0.049 H 
ATOM      9  H   UNL     1       2.348  -2.140   3.482  1.00  0.00     0.049 H 
BRANCH   7  10
ATOM     10  N   UNL     1       0.889  -3.085   2.385  1.00  0.00    -0.356 N 
ATOM     11  C   UNL     1       0.442  -3.438   1.145  1.00  0.00     0.224 C 
ATOM     12  O   UNL     1      -0.228  -4.468   1.041  1.00  0.00    -0.275 OA
ATOM     13  H   UNL     1       0.727  -3.744   3.097  1.00  0.00     0.163 HD
BRANCH  11  14
ATOM     14  C   UNL     1       0.834  -2.629  -0.081  1.00  0.00     0.054 C 
ATOM     15  H   UNL     1       1.899  -2.527  -0.084  1.00  0.00     0.042 H 
ATOM     16  H   UNL     1       0.455  -3.167  -0.925  1.00  0.00     0.042 H 
BRANCH  14  17
ATOM     17  C   UNL     1       0.228  -1.238  -0.160  1.00  0.00    -0.015 A 
ATOM     18  C   UNL     1       1.017  -0.053  -0.175  1.00  0.00     0.046 A 
ATOM     19  C   UNL     1       0.361   1.206  -0.167  1.00  0.00     0.046 A 
ATOM     20  C   UNL     1      -1.176  -1.149  -0.177  1.00  0.00    -0.056 A 
ATOM     21  C   UNL     1      -1.048   1.249  -0.170  1.00  0.00    -0.049 A 
ATOM     22  C   UNL     1      -1.810   0.085  -0.181  1.00  0.00    -0.061 A 
ATOM     23  H   UNL     1      -1.742  -2.012  -0.187  1.00  0.00     0.063 H 
ATOM     24  H   UNL     1      -1.524   2.164  -0.164  1.00  0.00     0.063 H 
ATOM     25  H   UNL     1      -2.840   0.140  -0.191  1.00  0.00     0.062 H 
BRANCH  18  26
ATOM     26  N   UNL     1       2.401  -0.183  -0.149  1.00  0.00    -0.398 N 
ATOM     27  H   UNL     1       2.812  -1.078  -0.155  1.00  0.00     0.156 HD
ATOM     28  H   UNL     1       2.971   0.620  -0.124  1.00  0.00     0.156 HD
ENDBRANCH  18  26
BRANCH  19  29
ATOM     29  C   UNL     1       1.026   2.553  -0.102  1.00  0.00     0.195 C 
ATOM     30  O   UNL     1       0.368   3.554   0.184  1.00  0.00    -0.289 OA
BRANCH  29  31
ATOM     31  C   UNL     1       2.474   2.759  -0.282  1.00  0.00     0.023 A 
ATOM     32  C   UNL     1       3.187   3.337   0.777  1.00  0.00    -0.050 A 
ATOM     33  C   UNL     1       3.138   2.356  -1.445  1.00  0.00    -0.050 A 
ATOM     34  C   UNL     1       4.576   3.441   0.705  1.00  0.00    -0.047 A 
ATOM     35  H   UNL     1       2.685   3.685   1.609  1.00  0.00     0.063 H 
ATOM     36  C   UNL     1       4.531   2.450  -1.509  1.00  0.00    -0.047 A 
ATOM     37  H   UNL     1       2.604   1.993  -2.250  1.00  0.00     0.063 H 
ATOM     38  C   UNL     1       5.243   2.979  -0.429  1.00  0.00     0.018 A 
ATOM     39  H   UNL     1       5.107   3.858   1.486  1.00  0.00     0.063 H 
ATOM     40  H   UNL     1       5.033   2.129  -2.351  1.00  0.00     0.063 H 
ATOM     41  Br  UNL     1       7.131   3.048  -0.494  1.00  0.00    -0.051 Br
ENDBRANCH  29  31
ENDBRANCH  19  29
ENDBRANCH  14  17
ENDBRANCH  11  14
ENDBRANCH   7  10
ENDBRANCH   4   7
ENDBRANCH   1   4
BRANCH   1  42
ATOM     42  C   UNL     1       1.441  -1.491   5.885  1.00  0.00    -0.052 C 
ATOM     43  H   UNL     1       2.083  -2.264   5.517  1.00  0.00     0.027 H 
ATOM     44  H   UNL     1       1.032  -1.704   6.850  1.00  0.00     0.027 H 
BRANCH  42  45
ATOM     45  C   UNL     1       2.274  -0.216   6.044  1.00  0.00    -0.036 C 
ATOM     46  H   UNL     1       2.653   0.058   5.082  1.00  0.00     0.028 H 
ATOM     47  H   UNL     1       3.048  -0.442   6.747  1.00  0.00     0.028 H 
BRANCH  45  48
ATOM     48  C   UNL     1       1.502   0.971   6.609  1.00  0.00     0.018 C 
ATOM     49  H   UNL     1       0.663   1.172   5.977  1.00  0.00     0.049 H 
ATOM     50  H   UNL     1       2.165   1.810   6.648  1.00  0.00     0.049 H 
BRANCH  48  51
ATOM     51  N   UNL     1       1.023   0.712   7.959  1.00  0.00    -0.352 N 
ATOM     52  C   UNL     1       1.227   1.428   9.108  1.00  0.00     0.251 C 
ATOM     53  H   UNL     1       0.471  -0.097   8.061  1.00  0.00     0.163 HD
ATOM     54  O   UNL     1       0.926   0.945  10.201  1.00  0.00    -0.269 OA
BRANCH  52  55
ATOM     55  C   UNL     1       1.823   2.777   9.044  1.00  0.00     0.039 A 
ATOM     56  C   UNL     1       2.807   3.128   9.972  1.00  0.00    -0.049 A 
ATOM     57  C   UNL     1       1.400   3.700   8.083  1.00  0.00    -0.049 A 
ATOM     58  C   UNL     1       3.406   4.387   9.902  1.00  0.00    -0.053 A 
ATOM     59  H   UNL     1       3.089   2.460  10.705  1.00  0.00     0.063 H 
ATOM     60  C   UNL     1       2.048   4.927   7.969  1.00  0.00    -0.053 A 
ATOM     61  H   UNL     1       0.609   3.473   7.460  1.00  0.00     0.063 H 
ATOM     62  C   UNL     1       3.053   5.284   8.881  1.00  0.00    -0.014 A 
ATOM     63  H   UNL     1       4.112   4.659  10.603  1.00  0.00     0.063 H 
ATOM     64  H   UNL     1       1.788   5.576   7.210  1.00  0.00     0.063 H 
BRANCH  62  65
ATOM     65  C   UNL     1       3.718   6.605   8.754  1.00  0.00     0.031 A 
ATOM     66  C   UNL     1       2.926   7.869   8.936  1.00  0.00     0.074 A 
ATOM     67  C   UNL     1       5.020   6.665   8.414  1.00  0.00     0.049 A 
ATOM     68  N   UNL     1       3.308   9.114   8.796  1.00  0.00    -0.248 NA
ATOM     69  C   UNL     1       1.508   7.714   9.298  1.00  0.00    -0.034 C 
ATOM     70  C   UNL     1       5.883   5.509   8.170  1.00  0.00    -0.036 A 
ATOM     71  N   UNL     1       5.841   7.744   8.203  1.00  0.00    -0.354 N 
ATOM     72  C   UNL     1       2.178   9.885   9.038  1.00  0.00     0.074 A 
ATOM     73  C   UNL     1       1.085   8.969   9.279  1.00  0.00    -0.034 C 
ATOM     74  H   UNL     1       0.982   6.852   9.510  1.00  0.00     0.065 H 
ATOM     75  C   UNL     1       7.118   5.939   7.864  1.00  0.00    -0.036 A 
ATOM     76  H   UNL     1       5.590   4.521   8.224  1.00  0.00     0.065 H 
ATOM     77  C   UNL     1       7.123   7.399   7.851  1.00  0.00     0.049 A 
ATOM     78  H   UNL     1       5.540   8.677   8.296  1.00  0.00     0.167 HD
ATOM     79  C   UNL     1       2.069  11.234   9.078  1.00  0.00     0.037 A 
ATOM     80  H   UNL     1       0.103   9.256   9.419  1.00  0.00     0.065 H 
ATOM     81  H   UNL     1       7.931   5.335   7.669  1.00  0.00     0.065 H 
ATOM     82  C   UNL     1       8.180   8.174   7.543  1.00  0.00     0.037 A 
ATOM     83  C   UNL     1       3.165  12.141   8.858  1.00  0.00     0.049 A 
ATOM     84  C   UNL     1       8.028   9.671   7.581  1.00  0.00     0.074 A 
ATOM     85  C   UNL     1       3.171  13.523   8.933  1.00  0.00    -0.036 A 
ATOM     86  N   UNL     1       4.453  11.754   8.515  1.00  0.00    -0.354 N 
ATOM     87  N   UNL     1       6.973  10.389   7.878  1.00  0.00    -0.248 NA
ATOM     88  C   UNL     1       9.219  10.465   7.247  1.00  0.00    -0.034 C 
ATOM     89  C   UNL     1       4.449  13.975   8.587  1.00  0.00    -0.036 A 
ATOM     90  H   UNL     1       2.370  14.118   9.198  1.00  0.00     0.065 H 
ATOM     91  C   UNL     1       5.255  12.873   8.351  1.00  0.00     0.049 A 
ATOM     92  H   UNL     1       4.752  10.823   8.404  1.00  0.00     0.167 HD
ATOM     93  C   UNL     1       7.377  11.714   7.796  1.00  0.00     0.074 A 
ATOM     94  C   UNL     1       8.780  11.701   7.436  1.00  0.00    -0.034 C 
ATOM     95  H   UNL     1      10.152  10.144   6.944  1.00  0.00     0.065 H 
ATOM     96  H   UNL     1       4.742  14.962   8.519  1.00  0.00     0.065 H 
ATOM     97  C   UNL     1       6.652  12.842   8.000  1.00  0.00     0.037 A 
ATOM     98  H   UNL     1       9.364  12.546   7.340  1.00  0.00     0.065 H 
BRANCH  79  99
ATOM     99  C   UNL     1       0.715  11.812   9.374  1.00  0.00     0.064 A 
ATOM    100  C   UNL     1       0.124  11.692  10.642  1.00  0.00     0.173 A 
ATOM    101  C   UNL     1       0.013  12.525   8.390  1.00  0.00     0.173 A 
ATOM    102  F   UNL     1       0.748  11.012  11.616  1.00  0.00    -0.203 F 
ATOM    103  C   UNL     1      -1.131  12.235  10.903  1.00  0.00     0.198 A 
ATOM    104  C   UNL     1      -1.228  13.095   8.664  1.00  0.00     0.198 A 
ATOM    105  F   UNL     1       0.534  12.677   7.163  1.00  0.00    -0.203 F 
ATOM    106  F   UNL     1      -1.697  12.062  12.105  1.00  0.00    -0.200 F 
ATOM    107  C   UNL     1      -1.803  12.942   9.917  1.00  0.00     0.200 A 
ATOM    108  F   UNL     1      -1.869  13.790   7.715  1.00  0.00    -0.200 F 
ATOM    109  F   UNL     1      -3.007  13.470  10.172  1.00  0.00    -0.200 F 
ENDBRANCH  79  99
BRANCH  82 110
ATOM    110  C   UNL     1       9.483   7.549   7.193  1.00  0.00     0.064 A 
ATOM    111  C   UNL     1      10.586   7.658   8.052  1.00  0.00     0.173 A 
ATOM    112  C   UNL     1       9.655   6.838   5.997  1.00  0.00     0.173 A 
ATOM    113  F   UNL     1      10.476   8.345   9.199  1.00  0.00    -0.203 F 
ATOM    114  C   UNL     1      11.817   7.099   7.717  1.00  0.00     0.198 A 
ATOM    115  C   UNL     1      10.880   6.254   5.677  1.00  0.00     0.198 A 
ATOM    116  F   UNL     1       8.630   6.698   5.144  1.00  0.00    -0.203 F 
ATOM    117  F   UNL     1      12.867   7.260   8.534  1.00  0.00    -0.200 F 
ATOM    118  C   UNL     1      11.962   6.393   6.533  1.00  0.00     0.200 A 
ATOM    119  F   UNL     1      11.010   5.558   4.539  1.00  0.00    -0.200 F 
ATOM    120  F   UNL     1      13.145   5.852   6.213  1.00  0.00    -0.200 F 
ENDBRANCH  82 110
BRANCH  97 121
ATOM    121  C   UNL     1       7.371  14.154   7.877  1.00  0.00     0.064 A 
ATOM    122  C   UNL     1       7.788  14.652   6.634  1.00  0.00     0.173 A 
ATOM    123  C   UNL     1       7.609  14.941   9.014  1.00  0.00     0.173 A 
ATOM    124  F   UNL     1       7.598  13.931   5.519  1.00  0.00    -0.203 F 
ATOM    125  C   UNL     1       8.442  15.878   6.537  1.00  0.00     0.198 A 
ATOM    126  C   UNL     1       8.234  16.181   8.910  1.00  0.00     0.198 A 
ATOM    127  F   UNL     1       7.224  14.514  10.226  1.00  0.00    -0.203 F 
ATOM    128  F   UNL     1       8.876  16.311   5.346  1.00  0.00    -0.200 F 
ATOM    129  C   UNL     1       8.657  16.645   7.673  1.00  0.00     0.200 A 
ATOM    130  F   UNL     1       8.428  16.926  10.007  1.00  0.00    -0.200 F 
ATOM    131  F   UNL     1       9.279  17.828   7.577  1.00  0.00    -0.200 F 
ENDBRANCH  97 121
ENDBRANCH  62  65
ENDBRANCH  52  55
ENDBRANCH  48  51
ENDBRANCH  45  48
ENDBRANCH  42  45
ENDBRANCH   1  42
TORSDOF 17
