REMARK SMILES Cc1cc(C)c2c(=O)n(CCCC(=O)NCCCCCCNC(=O)c3ccc(-c4c5nc(c(-c6c(F)c(F)c(F)c(F)c6F)c6ccc([nH]6)c(-c6c(F)c(F)c(F)c(F)c6F)c6nc(c(-c7c(F)c(F)c(F)c(F)c7F)c7ccc4[nH]7)C=C6)C=C5)cc3)sc2n1
REMARK SMILES IDX 17 1 16 4 15 7 13 8 14 9 12 11 11 14 10 17 9 20 2 21 3 22
REMARK SMILES IDX 90 23 4 24 89 26 6 27 88 28 7 29 8 30 1 31 5 35 18 39 19 42
REMARK SMILES IDX 20 45 21 48 22 51 23 52 24 54 25 55 26 56 87 57 27 58 86 60
REMARK SMILES IDX 28 62 29 65 30 66 80 67 31 68 85 69 79 70 81 71 32 72 84 73
REMARK SMILES IDX 78 75 77 77 33 79 65 82 45 83 64 84 46 85 49 86 63 87 82 88
REMARK SMILES IDX 47 89 48 91 62 93 83 94 50 97 34 99 35 100 43 101 36 102
REMARK SMILES IDX 37 103 41 104 44 105 38 106 39 107 42 108 40 109 66 110
REMARK SMILES IDX 67 111 75 112 68 113 69 114 73 115 76 116 70 117 71 118
REMARK SMILES IDX 74 119 72 120 51 121 52 122 60 123 53 124 54 125 58 126
REMARK SMILES IDX 61 127 55 128 56 129 59 130 57 131
REMARK H PARENT 17 2 17 3 16 5 16 6 15 10 12 12 12 13 11 15 11 16 10 18 10 19
REMARK H PARENT 3 25 1 32 1 33 1 34 5 36 5 37 5 38 18 40 18 41 19 43 19 44
REMARK H PARENT 20 46 20 47 21 49 21 50 22 53 26 59 87 61 27 63 86 64 85 74
REMARK H PARENT 79 76 81 78 84 80 78 81 46 90 49 92 82 95 47 96 83 98
REMARK Flexibility Score: inf
ROOT
ATOM      1  C   UNL     1       2.856   6.572  -3.767  1.00  0.00    -0.036 C 
ATOM      2  H   UNL     1       2.362   7.462  -4.096  1.00  0.00     0.028 H 
ATOM      3  H   UNL     1       2.478   5.698  -4.255  1.00  0.00     0.028 H 
ENDROOT
BRANCH   1   4
ATOM      4  C   UNL     1       2.602   6.400  -2.269  1.00  0.00     0.017 C 
ATOM      5  H   UNL     1       1.632   5.972  -2.122  1.00  0.00     0.049 H 
ATOM      6  H   UNL     1       3.352   5.756  -1.860  1.00  0.00     0.049 H 
BRANCH   4   7
ATOM      7  N   UNL     1       2.664   7.678  -1.600  1.00  0.00    -0.356 N 
ATOM      8  C   UNL     1       1.692   8.418  -1.010  1.00  0.00     0.220 C 
ATOM      9  O   UNL     1       1.997   9.544  -0.611  1.00  0.00    -0.275 OA
ATOM     10  H   UNL     1       3.562   8.080  -1.566  1.00  0.00     0.163 HD
BRANCH   8  11
ATOM     11  C   UNL     1       0.312   7.851  -0.732  1.00  0.00     0.028 C 
ATOM     12  H   UNL     1       0.458   6.860  -0.355  1.00  0.00     0.037 H 
ATOM     13  H   UNL     1      -0.119   8.574  -0.072  1.00  0.00     0.037 H 
BRANCH  11  14
ATOM     14  C   UNL     1      -0.723   7.747  -1.859  1.00  0.00    -0.025 C 
ATOM     15  H   UNL     1      -1.682   7.737  -1.385  1.00  0.00     0.029 H 
ATOM     16  H   UNL     1      -0.461   8.576  -2.483  1.00  0.00     0.029 H 
BRANCH  14  17
ATOM     17  C   UNL     1      -0.724   6.577  -2.858  1.00  0.00     0.037 C 
ATOM     18  H   UNL     1      -1.552   6.741  -3.516  1.00  0.00     0.051 H 
ATOM     19  H   UNL     1       0.266   6.617  -3.263  1.00  0.00     0.051 H 
BRANCH  17  20
ATOM     20  N   UNL     1      -0.825   5.193  -2.405  1.00  0.00    -0.262 N 
ATOM     21  C   UNL     1       0.250   0.825  -1.002  1.00  0.00     0.039 A 
ATOM     22  C   UNL     1      -0.158   0.525  -2.309  1.00  0.00    -0.037 A 
ATOM     23  N   UNL     1       0.174   2.072  -0.483  1.00  0.00    -0.241 NA
ATOM     24  C   UNL     1      -0.634   1.547  -3.151  1.00  0.00    -0.033 A 
ATOM     25  H   UNL     1      -0.109  -0.446  -2.655  1.00  0.00     0.064 H 
ATOM     26  C   UNL     1      -0.279   3.025  -1.314  1.00  0.00     0.146 A 
ATOM     27  C   UNL     1      -0.623   2.838  -2.638  1.00  0.00     0.081 A 
ATOM     28  S   UNL     1      -0.560   4.689  -0.793  1.00  0.00    -0.035 S 
ATOM     29  C   UNL     1      -0.877   4.132  -3.315  1.00  0.00     0.270 A 
ATOM     30  O   UNL     1      -1.007   4.226  -4.528  1.00  0.00    -0.268 OA
BRANCH  21  31
ATOM     31  C   UNL     1       0.834  -0.231  -0.112  1.00  0.00    -0.022 C 
ATOM     32  H   UNL     1       0.842  -1.168  -0.628  1.00  0.00     0.030 H 
ATOM     33  H   UNL     1       0.242  -0.317   0.775  1.00  0.00     0.030 H 
ATOM     34  H   UNL     1       1.835   0.039   0.152  1.00  0.00     0.030 H 
ENDBRANCH  21  31
BRANCH  24  35
ATOM     35  C   UNL     1      -1.158   1.233  -4.517  1.00  0.00    -0.039 C 
ATOM     36  H   UNL     1      -1.070   0.183  -4.700  1.00  0.00     0.028 H 
ATOM     37  H   UNL     1      -0.593   1.772  -5.248  1.00  0.00     0.028 H 
ATOM     38  H   UNL     1      -2.187   1.520  -4.578  1.00  0.00     0.028 H 
ENDBRANCH  24  35
ENDBRANCH  17  20
ENDBRANCH  14  17
ENDBRANCH  11  14
ENDBRANCH   8  11
ENDBRANCH   4   7
ENDBRANCH   1   4
BRANCH   1  39
ATOM     39  C   UNL     1       4.342   6.682  -4.119  1.00  0.00    -0.052 C 
ATOM     40  H   UNL     1       4.740   7.535  -3.611  1.00  0.00     0.027 H 
ATOM     41  H   UNL     1       4.391   6.758  -5.185  1.00  0.00     0.027 H 
BRANCH  39  42
ATOM     42  C   UNL     1       5.197   5.460  -3.739  1.00  0.00    -0.052 C 
ATOM     43  H   UNL     1       5.213   5.394  -2.671  1.00  0.00     0.027 H 
ATOM     44  H   UNL     1       6.153   5.632  -4.187  1.00  0.00     0.027 H 
BRANCH  42  45
ATOM     45  C   UNL     1       4.727   4.104  -4.285  1.00  0.00    -0.036 C 
ATOM     46  H   UNL     1       3.725   3.930  -3.951  1.00  0.00     0.028 H 
ATOM     47  H   UNL     1       5.406   3.361  -3.920  1.00  0.00     0.028 H 
BRANCH  45  48
ATOM     48  C   UNL     1       4.750   4.029  -5.800  1.00  0.00     0.018 C 
ATOM     49  H   UNL     1       4.121   4.803  -6.190  1.00  0.00     0.049 H 
ATOM     50  H   UNL     1       4.402   3.057  -6.082  1.00  0.00     0.049 H 
BRANCH  48  51
ATOM     51  N   UNL     1       6.096   4.196  -6.355  1.00  0.00    -0.352 N 
ATOM     52  C   UNL     1       6.506   4.171  -7.678  1.00  0.00     0.251 C 
ATOM     53  H   UNL     1       6.810   4.347  -5.694  1.00  0.00     0.163 HD
ATOM     54  O   UNL     1       7.675   4.010  -7.976  1.00  0.00    -0.269 OA
BRANCH  52  55
ATOM     55  C   UNL     1       5.487   4.354  -8.726  1.00  0.00     0.039 A 
ATOM     56  C   UNL     1       5.545   3.687  -9.952  1.00  0.00    -0.049 A 
ATOM     57  C   UNL     1       4.441   5.222  -8.443  1.00  0.00    -0.049 A 
ATOM     58  C   UNL     1       4.509   3.887 -10.862  1.00  0.00    -0.053 A 
ATOM     59  H   UNL     1       6.335   3.063 -10.178  1.00  0.00     0.063 H 
ATOM     60  C   UNL     1       3.314   5.200  -9.205  1.00  0.00    -0.053 A 
ATOM     61  H   UNL     1       4.519   5.884  -7.655  1.00  0.00     0.063 H 
ATOM     62  C   UNL     1       3.400   4.652 -10.470  1.00  0.00    -0.014 A 
ATOM     63  H   UNL     1       4.557   3.479 -11.809  1.00  0.00     0.063 H 
ATOM     64  H   UNL     1       2.424   5.581  -8.848  1.00  0.00     0.063 H 
BRANCH  62  65
ATOM     65  C   UNL     1       2.280   4.912 -11.357  1.00  0.00     0.031 A 
ATOM     66  C   UNL     1       1.585   3.696 -11.839  1.00  0.00     0.074 A 
ATOM     67  C   UNL     1       1.795   6.161 -11.538  1.00  0.00     0.049 A 
ATOM     68  N   UNL     1       1.527   3.248 -13.048  1.00  0.00    -0.248 NA
ATOM     69  C   UNL     1       0.999   2.794 -10.836  1.00  0.00    -0.034 C 
ATOM     70  C   UNL     1       2.175   7.412 -10.861  1.00  0.00    -0.036 A 
ATOM     71  N   UNL     1       0.772   6.562 -12.334  1.00  0.00    -0.354 N 
ATOM     72  C   UNL     1       0.752   2.093 -12.992  1.00  0.00     0.074 A 
ATOM     73  C   UNL     1       0.597   1.775 -11.597  1.00  0.00    -0.034 C 
ATOM     74  H   UNL     1       0.921   2.916  -9.814  1.00  0.00     0.065 H 
ATOM     75  C   UNL     1       1.255   8.369 -11.112  1.00  0.00    -0.036 A 
ATOM     76  H   UNL     1       3.019   7.539 -10.280  1.00  0.00     0.065 H 
ATOM     77  C   UNL     1       0.338   7.863 -12.112  1.00  0.00     0.049 A 
ATOM     78  H   UNL     1       0.369   5.977 -13.016  1.00  0.00     0.167 HD
ATOM     79  C   UNL     1       0.122   1.619 -14.101  1.00  0.00     0.037 A 
ATOM     80  H   UNL     1       0.225   0.882 -11.236  1.00  0.00     0.065 H 
ATOM     81  H   UNL     1       1.214   9.300 -10.669  1.00  0.00     0.065 H 
ATOM     82  C   UNL     1      -0.718   8.464 -12.710  1.00  0.00     0.037 A 
ATOM     83  C   UNL     1       0.658   2.225 -15.294  1.00  0.00     0.049 A 
ATOM     84  C   UNL     1      -0.996   7.694 -13.947  1.00  0.00     0.074 A 
ATOM     85  C   UNL     1       1.866   2.171 -15.958  1.00  0.00    -0.036 A 
ATOM     86  N   UNL     1       0.019   3.347 -15.757  1.00  0.00    -0.354 N 
ATOM     87  N   UNL     1      -0.178   7.623 -14.961  1.00  0.00    -0.248 NA
ATOM     88  C   UNL     1      -1.994   6.641 -13.874  1.00  0.00    -0.034 C 
ATOM     89  C   UNL     1       2.076   3.492 -16.460  1.00  0.00    -0.036 A 
ATOM     90  H   UNL     1       2.485   1.353 -16.069  1.00  0.00     0.065 H 
ATOM     91  C   UNL     1       0.964   4.269 -16.130  1.00  0.00     0.049 A 
ATOM     92  H   UNL     1      -0.956   3.471 -15.813  1.00  0.00     0.167 HD
ATOM     93  C   UNL     1      -0.281   6.314 -15.411  1.00  0.00     0.074 A 
ATOM     94  C   UNL     1      -1.488   5.794 -14.773  1.00  0.00    -0.034 C 
ATOM     95  H   UNL     1      -2.846   6.569 -13.296  1.00  0.00     0.065 H 
ATOM     96  H   UNL     1       2.908   3.816 -16.978  1.00  0.00     0.065 H 
ATOM     97  C   UNL     1       0.773   5.702 -16.027  1.00  0.00     0.037 A 
ATOM     98  H   UNL     1      -1.903   4.875 -14.994  1.00  0.00     0.065 H 
BRANCH  79  99
ATOM     99  C   UNL     1      -1.199   0.890 -14.094  1.00  0.00     0.064 A 
ATOM    100  C   UNL     1      -1.678   0.316 -15.289  1.00  0.00     0.173 A 
ATOM    101  C   UNL     1      -2.139   0.970 -13.043  1.00  0.00     0.173 A 
ATOM    102  F   UNL     1      -0.883   0.212 -16.364  1.00  0.00    -0.203 F 
ATOM    103  C   UNL     1      -3.008  -0.092 -15.434  1.00  0.00     0.198 A 
ATOM    104  C   UNL     1      -3.449   0.513 -13.173  1.00  0.00     0.198 A 
ATOM    105  F   UNL     1      -1.866   1.591 -11.889  1.00  0.00    -0.203 F 
ATOM    106  F   UNL     1      -3.445  -0.526 -16.624  1.00  0.00    -0.200 F 
ATOM    107  C   UNL     1      -3.893   0.009 -14.376  1.00  0.00     0.200 A 
ATOM    108  F   UNL     1      -4.296   0.639 -12.142  1.00  0.00    -0.200 F 
ATOM    109  F   UNL     1      -5.179  -0.333 -14.527  1.00  0.00    -0.200 F 
ENDBRANCH  79  99
BRANCH  82 110
ATOM    110  C   UNL     1      -1.725   9.365 -12.099  1.00  0.00     0.064 A 
ATOM    111  C   UNL     1      -2.609  10.099 -12.906  1.00  0.00     0.173 A 
ATOM    112  C   UNL     1      -2.050   9.275 -10.731  1.00  0.00     0.173 A 
ATOM    113  F   UNL     1      -2.390  10.199 -14.225  1.00  0.00    -0.203 F 
ATOM    114  C   UNL     1      -3.777  10.668 -12.386  1.00  0.00     0.198 A 
ATOM    115  C   UNL     1      -3.215   9.846 -10.213  1.00  0.00     0.198 A 
ATOM    116  F   UNL     1      -1.301   8.545  -9.893  1.00  0.00    -0.203 F 
ATOM    117  F   UNL     1      -4.636  11.295 -13.202  1.00  0.00    -0.200 F 
ATOM    118  C   UNL     1      -4.087  10.526 -11.043  1.00  0.00     0.200 A 
ATOM    119  F   UNL     1      -3.523   9.670  -8.920  1.00  0.00    -0.200 F 
ATOM    120  F   UNL     1      -5.242  11.003 -10.560  1.00  0.00    -0.200 F 
ENDBRANCH  82 110
BRANCH  97 121
ATOM    121  C   UNL     1       1.926   6.575 -16.456  1.00  0.00     0.064 A 
ATOM    122  C   UNL     1       2.765   7.277 -15.572  1.00  0.00     0.173 A 
ATOM    123  C   UNL     1       2.274   6.596 -17.813  1.00  0.00     0.173 A 
ATOM    124  F   UNL     1       2.561   7.240 -14.251  1.00  0.00    -0.203 F 
ATOM    125  C   UNL     1       3.873   7.993 -16.029  1.00  0.00     0.198 A 
ATOM    126  C   UNL     1       3.401   7.280 -18.265  1.00  0.00     0.198 A 
ATOM    127  F   UNL     1       1.542   5.907 -18.703  1.00  0.00    -0.203 F 
ATOM    128  F   UNL     1       4.648   8.662 -15.163  1.00  0.00    -0.200 F 
ATOM    129  C   UNL     1       4.194   7.985 -17.375  1.00  0.00     0.200 A 
ATOM    130  F   UNL     1       3.733   7.230 -19.562  1.00  0.00    -0.200 F 
ATOM    131  F   UNL     1       5.282   8.636 -17.812  1.00  0.00    -0.200 F 
ENDBRANCH  97 121
ENDBRANCH  62  65
ENDBRANCH  52  55
ENDBRANCH  48  51
ENDBRANCH  45  48
ENDBRANCH  42  45
ENDBRANCH  39  42
ENDBRANCH   1  39
TORSDOF 18
