REMARK SMILES [NH3+]Cc1c(-c2ccccc2)c(C(=O)NCCCCCCNC(=O)c2ccc(-c3c4nc(c(-c5c(F)c(F)c(F)c(F)c5F)c5ccc([nH]5)c(-c5c(F)c(F)c(F)c(F)c5F)c5nc(c(-c6c(F)c(F)c(F)c(F)c6F)c6ccc3[nH]6)C=C5)C=C4)cc2)c2ccccn12
REMARK SMILES IDX 17 1 16 4 15 7 14 10 12 11 13 12 11 14 3 15 4 16 92 17 87 18
REMARK SMILES IDX 91 19 88 20 90 21 89 23 2 27 1 30 5 34 6 35 10 36 7 37 9 39
REMARK SMILES IDX 8 41 18 45 19 48 20 51 21 54 22 55 23 57 24 58 25 59 86 60
REMARK SMILES IDX 26 61 85 63 27 65 28 68 29 69 79 70 30 71 84 72 78 73 80 74
REMARK SMILES IDX 31 75 83 76 77 78 76 80 32 82 64 85 44 86 63 87 45 88 48 89
REMARK SMILES IDX 62 90 81 91 46 92 47 94 61 96 82 97 49 100 33 102 34 103
REMARK SMILES IDX 42 104 35 105 36 106 40 107 43 108 37 109 38 110 41 111
REMARK SMILES IDX 39 112 65 113 66 114 74 115 67 116 68 117 72 118 75 119
REMARK SMILES IDX 69 120 70 121 73 122 71 123 50 124 51 125 59 126 52 127
REMARK SMILES IDX 53 128 57 129 60 130 54 131 55 132 58 133 56 134
REMARK H PARENT 17 2 17 3 16 5 16 6 15 8 15 9 14 13 91 22 88 24 90 25 89 26
REMARK H PARENT 2 28 2 29 1 31 1 32 1 33 6 38 10 40 7 42 9 43 8 44 18 46 18 47
REMARK H PARENT 19 49 19 50 20 52 20 53 21 56 25 62 86 64 26 66 85 67 84 77
REMARK H PARENT 78 79 80 81 83 83 77 84 45 93 48 95 81 98 46 99 82 101
REMARK Flexibility Score: inf
ROOT
ATOM      1  C   UNL     1       1.268  -5.333   7.998  1.00  0.00    -0.052 C 
ATOM      2  H   UNL     1       1.071  -6.230   7.448  1.00  0.00     0.027 H 
ATOM      3  H   UNL     1       0.777  -5.262   8.946  1.00  0.00     0.027 H 
ENDROOT
BRANCH   1   4
ATOM      4  C   UNL     1       0.713  -4.162   7.181  1.00  0.00    -0.036 C 
ATOM      5  H   UNL     1      -0.291  -4.409   6.905  1.00  0.00     0.028 H 
ATOM      6  H   UNL     1       0.811  -3.309   7.820  1.00  0.00     0.028 H 
BRANCH   4   7
ATOM      7  C   UNL     1       1.461  -3.787   5.905  1.00  0.00     0.018 C 
ATOM      8  H   UNL     1       0.987  -2.923   5.487  1.00  0.00     0.049 H 
ATOM      9  H   UNL     1       2.477  -3.622   6.197  1.00  0.00     0.049 H 
BRANCH   7  10
ATOM     10  N   UNL     1       1.501  -4.809   4.887  1.00  0.00    -0.352 N 
ATOM     11  C   UNL     1       1.598  -4.713   3.514  1.00  0.00     0.254 C 
ATOM     12  O   UNL     1       1.701  -5.780   2.909  1.00  0.00    -0.269 OA
ATOM     13  H   UNL     1       1.450  -5.731   5.230  1.00  0.00     0.163 HD
BRANCH  11  14
ATOM     14  C   UNL     1       1.494  -3.428   2.804  1.00  0.00     0.073 A 
ATOM     15  C   UNL     1       0.877  -1.889   1.184  1.00  0.00     0.086 A 
ATOM     16  C   UNL     1       0.924  -3.251   1.494  1.00  0.00     0.022 A 
ATOM     17  N   UNL     1       1.424  -1.225   2.272  1.00  0.00    -0.314 N 
ATOM     18  C   UNL     1       1.993  -2.173   3.134  1.00  0.00     0.059 A 
ATOM     19  C   UNL     1       1.473   0.146   2.564  1.00  0.00     0.009 A 
ATOM     20  C   UNL     1       2.875  -1.672   4.143  1.00  0.00    -0.037 A 
ATOM     21  C   UNL     1       2.173   0.595   3.617  1.00  0.00    -0.045 A 
ATOM     22  H   UNL     1       0.966   0.816   1.964  1.00  0.00     0.082 H 
ATOM     23  C   UNL     1       2.938  -0.353   4.397  1.00  0.00    -0.059 A 
ATOM     24  H   UNL     1       3.466  -2.326   4.678  1.00  0.00     0.065 H 
ATOM     25  H   UNL     1       2.166   1.596   3.866  1.00  0.00     0.064 H 
ATOM     26  H   UNL     1       3.542  -0.012   5.161  1.00  0.00     0.062 H 
BRANCH  15  27
ATOM     27  C   UNL     1       0.290  -1.267  -0.055  1.00  0.00     0.116 C 
ATOM     28  H   UNL     1       0.384  -1.976  -0.851  1.00  0.00     0.099 H 
ATOM     29  H   UNL     1      -0.719  -1.020   0.201  1.00  0.00     0.099 H 
BRANCH  27  30
ATOM     30  N   UNL     1       0.894  -0.022  -0.498  1.00  0.00    -0.353 N 
ATOM     31  H   UNL     1       0.419   0.305  -1.339  1.00  0.00     0.344 HD
ATOM     32  H   UNL     1       1.881  -0.177  -0.702  1.00  0.00     0.344 HD
ATOM     33  H   UNL     1       0.805   0.679   0.237  1.00  0.00     0.344 HD
ENDBRANCH  27  30
ENDBRANCH  15  27
BRANCH  16  34
ATOM     34  C   UNL     1       0.440  -4.270   0.570  1.00  0.00    -0.016 A 
ATOM     35  C   UNL     1      -0.762  -4.942   0.804  1.00  0.00    -0.054 A 
ATOM     36  C   UNL     1       1.194  -4.579  -0.571  1.00  0.00    -0.054 A 
ATOM     37  C   UNL     1      -1.208  -5.908  -0.102  1.00  0.00    -0.062 A 
ATOM     38  H   UNL     1      -1.320  -4.725   1.644  1.00  0.00     0.063 H 
ATOM     39  C   UNL     1       0.742  -5.537  -1.478  1.00  0.00    -0.062 A 
ATOM     40  H   UNL     1       2.090  -4.094  -0.740  1.00  0.00     0.063 H 
ATOM     41  C   UNL     1      -0.459  -6.201  -1.243  1.00  0.00    -0.062 A 
ATOM     42  H   UNL     1      -2.095  -6.406   0.072  1.00  0.00     0.062 H 
ATOM     43  H   UNL     1       1.296  -5.753  -2.322  1.00  0.00     0.062 H 
ATOM     44  H   UNL     1      -0.796  -6.911  -1.913  1.00  0.00     0.062 H 
ENDBRANCH  16  34
ENDBRANCH  11  14
ENDBRANCH   7  10
ENDBRANCH   4   7
ENDBRANCH   1   4
BRANCH   1  45
ATOM     45  C   UNL     1       2.763  -5.316   8.328  1.00  0.00    -0.052 C 
ATOM     46  H   UNL     1       3.297  -5.475   7.415  1.00  0.00     0.027 H 
ATOM     47  H   UNL     1       2.893  -6.079   9.067  1.00  0.00     0.027 H 
BRANCH  45  48
ATOM     48  C   UNL     1       3.318  -4.043   8.972  1.00  0.00    -0.036 C 
ATOM     49  H   UNL     1       3.289  -3.267   8.237  1.00  0.00     0.028 H 
ATOM     50  H   UNL     1       4.302  -4.298   9.306  1.00  0.00     0.028 H 
BRANCH  48  51
ATOM     51  C   UNL     1       2.585  -3.540  10.209  1.00  0.00     0.018 C 
ATOM     52  H   UNL     1       1.580  -3.297   9.934  1.00  0.00     0.049 H 
ATOM     53  H   UNL     1       3.119  -2.686  10.571  1.00  0.00     0.049 H 
BRANCH  51  54
ATOM     54  N   UNL     1       2.547  -4.513  11.285  1.00  0.00    -0.352 N 
ATOM     55  C   UNL     1       2.859  -4.370  12.613  1.00  0.00     0.251 C 
ATOM     56  H   UNL     1       2.252  -5.414  11.021  1.00  0.00     0.163 HD
ATOM     57  O   UNL     1       2.890  -5.356  13.342  1.00  0.00    -0.269 OA
BRANCH  55  58
ATOM     58  C   UNL     1       3.180  -3.037  13.175  1.00  0.00     0.039 A 
ATOM     59  C   UNL     1       4.220  -2.939  14.105  1.00  0.00    -0.049 A 
ATOM     60  C   UNL     1       2.445  -1.899  12.833  1.00  0.00    -0.049 A 
ATOM     61  C   UNL     1       4.543  -1.699  14.662  1.00  0.00    -0.053 A 
ATOM     62  H   UNL     1       4.749  -3.781  14.379  1.00  0.00     0.063 H 
ATOM     63  C   UNL     1       2.820  -0.651  13.326  1.00  0.00    -0.053 A 
ATOM     64  H   UNL     1       1.623  -1.984  12.215  1.00  0.00     0.063 H 
ATOM     65  C   UNL     1       3.858  -0.540  14.263  1.00  0.00    -0.014 A 
ATOM     66  H   UNL     1       5.289  -1.635  15.372  1.00  0.00     0.063 H 
ATOM     67  H   UNL     1       2.331   0.197  13.000  1.00  0.00     0.063 H 
BRANCH  65  68
ATOM     68  C   UNL     1       4.192   0.783  14.851  1.00  0.00     0.031 A 
ATOM     69  C   UNL     1       3.175   1.520  15.681  1.00  0.00     0.074 A 
ATOM     70  C   UNL     1       5.397   1.338  14.614  1.00  0.00     0.049 A 
ATOM     71  N   UNL     1       3.266   2.692  16.259  1.00  0.00    -0.248 NA
ATOM     72  C   UNL     1       1.870   0.865  15.862  1.00  0.00    -0.034 C 
ATOM     73  C   UNL     1       6.451   0.747  13.789  1.00  0.00    -0.036 A 
ATOM     74  N   UNL     1       5.936   2.524  15.044  1.00  0.00    -0.354 N 
ATOM     75  C   UNL     1       2.033   2.915  16.859  1.00  0.00     0.074 A 
ATOM     76  C   UNL     1       1.189   1.791  16.520  1.00  0.00    -0.034 C 
ATOM     77  H   UNL     1       1.564  -0.072  15.556  1.00  0.00     0.065 H 
ATOM     78  C   UNL     1       7.521   1.558  13.797  1.00  0.00    -0.036 A 
ATOM     79  H   UNL     1       6.383  -0.149  13.282  1.00  0.00     0.065 H 
ATOM     80  C   UNL     1       7.217   2.740  14.597  1.00  0.00     0.049 A 
ATOM     81  H   UNL     1       5.452   3.160  15.618  1.00  0.00     0.167 HD
ATOM     82  C   UNL     1       1.647   3.949  17.645  1.00  0.00     0.037 A 
ATOM     83  H   UNL     1       0.188   1.719  16.761  1.00  0.00     0.065 H 
ATOM     84  H   UNL     1       8.415   1.375  13.315  1.00  0.00     0.065 H 
ATOM     85  C   UNL     1       8.051   3.776  14.811  1.00  0.00     0.037 A 
ATOM     86  C   UNL     1       2.497   5.057  17.998  1.00  0.00     0.049 A 
ATOM     87  C   UNL     1       7.598   4.913  15.688  1.00  0.00     0.074 A 
ATOM     88  C   UNL     1       2.219   6.130  18.827  1.00  0.00    -0.036 A 
ATOM     89  N   UNL     1       3.795   5.233  17.539  1.00  0.00    -0.354 N 
ATOM     90  N   UNL     1       6.453   5.080  16.305  1.00  0.00    -0.248 NA
ATOM     91  C   UNL     1       8.562   5.999  15.909  1.00  0.00    -0.034 C 
ATOM     92  C   UNL     1       3.329   6.982  18.828  1.00  0.00    -0.036 A 
ATOM     93  H   UNL     1       1.344   6.276  19.354  1.00  0.00     0.065 H 
ATOM     94  C   UNL     1       4.323   6.408  18.051  1.00  0.00     0.049 A 
ATOM     95  H   UNL     1       4.270   4.615  16.938  1.00  0.00     0.167 HD
ATOM     96  C   UNL     1       6.571   6.269  17.013  1.00  0.00     0.074 A 
ATOM     97  C   UNL     1       7.907   6.769  16.765  1.00  0.00    -0.034 C 
ATOM     98  H   UNL     1       9.503   6.127  15.505  1.00  0.00     0.065 H 
ATOM     99  H   UNL     1       3.396   7.885  19.323  1.00  0.00     0.065 H 
ATOM    100  C   UNL     1       5.657   6.891  17.799  1.00  0.00     0.037 A 
ATOM    101  H   UNL     1       8.300   7.619  17.199  1.00  0.00     0.065 H 
BRANCH  82 102
ATOM    102  C   UNL     1       0.242   3.929  18.178  1.00  0.00     0.064 A 
ATOM    103  C   UNL     1      -0.175   2.982  19.128  1.00  0.00     0.173 A 
ATOM    104  C   UNL     1      -0.695   4.884  17.755  1.00  0.00     0.173 A 
ATOM    105  F   UNL     1       0.676   2.039  19.559  1.00  0.00    -0.203 F 
ATOM    106  C   UNL     1      -1.483   2.970  19.605  1.00  0.00     0.198 A 
ATOM    107  C   UNL     1      -1.993   4.891  18.261  1.00  0.00     0.198 A 
ATOM    108  F   UNL     1      -0.352   5.816  16.853  1.00  0.00    -0.203 F 
ATOM    109  F   UNL     1      -1.871   2.020  20.466  1.00  0.00    -0.200 F 
ATOM    110  C   UNL     1      -2.389   3.929  19.177  1.00  0.00     0.200 A 
ATOM    111  F   UNL     1      -2.863   5.827  17.857  1.00  0.00    -0.200 F 
ATOM    112  F   UNL     1      -3.646   3.920  19.642  1.00  0.00    -0.200 F 
ENDBRANCH  82 102
BRANCH  85 113
ATOM    113  C   UNL     1       9.412   3.773  14.211  1.00  0.00     0.064 A 
ATOM    114  C   UNL     1      10.555   3.661  15.016  1.00  0.00     0.173 A 
ATOM    115  C   UNL     1       9.601   3.901  12.828  1.00  0.00     0.173 A 
ATOM    116  F   UNL     1      10.428   3.557  16.348  1.00  0.00    -0.203 F 
ATOM    117  C   UNL     1      11.834   3.705  14.464  1.00  0.00     0.198 A 
ATOM    118  C   UNL     1      10.879   3.911  12.273  1.00  0.00     0.198 A 
ATOM    119  F   UNL     1       8.542   4.005  12.011  1.00  0.00    -0.203 F 
ATOM    120  F   UNL     1      12.908   3.652  15.263  1.00  0.00    -0.200 F 
ATOM    121  C   UNL     1      11.995   3.825  13.092  1.00  0.00     0.200 A 
ATOM    122  F   UNL     1      11.030   4.011  10.945  1.00  0.00    -0.200 F 
ATOM    123  F   UNL     1      13.224   3.866  12.561  1.00  0.00    -0.200 F 
ENDBRANCH  85 113
BRANCH 100 124
ATOM    124  C   UNL     1       6.090   8.158  18.483  1.00  0.00     0.064 A 
ATOM    125  C   UNL     1       6.339   9.339  17.768  1.00  0.00     0.173 A 
ATOM    126  C   UNL     1       6.248   8.190  19.877  1.00  0.00     0.173 A 
ATOM    127  F   UNL     1       6.215   9.360  16.433  1.00  0.00    -0.203 F 
ATOM    128  C   UNL     1       6.772  10.492  18.419  1.00  0.00     0.198 A 
ATOM    129  C   UNL     1       6.645   9.355  20.528  1.00  0.00     0.198 A 
ATOM    130  F   UNL     1       6.013   7.092  20.611  1.00  0.00    -0.203 F 
ATOM    131  F   UNL     1       7.071  11.588  17.707  1.00  0.00    -0.200 F 
ATOM    132  C   UNL     1       6.920  10.501  19.797  1.00  0.00     0.200 A 
ATOM    133  F   UNL     1       6.770   9.366  21.862  1.00  0.00    -0.200 F 
ATOM    134  F   UNL     1       7.338  11.611  20.421  1.00  0.00    -0.200 F 
ENDBRANCH 100 124
ENDBRANCH  65  68
ENDBRANCH  55  58
ENDBRANCH  51  54
ENDBRANCH  48  51
ENDBRANCH  45  48
ENDBRANCH   1  45
TORSDOF 16
