REMARK SMILES C/C(=N\Nc1nc(-c2ccc(Cl)cc2)cs1)c1nnn(-c2ccc(C(=O)NCCCCCCNC(=O)c3ccc(-c4c5nc(c(-c6c(F)c(F)c(F)c(F)c6F)c6ccc([nH]6)c(-c6c(F)c(F)c(F)c(F)c6F)c6nc(c(-c7c(F)c(F)c(F)c(F)c7F)c7ccc4[nH]7)C=C6)C=C5)cc3)cc2)c1C
REMARK SMILES IDX 29 1 28 4 27 7 25 8 26 9 24 11 21 12 22 13 101 14 23 15
REMARK SMILES IDX 100 17 20 21 17 22 18 23 102 24 19 25 2 26 3 27 1 28 4 32
REMARK SMILES IDX 5 34 6 35 16 36 7 37 15 38 8 40 9 41 14 42 10 43 13 45 11 47
REMARK SMILES IDX 12 50 103 51 30 55 31 58 32 61 33 64 34 67 35 68 36 70 37 71
REMARK SMILES IDX 38 72 99 73 39 74 98 76 40 78 41 81 42 82 92 83 43 84 97 85
REMARK SMILES IDX 91 86 93 87 44 88 96 89 90 91 89 93 45 95 77 98 57 99 76 100
REMARK SMILES IDX 58 101 61 102 75 103 94 104 59 105 60 107 74 109 95 110
REMARK SMILES IDX 62 113 46 115 47 116 55 117 48 118 49 119 53 120 56 121
REMARK SMILES IDX 50 122 51 123 54 124 52 125 78 126 79 127 87 128 80 129
REMARK SMILES IDX 81 130 85 131 88 132 82 133 83 134 86 135 84 136 63 137
REMARK SMILES IDX 64 138 72 139 65 140 66 141 70 142 73 143 67 144 68 145
REMARK SMILES IDX 71 146 69 147
REMARK H PARENT 29 2 29 3 28 5 28 6 27 10 22 16 101 18 23 19 100 20 1 29 1 30
REMARK H PARENT 1 31 4 33 15 39 9 44 14 46 10 48 13 49 103 52 103 53 103 54
REMARK H PARENT 30 56 30 57 31 59 31 60 32 62 32 63 33 65 33 66 34 69 38 75
REMARK H PARENT 99 77 39 79 98 80 97 90 91 92 93 94 96 96 90 97 58 106 61 108
REMARK H PARENT 94 111 59 112 95 114
REMARK Flexibility Score: inf
ROOT
ATOM      1  C   UNL     1       9.099  -6.357  -0.809  1.00  0.00    -0.036 C 
ATOM      2  H   UNL     1       8.465  -7.207  -0.951  1.00  0.00     0.028 H 
ATOM      3  H   UNL     1       9.056  -5.981   0.192  1.00  0.00     0.028 H 
ENDROOT
BRANCH   1   4
ATOM      4  C   UNL     1       8.618  -5.235  -1.733  1.00  0.00     0.018 C 
ATOM      5  H   UNL     1       7.749  -4.778  -1.309  1.00  0.00     0.049 H 
ATOM      6  H   UNL     1       9.401  -4.513  -1.837  1.00  0.00     0.049 H 
BRANCH   4   7
ATOM      7  N   UNL     1       8.289  -5.764  -3.045  1.00  0.00    -0.352 N 
ATOM      8  C   UNL     1       7.100  -6.026  -3.679  1.00  0.00     0.251 C 
ATOM      9  O   UNL     1       7.147  -6.458  -4.831  1.00  0.00    -0.269 OA
ATOM     10  H   UNL     1       9.080  -5.979  -3.591  1.00  0.00     0.163 HD
BRANCH   8  11
ATOM     11  C   UNL     1       5.772  -5.732  -3.071  1.00  0.00     0.039 A 
ATOM     12  C   UNL     1       3.349  -4.792  -2.070  1.00  0.00     0.067 A 
ATOM     13  C   UNL     1       3.487  -4.953  -3.447  1.00  0.00    -0.036 A 
ATOM     14  C   UNL     1       4.346  -5.220  -1.190  1.00  0.00    -0.036 A 
ATOM     15  C   UNL     1       4.716  -5.402  -3.942  1.00  0.00    -0.047 A 
ATOM     16  H   UNL     1       2.703  -4.747  -4.085  1.00  0.00     0.065 H 
ATOM     17  C   UNL     1       5.535  -5.739  -1.696  1.00  0.00    -0.047 A 
ATOM     18  H   UNL     1       4.203  -5.152  -0.170  1.00  0.00     0.065 H 
ATOM     19  H   UNL     1       4.850  -5.493  -4.962  1.00  0.00     0.063 H 
ATOM     20  H   UNL     1       6.241  -6.130  -1.053  1.00  0.00     0.063 H 
BRANCH  12  21
ATOM     21  N   UNL     1       2.286  -4.031  -1.556  1.00  0.00    -0.217 N 
ATOM     22  C   UNL     1       1.086  -2.493  -0.596  1.00  0.00     0.132 A 
ATOM     23  N   UNL     1       0.254  -3.474  -1.070  1.00  0.00    -0.128 NA
ATOM     24  C   UNL     1       2.397  -2.820  -0.903  1.00  0.00     0.071 A 
ATOM     25  N   UNL     1       0.993  -4.356  -1.738  1.00  0.00    -0.061 NA
BRANCH  22  26
ATOM     26  C   UNL     1       0.631  -1.255   0.024  1.00  0.00     0.087 C 
ATOM     27  N   UNL     1      -0.134  -1.385   1.072  1.00  0.00    -0.176 NA
BRANCH  26  28
ATOM     28  C   UNL     1       1.180   0.006  -0.594  1.00  0.00    -0.018 C 
ATOM     29  H   UNL     1       0.791   0.857  -0.073  1.00  0.00     0.030 H 
ATOM     30  H   UNL     1       0.890   0.055  -1.623  1.00  0.00     0.030 H 
ATOM     31  H   UNL     1       2.248   0.003  -0.523  1.00  0.00     0.030 H 
ENDBRANCH  26  28
BRANCH  27  32
ATOM     32  N   UNL     1      -0.530  -0.346   1.887  1.00  0.00    -0.252 N 
ATOM     33  H   UNL     1      -0.976  -0.628   2.718  1.00  0.00     0.193 HD
BRANCH  32  34
ATOM     34  C   UNL     1      -0.410   0.998   1.742  1.00  0.00     0.203 A 
ATOM     35  N   UNL     1      -0.602   1.677   0.636  1.00  0.00    -0.219 NA
ATOM     36  S   UNL     1       0.127   1.973   3.066  1.00  0.00    -0.103 S 
ATOM     37  C   UNL     1      -0.004   2.917   0.718  1.00  0.00     0.084 A 
ATOM     38  C   UNL     1       0.455   3.259   1.972  1.00  0.00     0.021 A 
ATOM     39  H   UNL     1       0.921   4.147   2.216  1.00  0.00     0.076 H 
BRANCH  37  40
ATOM     40  C   UNL     1       0.183   3.705  -0.487  1.00  0.00     0.001 A 
ATOM     41  C   UNL     1      -0.892   3.885  -1.367  1.00  0.00    -0.051 A 
ATOM     42  C   UNL     1       1.450   4.191  -0.842  1.00  0.00    -0.051 A 
ATOM     43  C   UNL     1      -0.715   4.572  -2.570  1.00  0.00    -0.043 A 
ATOM     44  H   UNL     1      -1.821   3.506  -1.125  1.00  0.00     0.063 H 
ATOM     45  C   UNL     1       1.630   4.868  -2.053  1.00  0.00    -0.043 A 
ATOM     46  H   UNL     1       2.252   4.048  -0.209  1.00  0.00     0.063 H 
ATOM     47  C   UNL     1       0.545   5.063  -2.907  1.00  0.00     0.041 A 
ATOM     48  H   UNL     1      -1.514   4.716  -3.208  1.00  0.00     0.064 H 
ATOM     49  H   UNL     1       2.563   5.224  -2.313  1.00  0.00     0.064 H 
ATOM     50  Cl  UNL     1       0.768   5.901  -4.392  1.00  0.00    -0.084 Cl
ENDBRANCH  37  40
ENDBRANCH  32  34
ENDBRANCH  27  32
ENDBRANCH  22  26
BRANCH  24  51
ATOM     51  C   UNL     1       3.671  -2.066  -0.754  1.00  0.00    -0.020 C 
ATOM     52  H   UNL     1       3.489  -1.163  -0.210  1.00  0.00     0.030 H 
ATOM     53  H   UNL     1       4.059  -1.827  -1.722  1.00  0.00     0.030 H 
ATOM     54  H   UNL     1       4.380  -2.666  -0.222  1.00  0.00     0.030 H 
ENDBRANCH  24  51
ENDBRANCH  12  21
ENDBRANCH   8  11
ENDBRANCH   4   7
ENDBRANCH   1   4
BRANCH   1  55
ATOM     55  C   UNL     1      10.550  -6.785  -1.068  1.00  0.00    -0.052 C 
ATOM     56  H   UNL     1      10.604  -7.180  -2.061  1.00  0.00     0.027 H 
ATOM     57  H   UNL     1      10.784  -7.497  -0.304  1.00  0.00     0.027 H 
BRANCH  55  58
ATOM     58  C   UNL     1      11.607  -5.674  -0.942  1.00  0.00    -0.052 C 
ATOM     59  H   UNL     1      11.472  -5.003  -1.765  1.00  0.00     0.027 H 
ATOM     60  H   UNL     1      12.550  -6.180  -0.931  1.00  0.00     0.027 H 
BRANCH  58  61
ATOM     61  C   UNL     1      11.578  -4.842   0.349  1.00  0.00    -0.036 C 
ATOM     62  H   UNL     1      10.589  -4.455   0.479  1.00  0.00     0.028 H 
ATOM     63  H   UNL     1      12.307  -4.067   0.239  1.00  0.00     0.028 H 
BRANCH  61  64
ATOM     64  C   UNL     1      11.952  -5.631   1.592  1.00  0.00     0.018 C 
ATOM     65  H   UNL     1      11.329  -6.500   1.647  1.00  0.00     0.049 H 
ATOM     66  H   UNL     1      11.812  -4.991   2.438  1.00  0.00     0.049 H 
BRANCH  64  67
ATOM     67  N   UNL     1      13.357  -6.060   1.587  1.00  0.00    -0.352 N 
ATOM     68  C   UNL     1      14.021  -6.851   2.502  1.00  0.00     0.251 C 
ATOM     69  H   UNL     1      13.897  -5.740   0.829  1.00  0.00     0.163 HD
ATOM     70  O   UNL     1      15.252  -6.823   2.592  1.00  0.00    -0.269 OA
BRANCH  68  71
ATOM     71  C   UNL     1      13.240  -7.747   3.364  1.00  0.00     0.039 A 
ATOM     72  C   UNL     1      13.579  -8.014   4.694  1.00  0.00    -0.049 A 
ATOM     73  C   UNL     1      12.102  -8.306   2.799  1.00  0.00    -0.049 A 
ATOM     74  C   UNL     1      12.718  -8.806   5.451  1.00  0.00    -0.053 A 
ATOM     75  H   UNL     1      14.446  -7.633   5.105  1.00  0.00     0.063 H 
ATOM     76  C   UNL     1      11.143  -8.838   3.605  1.00  0.00    -0.053 A 
ATOM     77  H   UNL     1      11.983  -8.317   1.774  1.00  0.00     0.063 H 
ATOM     78  C   UNL     1      11.495  -9.206   4.891  1.00  0.00    -0.014 A 
ATOM     79  H   UNL     1      12.976  -9.094   6.408  1.00  0.00     0.063 H 
ATOM     80  H   UNL     1      10.177  -8.963   3.265  1.00  0.00     0.063 H 
BRANCH  78  81
ATOM     81  C   UNL     1      10.495  -9.953   5.636  1.00  0.00     0.031 A 
ATOM     82  C   UNL     1      10.045  -9.276   6.874  1.00  0.00     0.074 A 
ATOM     83  C   UNL     1       9.861 -11.026   5.108  1.00  0.00     0.049 A 
ATOM     84  N   UNL     1      10.257  -9.647   8.091  1.00  0.00    -0.248 NA
ATOM     85  C   UNL     1       9.427  -7.944   6.755  1.00  0.00    -0.034 C 
ATOM     86  C   UNL     1       9.986 -11.594   3.757  1.00  0.00    -0.036 A 
ATOM     87  N   UNL     1       8.872 -11.786   5.648  1.00  0.00    -0.354 N 
ATOM     88  C   UNL     1       9.605  -8.714   8.889  1.00  0.00     0.074 A 
ATOM     89  C   UNL     1       9.306  -7.594   8.037  1.00  0.00    -0.034 C 
ATOM     90  H   UNL     1       9.158  -7.421   5.907  1.00  0.00     0.065 H 
ATOM     91  C   UNL     1       8.957 -12.437   3.515  1.00  0.00    -0.036 A 
ATOM     92  H   UNL     1      10.746 -11.381   3.092  1.00  0.00     0.065 H 
ATOM     93  C   UNL     1       8.206 -12.607   4.742  1.00  0.00     0.049 A 
ATOM     94  H   UNL     1       8.644 -11.758   6.606  1.00  0.00     0.167 HD
ATOM     95  C   UNL     1       9.118  -9.074  10.108  1.00  0.00     0.037 A 
ATOM     96  H   UNL     1       9.036  -6.655   8.370  1.00  0.00     0.065 H 
ATOM     97  H   UNL     1       8.744 -12.884   2.610  1.00  0.00     0.065 H 
ATOM     98  C   UNL     1       7.098 -13.351   4.993  1.00  0.00     0.037 A 
ATOM     99  C   UNL     1       9.705 -10.319  10.547  1.00  0.00     0.049 A 
ATOM    100  C   UNL     1       7.007 -13.506   6.467  1.00  0.00     0.074 A 
ATOM    101  C   UNL     1      10.995 -10.751  10.792  1.00  0.00    -0.036 A 
ATOM    102  N   UNL     1       8.954 -11.461  10.406  1.00  0.00    -0.354 N 
ATOM    103  N   UNL     1       7.866 -14.187   7.175  1.00  0.00    -0.248 NA
ATOM    104  C   UNL     1       6.250 -12.501   7.198  1.00  0.00    -0.034 C 
ATOM    105  C   UNL     1      11.037 -12.088  10.295  1.00  0.00    -0.036 A 
ATOM    106  H   UNL     1      11.761 -10.221  11.238  1.00  0.00     0.065 H 
ATOM    107  C   UNL     1       9.757 -12.425   9.854  1.00  0.00     0.049 A 
ATOM    108  H   UNL     1       8.008 -11.568  10.657  1.00  0.00     0.167 HD
ATOM    109  C   UNL     1       8.076 -13.415   8.308  1.00  0.00     0.074 A 
ATOM    110  C   UNL     1       6.999 -12.427   8.301  1.00  0.00    -0.034 C 
ATOM    111  H   UNL     1       5.388 -11.995   6.939  1.00  0.00     0.065 H 
ATOM    112  H   UNL     1      11.869 -12.698  10.266  1.00  0.00     0.065 H 
ATOM    113  C   UNL     1       9.269 -13.459   8.972  1.00  0.00     0.037 A 
ATOM    114  H   UNL     1       6.836 -11.749   9.062  1.00  0.00     0.065 H 
BRANCH  95 115
ATOM    115  C   UNL     1       7.831  -8.548  10.699  1.00  0.00     0.064 A 
ATOM    116  C   UNL     1       7.486  -8.928  12.012  1.00  0.00     0.173 A 
ATOM    117  C   UNL     1       6.789  -7.964   9.944  1.00  0.00     0.173 A 
ATOM    118  F   UNL     1       8.393  -9.503  12.816  1.00  0.00    -0.203 F 
ATOM    119  C   UNL     1       6.179  -8.822  12.492  1.00  0.00     0.198 A 
ATOM    120  C   UNL     1       5.499  -7.809  10.447  1.00  0.00     0.198 A 
ATOM    121  F   UNL     1       6.934  -7.624   8.659  1.00  0.00    -0.203 F 
ATOM    122  F   UNL     1       5.871  -9.326  13.695  1.00  0.00    -0.200 F 
ATOM    123  C   UNL     1       5.184  -8.271  11.706  1.00  0.00     0.200 A 
ATOM    124  F   UNL     1       4.546  -7.288   9.661  1.00  0.00    -0.200 F 
ATOM    125  F   UNL     1       3.917  -8.232  12.137  1.00  0.00    -0.200 F 
ENDBRANCH  95 115
BRANCH  98 126
ATOM    126  C   UNL     1       5.952 -13.645   4.097  1.00  0.00     0.064 A 
ATOM    127  C   UNL     1       5.027 -14.654   4.411  1.00  0.00     0.173 A 
ATOM    128  C   UNL     1       5.574 -12.748   3.078  1.00  0.00     0.173 A 
ATOM    129  F   UNL     1       5.287 -15.523   5.400  1.00  0.00    -0.203 F 
ATOM    130  C   UNL     1       3.785 -14.741   3.770  1.00  0.00     0.198 A 
ATOM    131  C   UNL     1       4.337 -12.838   2.436  1.00  0.00     0.198 A 
ATOM    132  F   UNL     1       6.355 -11.706   2.756  1.00  0.00    -0.203 F 
ATOM    133  F   UNL     1       2.901 -15.677   4.146  1.00  0.00    -0.200 F 
ATOM    134  C   UNL     1       3.436 -13.824   2.792  1.00  0.00     0.200 A 
ATOM    135  F   UNL     1       3.996 -11.919   1.521  1.00  0.00    -0.200 F 
ATOM    136  F   UNL     1       2.222 -13.863   2.227  1.00  0.00    -0.200 F 
ENDBRANCH  98 126
BRANCH 113 137
ATOM    137  C   UNL     1      10.236 -14.551   8.604  1.00  0.00     0.064 A 
ATOM    138  C   UNL     1      10.843 -14.685   7.342  1.00  0.00     0.173 A 
ATOM    139  C   UNL     1      10.670 -15.415   9.618  1.00  0.00     0.173 A 
ATOM    140  F   UNL     1      10.557 -13.840   6.345  1.00  0.00    -0.203 F 
ATOM    141  C   UNL     1      11.805 -15.666   7.101  1.00  0.00     0.198 A 
ATOM    142  C   UNL     1      11.656 -16.369   9.385  1.00  0.00     0.198 A 
ATOM    143  F   UNL     1      10.166 -15.299  10.857  1.00  0.00    -0.203 F 
ATOM    144  F   UNL     1      12.359 -15.780   5.884  1.00  0.00    -0.200 F 
ATOM    145  C   UNL     1      12.215 -16.502   8.125  1.00  0.00     0.200 A 
ATOM    146  F   UNL     1      12.084 -17.142  10.393  1.00  0.00    -0.200 F 
ATOM    147  F   UNL     1      13.168 -17.419   7.905  1.00  0.00    -0.200 F 
ENDBRANCH 113 137
ENDBRANCH  78  81
ENDBRANCH  68  71
ENDBRANCH  64  67
ENDBRANCH  61  64
ENDBRANCH  58  61
ENDBRANCH  55  58
ENDBRANCH   1  55
TORSDOF 20
