REMARK SMILES O=C(CNc1nc(-c2ccccc2)c(-c2ccccc2)s1)NCCCCCCNC(=O)c1ccc(-c2c3nc(c(-c4c(F)c(F)c(F)c(F)c4F)c4ccc([nH]4)c(-c4c(F)c(F)c(F)c(F)c4F)c4nc(c(-c5c(F)c(F)c(F)c(F)c5F)c5ccc2[nH]5)C=C4)C=C3)cc1
REMARK SMILES IDX 25 1 24 4 23 7 22 10 1 11 2 12 3 14 4 17 5 19 6 20 21 21
REMARK SMILES IDX 7 22 14 23 8 24 9 25 13 26 10 27 12 29 11 31 15 35 16 36
REMARK SMILES IDX 20 37 17 38 19 40 18 42 26 46 27 49 28 52 29 55 30 56 31 58
REMARK SMILES IDX 32 59 33 60 94 61 34 62 93 64 35 66 36 69 37 70 87 71 38 72
REMARK SMILES IDX 92 73 86 74 88 75 39 76 91 77 85 79 84 81 40 83 72 86 52 87
REMARK SMILES IDX 71 88 53 89 56 90 70 91 89 92 54 93 55 95 69 97 90 98 57 101
REMARK SMILES IDX 41 103 42 104 50 105 43 106 44 107 48 108 51 109 45 110
REMARK SMILES IDX 46 111 49 112 47 113 73 114 74 115 82 116 75 117 76 118
REMARK SMILES IDX 80 119 83 120 77 121 78 122 81 123 79 124 58 125 59 126
REMARK SMILES IDX 67 127 60 128 61 129 65 130 68 131 62 132 63 133 66 134
REMARK SMILES IDX 64 135
REMARK H PARENT 25 2 25 3 24 5 24 6 23 8 23 9 22 13 3 15 3 16 4 18 9 28 13 30
REMARK H PARENT 10 32 12 33 11 34 16 39 20 41 17 43 19 44 18 45 26 47 26 48
REMARK H PARENT 27 50 27 51 28 53 28 54 29 57 33 63 94 65 34 67 93 68 92 78
REMARK H PARENT 86 80 88 82 91 84 85 85 53 94 56 96 89 99 54 100 90 102
REMARK Flexibility Score: inf
ROOT
ATOM      1  C   UNL     1       4.186   3.263  -1.617  1.00  0.00    -0.052 C 
ATOM      2  H   UNL     1       4.729   2.620  -0.957  1.00  0.00     0.027 H 
ATOM      3  H   UNL     1       4.380   4.304  -1.462  1.00  0.00     0.027 H 
ENDROOT
BRANCH   1   4
ATOM      4  C   UNL     1       2.688   3.069  -1.340  1.00  0.00    -0.036 C 
ATOM      5  H   UNL     1       2.503   3.322  -0.317  1.00  0.00     0.028 H 
ATOM      6  H   UNL     1       2.170   3.700  -2.031  1.00  0.00     0.028 H 
BRANCH   4   7
ATOM      7  C   UNL     1       2.172   1.651  -1.580  1.00  0.00     0.017 C 
ATOM      8  H   UNL     1       1.119   1.629  -1.394  1.00  0.00     0.049 H 
ATOM      9  H   UNL     1       2.388   1.384  -2.594  1.00  0.00     0.049 H 
BRANCH   7  10
ATOM     10  N   UNL     1       2.821   0.691  -0.715  1.00  0.00    -0.355 N 
ATOM     11  O   UNL     1       0.973   0.099   0.526  1.00  0.00    -0.273 OA
ATOM     12  C   UNL     1       2.168  -0.019   0.277  1.00  0.00     0.239 C 
ATOM     13  H   UNL     1       3.785   0.534  -0.838  1.00  0.00     0.163 HD
BRANCH  12  14
ATOM     14  C   UNL     1       3.105  -0.949   1.068  1.00  0.00     0.096 C 
ATOM     15  H   UNL     1       2.531  -1.720   1.538  1.00  0.00     0.059 H 
ATOM     16  H   UNL     1       3.621  -0.386   1.818  1.00  0.00     0.059 H 
BRANCH  14  17
ATOM     17  N   UNL     1       4.070  -1.548   0.155  1.00  0.00    -0.352 N 
ATOM     18  H   UNL     1       3.756  -1.888  -0.714  1.00  0.00     0.163 HD
BRANCH  17  19
ATOM     19  C   UNL     1       5.374  -1.649   0.462  1.00  0.00     0.184 A 
ATOM     20  N   UNL     1       5.893  -1.538   1.661  1.00  0.00    -0.220 NA
ATOM     21  S   UNL     1       6.506  -1.909  -0.806  1.00  0.00    -0.096 S 
ATOM     22  C   UNL     1       7.274  -1.648   1.592  1.00  0.00     0.091 A 
ATOM     23  C   UNL     1       7.797  -1.795   0.316  1.00  0.00     0.064 A 
BRANCH  22  24
ATOM     24  C   UNL     1       8.096  -1.643   2.793  1.00  0.00     0.002 A 
ATOM     25  C   UNL     1       9.099  -0.684   2.979  1.00  0.00    -0.053 A 
ATOM     26  C   UNL     1       7.940  -2.667   3.736  1.00  0.00    -0.053 A 
ATOM     27  C   UNL     1       9.962  -0.771   4.074  1.00  0.00    -0.062 A 
ATOM     28  H   UNL     1       9.202   0.090   2.305  1.00  0.00     0.063 H 
ATOM     29  C   UNL     1       8.806  -2.754   4.828  1.00  0.00    -0.062 A 
ATOM     30  H   UNL     1       7.182  -3.358   3.624  1.00  0.00     0.063 H 
ATOM     31  C   UNL     1       9.821  -1.812   4.992  1.00  0.00    -0.062 A 
ATOM     32  H   UNL     1      10.703  -0.065   4.205  1.00  0.00     0.062 H 
ATOM     33  H   UNL     1       8.696  -3.517   5.514  1.00  0.00     0.062 H 
ATOM     34  H   UNL     1      10.468  -1.885   5.792  1.00  0.00     0.062 H 
ENDBRANCH  22  24
BRANCH  23  35
ATOM     35  C   UNL     1       9.178  -1.901  -0.152  1.00  0.00    -0.006 A 
ATOM     36  C   UNL     1       9.713  -0.928  -1.009  1.00  0.00    -0.053 A 
ATOM     37  C   UNL     1      10.003  -2.942   0.293  1.00  0.00    -0.053 A 
ATOM     38  C   UNL     1      11.048  -0.995  -1.410  1.00  0.00    -0.062 A 
ATOM     39  H   UNL     1       9.114  -0.158  -1.346  1.00  0.00     0.063 H 
ATOM     40  C   UNL     1      11.339  -3.007  -0.108  1.00  0.00    -0.062 A 
ATOM     41  H   UNL     1       9.621  -3.666   0.922  1.00  0.00     0.063 H 
ATOM     42  C   UNL     1      11.860  -2.033  -0.958  1.00  0.00    -0.062 A 
ATOM     43  H   UNL     1      11.434  -0.275  -2.042  1.00  0.00     0.062 H 
ATOM     44  H   UNL     1      11.941  -3.776   0.225  1.00  0.00     0.062 H 
ATOM     45  H   UNL     1      12.848  -2.081  -1.253  1.00  0.00     0.062 H 
ENDBRANCH  23  35
ENDBRANCH  17  19
ENDBRANCH  14  17
ENDBRANCH  12  14
ENDBRANCH   7  10
ENDBRANCH   4   7
ENDBRANCH   1   4
BRANCH   1  46
ATOM     46  C   UNL     1       4.639   2.961  -3.049  1.00  0.00    -0.052 C 
ATOM     47  H   UNL     1       4.454   1.925  -3.242  1.00  0.00     0.027 H 
ATOM     48  H   UNL     1       5.675   3.227  -3.093  1.00  0.00     0.027 H 
BRANCH  46  49
ATOM     49  C   UNL     1       3.947   3.777  -4.142  1.00  0.00    -0.036 C 
ATOM     50  H   UNL     1       2.903   3.541  -4.121  1.00  0.00     0.028 H 
ATOM     51  H   UNL     1       4.425   3.510  -5.061  1.00  0.00     0.028 H 
BRANCH  49  52
ATOM     52  C   UNL     1       4.092   5.290  -4.011  1.00  0.00     0.018 C 
ATOM     53  H   UNL     1       3.724   5.588  -3.051  1.00  0.00     0.049 H 
ATOM     54  H   UNL     1       3.533   5.740  -4.805  1.00  0.00     0.049 H 
BRANCH  52  55
ATOM     55  N   UNL     1       5.473   5.734  -4.138  1.00  0.00    -0.352 N 
ATOM     56  C   UNL     1       6.024   6.657  -4.993  1.00  0.00     0.251 C 
ATOM     57  H   UNL     1       6.108   5.308  -3.518  1.00  0.00     0.163 HD
ATOM     58  O   UNL     1       7.245   6.779  -5.067  1.00  0.00    -0.269 OA
BRANCH  56  59
ATOM     59  C   UNL     1       5.153   7.487  -5.853  1.00  0.00     0.039 A 
ATOM     60  C   UNL     1       5.488   7.643  -7.201  1.00  0.00    -0.049 A 
ATOM     61  C   UNL     1       4.009   8.103  -5.340  1.00  0.00    -0.049 A 
ATOM     62  C   UNL     1       4.630   8.344  -8.052  1.00  0.00    -0.053 A 
ATOM     63  H   UNL     1       6.366   7.242  -7.567  1.00  0.00     0.063 H 
ATOM     64  C   UNL     1       3.119   8.739  -6.203  1.00  0.00    -0.053 A 
ATOM     65  H   UNL     1       3.824   8.087  -4.325  1.00  0.00     0.063 H 
ATOM     66  C   UNL     1       3.414   8.855  -7.570  1.00  0.00    -0.014 A 
ATOM     67  H   UNL     1       4.892   8.488  -9.040  1.00  0.00     0.063 H 
ATOM     68  H   UNL     1       2.236   9.127  -5.834  1.00  0.00     0.063 H 
BRANCH  66  69
ATOM     69  C   UNL     1       2.420   9.470  -8.488  1.00  0.00     0.031 A 
ATOM     70  C   UNL     1       2.028  10.911  -8.338  1.00  0.00     0.074 A 
ATOM     71  C   UNL     1       1.808   8.700  -9.409  1.00  0.00     0.049 A 
ATOM     72  N   UNL     1       1.122  11.596  -8.990  1.00  0.00    -0.248 NA
ATOM     73  C   UNL     1       2.729  11.679  -7.298  1.00  0.00    -0.034 C 
ATOM     74  C   UNL     1       2.061   7.274  -9.617  1.00  0.00    -0.036 A 
ATOM     75  N   UNL     1       0.833   9.002 -10.327  1.00  0.00    -0.354 N 
ATOM     76  C   UNL     1       1.142  12.870  -8.439  1.00  0.00     0.074 A 
ATOM     77  C   UNL     1       2.105  12.846  -7.359  1.00  0.00    -0.034 C 
ATOM     78  H   UNL     1       3.504  11.386  -6.683  1.00  0.00     0.065 H 
ATOM     79  C   UNL     1       1.270   6.827 -10.605  1.00  0.00    -0.036 A 
ATOM     80  H   UNL     1       2.739   6.703  -9.089  1.00  0.00     0.065 H 
ATOM     81  C   UNL     1       0.423   7.921 -11.069  1.00  0.00     0.049 A 
ATOM     82  H   UNL     1       0.462   9.907 -10.442  1.00  0.00     0.167 HD
ATOM     83  C   UNL     1       0.438  13.966  -8.815  1.00  0.00     0.037 A 
ATOM     84  H   UNL     1       2.283  13.636  -6.718  1.00  0.00     0.065 H 
ATOM     85  H   UNL     1       1.263   5.864 -10.977  1.00  0.00     0.065 H 
ATOM     86  C   UNL     1      -0.541   7.815 -12.003  1.00  0.00     0.037 A 
ATOM     87  C   UNL     1      -0.522  13.983  -9.890  1.00  0.00     0.049 A 
ATOM     88  C   UNL     1      -1.334   9.036 -12.384  1.00  0.00     0.074 A 
ATOM     89  C   UNL     1      -1.246  15.053 -10.384  1.00  0.00    -0.036 A 
ATOM     90  N   UNL     1      -0.902  12.870 -10.628  1.00  0.00    -0.354 N 
ATOM     91  N   UNL     1      -1.251  10.255 -11.910  1.00  0.00    -0.248 NA
ATOM     92  C   UNL     1      -2.349   8.867 -13.432  1.00  0.00    -0.034 C 
ATOM     93  C   UNL     1      -2.110  14.578 -11.377  1.00  0.00    -0.036 A 
ATOM     94  H   UNL     1      -1.164  16.034 -10.073  1.00  0.00     0.065 H 
ATOM     95  C   UNL     1      -1.879  13.222 -11.548  1.00  0.00     0.049 A 
ATOM     96  H   UNL     1      -0.534  11.964 -10.515  1.00  0.00     0.167 HD
ATOM     97  C   UNL     1      -2.188  11.002 -12.611  1.00  0.00     0.074 A 
ATOM     98  C   UNL     1      -2.813  10.102 -13.559  1.00  0.00    -0.034 C 
ATOM     99  H   UNL     1      -2.627   8.011 -13.937  1.00  0.00     0.065 H 
ATOM    100  H   UNL     1      -2.802  15.142 -11.894  1.00  0.00     0.065 H 
ATOM    101  C   UNL     1      -2.502  12.315 -12.480  1.00  0.00     0.037 A 
ATOM    102  H   UNL     1      -3.529  10.387 -14.246  1.00  0.00     0.065 H 
BRANCH  83 103
ATOM    103  C   UNL     1       0.677  15.236  -8.047  1.00  0.00     0.064 A 
ATOM    104  C   UNL     1       1.904  15.916  -8.109  1.00  0.00     0.173 A 
ATOM    105  C   UNL     1      -0.336  15.790  -7.250  1.00  0.00     0.173 A 
ATOM    106  F   UNL     1       2.910  15.428  -8.850  1.00  0.00    -0.203 F 
ATOM    107  C   UNL     1       2.122  17.075  -7.368  1.00  0.00     0.198 A 
ATOM    108  C   UNL     1      -0.127  16.969  -6.539  1.00  0.00     0.198 A 
ATOM    109  F   UNL     1      -1.533  15.190  -7.161  1.00  0.00    -0.203 F 
ATOM    110  F   UNL     1       3.323  17.668  -7.392  1.00  0.00    -0.200 F 
ATOM    111  C   UNL     1       1.105  17.603  -6.588  1.00  0.00     0.200 A 
ATOM    112  F   UNL     1      -1.117  17.488  -5.798  1.00  0.00    -0.200 F 
ATOM    113  F   UNL     1       1.315  18.718  -5.875  1.00  0.00    -0.200 F 
ENDBRANCH  83 103
BRANCH  86 114
ATOM    114  C   UNL     1      -0.805   6.497 -12.637  1.00  0.00     0.064 A 
ATOM    115  C   UNL     1      -0.487   6.263 -13.982  1.00  0.00     0.173 A 
ATOM    116  C   UNL     1      -1.360   5.437 -11.904  1.00  0.00     0.173 A 
ATOM    117  F   UNL     1       0.027   7.251 -14.729  1.00  0.00    -0.203 F 
ATOM    118  C   UNL     1      -0.725   5.023 -14.572  1.00  0.00     0.198 A 
ATOM    119  C   UNL     1      -1.568   4.189 -12.487  1.00  0.00     0.198 A 
ATOM    120  F   UNL     1      -1.677   5.607 -10.612  1.00  0.00    -0.203 F 
ATOM    121  F   UNL     1      -0.446   4.838 -15.870  1.00  0.00    -0.200 F 
ATOM    122  C   UNL     1      -1.256   3.985 -13.822  1.00  0.00     0.200 A 
ATOM    123  F   UNL     1      -2.064   3.184 -11.753  1.00  0.00    -0.200 F 
ATOM    124  F   UNL     1      -1.472   2.789 -14.387  1.00  0.00    -0.200 F 
ENDBRANCH  86 114
BRANCH 101 125
ATOM    125  C   UNL     1      -3.561  12.865 -13.393  1.00  0.00     0.064 A 
ATOM    126  C   UNL     1      -4.913  12.519 -13.246  1.00  0.00     0.173 A 
ATOM    127  C   UNL     1      -3.226  13.785 -14.399  1.00  0.00     0.173 A 
ATOM    128  F   UNL     1      -5.285  11.632 -12.311  1.00  0.00    -0.203 F 
ATOM    129  C   UNL     1      -5.885  13.055 -14.087  1.00  0.00     0.198 A 
ATOM    130  C   UNL     1      -4.205  14.344 -15.216  1.00  0.00     0.198 A 
ATOM    131  F   UNL     1      -1.949  14.154 -14.580  1.00  0.00    -0.203 F 
ATOM    132  F   UNL     1      -7.163  12.672 -13.959  1.00  0.00    -0.200 F 
ATOM    133  C   UNL     1      -5.532  13.973 -15.065  1.00  0.00     0.200 A 
ATOM    134  F   UNL     1      -3.863  15.242 -16.150  1.00  0.00    -0.200 F 
ATOM    135  F   UNL     1      -6.471  14.496 -15.865  1.00  0.00    -0.200 F 
ENDBRANCH 101 125
ENDBRANCH  66  69
ENDBRANCH  56  59
ENDBRANCH  52  55
ENDBRANCH  49  52
ENDBRANCH  46  49
ENDBRANCH   1  46
TORSDOF 17
