REMARK SMILES C[C@@H](C(=O)NCCCCCCNC(=O)c1ccc(-c2c3nc(c(-c4c(F)c(F)c(F)c(F)c4F)c4ccc([nH]4)c(-c4c(F)c(F)c(F)c(F)c4F)c4nc(c(-c5c(F)c(F)c(F)c(F)c5F)c5ccc2[nH]5)C=C4)C=C3)cc1)c1ccc(C[C@@H]2CCC[C@@H]2O)cc1Br
REMARK SMILES IDX 7 1 6 4 5 7 3 8 4 9 2 11 1 13 78 17 79 18 90 19 80 20 89 22
REMARK SMILES IDX 91 23 81 24 82 27 83 30 84 31 87 32 85 34 86 37 88 43 8 45
REMARK SMILES IDX 9 48 10 51 11 54 12 57 13 58 14 60 15 61 16 62 77 63 17 64
REMARK SMILES IDX 76 66 18 68 19 71 20 72 70 73 21 74 75 75 69 76 71 77 22 78
REMARK SMILES IDX 74 79 68 81 67 83 23 85 55 88 35 89 54 90 36 91 39 92 53 93
REMARK SMILES IDX 72 94 37 95 38 97 52 99 73 100 40 103 24 105 25 106 33 107
REMARK SMILES IDX 26 108 27 109 31 110 34 111 28 112 29 113 32 114 30 115
REMARK SMILES IDX 56 116 57 117 65 118 58 119 59 120 63 121 66 122 60 123
REMARK SMILES IDX 61 124 64 125 62 126 41 127 42 128 50 129 43 130 44 131
REMARK SMILES IDX 48 132 51 133 45 134 46 135 49 136 47 137
REMARK H PARENT 7 2 7 3 6 5 6 6 5 10 2 12 1 14 1 15 1 16 79 21 80 25 89 26
REMARK H PARENT 82 28 82 29 83 33 84 35 84 36 87 38 85 39 85 40 86 41 86 42
REMARK H PARENT 88 44 8 46 8 47 9 49 9 50 10 52 10 53 11 55 11 56 12 59 16 65
REMARK H PARENT 77 67 17 69 76 70 75 80 69 82 71 84 74 86 68 87 36 96 39 98
REMARK H PARENT 72 101 37 102 73 104
REMARK Flexibility Score: inf
ROOT
ATOM      1  C   UNL     1     -10.187   2.857  11.024  1.00  0.00    -0.036 C 
ATOM      2  H   UNL     1      -9.819   1.860  10.900  1.00  0.00     0.028 H 
ATOM      3  H   UNL     1     -11.163   2.881  11.462  1.00  0.00     0.028 H 
ENDROOT
BRANCH   1   4
ATOM      4  C   UNL     1     -10.302   3.505   9.642  1.00  0.00     0.017 C 
ATOM      5  H   UNL     1     -11.080   3.021   9.088  1.00  0.00     0.049 H 
ATOM      6  H   UNL     1     -10.531   4.543   9.759  1.00  0.00     0.049 H 
BRANCH   4   7
ATOM      7  N   UNL     1      -9.053   3.373   8.927  1.00  0.00    -0.356 N 
ATOM      8  C   UNL     1      -8.694   2.488   7.954  1.00  0.00     0.227 C 
ATOM      9  O   UNL     1      -7.497   2.447   7.661  1.00  0.00    -0.274 OA
ATOM     10  H   UNL     1      -8.356   4.019   9.181  1.00  0.00     0.163 HD
BRANCH   8  11
ATOM     11  C   UNL     1      -9.764   1.622   7.263  1.00  0.00     0.061 C 
ATOM     12  H   UNL     1     -10.594   2.256   7.028  1.00  0.00     0.045 H 
BRANCH  11  13
ATOM     13  C   UNL     1     -10.306   0.522   8.187  1.00  0.00    -0.049 C 
ATOM     14  H   UNL     1     -10.681   0.964   9.086  1.00  0.00     0.024 H 
ATOM     15  H   UNL     1      -9.520  -0.162   8.427  1.00  0.00     0.024 H 
ATOM     16  H   UNL     1     -11.097  -0.003   7.692  1.00  0.00     0.024 H 
ENDBRANCH  11  13
BRANCH  11  17
ATOM     17  C   UNL     1      -9.216   1.040   5.959  1.00  0.00    -0.022 A 
ATOM     18  C   UNL     1      -8.462  -0.148   6.003  1.00  0.00    -0.057 A 
ATOM     19  C   UNL     1      -9.339   1.686   4.717  1.00  0.00     0.022 A 
ATOM     20  C   UNL     1      -7.865  -0.677   4.861  1.00  0.00    -0.059 A 
ATOM     21  H   UNL     1      -8.350  -0.640   6.903  1.00  0.00     0.063 H 
ATOM     22  C   UNL     1      -8.711   1.167   3.576  1.00  0.00    -0.044 A 
ATOM     23  Br  UNL     1     -10.316   3.303   4.491  1.00  0.00    -0.051 Br
ATOM     24  C   UNL     1      -7.943  -0.004   3.643  1.00  0.00    -0.047 A 
ATOM     25  H   UNL     1      -7.359  -1.575   4.917  1.00  0.00     0.063 H 
ATOM     26  H   UNL     1      -8.815   1.655   2.672  1.00  0.00     0.064 H 
BRANCH  24  27
ATOM     27  C   UNL     1      -7.183  -0.499   2.439  1.00  0.00    -0.023 C 
ATOM     28  H   UNL     1      -7.605  -0.023   1.579  1.00  0.00     0.032 H 
ATOM     29  H   UNL     1      -7.286  -1.563   2.480  1.00  0.00     0.032 H 
BRANCH  27  30
ATOM     30  C   UNL     1      -5.654  -0.261   2.394  1.00  0.00    -0.011 C 
ATOM     31  C   UNL     1      -4.846  -0.952   3.500  1.00  0.00    -0.048 C 
ATOM     32  C   UNL     1      -5.166   1.188   2.489  1.00  0.00     0.057 C 
ATOM     33  H   UNL     1      -5.483  -0.671   1.420  1.00  0.00     0.033 H 
ATOM     34  C   UNL     1      -4.549   0.114   4.561  1.00  0.00    -0.050 C 
ATOM     35  H   UNL     1      -3.933  -1.340   3.102  1.00  0.00     0.027 H 
ATOM     36  H   UNL     1      -5.392  -1.770   3.921  1.00  0.00     0.027 H 
ATOM     37  C   UNL     1      -5.007   1.449   3.980  1.00  0.00    -0.027 C 
ATOM     38  H   UNL     1      -4.248   1.314   1.954  1.00  0.00     0.060 H 
ATOM     39  H   UNL     1      -3.500   0.143   4.770  1.00  0.00     0.027 H 
ATOM     40  H   UNL     1      -5.057  -0.102   5.477  1.00  0.00     0.027 H 
ATOM     41  H   UNL     1      -4.273   2.208   4.154  1.00  0.00     0.029 H 
ATOM     42  H   UNL     1      -5.914   1.796   4.429  1.00  0.00     0.029 H 
BRANCH  32  43
ATOM     43  O   UNL     1      -6.025   2.123   1.870  1.00  0.00    -0.393 OA
ATOM     44  H   UNL     1      -6.898   2.087   2.290  1.00  0.00     0.210 HD
ENDBRANCH  32  43
ENDBRANCH  27  30
ENDBRANCH  24  27
ENDBRANCH  11  17
ENDBRANCH   8  11
ENDBRANCH   4   7
ENDBRANCH   1   4
BRANCH   1  45
ATOM     45  C   UNL     1      -9.248   3.605  11.981  1.00  0.00    -0.052 C 
ATOM     46  H   UNL     1      -8.263   3.587  11.563  1.00  0.00     0.027 H 
ATOM     47  H   UNL     1      -9.317   3.102  12.923  1.00  0.00     0.027 H 
BRANCH  45  48
ATOM     48  C   UNL     1      -9.626   5.066  12.245  1.00  0.00    -0.052 C 
ATOM     49  H   UNL     1      -9.503   5.612  11.332  1.00  0.00     0.027 H 
ATOM     50  H   UNL     1      -8.984   5.408  13.029  1.00  0.00     0.027 H 
BRANCH  48  51
ATOM     51  C   UNL     1     -11.059   5.277  12.737  1.00  0.00    -0.036 C 
ATOM     52  H   UNL     1     -11.729   4.918  11.983  1.00  0.00     0.028 H 
ATOM     53  H   UNL     1     -11.168   6.325  12.924  1.00  0.00     0.028 H 
BRANCH  51  54
ATOM     54  C   UNL     1     -11.384   4.563  14.044  1.00  0.00     0.018 C 
ATOM     55  H   UNL     1     -11.167   3.521  13.932  1.00  0.00     0.049 H 
ATOM     56  H   UNL     1     -12.420   4.722  14.260  1.00  0.00     0.049 H 
BRANCH  54  57
ATOM     57  N   UNL     1     -10.607   5.087  15.158  1.00  0.00    -0.352 N 
ATOM     58  C   UNL     1     -11.043   5.616  16.345  1.00  0.00     0.251 C 
ATOM     59  H   UNL     1      -9.630   5.058  15.042  1.00  0.00     0.163 HD
ATOM     60  O   UNL     1     -10.263   6.206  17.089  1.00  0.00    -0.269 OA
BRANCH  58  61
ATOM     61  C   UNL     1     -12.466   5.494  16.720  1.00  0.00     0.039 A 
ATOM     62  C   UNL     1     -13.141   6.620  17.198  1.00  0.00    -0.049 A 
ATOM     63  C   UNL     1     -13.135   4.274  16.586  1.00  0.00    -0.049 A 
ATOM     64  C   UNL     1     -14.507   6.540  17.475  1.00  0.00    -0.053 A 
ATOM     65  H   UNL     1     -12.632   7.505  17.346  1.00  0.00     0.063 H 
ATOM     66  C   UNL     1     -14.510   4.215  16.793  1.00  0.00    -0.053 A 
ATOM     67  H   UNL     1     -12.612   3.421  16.336  1.00  0.00     0.063 H 
ATOM     68  C   UNL     1     -15.211   5.348  17.234  1.00  0.00    -0.014 A 
ATOM     69  H   UNL     1     -15.002   7.360  17.858  1.00  0.00     0.063 H 
ATOM     70  H   UNL     1     -15.017   3.332  16.621  1.00  0.00     0.063 H 
BRANCH  68  71
ATOM     71  C   UNL     1     -16.683   5.272  17.410  1.00  0.00     0.031 A 
ATOM     72  C   UNL     1     -17.275   4.347  18.435  1.00  0.00     0.074 A 
ATOM     73  C   UNL     1     -17.487   5.974  16.587  1.00  0.00     0.049 A 
ATOM     74  N   UNL     1     -18.533   4.067  18.670  1.00  0.00    -0.248 NA
ATOM     75  C   UNL     1     -16.329   3.618  19.294  1.00  0.00    -0.034 C 
ATOM     76  C   UNL     1     -17.031   6.870  15.523  1.00  0.00    -0.036 A 
ATOM     77  N   UNL     1     -18.856   6.029  16.502  1.00  0.00    -0.354 N 
ATOM     78  C   UNL     1     -18.527   3.121  19.685  1.00  0.00     0.074 A 
ATOM     79  C   UNL     1     -17.142   2.839  19.994  1.00  0.00    -0.034 C 
ATOM     80  H   UNL     1     -15.301   3.693  19.340  1.00  0.00     0.065 H 
ATOM     81  C   UNL     1     -18.098   7.394  14.900  1.00  0.00    -0.036 A 
ATOM     82  H   UNL     1     -16.045   7.068  15.289  1.00  0.00     0.065 H 
ATOM     83  C   UNL     1     -19.313   6.836  15.487  1.00  0.00     0.049 A 
ATOM     84  H   UNL     1     -19.454   5.538  17.110  1.00  0.00     0.167 HD
ATOM     85  C   UNL     1     -19.583   2.552  20.313  1.00  0.00     0.037 A 
ATOM     86  H   UNL     1     -16.828   2.126  20.671  1.00  0.00     0.065 H 
ATOM     87  H   UNL     1     -18.066   8.081  14.131  1.00  0.00     0.065 H 
ATOM     88  C   UNL     1     -20.567   7.081  15.063  1.00  0.00     0.037 A 
ATOM     89  C   UNL     1     -20.959   2.859  20.020  1.00  0.00     0.049 A 
ATOM     90  C   UNL     1     -21.722   6.420  15.768  1.00  0.00     0.074 A 
ATOM     91  C   UNL     1     -22.098   2.401  20.659  1.00  0.00    -0.036 A 
ATOM     92  N   UNL     1     -21.383   3.692  18.995  1.00  0.00    -0.354 N 
ATOM     93  N   UNL     1     -21.706   5.595  16.787  1.00  0.00    -0.248 NA
ATOM     94  C   UNL     1     -23.069   6.724  15.266  1.00  0.00    -0.034 C 
ATOM     95  C   UNL     1     -23.212   2.905  19.981  1.00  0.00    -0.036 A 
ATOM     96  H   UNL     1     -22.121   1.793  21.492  1.00  0.00     0.065 H 
ATOM     97  C   UNL     1     -22.767   3.728  18.959  1.00  0.00     0.049 A 
ATOM     98  H   UNL     1     -20.788   4.185  18.385  1.00  0.00     0.167 HD
ATOM     99  C   UNL     1     -23.035   5.303  17.063  1.00  0.00     0.074 A 
ATOM    100  C   UNL     1     -23.833   6.054  16.117  1.00  0.00    -0.034 C 
ATOM    101  H   UNL     1     -23.348   7.307  14.461  1.00  0.00     0.065 H 
ATOM    102  H   UNL     1     -24.198   2.699  20.204  1.00  0.00     0.065 H 
ATOM    103  C   UNL     1     -23.548   4.485  18.014  1.00  0.00     0.037 A 
ATOM    104  H   UNL     1     -24.865   6.065  16.106  1.00  0.00     0.065 H 
BRANCH  85 105
ATOM    105  C   UNL     1     -19.302   1.533  21.380  1.00  0.00     0.064 A 
ATOM    106  C   UNL     1     -18.743   1.890  22.615  1.00  0.00     0.173 A 
ATOM    107  C   UNL     1     -19.656   0.189  21.184  1.00  0.00     0.173 A 
ATOM    108  F   UNL     1     -18.379   3.159  22.851  1.00  0.00    -0.203 F 
ATOM    109  C   UNL     1     -18.525   0.935  23.606  1.00  0.00     0.198 A 
ATOM    110  C   UNL     1     -19.466  -0.757  22.188  1.00  0.00     0.198 A 
ATOM    111  F   UNL     1     -20.201  -0.206  20.023  1.00  0.00    -0.203 F 
ATOM    112  F   UNL     1     -17.950   1.292  24.763  1.00  0.00    -0.200 F 
ATOM    113  C   UNL     1     -18.895  -0.384  23.396  1.00  0.00     0.200 A 
ATOM    114  F   UNL     1     -19.840  -2.028  21.988  1.00  0.00    -0.200 F 
ATOM    115  F   UNL     1     -18.699  -1.299  24.355  1.00  0.00    -0.200 F 
ENDBRANCH  85 105
BRANCH  88 116
ATOM    116  C   UNL     1     -20.802   7.988  13.907  1.00  0.00     0.064 A 
ATOM    117  C   UNL     1     -21.447   9.221  14.074  1.00  0.00     0.173 A 
ATOM    118  C   UNL     1     -20.405   7.632  12.609  1.00  0.00     0.173 A 
ATOM    119  F   UNL     1     -21.864   9.598  15.292  1.00  0.00    -0.203 F 
ATOM    120  C   UNL     1     -21.712  10.049  12.986  1.00  0.00     0.198 A 
ATOM    121  C   UNL     1     -20.641   8.476  11.526  1.00  0.00     0.198 A 
ATOM    122  F   UNL     1     -19.780   6.465  12.393  1.00  0.00    -0.203 F 
ATOM    123  F   UNL     1     -22.382  11.196  13.167  1.00  0.00    -0.200 F 
ATOM    124  C   UNL     1     -21.304   9.679  11.713  1.00  0.00     0.200 A 
ATOM    125  F   UNL     1     -20.230   8.121  10.301  1.00  0.00    -0.200 F 
ATOM    126  F   UNL     1     -21.559  10.476  10.667  1.00  0.00    -0.200 F 
ENDBRANCH  88 116
BRANCH 103 127
ATOM    127  C   UNL     1     -25.043   4.375  18.099  1.00  0.00     0.064 A 
ATOM    128  C   UNL     1     -25.789   3.697  17.124  1.00  0.00     0.173 A 
ATOM    129  C   UNL     1     -25.732   4.905  19.201  1.00  0.00     0.173 A 
ATOM    130  F   UNL     1     -25.180   3.187  16.043  1.00  0.00    -0.203 F 
ATOM    131  C   UNL     1     -27.171   3.572  17.238  1.00  0.00     0.198 A 
ATOM    132  C   UNL     1     -27.109   4.749  19.329  1.00  0.00     0.198 A 
ATOM    133  F   UNL     1     -25.066   5.557  20.166  1.00  0.00    -0.203 F 
ATOM    134  F   UNL     1     -27.868   2.958  16.272  1.00  0.00    -0.200 F 
ATOM    135  C   UNL     1     -27.828   4.088  18.345  1.00  0.00     0.200 A 
ATOM    136  F   UNL     1     -27.740   5.234  20.408  1.00  0.00    -0.200 F 
ATOM    137  F   UNL     1     -29.156   3.952  18.461  1.00  0.00    -0.200 F 
ENDBRANCH 103 127
ENDBRANCH  68  71
ENDBRANCH  58  61
ENDBRANCH  54  57
ENDBRANCH  51  54
ENDBRANCH  48  51
ENDBRANCH  45  48
ENDBRANCH   1  45
TORSDOF 18
