REMARK SMILES Nc1ccc(O)c(C(=O)NCCCCCCNC(=O)c2ccc(-c3c4nc(c(-c5c(F)c(F)c(F)c(F)c5F)c5ccc([nH]5)c(-c5c(F)c(F)c(F)c(F)c5F)c5nc(c(-c6c(F)c(F)c(F)c(F)c6F)c6ccc3[nH]6)C=C5)C=C4)cc2)c1
REMARK SMILES IDX 14 1 13 4 12 7 11 10 10 13 8 14 9 15 7 17 2 18 3 19 83 20
REMARK SMILES IDX 4 21 5 24 1 26 6 29 15 31 16 34 17 37 18 38 19 40 20 41
REMARK SMILES IDX 21 42 82 43 22 44 81 46 23 48 24 51 25 52 75 53 26 54 80 55
REMARK SMILES IDX 74 56 76 57 27 58 79 59 73 61 72 63 28 65 60 68 40 69 59 70
REMARK SMILES IDX 41 71 44 72 58 73 77 74 42 75 43 77 57 79 78 80 45 83 29 85
REMARK SMILES IDX 30 86 38 87 31 88 32 89 36 90 39 91 33 92 34 93 37 94 35 95
REMARK SMILES IDX 61 96 62 97 70 98 63 99 64 100 68 101 71 102 65 103 66 104
REMARK SMILES IDX 69 105 67 106 46 107 47 108 55 109 48 110 49 111 53 112
REMARK SMILES IDX 56 113 50 114 51 115 54 116 52 117
REMARK H PARENT 14 2 14 3 13 5 13 6 12 8 12 9 11 11 11 12 10 16 3 22 83 23
REMARK H PARENT 4 25 1 27 1 28 6 30 15 32 15 33 16 35 16 36 17 39 21 45 82 47
REMARK H PARENT 22 49 81 50 80 60 74 62 76 64 79 66 73 67 41 76 44 78 77 81
REMARK H PARENT 42 82 78 84
REMARK Flexibility Score: inf
ROOT
ATOM      1  C   UNL     1      -1.077  -7.037   0.066  1.00  0.00    -0.052 C 
ATOM      2  H   UNL     1      -0.617  -6.736   0.984  1.00  0.00     0.027 H 
ATOM      3  H   UNL     1      -0.791  -8.019  -0.249  1.00  0.00     0.027 H 
ENDROOT
BRANCH   1   4
ATOM      4  C   UNL     1      -0.611  -6.079  -1.038  1.00  0.00    -0.052 C 
ATOM      5  H   UNL     1       0.459  -6.063  -1.034  1.00  0.00     0.027 H 
ATOM      6  H   UNL     1      -1.025  -6.451  -1.952  1.00  0.00     0.027 H 
BRANCH   4   7
ATOM      7  C   UNL     1      -1.111  -4.633  -0.895  1.00  0.00    -0.036 C 
ATOM      8  H   UNL     1      -0.784  -4.074  -1.747  1.00  0.00     0.028 H 
ATOM      9  H   UNL     1      -2.178  -4.670  -0.825  1.00  0.00     0.028 H 
BRANCH   7  10
ATOM     10  C   UNL     1      -0.594  -3.941   0.369  1.00  0.00     0.018 C 
ATOM     11  H   UNL     1      -1.222  -3.106   0.599  1.00  0.00     0.049 H 
ATOM     12  H   UNL     1      -0.608  -4.636   1.183  1.00  0.00     0.049 H 
BRANCH  10  13
ATOM     13  N   UNL     1       0.763  -3.480   0.156  1.00  0.00    -0.352 N 
ATOM     14  C   UNL     1       1.327  -2.257  -0.087  1.00  0.00     0.255 C 
ATOM     15  O   UNL     1       2.552  -2.241  -0.248  1.00  0.00    -0.269 OA
ATOM     16  H   UNL     1       1.425  -4.207   0.196  1.00  0.00     0.163 HD
BRANCH  14  17
ATOM     17  C   UNL     1       0.602  -0.954  -0.101  1.00  0.00     0.083 A 
ATOM     18  C   UNL     1      -1.415   0.425  -0.191  1.00  0.00     0.032 A 
ATOM     19  C   UNL     1      -0.643   1.568   0.006  1.00  0.00    -0.035 A 
ATOM     20  C   UNL     1      -0.774  -0.815  -0.324  1.00  0.00    -0.023 A 
ATOM     21  C   UNL     1       0.739   1.470   0.148  1.00  0.00    -0.017 A 
ATOM     22  H   UNL     1      -1.098   2.494   0.048  1.00  0.00     0.065 H 
ATOM     23  H   UNL     1      -1.328  -1.644  -0.591  1.00  0.00     0.065 H 
ATOM     24  C   UNL     1       1.351   0.221   0.105  1.00  0.00     0.128 A 
ATOM     25  H   UNL     1       1.307   2.321   0.284  1.00  0.00     0.066 H 
BRANCH  18  26
ATOM     26  N   UNL     1      -2.785   0.534  -0.387  1.00  0.00    -0.399 N 
ATOM     27  H   UNL     1      -3.227   1.409  -0.292  1.00  0.00     0.156 HD
ATOM     28  H   UNL     1      -3.314  -0.262  -0.621  1.00  0.00     0.156 HD
ENDBRANCH  18  26
BRANCH  24  29
ATOM     29  O   UNL     1       2.714   0.233   0.263  1.00  0.00    -0.507 OA
ATOM     30  H   UNL     1       3.163   1.045   0.398  1.00  0.00     0.293 HD
ENDBRANCH  24  29
ENDBRANCH  14  17
ENDBRANCH  10  13
ENDBRANCH   7  10
ENDBRANCH   4   7
ENDBRANCH   1   4
BRANCH   1  31
ATOM     31  C   UNL     1      -2.591  -7.082   0.286  1.00  0.00    -0.036 C 
ATOM     32  H   UNL     1      -2.920  -6.100   0.554  1.00  0.00     0.028 H 
ATOM     33  H   UNL     1      -2.768  -7.804   1.056  1.00  0.00     0.028 H 
BRANCH  31  34
ATOM     34  C   UNL     1      -3.389  -7.537  -0.932  1.00  0.00     0.018 C 
ATOM     35  H   UNL     1      -3.134  -6.916  -1.765  1.00  0.00     0.049 H 
ATOM     36  H   UNL     1      -4.430  -7.457  -0.697  1.00  0.00     0.049 H 
BRANCH  34  37
ATOM     37  N   UNL     1      -3.107  -8.922  -1.273  1.00  0.00    -0.352 N 
ATOM     38  C   UNL     1      -3.970  -9.981  -1.397  1.00  0.00     0.251 C 
ATOM     39  H   UNL     1      -2.159  -9.131  -1.439  1.00  0.00     0.163 HD
ATOM     40  O   UNL     1      -3.539 -11.127  -1.469  1.00  0.00    -0.269 OA
BRANCH  38  41
ATOM     41  C   UNL     1      -5.429  -9.741  -1.433  1.00  0.00     0.039 A 
ATOM     42  C   UNL     1      -6.269 -10.573  -0.689  1.00  0.00    -0.049 A 
ATOM     43  C   UNL     1      -5.966  -8.717  -2.218  1.00  0.00    -0.049 A 
ATOM     44  C   UNL     1      -7.647 -10.344  -0.691  1.00  0.00    -0.053 A 
ATOM     45  H   UNL     1      -5.874 -11.352  -0.141  1.00  0.00     0.063 H 
ATOM     46  C   UNL     1      -7.331  -8.447  -2.165  1.00  0.00    -0.053 A 
ATOM     47  H   UNL     1      -5.353  -8.161  -2.834  1.00  0.00     0.063 H 
ATOM     48  C   UNL     1      -8.185  -9.262  -1.407  1.00  0.00    -0.014 A 
ATOM     49  H   UNL     1      -8.272 -10.973  -0.163  1.00  0.00     0.063 H 
ATOM     50  H   UNL     1      -7.716  -7.645  -2.687  1.00  0.00     0.063 H 
BRANCH  48  51
ATOM     51  C   UNL     1      -9.641  -8.971  -1.380  1.00  0.00     0.031 A 
ATOM     52  C   UNL     1     -10.455  -9.085  -2.639  1.00  0.00     0.074 A 
ATOM     53  C   UNL     1     -10.213  -8.544  -0.238  1.00  0.00     0.049 A 
ATOM     54  N   UNL     1     -11.719  -8.805  -2.835  1.00  0.00    -0.248 NA
ATOM     55  C   UNL     1      -9.751  -9.552  -3.843  1.00  0.00    -0.034 C 
ATOM     56  C   UNL     1      -9.518  -8.353   1.036  1.00  0.00    -0.036 A 
ATOM     57  N   UNL     1     -11.509  -8.182   0.033  1.00  0.00    -0.354 N 
ATOM     58  C   UNL     1     -11.954  -9.043  -4.183  1.00  0.00     0.074 A 
ATOM     59  C   UNL     1     -10.693  -9.446  -4.768  1.00  0.00    -0.034 C 
ATOM     60  H   UNL     1      -8.776  -9.878  -3.942  1.00  0.00     0.065 H 
ATOM     61  C   UNL     1     -10.398  -7.928   1.957  1.00  0.00    -0.036 A 
ATOM     62  H   UNL     1      -8.513  -8.517   1.199  1.00  0.00     0.065 H 
ATOM     63  C   UNL     1     -11.709  -7.781   1.331  1.00  0.00     0.049 A 
ATOM     64  H   UNL     1     -12.227  -8.207  -0.640  1.00  0.00     0.167 HD
ATOM     65  C   UNL     1     -13.121  -8.955  -4.865  1.00  0.00     0.037 A 
ATOM     66  H   UNL     1     -10.548  -9.626  -5.774  1.00  0.00     0.065 H 
ATOM     67  H   UNL     1     -10.182  -7.737   2.948  1.00  0.00     0.065 H 
ATOM     68  C   UNL     1     -12.823  -7.338   1.945  1.00  0.00     0.037 A 
ATOM     69  C   UNL     1     -14.379  -8.586  -4.271  1.00  0.00     0.049 A 
ATOM     70  C   UNL     1     -14.104  -7.248   1.161  1.00  0.00     0.074 A 
ATOM     71  C   UNL     1     -15.629  -8.533  -4.862  1.00  0.00    -0.036 A 
ATOM     72  N   UNL     1     -14.546  -8.206  -2.948  1.00  0.00    -0.354 N 
ATOM     73  N   UNL     1     -14.329  -7.544  -0.096  1.00  0.00    -0.248 NA
ATOM     74  C   UNL     1     -15.290  -6.768   1.885  1.00  0.00    -0.034 C 
ATOM     75  C   UNL     1     -16.544  -8.076  -3.909  1.00  0.00    -0.036 A 
ATOM     76  H   UNL     1     -15.848  -8.787  -5.838  1.00  0.00     0.065 H 
ATOM     77  C   UNL     1     -15.874  -7.894  -2.710  1.00  0.00     0.049 A 
ATOM     78  H   UNL     1     -13.826  -8.164  -2.277  1.00  0.00     0.167 HD
ATOM     79  C   UNL     1     -15.683  -7.318  -0.305  1.00  0.00     0.074 A 
ATOM     80  C   UNL     1     -16.232  -6.873   0.958  1.00  0.00    -0.034 C 
ATOM     81  H   UNL     1     -15.368  -6.436   2.858  1.00  0.00     0.065 H 
ATOM     82  H   UNL     1     -17.549  -7.904  -4.071  1.00  0.00     0.065 H 
ATOM     83  C   UNL     1     -16.406  -7.466  -1.442  1.00  0.00     0.037 A 
ATOM     84  H   UNL     1     -17.230  -6.664   1.117  1.00  0.00     0.065 H 
BRANCH  65  85
ATOM     85  C   UNL     1     -13.097  -9.268  -6.333  1.00  0.00     0.064 A 
ATOM     86  C   UNL     1     -12.910 -10.576  -6.804  1.00  0.00     0.173 A 
ATOM     87  C   UNL     1     -13.316  -8.255  -7.279  1.00  0.00     0.173 A 
ATOM     88  F   UNL     1     -12.686 -11.579  -5.942  1.00  0.00    -0.203 F 
ATOM     89  C   UNL     1     -12.918 -10.855  -8.169  1.00  0.00     0.198 A 
ATOM     90  C   UNL     1     -13.353  -8.542  -8.642  1.00  0.00     0.198 A 
ATOM     91  F   UNL     1     -13.506  -6.988  -6.883  1.00  0.00    -0.203 F 
ATOM     92  F   UNL     1     -12.694 -12.105  -8.597  1.00  0.00    -0.200 F 
ATOM     93  C   UNL     1     -13.148  -9.840  -9.085  1.00  0.00     0.200 A 
ATOM     94  F   UNL     1     -13.589  -7.562  -9.525  1.00  0.00    -0.200 F 
ATOM     95  F   UNL     1     -13.168 -10.111 -10.398  1.00  0.00    -0.200 F 
ENDBRANCH  65  85
BRANCH  68  96
ATOM     96  C   UNL     1     -12.785  -6.966   3.383  1.00  0.00     0.064 A 
ATOM     97  C   UNL     1     -13.456  -7.737   4.343  1.00  0.00     0.173 A 
ATOM     98  C   UNL     1     -12.096  -5.828   3.827  1.00  0.00     0.173 A 
ATOM     99  F   UNL     1     -14.145  -8.824   3.965  1.00  0.00    -0.203 F 
ATOM    100  C   UNL     1     -13.461  -7.370   5.687  1.00  0.00     0.198 A 
ATOM    101  C   UNL     1     -12.077  -5.478   5.175  1.00  0.00     0.198 A 
ATOM    102  F   UNL     1     -11.434  -5.059   2.950  1.00  0.00    -0.203 F 
ATOM    103  F   UNL     1     -14.153  -8.097   6.574  1.00  0.00    -0.200 F 
ATOM    104  C   UNL     1     -12.768  -6.244   6.103  1.00  0.00     0.200 A 
ATOM    105  F   UNL     1     -11.394  -4.397   5.575  1.00  0.00    -0.200 F 
ATOM    106  F   UNL     1     -12.773  -5.891   7.395  1.00  0.00    -0.200 F 
ENDBRANCH  68  96
BRANCH  83 107
ATOM    107  C   UNL     1     -17.878  -7.184  -1.362  1.00  0.00     0.064 A 
ATOM    108  C   UNL     1     -18.372  -5.878  -1.232  1.00  0.00     0.173 A 
ATOM    109  C   UNL     1     -18.806  -8.232  -1.457  1.00  0.00     0.173 A 
ATOM    110  F   UNL     1     -17.525  -4.843  -1.121  1.00  0.00    -0.203 F 
ATOM    111  C   UNL     1     -19.742  -5.634  -1.174  1.00  0.00     0.198 A 
ATOM    112  C   UNL     1     -20.175  -7.982  -1.431  1.00  0.00     0.198 A 
ATOM    113  F   UNL     1     -18.385  -9.499  -1.590  1.00  0.00    -0.203 F 
ATOM    114  F   UNL     1     -20.191  -4.383  -1.001  1.00  0.00    -0.200 F 
ATOM    115  C   UNL     1     -20.642  -6.685  -1.281  1.00  0.00     0.200 A 
ATOM    116  F   UNL     1     -21.043  -8.996  -1.548  1.00  0.00    -0.200 F 
ATOM    117  F   UNL     1     -21.960  -6.447  -1.234  1.00  0.00    -0.200 F 
ENDBRANCH  83 107
ENDBRANCH  48  51
ENDBRANCH  38  41
ENDBRANCH  34  37
ENDBRANCH  31  34
ENDBRANCH   1  31
TORSDOF 15
