REMARK SMILES NS(=O)(=O)c1ccc(N2N=C(C(=O)NCCCCCCNC(=O)c3ccc(-c4c5nc(c(-c6c(F)c(F)c(F)c(F)c6F)c6ccc([nH]6)c(-c6c(F)c(F)c(F)c(F)c6F)c6nc(c(-c7c(F)c(F)c(F)c(F)c7F)c7ccc4[nH]7)C=C6)C=C5)cc3)C[C@H]2c2ccco2)cc1
REMARK SMILES IDX 17 1 16 4 15 7 14 10 12 11 13 12 11 14 9 15 10 16 88 17
REMARK SMILES IDX 87 18 8 22 5 23 6 24 95 25 7 26 94 28 2 32 3 33 4 34 1 35
REMARK SMILES IDX 89 38 90 39 93 40 91 41 92 43 18 46 19 49 20 52 21 55 22 56
REMARK SMILES IDX 23 58 24 59 25 60 86 61 26 62 85 64 27 66 28 69 29 70 79 71
REMARK SMILES IDX 30 72 84 73 78 74 80 75 31 76 83 77 77 79 76 81 32 83 64 86
REMARK SMILES IDX 44 87 63 88 45 89 48 90 62 91 81 92 46 93 47 95 61 97 82 98
REMARK SMILES IDX 49 101 33 103 34 104 42 105 35 106 36 107 40 108 43 109
REMARK SMILES IDX 37 110 38 111 41 112 39 113 65 114 66 115 74 116 67 117
REMARK SMILES IDX 68 118 72 119 75 120 69 121 70 122 73 123 71 124 50 125
REMARK SMILES IDX 51 126 59 127 52 128 53 129 57 130 60 131 54 132 55 133
REMARK SMILES IDX 58 134 56 135
REMARK H PARENT 17 2 17 3 16 5 16 6 15 8 15 9 14 13 88 19 87 20 87 21 6 27
REMARK H PARENT 95 29 7 30 94 31 1 36 1 37 90 42 91 44 92 45 18 47 18 48 19 50
REMARK H PARENT 19 51 20 53 20 54 21 57 25 63 86 65 26 67 85 68 84 78 78 80
REMARK H PARENT 80 82 83 84 77 85 45 94 48 96 81 99 46 100 82 102
REMARK Flexibility Score: inf
ROOT
ATOM      1  C   UNL     1       5.340  12.032  -5.286  1.00  0.00    -0.052 C 
ATOM      2  H   UNL     1       5.242  11.548  -6.236  1.00  0.00     0.027 H 
ATOM      3  H   UNL     1       6.323  12.414  -5.106  1.00  0.00     0.027 H 
ENDROOT
BRANCH   1   4
ATOM      4  C   UNL     1       5.074  10.995  -4.194  1.00  0.00    -0.036 C 
ATOM      5  H   UNL     1       5.753  10.179  -4.331  1.00  0.00     0.028 H 
ATOM      6  H   UNL     1       5.210  11.490  -3.255  1.00  0.00     0.028 H 
BRANCH   4   7
ATOM      7  C   UNL     1       3.653  10.443  -4.201  1.00  0.00     0.018 C 
ATOM      8  H   UNL     1       3.462   9.956  -3.267  1.00  0.00     0.049 H 
ATOM      9  H   UNL     1       2.973  11.256  -4.346  1.00  0.00     0.049 H 
BRANCH   7  10
ATOM     10  N   UNL     1       3.469   9.491  -5.276  1.00  0.00    -0.351 N 
ATOM     11  C   UNL     1       3.149   8.158  -5.329  1.00  0.00     0.267 C 
ATOM     12  O   UNL     1       3.172   7.613  -6.429  1.00  0.00    -0.268 OA
ATOM     13  H   UNL     1       3.603   9.888  -6.167  1.00  0.00     0.163 HD
BRANCH  11  14
ATOM     14  C   UNL     1       2.723   7.342  -4.118  1.00  0.00     0.128 C 
ATOM     15  N   UNL     1       1.877   5.722  -3.029  1.00  0.00    -0.254 N 
ATOM     16  N   UNL     1       2.374   6.096  -4.236  1.00  0.00    -0.171 NA
ATOM     17  C   UNL     1       2.062   6.713  -1.968  1.00  0.00     0.116 C 
ATOM     18  C   UNL     1       2.640   7.899  -2.737  1.00  0.00     0.027 C 
ATOM     19  H   UNL     1       2.683   6.314  -1.193  1.00  0.00     0.064 H 
ATOM     20  H   UNL     1       1.989   8.747  -2.696  1.00  0.00     0.036 H 
ATOM     21  H   UNL     1       3.573   8.257  -2.353  1.00  0.00     0.036 H 
BRANCH  15  22
ATOM     22  C   UNL     1       1.571   4.395  -2.769  1.00  0.00     0.060 A 
ATOM     23  C   UNL     1       0.938   1.744  -2.113  1.00  0.00     0.082 A 
ATOM     24  C   UNL     1       2.200   2.048  -2.631  1.00  0.00    -0.040 A 
ATOM     25  C   UNL     1      -0.028   2.738  -1.968  1.00  0.00    -0.040 A 
ATOM     26  C   UNL     1       2.507   3.372  -2.963  1.00  0.00    -0.035 A 
ATOM     27  H   UNL     1       2.899   1.301  -2.769  1.00  0.00     0.064 H 
ATOM     28  C   UNL     1       0.295   4.051  -2.302  1.00  0.00    -0.035 A 
ATOM     29  H   UNL     1      -0.970   2.504  -1.618  1.00  0.00     0.064 H 
ATOM     30  H   UNL     1       3.435   3.597  -3.354  1.00  0.00     0.065 H 
ATOM     31  H   UNL     1      -0.422   4.787  -2.204  1.00  0.00     0.065 H 
BRANCH  23  32
ATOM     32  S   UNL     1       0.541   0.080  -1.680  1.00  0.00     0.238 S 
ATOM     33  O   UNL     1       1.322  -0.827  -2.486  1.00  0.00    -0.207 OA
ATOM     34  O   UNL     1      -0.890  -0.050  -1.526  1.00  0.00    -0.207 OA
BRANCH  32  35
ATOM     35  N   UNL     1       1.170  -0.023  -0.124  1.00  0.00    -0.225 NA
ATOM     36  H   UNL     1       1.003  -0.958   0.249  1.00  0.00     0.137 HD
ATOM     37  H   UNL     1       0.715   0.667   0.473  1.00  0.00     0.137 HD
ENDBRANCH  32  35
ENDBRANCH  23  32
ENDBRANCH  15  22
BRANCH  17  38
ATOM     38  C   UNL     1       0.866   7.086  -1.140  1.00  0.00     0.128 A 
ATOM     39  C   UNL     1       0.266   6.493  -0.044  1.00  0.00    -0.018 A 
ATOM     40  O   UNL     1       0.179   8.221  -1.471  1.00  0.00    -0.467 OA
ATOM     41  C   UNL     1      -0.859   7.287   0.282  1.00  0.00    -0.023 A 
ATOM     42  H   UNL     1       0.578   5.638   0.442  1.00  0.00     0.066 H 
ATOM     43  C   UNL     1      -0.857   8.336  -0.605  1.00  0.00     0.091 A 
ATOM     44  H   UNL     1      -1.544   7.112   1.034  1.00  0.00     0.066 H 
ATOM     45  H   UNL     1      -1.547   9.104  -0.610  1.00  0.00     0.104 H 
ENDBRANCH  17  38
ENDBRANCH  11  14
ENDBRANCH   7  10
ENDBRANCH   4   7
ENDBRANCH   1   4
BRANCH   1  46
ATOM     46  C   UNL     1       4.398  13.242  -5.269  1.00  0.00    -0.052 C 
ATOM     47  H   UNL     1       3.425  12.909  -5.564  1.00  0.00     0.027 H 
ATOM     48  H   UNL     1       4.823  13.960  -5.939  1.00  0.00     0.027 H 
BRANCH  46  49
ATOM     49  C   UNL     1       4.269  13.945  -3.915  1.00  0.00    -0.036 C 
ATOM     50  H   UNL     1       3.836  13.256  -3.220  1.00  0.00     0.028 H 
ATOM     51  H   UNL     1       3.662  14.811  -4.078  1.00  0.00     0.028 H 
BRANCH  49  52
ATOM     52  C   UNL     1       5.588  14.441  -3.336  1.00  0.00     0.018 C 
ATOM     53  H   UNL     1       6.251  13.608  -3.222  1.00  0.00     0.049 H 
ATOM     54  H   UNL     1       5.383  14.902  -2.392  1.00  0.00     0.049 H 
BRANCH  52  55
ATOM     55  N   UNL     1       6.219  15.430  -4.193  1.00  0.00    -0.352 N 
ATOM     56  C   UNL     1       6.635  16.701  -3.893  1.00  0.00     0.251 C 
ATOM     57  H   UNL     1       6.370  15.146  -5.124  1.00  0.00     0.163 HD
ATOM     58  O   UNL     1       6.949  17.477  -4.790  1.00  0.00    -0.269 OA
BRANCH  56  59
ATOM     59  C   UNL     1       6.688  17.142  -2.484  1.00  0.00     0.039 A 
ATOM     60  C   UNL     1       6.214  18.414  -2.157  1.00  0.00    -0.049 A 
ATOM     61  C   UNL     1       7.213  16.309  -1.492  1.00  0.00    -0.049 A 
ATOM     62  C   UNL     1       6.217  18.829  -0.825  1.00  0.00    -0.053 A 
ATOM     63  H   UNL     1       5.863  19.043  -2.896  1.00  0.00     0.063 H 
ATOM     64  C   UNL     1       7.139  16.691  -0.157  1.00  0.00    -0.053 A 
ATOM     65  H   UNL     1       7.654  15.412  -1.749  1.00  0.00     0.063 H 
ATOM     66  C   UNL     1       6.649  17.959   0.190  1.00  0.00    -0.014 A 
ATOM     67  H   UNL     1       5.901  19.782  -0.584  1.00  0.00     0.063 H 
ATOM     68  H   UNL     1       7.447  16.040   0.582  1.00  0.00     0.063 H 
BRANCH  66  69
ATOM     69  C   UNL     1       6.597  18.361   1.619  1.00  0.00     0.031 A 
ATOM     70  C   UNL     1       7.864  18.473   2.420  1.00  0.00     0.074 A 
ATOM     71  C   UNL     1       5.404  18.573   2.207  1.00  0.00     0.049 A 
ATOM     72  N   UNL     1       8.020  18.754   3.689  1.00  0.00    -0.248 NA
ATOM     73  C   UNL     1       9.124  18.206   1.707  1.00  0.00    -0.034 C 
ATOM     74  C   UNL     1       4.103  18.453   1.546  1.00  0.00    -0.036 A 
ATOM     75  N   UNL     1       5.090  18.925   3.496  1.00  0.00    -0.354 N 
ATOM     76  C   UNL     1       9.387  18.689   3.926  1.00  0.00     0.074 A 
ATOM     77  C   UNL     1      10.011  18.280   2.687  1.00  0.00    -0.034 C 
ATOM     78  H   UNL     1       9.275  18.012   0.705  1.00  0.00     0.065 H 
ATOM     79  C   UNL     1       3.134  18.754   2.425  1.00  0.00    -0.036 A 
ATOM     80  H   UNL     1       3.955  18.182   0.562  1.00  0.00     0.065 H 
ATOM     81  C   UNL     1       3.740  19.041   3.722  1.00  0.00     0.049 A 
ATOM     82  H   UNL     1       5.768  19.079   4.193  1.00  0.00     0.167 HD
ATOM     83  C   UNL     1      10.061  18.968   5.067  1.00  0.00     0.037 A 
ATOM     84  H   UNL     1      11.017  18.074   2.580  1.00  0.00     0.065 H 
ATOM     85  H   UNL     1       2.124  18.777   2.218  1.00  0.00     0.065 H 
ATOM     86  C   UNL     1       3.066  19.335   4.850  1.00  0.00     0.037 A 
ATOM     87  C   UNL     1       9.434  19.389   6.293  1.00  0.00     0.049 A 
ATOM     88  C   UNL     1       3.839  19.616   6.112  1.00  0.00     0.074 A 
ATOM     89  C   UNL     1      10.031  19.747   7.488  1.00  0.00    -0.036 A 
ATOM     90  N   UNL     1       8.064  19.499   6.482  1.00  0.00    -0.354 N 
ATOM     91  N   UNL     1       5.136  19.620   6.306  1.00  0.00    -0.248 NA
ATOM     92  C   UNL     1       3.053  19.940   7.310  1.00  0.00    -0.034 C 
ATOM     93  C   UNL     1       9.022  20.013   8.419  1.00  0.00    -0.036 A 
ATOM     94  H   UNL     1      11.047  19.809   7.663  1.00  0.00     0.065 H 
ATOM     95  C   UNL     1       7.796  19.890   7.785  1.00  0.00     0.049 A 
ATOM     96  H   UNL     1       7.382  19.325   5.794  1.00  0.00     0.167 HD
ATOM     97  C   UNL     1       5.322  19.979   7.634  1.00  0.00     0.074 A 
ATOM     98  C   UNL     1       4.005  20.200   8.194  1.00  0.00    -0.034 C 
ATOM     99  H   UNL     1       2.029  19.961   7.431  1.00  0.00     0.065 H 
ATOM    100  H   UNL     1       9.166  20.259   9.411  1.00  0.00     0.065 H 
ATOM    101  C   UNL     1       6.480  20.114   8.328  1.00  0.00     0.037 A 
ATOM    102  H   UNL     1       3.831  20.519   9.160  1.00  0.00     0.065 H 
BRANCH  83 103
ATOM    103  C   UNL     1      11.557  18.825   5.045  1.00  0.00     0.064 A 
ATOM    104  C   UNL     1      12.372  19.685   4.292  1.00  0.00     0.173 A 
ATOM    105  C   UNL     1      12.188  17.838   5.818  1.00  0.00     0.173 A 
ATOM    106  F   UNL     1      11.821  20.640   3.527  1.00  0.00    -0.203 F 
ATOM    107  C   UNL     1      13.757  19.541   4.287  1.00  0.00     0.198 A 
ATOM    108  C   UNL     1      13.576  17.721   5.840  1.00  0.00     0.198 A 
ATOM    109  F   UNL     1      11.460  16.992   6.563  1.00  0.00    -0.203 F 
ATOM    110  F   UNL     1      14.509  20.339   3.516  1.00  0.00    -0.200 F 
ATOM    111  C   UNL     1      14.358  18.566   5.067  1.00  0.00     0.200 A 
ATOM    112  F   UNL     1      14.156  16.787   6.607  1.00  0.00    -0.200 F 
ATOM    113  F   UNL     1      15.692  18.434   5.069  1.00  0.00    -0.200 F 
ENDBRANCH  83 103
BRANCH  86 114
ATOM    114  C   UNL     1       1.580  19.395   4.837  1.00  0.00     0.064 A 
ATOM    115  C   UNL     1       0.905  20.609   5.029  1.00  0.00     0.173 A 
ATOM    116  C   UNL     1       0.805  18.242   4.645  1.00  0.00     0.173 A 
ATOM    117  F   UNL     1       1.600  21.737   5.236  1.00  0.00    -0.203 F 
ATOM    118  C   UNL     1      -0.487  20.662   5.057  1.00  0.00     0.198 A 
ATOM    119  C   UNL     1      -0.587  18.302   4.639  1.00  0.00     0.198 A 
ATOM    120  F   UNL     1       1.400  17.056   4.450  1.00  0.00    -0.203 F 
ATOM    121  F   UNL     1      -1.106  21.826   5.298  1.00  0.00    -0.200 F 
ATOM    122  C   UNL     1      -1.232  19.510   4.856  1.00  0.00     0.200 A 
ATOM    123  F   UNL     1      -1.302  17.189   4.426  1.00  0.00    -0.200 F 
ATOM    124  F   UNL     1      -2.571  19.562   4.880  1.00  0.00    -0.200 F 
ENDBRANCH  86 114
BRANCH 101 125
ATOM    125  C   UNL     1       6.380  20.563   9.758  1.00  0.00     0.064 A 
ATOM    126  C   UNL     1       5.853  19.735  10.761  1.00  0.00     0.173 A 
ATOM    127  C   UNL     1       6.857  21.828  10.137  1.00  0.00     0.173 A 
ATOM    128  F   UNL     1       5.371  18.522  10.450  1.00  0.00    -0.203 F 
ATOM    129  C   UNL     1       5.779  20.169  12.082  1.00  0.00     0.198 A 
ATOM    130  C   UNL     1       6.815  22.243  11.465  1.00  0.00     0.198 A 
ATOM    131  F   UNL     1       7.379  22.657   9.221  1.00  0.00    -0.203 F 
ATOM    132  F   UNL     1       5.220  19.382  13.012  1.00  0.00    -0.200 F 
ATOM    133  C   UNL     1       6.268  21.418  12.434  1.00  0.00     0.200 A 
ATOM    134  F   UNL     1       7.306  23.443  11.806  1.00  0.00    -0.200 F 
ATOM    135  F   UNL     1       6.205  21.828  13.708  1.00  0.00    -0.200 F 
ENDBRANCH 101 125
ENDBRANCH  66  69
ENDBRANCH  56  59
ENDBRANCH  52  55
ENDBRANCH  49  52
ENDBRANCH  46  49
ENDBRANCH   1  46
TORSDOF 17
