REMARK SMILES O=C(NCCCCCCNC(=O)c1ccccc1/N=C/c1coc2ccccc2c1=O)c1ccc(-c2c3nc(c(-c4c(F)c(F)c(F)c(F)c4F)c4ccc([nH]4)c(-c4c(F)c(F)c(F)c(F)c4F)c4nc(c(-c5c(F)c(F)c(F)c(F)c5F)c5ccc2[nH]5)C=C4)C=C3)cc1
REMARK SMILES IDX 6 1 5 4 4 7 3 10 1 11 2 12 32 14 33 15 94 16 34 17 93 19
REMARK SMILES IDX 35 21 36 24 37 25 87 26 38 27 92 28 86 29 88 30 39 31 91 32
REMARK SMILES IDX 85 34 84 36 40 38 72 41 52 42 71 43 53 44 56 45 70 46 89 47
REMARK SMILES IDX 54 48 55 50 69 52 90 53 57 56 41 58 42 59 50 60 43 61 44 62
REMARK SMILES IDX 48 63 51 64 45 65 46 66 49 67 47 68 73 69 74 70 82 71 75 72
REMARK SMILES IDX 76 73 80 74 83 75 77 76 78 77 81 78 79 79 58 80 59 81 67 82
REMARK SMILES IDX 60 83 61 84 65 85 68 86 62 87 63 88 66 89 64 90 7 91 8 94
REMARK SMILES IDX 9 97 10 100 11 101 12 103 13 104 14 105 18 106 15 107 17 109
REMARK SMILES IDX 16 110 19 114 20 115 21 117 22 118 30 119 23 120 29 122
REMARK SMILES IDX 31 123 24 124 28 125 25 126 27 127 26 129
REMARK H PARENT 6 2 6 3 5 5 5 6 4 8 4 9 3 13 33 18 94 20 34 22 93 23 92 33
REMARK H PARENT 86 35 88 37 91 39 85 40 53 49 56 51 89 54 54 55 90 57 7 92
REMARK H PARENT 7 93 8 95 8 96 9 98 9 99 10 102 14 108 15 111 17 112 16 113
REMARK H PARENT 20 116 22 121 28 128 25 130 27 131 26 132
REMARK Flexibility Score: inf
ROOT
ATOM      1  C   UNL     1       4.126  -0.017  -4.072  1.00  0.00    -0.052 C 
ATOM      2  H   UNL     1       3.060   0.007  -3.981  1.00  0.00     0.027 H 
ATOM      3  H   UNL     1       4.481  -0.649  -4.859  1.00  0.00     0.027 H 
ENDROOT
BRANCH   1   4
ATOM      4  C   UNL     1       4.693  -0.604  -2.780  1.00  0.00    -0.036 C 
ATOM      5  H   UNL     1       4.286  -1.587  -2.662  1.00  0.00     0.028 H 
ATOM      6  H   UNL     1       5.756  -0.577  -2.898  1.00  0.00     0.028 H 
BRANCH   4   7
ATOM      7  C   UNL     1       4.407   0.173  -1.502  1.00  0.00     0.018 C 
ATOM      8  H   UNL     1       4.911  -0.311  -0.691  1.00  0.00     0.049 H 
ATOM      9  H   UNL     1       4.756   1.173  -1.656  1.00  0.00     0.049 H 
BRANCH   7  10
ATOM     10  N   UNL     1       2.994   0.257  -1.181  1.00  0.00    -0.352 N 
ATOM     11  O   UNL     1       1.114   0.098   0.043  1.00  0.00    -0.269 OA
ATOM     12  C   UNL     1       2.345   0.079   0.016  1.00  0.00     0.251 C 
ATOM     13  H   UNL     1       2.408   0.477  -1.941  1.00  0.00     0.163 HD
BRANCH  12  14
ATOM     14  C   UNL     1       3.091  -0.160   1.276  1.00  0.00     0.039 A 
ATOM     15  C   UNL     1       4.271   0.521   1.583  1.00  0.00    -0.049 A 
ATOM     16  C   UNL     1       2.552  -1.056   2.210  1.00  0.00    -0.049 A 
ATOM     17  C   UNL     1       4.964   0.227   2.758  1.00  0.00    -0.053 A 
ATOM     18  H   UNL     1       4.632   1.243   0.940  1.00  0.00     0.063 H 
ATOM     19  C   UNL     1       3.214  -1.306   3.417  1.00  0.00    -0.053 A 
ATOM     20  H   UNL     1       1.661  -1.534   2.005  1.00  0.00     0.063 H 
ATOM     21  C   UNL     1       4.441  -0.684   3.689  1.00  0.00    -0.014 A 
ATOM     22  H   UNL     1       5.871   0.684   2.944  1.00  0.00     0.063 H 
ATOM     23  H   UNL     1       2.799  -1.949   4.108  1.00  0.00     0.063 H 
BRANCH  21  24
ATOM     24  C   UNL     1       5.168  -0.933   4.959  1.00  0.00     0.031 A 
ATOM     25  C   UNL     1       5.838  -2.251   5.225  1.00  0.00     0.074 A 
ATOM     26  C   UNL     1       5.253   0.057   5.868  1.00  0.00     0.049 A 
ATOM     27  N   UNL     1       6.552  -2.618   6.261  1.00  0.00    -0.248 NA
ATOM     28  C   UNL     1       5.684  -3.295   4.202  1.00  0.00    -0.034 C 
ATOM     29  C   UNL     1       4.629   1.374   5.739  1.00  0.00    -0.036 A 
ATOM     30  N   UNL     1       5.919   0.118   7.066  1.00  0.00    -0.354 N 
ATOM     31  C   UNL     1       6.914  -3.937   6.025  1.00  0.00     0.074 A 
ATOM     32  C   UNL     1       6.334  -4.312   4.752  1.00  0.00    -0.034 C 
ATOM     33  H   UNL     1       5.197  -3.249   3.293  1.00  0.00     0.065 H 
ATOM     34  C   UNL     1       4.983   2.131   6.789  1.00  0.00    -0.036 A 
ATOM     35  H   UNL     1       4.014   1.672   4.965  1.00  0.00     0.065 H 
ATOM     36  C   UNL     1       5.833   1.344   7.677  1.00  0.00     0.049 A 
ATOM     37  H   UNL     1       6.411  -0.643   7.450  1.00  0.00     0.167 HD
ATOM     38  C   UNL     1       7.665  -4.757   6.798  1.00  0.00     0.037 A 
ATOM     39  H   UNL     1       6.417  -5.250   4.328  1.00  0.00     0.065 H 
ATOM     40  H   UNL     1       4.700   3.112   6.943  1.00  0.00     0.065 H 
ATOM     41  C   UNL     1       6.386   1.789   8.820  1.00  0.00     0.037 A 
ATOM     42  C   UNL     1       8.266  -4.385   8.051  1.00  0.00     0.049 A 
ATOM     43  C   UNL     1       7.247   0.872   9.635  1.00  0.00     0.074 A 
ATOM     44  C   UNL     1       9.054  -5.151   8.895  1.00  0.00    -0.036 A 
ATOM     45  N   UNL     1       8.154  -3.134   8.637  1.00  0.00    -0.354 N 
ATOM     46  N   UNL     1       7.585  -0.370   9.396  1.00  0.00    -0.248 NA
ATOM     47  C   UNL     1       7.800   1.419  10.883  1.00  0.00    -0.034 C 
ATOM     48  C   UNL     1       9.408  -4.366   9.998  1.00  0.00    -0.036 A 
ATOM     49  H   UNL     1       9.331  -6.133   8.737  1.00  0.00     0.065 H 
ATOM     50  C   UNL     1       8.855  -3.107   9.832  1.00  0.00     0.049 A 
ATOM     51  H   UNL     1       7.649  -2.377   8.261  1.00  0.00     0.167 HD
ATOM     52  C   UNL     1       8.383  -0.757  10.461  1.00  0.00     0.074 A 
ATOM     53  C   UNL     1       8.501   0.389  11.338  1.00  0.00    -0.034 C 
ATOM     54  H   UNL     1       7.675   2.356  11.296  1.00  0.00     0.065 H 
ATOM     55  H   UNL     1       9.983  -4.673  10.799  1.00  0.00     0.065 H 
ATOM     56  C   UNL     1       8.958  -1.961  10.694  1.00  0.00     0.037 A 
ATOM     57  H   UNL     1       9.059   0.403  12.207  1.00  0.00     0.065 H 
BRANCH  38  58
ATOM     58  C   UNL     1       7.880  -6.156   6.309  1.00  0.00     0.064 A 
ATOM     59  C   UNL     1       8.840  -6.444   5.329  1.00  0.00     0.173 A 
ATOM     60  C   UNL     1       7.156  -7.222   6.862  1.00  0.00     0.173 A 
ATOM     61  F   UNL     1       9.549  -5.454   4.766  1.00  0.00    -0.203 F 
ATOM     62  C   UNL     1       9.062  -7.754   4.913  1.00  0.00     0.198 A 
ATOM     63  C   UNL     1       7.390  -8.532   6.452  1.00  0.00     0.198 A 
ATOM     64  F   UNL     1       6.230  -6.993   7.804  1.00  0.00    -0.203 F 
ATOM     65  F   UNL     1       9.971  -8.008   3.961  1.00  0.00    -0.200 F 
ATOM     66  C   UNL     1       8.341  -8.796   5.478  1.00  0.00     0.200 A 
ATOM     67  F   UNL     1       6.697  -9.539   7.002  1.00  0.00    -0.200 F 
ATOM     68  F   UNL     1       8.561 -10.057   5.080  1.00  0.00    -0.200 F 
ENDBRANCH  38  58
BRANCH  41  69
ATOM     69  C   UNL     1       6.158   3.192   9.239  1.00  0.00     0.064 A 
ATOM     70  C   UNL     1       7.155   4.159   9.062  1.00  0.00     0.173 A 
ATOM     71  C   UNL     1       4.935   3.595   9.791  1.00  0.00     0.173 A 
ATOM     72  F   UNL     1       8.345   3.809   8.553  1.00  0.00    -0.203 F 
ATOM     73  C   UNL     1       6.936   5.486   9.426  1.00  0.00     0.198 A 
ATOM     74  C   UNL     1       4.713   4.925  10.141  1.00  0.00     0.198 A 
ATOM     75  F   UNL     1       3.954   2.700   9.976  1.00  0.00    -0.203 F 
ATOM     76  F   UNL     1       7.911   6.391   9.265  1.00  0.00    -0.200 F 
ATOM     77  C   UNL     1       5.714   5.868   9.960  1.00  0.00     0.200 A 
ATOM     78  F   UNL     1       3.530   5.293  10.650  1.00  0.00    -0.200 F 
ATOM     79  F   UNL     1       5.503   7.146  10.303  1.00  0.00    -0.200 F 
ENDBRANCH  41  69
BRANCH  56  80
ATOM     80  C   UNL     1       9.759  -2.097  11.951  1.00  0.00     0.064 A 
ATOM     81  C   UNL     1       9.132  -2.315  13.185  1.00  0.00     0.173 A 
ATOM     82  C   UNL     1      11.158  -2.034  11.918  1.00  0.00     0.173 A 
ATOM     83  F   UNL     1       7.794  -2.366  13.263  1.00  0.00    -0.203 F 
ATOM     84  C   UNL     1       9.881  -2.452  14.350  1.00  0.00     0.198 A 
ATOM     85  C   UNL     1      11.905  -2.183  13.083  1.00  0.00     0.198 A 
ATOM     86  F   UNL     1      11.799  -1.824  10.758  1.00  0.00    -0.203 F 
ATOM     87  F   UNL     1       9.263  -2.632  15.525  1.00  0.00    -0.200 F 
ATOM     88  C   UNL     1      11.266  -2.389  14.298  1.00  0.00     0.200 A 
ATOM     89  F   UNL     1      13.242  -2.122  13.033  1.00  0.00    -0.200 F 
ATOM     90  F   UNL     1      11.986  -2.518  15.421  1.00  0.00    -0.200 F 
ENDBRANCH  56  80
ENDBRANCH  21  24
ENDBRANCH  12  14
ENDBRANCH   7  10
ENDBRANCH   4   7
ENDBRANCH   1   4
BRANCH   1  91
ATOM     91  C   UNL     1       4.599   1.394  -4.427  1.00  0.00    -0.052 C 
ATOM     92  H   UNL     1       4.248   2.056  -3.663  1.00  0.00     0.027 H 
ATOM     93  H   UNL     1       4.201   1.590  -5.401  1.00  0.00     0.027 H 
BRANCH  91  94
ATOM     94  C   UNL     1       6.115   1.595  -4.559  1.00  0.00    -0.036 C 
ATOM     95  H   UNL     1       6.540   1.519  -3.580  1.00  0.00     0.028 H 
ATOM     96  H   UNL     1       6.237   2.553  -5.020  1.00  0.00     0.028 H 
BRANCH  94  97
ATOM     97  C   UNL     1       6.854   0.609  -5.465  1.00  0.00     0.018 C 
ATOM     98  H   UNL     1       6.819  -0.361  -5.015  1.00  0.00     0.049 H 
ATOM     99  H   UNL     1       7.858   0.962  -5.573  1.00  0.00     0.049 H 
BRANCH  97 100
ATOM    100  N   UNL     1       6.278   0.522  -6.795  1.00  0.00    -0.352 N 
ATOM    101  C   UNL     1       6.901   0.270  -7.987  1.00  0.00     0.253 C 
ATOM    102  H   UNL     1       5.305   0.665  -6.846  1.00  0.00     0.163 HD
ATOM    103  O   UNL     1       6.240   0.159  -9.018  1.00  0.00    -0.269 OA
BRANCH 101 104
ATOM    104  C   UNL     1       8.364   0.158  -8.072  1.00  0.00     0.065 A 
ATOM    105  C   UNL     1       9.036   1.146  -8.810  1.00  0.00    -0.047 A 
ATOM    106  C   UNL     1       9.075  -0.906  -7.510  1.00  0.00     0.076 A 
ATOM    107  C   UNL     1      10.423   1.092  -8.964  1.00  0.00    -0.061 A 
ATOM    108  H   UNL     1       8.502   1.916  -9.241  1.00  0.00     0.063 H 
ATOM    109  C   UNL     1      10.468  -0.948  -7.689  1.00  0.00    -0.036 A 
ATOM    110  C   UNL     1      11.140   0.038  -8.409  1.00  0.00    -0.060 A 
ATOM    111  H   UNL     1      10.914   1.833  -9.489  1.00  0.00     0.062 H 
ATOM    112  H   UNL     1      11.006  -1.727  -7.278  1.00  0.00     0.065 H 
ATOM    113  H   UNL     1      12.164  -0.013  -8.528  1.00  0.00     0.062 H 
BRANCH 106 114
ATOM    114  N   UNL     1       8.573  -1.861  -6.632  1.00  0.00    -0.255 NA
ATOM    115  C   UNL     1       7.605  -2.672  -6.911  1.00  0.00     0.042 C 
ATOM    116  H   UNL     1       7.037  -2.588  -7.769  1.00  0.00     0.085 H 
BRANCH 115 117
ATOM    117  C   UNL     1       7.376  -3.732  -5.900  1.00  0.00     0.076 A 
ATOM    118  C   UNL     1       8.002  -4.867  -6.263  1.00  0.00     0.104 A 
ATOM    119  C   UNL     1       7.545  -3.377  -4.467  1.00  0.00     0.201 A 
ATOM    120  O   UNL     1       8.862  -5.569  -5.423  1.00  0.00    -0.463 OA
ATOM    121  H   UNL     1       7.836  -5.237  -7.213  1.00  0.00     0.105 H 
ATOM    122  C   UNL     1       8.901  -3.647  -3.976  1.00  0.00     0.065 A 
ATOM    123  O   UNL     1       6.686  -2.821  -3.802  1.00  0.00    -0.288 OA
ATOM    124  C   UNL     1       9.540  -4.756  -4.534  1.00  0.00     0.137 A 
ATOM    125  C   UNL     1       9.582  -2.735  -3.174  1.00  0.00    -0.047 A 
ATOM    126  C   UNL     1      10.887  -4.975  -4.281  1.00  0.00    -0.019 A 
ATOM    127  C   UNL     1      10.943  -2.933  -2.953  1.00  0.00    -0.061 A 
ATOM    128  H   UNL     1       9.089  -1.931  -2.753  1.00  0.00     0.063 H 
ATOM    129  C   UNL     1      11.592  -4.047  -3.504  1.00  0.00    -0.059 A 
ATOM    130  H   UNL     1      11.363  -5.809  -4.660  1.00  0.00     0.066 H 
ATOM    131  H   UNL     1      11.476  -2.258  -2.382  1.00  0.00     0.062 H 
ATOM    132  H   UNL     1      12.601  -4.185  -3.334  1.00  0.00     0.062 H 
ENDBRANCH 115 117
ENDBRANCH 106 114
ENDBRANCH 101 104
ENDBRANCH  97 100
ENDBRANCH  94  97
ENDBRANCH  91  94
ENDBRANCH   1  91
TORSDOF 15
