REMARK SMILES Cc1ccc(Nc2c(C)cccc2Cl)c(CC(=O)NCCCCCCNC(=O)c2ccc(-c3c4nc(c(-c5c(F)c(F)c(F)c(F)c5F)c5ccc([nH]5)c(-c5c(F)c(F)c(F)c(F)c5F)c5nc(c(-c6c(F)c(F)c(F)c(F)c6F)c6ccc3[nH]6)C=C5)C=C4)cc2)c1
REMARK SMILES IDX 21 1 20 4 19 7 17 8 18 9 16 11 15 14 2 15 3 16 92 17 4 18
REMARK SMILES IDX 5 21 1 23 6 27 7 29 8 30 13 31 10 32 12 33 14 34 11 35 9 39
REMARK SMILES IDX 22 43 23 46 24 49 25 52 26 55 27 56 28 58 29 59 30 60 91 61
REMARK SMILES IDX 31 62 90 64 32 66 33 69 34 70 84 71 35 72 89 73 83 74 85 75
REMARK SMILES IDX 36 76 88 77 82 79 81 81 37 83 69 86 49 87 68 88 50 89 53 90
REMARK SMILES IDX 67 91 86 92 51 93 52 95 66 97 87 98 54 101 38 103 39 104
REMARK SMILES IDX 47 105 40 106 41 107 45 108 48 109 42 110 43 111 46 112
REMARK SMILES IDX 44 113 70 114 71 115 79 116 72 117 73 118 77 119 80 120
REMARK SMILES IDX 74 121 75 122 78 123 76 124 55 125 56 126 64 127 57 128
REMARK SMILES IDX 58 129 62 130 65 131 59 132 60 133 63 134 61 135
REMARK H PARENT 21 2 21 3 20 5 20 6 19 10 16 12 16 13 3 19 92 20 4 22 1 24
REMARK H PARENT 1 25 1 26 6 28 10 36 12 37 11 38 9 40 9 41 9 42 22 44 22 45
REMARK H PARENT 23 47 23 48 24 50 24 51 25 53 25 54 26 57 30 63 91 65 31 67
REMARK H PARENT 90 68 89 78 83 80 85 82 88 84 82 85 50 94 53 96 86 99 51 100
REMARK H PARENT 87 102
REMARK Flexibility Score: inf
ROOT
ATOM      1  C   UNL     1      -0.563   1.561  -3.479  1.00  0.00    -0.036 C 
ATOM      2  H   UNL     1      -0.937   0.726  -2.925  1.00  0.00     0.028 H 
ATOM      3  H   UNL     1       0.493   1.526  -3.644  1.00  0.00     0.028 H 
ENDROOT
BRANCH   1   4
ATOM      4  C   UNL     1      -0.824   2.828  -2.660  1.00  0.00     0.017 C 
ATOM      5  H   UNL     1      -0.186   2.821  -1.801  1.00  0.00     0.049 H 
ATOM      6  H   UNL     1      -0.623   3.673  -3.285  1.00  0.00     0.049 H 
BRANCH   4   7
ATOM      7  N   UNL     1      -2.200   2.917  -2.220  1.00  0.00    -0.356 N 
ATOM      8  C   UNL     1      -2.716   2.692  -0.979  1.00  0.00     0.224 C 
ATOM      9  O   UNL     1      -3.942   2.695  -0.843  1.00  0.00    -0.275 OA
ATOM     10  H   UNL     1      -2.852   3.174  -2.911  1.00  0.00     0.163 HD
BRANCH   8  11
ATOM     11  C   UNL     1      -1.806   2.430   0.208  1.00  0.00     0.054 C 
ATOM     12  H   UNL     1      -1.076   3.211   0.252  1.00  0.00     0.042 H 
ATOM     13  H   UNL     1      -2.431   2.401   1.077  1.00  0.00     0.042 H 
BRANCH  11  14
ATOM     14  C   UNL     1      -1.080   1.103   0.146  1.00  0.00    -0.015 A 
ATOM     15  C   UNL     1       1.083  -0.050   0.117  1.00  0.00    -0.051 A 
ATOM     16  C   UNL     1       0.415  -1.258  -0.064  1.00  0.00    -0.057 A 
ATOM     17  C   UNL     1       0.329   1.119   0.243  1.00  0.00    -0.054 A 
ATOM     18  C   UNL     1      -0.981  -1.292  -0.115  1.00  0.00    -0.038 A 
ATOM     19  H   UNL     1       0.954  -2.133  -0.161  1.00  0.00     0.063 H 
ATOM     20  H   UNL     1       0.812   2.015   0.412  1.00  0.00     0.063 H 
ATOM     21  C   UNL     1      -1.756  -0.125  -0.014  1.00  0.00     0.042 A 
ATOM     22  H   UNL     1      -1.456  -2.201  -0.230  1.00  0.00     0.064 H 
BRANCH  15  23
ATOM     23  C   UNL     1       2.580  -0.017   0.177  1.00  0.00    -0.040 C 
ATOM     24  H   UNL     1       2.964  -1.008   0.060  1.00  0.00     0.028 H 
ATOM     25  H   UNL     1       2.890   0.376   1.123  1.00  0.00     0.028 H 
ATOM     26  H   UNL     1       2.956   0.606  -0.608  1.00  0.00     0.028 H 
ENDBRANCH  15  23
BRANCH  21  27
ATOM     27  N   UNL     1      -3.166  -0.189   0.001  1.00  0.00    -0.354 N 
ATOM     28  H   UNL     1      -3.630   0.680  -0.018  1.00  0.00     0.167 HD
BRANCH  27  29
ATOM     29  C   UNL     1      -4.008  -1.327   0.040  1.00  0.00     0.060 A 
ATOM     30  C   UNL     1      -3.974  -2.242   1.114  1.00  0.00    -0.026 A 
ATOM     31  C   UNL     1      -4.857  -1.600  -1.055  1.00  0.00     0.064 A 
ATOM     32  C   UNL     1      -4.739  -3.420   1.042  1.00  0.00    -0.057 A 
ATOM     33  C   UNL     1      -5.626  -2.765  -1.101  1.00  0.00    -0.041 A 
ATOM     34  Cl  UNL     1      -4.951  -0.515  -2.403  1.00  0.00    -0.082 Cl
ATOM     35  C   UNL     1      -5.557  -3.681  -0.057  1.00  0.00    -0.060 A 
ATOM     36  H   UNL     1      -4.694  -4.103   1.815  1.00  0.00     0.063 H 
ATOM     37  H   UNL     1      -6.244  -2.945  -1.908  1.00  0.00     0.064 H 
ATOM     38  H   UNL     1      -6.110  -4.551  -0.095  1.00  0.00     0.062 H 
BRANCH  30  39
ATOM     39  C   UNL     1      -3.152  -2.011   2.354  1.00  0.00    -0.038 C 
ATOM     40  H   UNL     1      -2.628  -1.082   2.266  1.00  0.00     0.028 H 
ATOM     41  H   UNL     1      -2.447  -2.808   2.468  1.00  0.00     0.028 H 
ATOM     42  H   UNL     1      -3.795  -1.978   3.208  1.00  0.00     0.028 H 
ENDBRANCH  30  39
ENDBRANCH  27  29
ENDBRANCH  21  27
ENDBRANCH  11  14
ENDBRANCH   8  11
ENDBRANCH   4   7
ENDBRANCH   1   4
BRANCH   1  43
ATOM     43  C   UNL     1      -1.214   1.538  -4.871  1.00  0.00    -0.052 C 
ATOM     44  H   UNL     1      -2.270   1.433  -4.735  1.00  0.00     0.027 H 
ATOM     45  H   UNL     1      -0.750   0.723  -5.387  1.00  0.00     0.027 H 
BRANCH  43  46
ATOM     46  C   UNL     1      -0.977   2.769  -5.760  1.00  0.00    -0.052 C 
ATOM     47  H   UNL     1      -1.561   3.575  -5.365  1.00  0.00     0.027 H 
ATOM     48  H   UNL     1      -1.256   2.470  -6.748  1.00  0.00     0.027 H 
BRANCH  46  49
ATOM     49  C   UNL     1       0.471   3.250  -5.867  1.00  0.00    -0.036 C 
ATOM     50  H   UNL     1       0.871   3.331  -4.877  1.00  0.00     0.028 H 
ATOM     51  H   UNL     1       0.445   4.186  -6.384  1.00  0.00     0.028 H 
BRANCH  49  52
ATOM     52  C   UNL     1       1.381   2.334  -6.674  1.00  0.00     0.018 C 
ATOM     53  H   UNL     1       0.965   1.348  -6.661  1.00  0.00     0.049 H 
ATOM     54  H   UNL     1       2.349   2.374  -6.219  1.00  0.00     0.049 H 
BRANCH  52  55
ATOM     55  N   UNL     1       1.545   2.746  -8.060  1.00  0.00    -0.352 N 
ATOM     56  C   UNL     1       2.269   2.167  -9.090  1.00  0.00     0.251 C 
ATOM     57  H   UNL     1       1.062   3.568  -8.306  1.00  0.00     0.163 HD
ATOM     58  O   UNL     1       2.341   2.724 -10.168  1.00  0.00    -0.269 OA
BRANCH  56  59
ATOM     59  C   UNL     1       2.825   0.797  -8.926  1.00  0.00     0.039 A 
ATOM     60  C   UNL     1       2.657  -0.096  -9.994  1.00  0.00    -0.049 A 
ATOM     61  C   UNL     1       3.296   0.333  -7.703  1.00  0.00    -0.049 A 
ATOM     62  C   UNL     1       2.689  -1.467  -9.752  1.00  0.00    -0.053 A 
ATOM     63  H   UNL     1       2.511   0.260 -10.951  1.00  0.00     0.063 H 
ATOM     64  C   UNL     1       3.233  -1.019  -7.436  1.00  0.00    -0.053 A 
ATOM     65  H   UNL     1       3.687   0.988  -7.008  1.00  0.00     0.063 H 
ATOM     66  C   UNL     1       2.839  -1.908  -8.441  1.00  0.00    -0.014 A 
ATOM     67  H   UNL     1       2.604  -2.141 -10.529  1.00  0.00     0.063 H 
ATOM     68  H   UNL     1       3.476  -1.374  -6.498  1.00  0.00     0.063 H 
BRANCH  66  69
ATOM     69  C   UNL     1       2.423  -3.227  -7.980  1.00  0.00     0.031 A 
ATOM     70  C   UNL     1       3.412  -4.218  -7.517  1.00  0.00     0.074 A 
ATOM     71  C   UNL     1       1.099  -3.450  -7.808  1.00  0.00     0.049 A 
ATOM     72  N   UNL     1       3.115  -5.437  -7.217  1.00  0.00    -0.248 NA
ATOM     73  C   UNL     1       4.842  -3.938  -7.417  1.00  0.00    -0.034 C 
ATOM     74  C   UNL     1       0.462  -4.493  -7.007  1.00  0.00    -0.036 A 
ATOM     75  N   UNL     1       0.035  -2.874  -8.528  1.00  0.00    -0.354 N 
ATOM     76  C   UNL     1       4.213  -5.999  -6.617  1.00  0.00     0.074 A 
ATOM     77  C   UNL     1       5.291  -5.083  -6.891  1.00  0.00    -0.034 C 
ATOM     78  H   UNL     1       5.364  -3.088  -7.681  1.00  0.00     0.065 H 
ATOM     79  C   UNL     1      -0.776  -4.705  -7.479  1.00  0.00    -0.036 A 
ATOM     80  H   UNL     1       0.894  -4.987  -6.210  1.00  0.00     0.065 H 
ATOM     81  C   UNL     1      -0.905  -3.922  -8.694  1.00  0.00     0.049 A 
ATOM     82  H   UNL     1      -0.040  -1.945  -8.847  1.00  0.00     0.167 HD
ATOM     83  C   UNL     1       4.033  -7.113  -5.854  1.00  0.00     0.037 A 
ATOM     84  H   UNL     1       6.286  -5.286  -6.704  1.00  0.00     0.065 H 
ATOM     85  H   UNL     1      -1.499  -5.309  -7.057  1.00  0.00     0.065 H 
ATOM     86  C   UNL     1      -1.154  -4.441  -9.933  1.00  0.00     0.037 A 
ATOM     87  C   UNL     1       2.740  -7.739  -6.141  1.00  0.00     0.049 A 
ATOM     88  C   UNL     1      -0.809  -5.910 -10.093  1.00  0.00     0.074 A 
ATOM     89  C   UNL     1       1.530  -7.868  -5.482  1.00  0.00    -0.036 A 
ATOM     90  N   UNL     1       2.515  -8.171  -7.438  1.00  0.00    -0.354 N 
ATOM     91  N   UNL     1      -0.238  -6.640  -9.175  1.00  0.00    -0.248 NA
ATOM     92  C   UNL     1      -0.989  -6.639 -11.350  1.00  0.00    -0.034 C 
ATOM     93  C   UNL     1       0.558  -8.308  -6.436  1.00  0.00    -0.036 A 
ATOM     94  H   UNL     1       1.359  -7.680  -4.482  1.00  0.00     0.065 H 
ATOM     95  C   UNL     1       1.189  -8.476  -7.657  1.00  0.00     0.049 A 
ATOM     96  H   UNL     1       3.219  -8.251  -8.122  1.00  0.00     0.167 HD
ATOM     97  C   UNL     1       0.078  -7.862  -9.701  1.00  0.00     0.074 A 
ATOM     98  C   UNL     1      -0.416  -7.821 -11.064  1.00  0.00    -0.034 C 
ATOM     99  H   UNL     1      -1.437  -6.328 -12.226  1.00  0.00     0.065 H 
ATOM    100  H   UNL     1      -0.443  -8.472  -6.247  1.00  0.00     0.065 H 
ATOM    101  C   UNL     1       0.767  -8.811  -9.006  1.00  0.00     0.037 A 
ATOM    102  H   UNL     1      -0.338  -8.603 -11.732  1.00  0.00     0.065 H 
BRANCH  83 103
ATOM    103  C   UNL     1       4.963  -7.590  -4.758  1.00  0.00     0.064 A 
ATOM    104  C   UNL     1       4.678  -8.786  -4.061  1.00  0.00     0.173 A 
ATOM    105  C   UNL     1       6.066  -6.868  -4.253  1.00  0.00     0.173 A 
ATOM    106  F   UNL     1       3.651  -9.570  -4.417  1.00  0.00    -0.203 F 
ATOM    107  C   UNL     1       5.423  -9.207  -2.953  1.00  0.00     0.198 A 
ATOM    108  C   UNL     1       6.841  -7.318  -3.180  1.00  0.00     0.198 A 
ATOM    109  F   UNL     1       6.411  -5.665  -4.720  1.00  0.00    -0.203 F 
ATOM    110  F   UNL     1       5.064 -10.318  -2.294  1.00  0.00    -0.200 F 
ATOM    111  C   UNL     1       6.511  -8.479  -2.519  1.00  0.00     0.200 A 
ATOM    112  F   UNL     1       7.892  -6.590  -2.774  1.00  0.00    -0.200 F 
ATOM    113  F   UNL     1       7.224  -8.879  -1.458  1.00  0.00    -0.200 F 
ENDBRANCH  83 103
BRANCH  86 114
ATOM    114  C   UNL     1      -1.047  -3.423 -11.012  1.00  0.00     0.064 A 
ATOM    115  C   UNL     1      -1.916  -2.314 -10.978  1.00  0.00     0.173 A 
ATOM    116  C   UNL     1       0.092  -3.328 -11.819  1.00  0.00     0.173 A 
ATOM    117  F   UNL     1      -3.024  -2.354 -10.219  1.00  0.00    -0.203 F 
ATOM    118  C   UNL     1      -1.595  -1.123 -11.623  1.00  0.00     0.198 A 
ATOM    119  C   UNL     1       0.400  -2.139 -12.481  1.00  0.00     0.198 A 
ATOM    120  F   UNL     1       0.971  -4.339 -11.876  1.00  0.00    -0.203 F 
ATOM    121  F   UNL     1      -2.384  -0.049 -11.476  1.00  0.00    -0.200 F 
ATOM    122  C   UNL     1      -0.422  -1.029 -12.353  1.00  0.00     0.200 A 
ATOM    123  F   UNL     1       1.549  -2.039 -13.163  1.00  0.00    -0.200 F 
ATOM    124  F   UNL     1      -0.061   0.141 -12.898  1.00  0.00    -0.200 F 
ENDBRANCH  86 114
BRANCH 101 125
ATOM    125  C   UNL     1       1.110 -10.145  -9.592  1.00  0.00     0.064 A 
ATOM    126  C   UNL     1       0.137 -10.964 -10.184  1.00  0.00     0.173 A 
ATOM    127  C   UNL     1       2.405 -10.688  -9.475  1.00  0.00     0.173 A 
ATOM    128  F   UNL     1      -1.128 -10.537 -10.312  1.00  0.00    -0.203 F 
ATOM    129  C   UNL     1       0.446 -12.244 -10.648  1.00  0.00     0.198 A 
ATOM    130  C   UNL     1       2.699 -11.983  -9.894  1.00  0.00     0.198 A 
ATOM    131  F   UNL     1       3.418  -9.964  -8.974  1.00  0.00    -0.203 F 
ATOM    132  F   UNL     1      -0.499 -12.980 -11.247  1.00  0.00    -0.200 F 
ATOM    133  C   UNL     1       1.722 -12.758 -10.488  1.00  0.00     0.200 A 
ATOM    134  F   UNL     1       3.936 -12.473  -9.724  1.00  0.00    -0.200 F 
ATOM    135  F   UNL     1       2.010 -13.997 -10.911  1.00  0.00    -0.200 F 
ENDBRANCH 101 125
ENDBRANCH  66  69
ENDBRANCH  56  59
ENDBRANCH  52  55
ENDBRANCH  49  52
ENDBRANCH  46  49
ENDBRANCH  43  46
ENDBRANCH   1  43
TORSDOF 18
