REMARK SMILES CCCCCCOC(=O)Nc1cccc(-c2ccc([C@@H](C)C(=O)NCCCCCCNC(=O)c3ccc(-c4c5nc(c(-c6c(F)c(F)c(F)c(F)c6F)c6ccc([nH]6)c(-c6c(F)c(F)c(F)c(F)c6F)c6nc(c(-c7c(F)c(F)c(F)c(F)c7F)c7ccc4[nH]7)C=C6)C=C5)cc3)cc2F)c1
REMARK SMILES IDX 22 1 23 2 24 3 20 5 19 7 16 8 17 9 98 10 18 11 97 13 99 14
REMARK SMILES IDX 15 17 11 18 12 19 100 20 13 21 14 24 10 27 8 28 9 29 7 31
REMARK SMILES IDX 6 32 5 35 4 38 3 41 2 44 1 47 21 51 25 55 26 58 27 61 28 64
REMARK SMILES IDX 29 67 30 70 31 73 32 74 33 76 34 77 35 78 96 79 36 80 95 82
REMARK SMILES IDX 37 84 38 87 39 88 89 89 40 90 94 91 88 92 90 93 41 94 93 95
REMARK SMILES IDX 87 97 86 99 42 101 74 104 54 105 73 106 55 107 58 108 72 109
REMARK SMILES IDX 91 110 56 111 57 113 71 115 92 116 59 119 43 121 44 122
REMARK SMILES IDX 52 123 45 124 46 125 50 126 53 127 47 128 48 129 51 130
REMARK SMILES IDX 49 131 75 132 76 133 84 134 77 135 78 136 82 137 85 138
REMARK SMILES IDX 79 139 80 140 83 141 81 142 60 143 61 144 69 145 62 146
REMARK SMILES IDX 63 147 67 148 70 149 64 150 65 151 68 152 66 153
REMARK H PARENT 24 4 20 6 17 12 18 15 97 16 12 22 100 23 13 25 14 26 10 30
REMARK H PARENT 6 33 6 34 5 36 5 37 4 39 4 40 3 42 3 43 2 45 2 46 1 48 1 49
REMARK H PARENT 1 50 21 52 21 53 21 54 25 56 25 57 26 59 26 60 27 62 27 63
REMARK H PARENT 28 65 28 66 29 68 29 69 30 71 30 72 31 75 35 81 96 83 36 85
REMARK H PARENT 95 86 94 96 88 98 90 100 93 102 87 103 55 112 58 114 91 117
REMARK H PARENT 56 118 92 120
REMARK Flexibility Score: inf
ROOT
ATOM      1  C   UNL     1      -6.984  -1.921  -9.244  1.00  0.00     0.227 C 
ATOM      2  O   UNL     1      -6.841  -0.692  -9.247  1.00  0.00    -0.274 OA
ATOM      3  N   UNL     1      -7.866  -2.425  -8.339  1.00  0.00    -0.356 N 
ATOM      4  H   UNL     1      -8.363  -1.741  -7.835  1.00  0.00     0.163 HD
ENDROOT
BRANCH   1   5
ATOM      5  C   UNL     1      -6.197  -2.786 -10.240  1.00  0.00     0.060 C 
ATOM      6  H   UNL     1      -5.691  -2.097 -10.884  1.00  0.00     0.045 H 
BRANCH   5   7
ATOM      7  C   UNL     1      -5.055  -3.563  -9.604  1.00  0.00    -0.033 A 
ATOM      8  C   UNL     1      -2.898  -4.871  -8.259  1.00  0.00     0.018 A 
ATOM      9  C   UNL     1      -4.141  -5.496  -8.425  1.00  0.00    -0.051 A 
ATOM     10  C   UNL     1      -2.749  -3.599  -8.837  1.00  0.00     0.131 A 
ATOM     11  C   UNL     1      -5.188  -4.867  -9.112  1.00  0.00    -0.057 A 
ATOM     12  H   UNL     1      -4.288  -6.439  -8.033  1.00  0.00     0.063 H 
ATOM     13  C   UNL     1      -3.804  -2.946  -9.475  1.00  0.00    -0.022 A 
ATOM     14  F   UNL     1      -1.569  -2.960  -8.785  1.00  0.00    -0.206 F 
ATOM     15  H   UNL     1      -6.074  -5.375  -9.257  1.00  0.00     0.063 H 
ATOM     16  H   UNL     1      -3.662  -1.998  -9.856  1.00  0.00     0.066 H 
BRANCH   8  17
ATOM     17  C   UNL     1      -1.817  -5.514  -7.484  1.00  0.00    -0.013 A 
ATOM     18  C   UNL     1       0.052  -5.315  -5.913  1.00  0.00     0.045 A 
ATOM     19  C   UNL     1       0.335  -6.669  -6.058  1.00  0.00    -0.038 A 
ATOM     20  C   UNL     1      -1.020  -4.753  -6.615  1.00  0.00    -0.030 A 
ATOM     21  C   UNL     1      -0.481  -7.461  -6.864  1.00  0.00    -0.060 A 
ATOM     22  H   UNL     1       1.144  -7.085  -5.571  1.00  0.00     0.064 H 
ATOM     23  H   UNL     1      -1.230  -3.750  -6.490  1.00  0.00     0.065 H 
ATOM     24  C   UNL     1      -1.540  -6.888  -7.576  1.00  0.00    -0.054 A 
ATOM     25  H   UNL     1      -0.302  -8.475  -6.936  1.00  0.00     0.062 H 
ATOM     26  H   UNL     1      -2.128  -7.484  -8.178  1.00  0.00     0.063 H 
BRANCH  18  27
ATOM     27  N   UNL     1       0.913  -4.518  -5.148  1.00  0.00    -0.291 N 
ATOM     28  C   UNL     1       0.616  -3.313  -4.565  1.00  0.00     0.411 C 
ATOM     29  O   UNL     1       1.483  -2.490  -4.328  1.00  0.00    -0.224 OA
ATOM     30  H   UNL     1       1.828  -4.858  -5.016  1.00  0.00     0.173 HD
BRANCH  28  31
ATOM     31  O   UNL     1      -0.687  -3.225  -4.186  1.00  0.00    -0.449 OA
BRANCH  31  32
ATOM     32  C   UNL     1      -1.106  -2.076  -3.435  1.00  0.00     0.093 C 
ATOM     33  H   UNL     1      -0.554  -1.223  -3.772  1.00  0.00     0.071 H 
ATOM     34  H   UNL     1      -2.156  -1.945  -3.592  1.00  0.00     0.071 H 
BRANCH  32  35
ATOM     35  C   UNL     1      -0.873  -2.253  -1.931  1.00  0.00    -0.019 C 
ATOM     36  H   UNL     1      -1.449  -1.512  -1.419  1.00  0.00     0.030 H 
ATOM     37  H   UNL     1      -1.163  -3.258  -1.707  1.00  0.00     0.030 H 
BRANCH  35  38
ATOM     38  C   UNL     1       0.583  -2.123  -1.466  1.00  0.00    -0.050 C 
ATOM     39  H   UNL     1       0.606  -2.264  -0.406  1.00  0.00     0.027 H 
ATOM     40  H   UNL     1       1.137  -2.863  -2.004  1.00  0.00     0.027 H 
BRANCH  38  41
ATOM     41  C   UNL     1       1.245  -0.775  -1.783  1.00  0.00    -0.053 C 
ATOM     42  H   UNL     1       2.291  -0.863  -1.579  1.00  0.00     0.027 H 
ATOM     43  H   UNL     1       1.029  -0.570  -2.811  1.00  0.00     0.027 H 
BRANCH  41  44
ATOM     44  C   UNL     1       0.704   0.410  -0.986  1.00  0.00    -0.056 C 
ATOM     45  H   UNL     1       1.107   1.312  -1.397  1.00  0.00     0.026 H 
ATOM     46  H   UNL     1      -0.364   0.388  -1.055  1.00  0.00     0.026 H 
BRANCH  44  47
ATOM     47  C   UNL     1       1.070   0.340   0.487  1.00  0.00    -0.065 C 
ATOM     48  H   UNL     1       0.668   1.192   0.996  1.00  0.00     0.023 H 
ATOM     49  H   UNL     1       2.135   0.334   0.590  1.00  0.00     0.023 H 
ATOM     50  H   UNL     1       0.665  -0.554   0.913  1.00  0.00     0.023 H 
ENDBRANCH  44  47
ENDBRANCH  41  44
ENDBRANCH  38  41
ENDBRANCH  35  38
ENDBRANCH  32  35
ENDBRANCH  31  32
ENDBRANCH  28  31
ENDBRANCH  18  27
ENDBRANCH   8  17
ENDBRANCH   5   7
BRANCH   5  51
ATOM     51  C   UNL     1      -7.078  -3.568 -11.213  1.00  0.00    -0.049 C 
ATOM     52  H   UNL     1      -7.642  -4.301 -10.674  1.00  0.00     0.024 H 
ATOM     53  H   UNL     1      -6.462  -4.056 -11.939  1.00  0.00     0.024 H 
ATOM     54  H   UNL     1      -7.747  -2.896 -11.708  1.00  0.00     0.024 H 
ENDBRANCH   5  51
ENDBRANCH   1   5
BRANCH   3  55
ATOM     55  C   UNL     1      -8.203  -3.786  -7.986  1.00  0.00     0.017 C 
ATOM     56  H   UNL     1      -7.887  -4.438  -8.774  1.00  0.00     0.049 H 
ATOM     57  H   UNL     1      -9.262  -3.842  -7.845  1.00  0.00     0.049 H 
BRANCH  55  58
ATOM     58  C   UNL     1      -7.524  -4.217  -6.684  1.00  0.00    -0.036 C 
ATOM     59  H   UNL     1      -6.591  -3.699  -6.602  1.00  0.00     0.028 H 
ATOM     60  H   UNL     1      -7.398  -5.278  -6.733  1.00  0.00     0.028 H 
BRANCH  58  61
ATOM     61  C   UNL     1      -8.353  -3.921  -5.430  1.00  0.00    -0.052 C 
ATOM     62  H   UNL     1      -8.560  -2.871  -5.409  1.00  0.00     0.027 H 
ATOM     63  H   UNL     1      -7.769  -4.255  -4.599  1.00  0.00     0.027 H 
BRANCH  61  64
ATOM     64  C   UNL     1      -9.689  -4.672  -5.345  1.00  0.00    -0.052 C 
ATOM     65  H   UNL     1     -10.314  -4.325  -6.141  1.00  0.00     0.027 H 
ATOM     66  H   UNL     1     -10.080  -4.467  -4.370  1.00  0.00     0.027 H 
BRANCH  64  67
ATOM     67  C   UNL     1      -9.594  -6.197  -5.449  1.00  0.00    -0.036 C 
ATOM     68  H   UNL     1      -9.162  -6.440  -6.397  1.00  0.00     0.028 H 
ATOM     69  H   UNL     1     -10.589  -6.571  -5.333  1.00  0.00     0.028 H 
BRANCH  67  70
ATOM     70  C   UNL     1      -8.754  -6.858  -4.359  1.00  0.00     0.018 C 
ATOM     71  H   UNL     1      -7.765  -6.450  -4.389  1.00  0.00     0.049 H 
ATOM     72  H   UNL     1      -8.740  -7.912  -4.543  1.00  0.00     0.049 H 
BRANCH  70  73
ATOM     73  N   UNL     1      -9.316  -6.637  -3.036  1.00  0.00    -0.352 N 
ATOM     74  C   UNL     1      -9.781  -7.542  -2.116  1.00  0.00     0.251 C 
ATOM     75  H   UNL     1      -9.370  -5.694  -2.758  1.00  0.00     0.163 HD
ATOM     76  O   UNL     1     -10.440  -7.160  -1.154  1.00  0.00    -0.269 OA
BRANCH  74  77
ATOM     77  C   UNL     1      -9.498  -8.983  -2.283  1.00  0.00     0.039 A 
ATOM     78  C   UNL     1     -10.520  -9.905  -2.045  1.00  0.00    -0.049 A 
ATOM     79  C   UNL     1      -8.221  -9.426  -2.641  1.00  0.00    -0.049 A 
ATOM     80  C   UNL     1     -10.279 -11.269  -2.227  1.00  0.00    -0.053 A 
ATOM     81  H   UNL     1     -11.450  -9.580  -1.737  1.00  0.00     0.063 H 
ATOM     82  C   UNL     1      -8.000 -10.779  -2.886  1.00  0.00    -0.053 A 
ATOM     83  H   UNL     1      -7.444  -8.752  -2.723  1.00  0.00     0.063 H 
ATOM     84  C   UNL     1      -9.027 -11.713  -2.682  1.00  0.00    -0.014 A 
ATOM     85  H   UNL     1     -11.025 -11.953  -2.025  1.00  0.00     0.063 H 
ATOM     86  H   UNL     1      -7.076 -11.096  -3.219  1.00  0.00     0.063 H 
BRANCH  84  87
ATOM     87  C   UNL     1      -8.778 -13.149  -2.966  1.00  0.00     0.031 A 
ATOM     88  C   UNL     1      -7.774 -13.921  -2.158  1.00  0.00     0.074 A 
ATOM     89  C   UNL     1      -9.410 -13.736  -4.000  1.00  0.00     0.049 A 
ATOM     90  N   UNL     1      -7.369 -15.158  -2.304  1.00  0.00    -0.248 NA
ATOM     91  C   UNL     1      -7.119 -13.202  -1.055  1.00  0.00    -0.034 C 
ATOM     92  C   UNL     1     -10.371 -13.078  -4.886  1.00  0.00    -0.036 A 
ATOM     93  N   UNL     1      -9.329 -15.015  -4.491  1.00  0.00    -0.354 N 
ATOM     94  C   UNL     1      -6.408 -15.359  -1.323  1.00  0.00     0.074 A 
ATOM     95  C   UNL     1      -6.252 -14.104  -0.620  1.00  0.00    -0.034 C 
ATOM     96  H   UNL     1      -7.291 -12.244  -0.710  1.00  0.00     0.065 H 
ATOM     97  C   UNL     1     -10.805 -13.961  -5.799  1.00  0.00    -0.036 A 
ATOM     98  H   UNL     1     -10.668 -12.091  -4.819  1.00  0.00     0.065 H 
ATOM     99  C   UNL     1     -10.125 -15.235  -5.589  1.00  0.00     0.049 A 
ATOM    100  H   UNL     1      -8.755 -15.710  -4.093  1.00  0.00     0.167 HD
ATOM    101  C   UNL     1      -5.733 -16.495  -1.022  1.00  0.00     0.037 A 
ATOM    102  H   UNL     1      -5.556 -13.934   0.123  1.00  0.00     0.065 H 
ATOM    103  H   UNL     1     -11.507 -13.770  -6.531  1.00  0.00     0.065 H 
ATOM    104  C   UNL     1     -10.279 -16.337  -6.347  1.00  0.00     0.037 A 
ATOM    105  C   UNL     1      -5.908 -17.747  -1.712  1.00  0.00     0.049 A 
ATOM    106  C   UNL     1      -9.508 -17.580  -6.000  1.00  0.00     0.074 A 
ATOM    107  C   UNL     1      -5.319 -18.971  -1.442  1.00  0.00    -0.036 A 
ATOM    108  N   UNL     1      -6.730 -17.934  -2.813  1.00  0.00    -0.354 N 
ATOM    109  N   UNL     1      -8.653 -17.779  -5.026  1.00  0.00    -0.248 NA
ATOM    110  C   UNL     1      -9.725 -18.754  -6.856  1.00  0.00    -0.034 C 
ATOM    111  C   UNL     1      -5.746 -19.885  -2.410  1.00  0.00    -0.036 A 
ATOM    112  H   UNL     1      -4.676 -19.173  -0.660  1.00  0.00     0.065 H 
ATOM    113  C   UNL     1      -6.642 -19.246  -3.252  1.00  0.00     0.049 A 
ATOM    114  H   UNL     1      -7.293 -17.238  -3.223  1.00  0.00     0.167 HD
ATOM    115  C   UNL     1      -8.250 -19.102  -5.136  1.00  0.00     0.074 A 
ATOM    116  C   UNL     1      -8.968 -19.665  -6.261  1.00  0.00    -0.034 C 
ATOM    117  H   UNL     1     -10.313 -18.846  -7.699  1.00  0.00     0.065 H 
ATOM    118  H   UNL     1      -5.445 -20.869  -2.485  1.00  0.00     0.065 H 
ATOM    119  C   UNL     1      -7.363 -19.790  -4.375  1.00  0.00     0.037 A 
ATOM    120  H   UNL     1      -8.899 -20.650  -6.561  1.00  0.00     0.065 H 
BRANCH 101 121
ATOM    121  C   UNL     1      -4.741 -16.438   0.104  1.00  0.00     0.064 A 
ATOM    122  C   UNL     1      -5.150 -16.300   1.440  1.00  0.00     0.173 A 
ATOM    123  C   UNL     1      -3.367 -16.564  -0.149  1.00  0.00     0.173 A 
ATOM    124  F   UNL     1      -6.452 -16.165   1.736  1.00  0.00    -0.203 F 
ATOM    125  C   UNL     1      -4.220 -16.261   2.475  1.00  0.00     0.198 A 
ATOM    126  C   UNL     1      -2.441 -16.556   0.891  1.00  0.00     0.198 A 
ATOM    127  F   UNL     1      -2.921 -16.705  -1.407  1.00  0.00    -0.203 F 
ATOM    128  F   UNL     1      -4.632 -16.079   3.737  1.00  0.00    -0.200 F 
ATOM    129  C   UNL     1      -2.867 -16.396   2.201  1.00  0.00     0.200 A 
ATOM    130  F   UNL     1      -1.136 -16.701   0.625  1.00  0.00    -0.200 F 
ATOM    131  F   UNL     1      -1.974 -16.367   3.199  1.00  0.00    -0.200 F 
ENDBRANCH 101 121
BRANCH 104 132
ATOM    132  C   UNL     1     -11.217 -16.317  -7.500  1.00  0.00     0.064 A 
ATOM    133  C   UNL     1     -12.406 -17.059  -7.473  1.00  0.00     0.173 A 
ATOM    134  C   UNL     1     -10.945 -15.562  -8.650  1.00  0.00     0.173 A 
ATOM    135  F   UNL     1     -12.700 -17.813  -6.403  1.00  0.00    -0.203 F 
ATOM    136  C   UNL     1     -13.278 -17.062  -8.559  1.00  0.00     0.198 A 
ATOM    137  C   UNL     1     -11.832 -15.542  -9.724  1.00  0.00     0.198 A 
ATOM    138  F   UNL     1      -9.824 -14.830  -8.725  1.00  0.00    -0.203 F 
ATOM    139  F   UNL     1     -14.385 -17.816  -8.524  1.00  0.00    -0.200 F 
ATOM    140  C   UNL     1     -12.994 -16.299  -9.682  1.00  0.00     0.200 A 
ATOM    141  F   UNL     1     -11.562 -14.791 -10.800  1.00  0.00    -0.200 F 
ATOM    142  F   UNL     1     -13.835 -16.297 -10.724  1.00  0.00    -0.200 F 
ENDBRANCH 104 132
BRANCH 119 143
ATOM    143  C   UNL     1      -7.137 -21.233  -4.721  1.00  0.00     0.064 A 
ATOM    144  C   UNL     1      -6.437 -21.612  -5.876  1.00  0.00     0.173 A 
ATOM    145  C   UNL     1      -7.597 -22.249  -3.869  1.00  0.00     0.173 A 
ATOM    146  F   UNL     1      -5.992 -20.679  -6.731  1.00  0.00    -0.203 F 
ATOM    147  C   UNL     1      -6.229 -22.955  -6.179  1.00  0.00     0.198 A 
ATOM    148  C   UNL     1      -7.360 -23.590  -4.159  1.00  0.00     0.198 A 
ATOM    149  F   UNL     1      -8.267 -21.941  -2.748  1.00  0.00    -0.203 F 
ATOM    150  F   UNL     1      -5.602 -23.294  -7.314  1.00  0.00    -0.200 F 
ATOM    151  C   UNL     1      -6.684 -23.942  -5.317  1.00  0.00     0.200 A 
ATOM    152  F   UNL     1      -7.788 -24.541  -3.318  1.00  0.00    -0.200 F 
ATOM    153  F   UNL     1      -6.477 -25.233  -5.607  1.00  0.00    -0.200 F 
ENDBRANCH 119 143
ENDBRANCH  84  87
ENDBRANCH  74  77
ENDBRANCH  70  73
ENDBRANCH  67  70
ENDBRANCH  64  67
ENDBRANCH  61  64
ENDBRANCH  58  61
ENDBRANCH  55  58
ENDBRANCH   3  55
TORSDOF 24
