REMARK SMILES C[C@@H](C(=O)NCCCCCCNC(=O)c1ccc(-c2c3nc(c(-c4c(F)c(F)c(F)c(F)c4F)c4ccc([nH]4)c(-c4c(F)c(F)c(F)c(F)c4F)c4nc(c(-c5c(F)c(F)c(F)c(F)c5F)c5ccc2[nH]5)C=C4)C=C3)cc1)c1ccc(C[C@@H]2CCC[C@@H]2O)cc1F
REMARK SMILES IDX 7 1 6 4 5 7 3 8 4 9 2 11 1 13 78 17 79 18 90 19 80 20 89 22
REMARK SMILES IDX 91 23 81 24 82 27 83 30 84 31 87 32 85 34 86 37 88 43 8 45
REMARK SMILES IDX 9 48 10 51 11 54 12 57 13 58 14 60 15 61 16 62 77 63 17 64
REMARK SMILES IDX 76 66 18 68 19 71 20 72 70 73 21 74 75 75 69 76 71 77 22 78
REMARK SMILES IDX 74 79 68 81 67 83 23 85 55 88 35 89 54 90 36 91 39 92 53 93
REMARK SMILES IDX 72 94 37 95 38 97 52 99 73 100 40 103 24 105 25 106 33 107
REMARK SMILES IDX 26 108 27 109 31 110 34 111 28 112 29 113 32 114 30 115
REMARK SMILES IDX 56 116 57 117 65 118 58 119 59 120 63 121 66 122 60 123
REMARK SMILES IDX 61 124 64 125 62 126 41 127 42 128 50 129 43 130 44 131
REMARK SMILES IDX 48 132 51 133 45 134 46 135 49 136 47 137
REMARK H PARENT 7 2 7 3 6 5 6 6 5 10 2 12 1 14 1 15 1 16 79 21 80 25 89 26
REMARK H PARENT 82 28 82 29 83 33 84 35 84 36 87 38 85 39 85 40 86 41 86 42
REMARK H PARENT 88 44 8 46 8 47 9 49 9 50 10 52 10 53 11 55 11 56 12 59 16 65
REMARK H PARENT 77 67 17 69 76 70 75 80 69 82 71 84 74 86 68 87 36 96 39 98
REMARK H PARENT 72 101 37 102 73 104
REMARK Flexibility Score: inf
ROOT
ATOM      1  C   UNL     1     -12.056   6.045   7.627  1.00  0.00    -0.036 C 
ATOM      2  H   UNL     1     -11.933   6.484   6.659  1.00  0.00     0.028 H 
ATOM      3  H   UNL     1     -11.655   6.656   8.408  1.00  0.00     0.028 H 
ENDROOT
BRANCH   1   4
ATOM      4  C   UNL     1     -11.287   4.722   7.657  1.00  0.00     0.017 C 
ATOM      5  H   UNL     1     -10.241   4.920   7.550  1.00  0.00     0.049 H 
ATOM      6  H   UNL     1     -11.474   4.232   8.590  1.00  0.00     0.049 H 
BRANCH   4   7
ATOM      7  N   UNL     1     -11.723   3.862   6.579  1.00  0.00    -0.356 N 
ATOM      8  C   UNL     1     -11.152   3.619   5.364  1.00  0.00     0.227 C 
ATOM      9  O   UNL     1     -11.820   2.968   4.559  1.00  0.00    -0.274 OA
ATOM     10  H   UNL     1     -12.563   3.378   6.747  1.00  0.00     0.163 HD
BRANCH   8  11
ATOM     11  C   UNL     1      -9.716   4.084   5.089  1.00  0.00     0.063 C 
ATOM     12  H   UNL     1      -9.136   3.826   5.950  1.00  0.00     0.045 H 
BRANCH  11  13
ATOM     13  C   UNL     1      -9.594   5.607   4.954  1.00  0.00    -0.049 C 
ATOM     14  H   UNL     1     -10.021   6.077   5.815  1.00  0.00     0.024 H 
ATOM     15  H   UNL     1     -10.114   5.931   4.076  1.00  0.00     0.024 H 
ATOM     16  H   UNL     1      -8.561   5.877   4.876  1.00  0.00     0.024 H 
ENDBRANCH  11  13
BRANCH  11  17
ATOM     17  C   UNL     1      -9.125   3.352   3.893  1.00  0.00    -0.000 A 
ATOM     18  C   UNL     1      -8.423   2.153   4.090  1.00  0.00    -0.055 A 
ATOM     19  C   UNL     1      -9.283   3.813   2.582  1.00  0.00     0.127 A 
ATOM     20  C   UNL     1      -7.832   1.489   3.012  1.00  0.00    -0.059 A 
ATOM     21  H   UNL     1      -8.342   1.759   5.040  1.00  0.00     0.063 H 
ATOM     22  C   UNL     1      -8.675   3.169   1.511  1.00  0.00    -0.023 A 
ATOM     23  F   UNL     1     -10.000   4.916   2.328  1.00  0.00    -0.207 F 
ATOM     24  C   UNL     1      -7.905   2.020   1.720  1.00  0.00    -0.045 A 
ATOM     25  H   UNL     1      -7.337   0.597   3.171  1.00  0.00     0.063 H 
ATOM     26  H   UNL     1      -8.792   3.541   0.555  1.00  0.00     0.066 H 
BRANCH  24  27
ATOM     27  C   UNL     1      -7.148   1.405   0.570  1.00  0.00    -0.022 C 
ATOM     28  H   UNL     1      -7.591   1.767  -0.335  1.00  0.00     0.032 H 
ATOM     29  H   UNL     1      -7.224   0.350   0.726  1.00  0.00     0.032 H 
BRANCH  27  30
ATOM     30  C   UNL     1      -5.629   1.685   0.486  1.00  0.00    -0.011 C 
ATOM     31  C   UNL     1      -4.797   1.054   1.609  1.00  0.00    -0.048 C 
ATOM     32  C   UNL     1      -5.173   3.148   0.513  1.00  0.00     0.057 C 
ATOM     33  H   UNL     1      -5.459   1.250  -0.476  1.00  0.00     0.033 H 
ATOM     34  C   UNL     1      -4.493   2.167   2.616  1.00  0.00    -0.050 C 
ATOM     35  H   UNL     1      -3.886   0.656   1.213  1.00  0.00     0.027 H 
ATOM     36  H   UNL     1      -5.329   0.251   2.075  1.00  0.00     0.027 H 
ATOM     37  C   UNL     1      -4.970   3.471   1.987  1.00  0.00    -0.027 C 
ATOM     38  H   UNL     1      -4.272   3.281  -0.049  1.00  0.00     0.060 H 
ATOM     39  H   UNL     1      -3.441   2.213   2.807  1.00  0.00     0.027 H 
ATOM     40  H   UNL     1      -4.986   1.987   3.548  1.00  0.00     0.027 H 
ATOM     41  H   UNL     1      -4.232   4.237   2.106  1.00  0.00     0.029 H 
ATOM     42  H   UNL     1      -5.865   3.835   2.446  1.00  0.00     0.029 H 
BRANCH  32  43
ATOM     43  O   UNL     1      -6.077   4.027  -0.123  1.00  0.00    -0.393 OA
ATOM     44  H   UNL     1      -6.939   3.979   0.319  1.00  0.00     0.210 HD
ENDBRANCH  32  43
ENDBRANCH  27  30
ENDBRANCH  24  27
ENDBRANCH  11  17
ENDBRANCH   8  11
ENDBRANCH   4   7
ENDBRANCH   1   4
BRANCH   1  45
ATOM     45  C   UNL     1     -13.558   5.895   7.903  1.00  0.00    -0.052 C 
ATOM     46  H   UNL     1     -13.981   5.294   7.125  1.00  0.00     0.027 H 
ATOM     47  H   UNL     1     -13.957   6.887   7.938  1.00  0.00     0.027 H 
BRANCH  45  48
ATOM     48  C   UNL     1     -13.908   5.246   9.246  1.00  0.00    -0.052 C 
ATOM     49  H   UNL     1     -13.568   4.232   9.224  1.00  0.00     0.027 H 
ATOM     50  H   UNL     1     -14.969   5.335   9.355  1.00  0.00     0.027 H 
BRANCH  48  51
ATOM     51  C   UNL     1     -13.292   5.927  10.470  1.00  0.00    -0.036 C 
ATOM     52  H   UNL     1     -12.227   5.872  10.383  1.00  0.00     0.028 H 
ATOM     53  H   UNL     1     -13.669   5.410  11.328  1.00  0.00     0.028 H 
BRANCH  51  54
ATOM     54  C   UNL     1     -13.680   7.392  10.642  1.00  0.00     0.018 C 
ATOM     55  H   UNL     1     -13.423   7.924   9.750  1.00  0.00     0.049 H 
ATOM     56  H   UNL     1     -13.150   7.776  11.489  1.00  0.00     0.049 H 
BRANCH  54  57
ATOM     57  N   UNL     1     -15.103   7.556  10.893  1.00  0.00    -0.352 N 
ATOM     58  C   UNL     1     -15.732   8.268  11.880  1.00  0.00     0.251 C 
ATOM     59  H   UNL     1     -15.699   7.089  10.263  1.00  0.00     0.163 HD
ATOM     60  O   UNL     1     -16.944   8.146  12.055  1.00  0.00    -0.269 OA
BRANCH  58  61
ATOM     61  C   UNL     1     -14.954   9.171  12.753  1.00  0.00     0.039 A 
ATOM     62  C   UNL     1     -15.203   9.160  14.128  1.00  0.00    -0.049 A 
ATOM     63  C   UNL     1     -13.999  10.041  12.218  1.00  0.00    -0.049 A 
ATOM     64  C   UNL     1     -14.461   9.986  14.973  1.00  0.00    -0.053 A 
ATOM     65  H   UNL     1     -15.933   8.542  14.517  1.00  0.00     0.063 H 
ATOM     66  C   UNL     1     -13.214  10.816  13.068  1.00  0.00    -0.053 A 
ATOM     67  H   UNL     1     -13.876  10.109  11.196  1.00  0.00     0.063 H 
ATOM     68  C   UNL     1     -13.444  10.803  14.453  1.00  0.00    -0.014 A 
ATOM     69  H   UNL     1     -14.661   9.998  15.986  1.00  0.00     0.063 H 
ATOM     70  H   UNL     1     -12.460  11.403  12.678  1.00  0.00     0.063 H 
BRANCH  68  71
ATOM     71  C   UNL     1     -12.621  11.661  15.341  1.00  0.00     0.031 A 
ATOM     72  C   UNL     1     -12.707  13.158  15.235  1.00  0.00     0.074 A 
ATOM     73  C   UNL     1     -11.758  11.093  16.204  1.00  0.00     0.049 A 
ATOM     74  N   UNL     1     -12.033  14.075  15.882  1.00  0.00    -0.248 NA
ATOM     75  C   UNL     1     -13.661  13.696  14.252  1.00  0.00    -0.034 C 
ATOM     76  C   UNL     1     -11.551   9.653  16.369  1.00  0.00    -0.036 A 
ATOM     77  N   UNL     1     -10.886  11.659  17.101  1.00  0.00    -0.354 N 
ATOM     78  C   UNL     1     -12.467  15.292  15.374  1.00  0.00     0.074 A 
ATOM     79  C   UNL     1     -13.426  14.997  14.331  1.00  0.00    -0.034 C 
ATOM     80  H   UNL     1     -14.336  13.191  13.657  1.00  0.00     0.065 H 
ATOM     81  C   UNL     1     -10.630   9.448  17.324  1.00  0.00    -0.036 A 
ATOM     82  H   UNL     1     -12.035   8.914  15.835  1.00  0.00     0.065 H 
ATOM     83  C   UNL     1     -10.159  10.740  17.816  1.00  0.00     0.049 A 
ATOM     84  H   UNL     1     -10.792  12.632  17.220  1.00  0.00     0.167 HD
ATOM     85  C   UNL     1     -12.117  16.542  15.759  1.00  0.00     0.037 A 
ATOM     86  H   UNL     1     -13.868  15.708  13.727  1.00  0.00     0.065 H 
ATOM     87  H   UNL     1     -10.308   8.527  17.657  1.00  0.00     0.065 H 
ATOM     88  C   UNL     1      -9.217  10.920  18.761  1.00  0.00     0.037 A 
ATOM     89  C   UNL     1     -11.185  16.832  16.817  1.00  0.00     0.049 A 
ATOM     90  C   UNL     1      -8.849  12.320  19.174  1.00  0.00     0.074 A 
ATOM     91  C   UNL     1     -10.808  18.064  17.323  1.00  0.00    -0.036 A 
ATOM     92  N   UNL     1     -10.482  15.874  17.534  1.00  0.00    -0.354 N 
ATOM     93  N   UNL     1      -9.315  13.463  18.733  1.00  0.00    -0.248 NA
ATOM     94  C   UNL     1      -7.828  12.452  20.222  1.00  0.00    -0.034 C 
ATOM     95  C   UNL     1      -9.848  17.853  18.319  1.00  0.00    -0.036 A 
ATOM     96  H   UNL     1     -11.173  18.980  17.019  1.00  0.00     0.065 H 
ATOM     97  C   UNL     1      -9.660  16.488  18.465  1.00  0.00     0.049 A 
ATOM     98  H   UNL     1     -10.557  14.901  17.400  1.00  0.00     0.167 HD
ATOM     99  C   UNL     1      -8.669  14.447  19.468  1.00  0.00     0.074 A 
ATOM    100  C   UNL     1      -7.787  13.766  20.393  1.00  0.00    -0.034 C 
ATOM    101  H   UNL     1      -7.285  11.716  20.700  1.00  0.00     0.065 H 
ATOM    102  H   UNL     1      -9.361  18.590  18.854  1.00  0.00     0.065 H 
ATOM    103  C   UNL     1      -8.796  15.794  19.385  1.00  0.00     0.037 A 
ATOM    104  H   UNL     1      -7.200  14.243  21.095  1.00  0.00     0.065 H 
BRANCH  85 105
ATOM    105  C   UNL     1     -12.749  17.693  15.032  1.00  0.00     0.064 A 
ATOM    106  C   UNL     1     -14.108  18.006  15.190  1.00  0.00     0.173 A 
ATOM    107  C   UNL     1     -11.981  18.512  14.190  1.00  0.00     0.173 A 
ATOM    108  F   UNL     1     -14.888  17.247  15.974  1.00  0.00    -0.203 F 
ATOM    109  C   UNL     1     -14.681  19.076  14.508  1.00  0.00     0.198 A 
ATOM    110  C   UNL     1     -12.552  19.600  13.533  1.00  0.00     0.198 A 
ATOM    111  F   UNL     1     -10.676  18.262  14.008  1.00  0.00    -0.203 F 
ATOM    112  F   UNL     1     -15.992  19.323  14.635  1.00  0.00    -0.200 F 
ATOM    113  C   UNL     1     -13.902  19.875  13.686  1.00  0.00     0.200 A 
ATOM    114  F   UNL     1     -11.795  20.379  12.748  1.00  0.00    -0.200 F 
ATOM    115  F   UNL     1     -14.455  20.908  13.034  1.00  0.00    -0.200 F 
ENDBRANCH  85 105
BRANCH  88 116
ATOM    116  C   UNL     1      -8.581   9.744  19.408  1.00  0.00     0.064 A 
ATOM    117  C   UNL     1      -8.855   9.426  20.746  1.00  0.00     0.173 A 
ATOM    118  C   UNL     1      -7.688   8.919  18.710  1.00  0.00     0.173 A 
ATOM    119  F   UNL     1      -9.687  10.199  21.460  1.00  0.00    -0.203 F 
ATOM    120  C   UNL     1      -8.245   8.339  21.367  1.00  0.00     0.198 A 
ATOM    121  C   UNL     1      -7.098   7.816  19.324  1.00  0.00     0.198 A 
ATOM    122  F   UNL     1      -7.396   9.178  17.427  1.00  0.00    -0.203 F 
ATOM    123  F   UNL     1      -8.491   8.083  22.659  1.00  0.00    -0.200 F 
ATOM    124  C   UNL     1      -7.371   7.532  20.654  1.00  0.00     0.200 A 
ATOM    125  F   UNL     1      -6.265   7.031  18.629  1.00  0.00    -0.200 F 
ATOM    126  F   UNL     1      -6.787   6.484  21.250  1.00  0.00    -0.200 F 
ENDBRANCH  88 116
BRANCH 103 127
ATOM    127  C   UNL     1      -7.989  16.619  20.344  1.00  0.00     0.064 A 
ATOM    128  C   UNL     1      -6.601  16.762  20.205  1.00  0.00     0.173 A 
ATOM    129  C   UNL     1      -8.619  17.303  21.395  1.00  0.00     0.173 A 
ATOM    130  F   UNL     1      -5.950  16.115  19.226  1.00  0.00    -0.203 F 
ATOM    131  C   UNL     1      -5.869  17.538  21.099  1.00  0.00     0.198 A 
ATOM    132  C   UNL     1      -7.889  18.101  22.270  1.00  0.00     0.198 A 
ATOM    133  F   UNL     1      -9.946  17.204  21.567  1.00  0.00    -0.203 F 
ATOM    134  F   UNL     1      -4.537  17.622  20.977  1.00  0.00    -0.200 F 
ATOM    135  C   UNL     1      -6.514  18.212  22.126  1.00  0.00     0.200 A 
ATOM    136  F   UNL     1      -8.515  18.761  23.254  1.00  0.00    -0.200 F 
ATOM    137  F   UNL     1      -5.809  18.963  22.983  1.00  0.00    -0.200 F 
ENDBRANCH 103 127
ENDBRANCH  68  71
ENDBRANCH  58  61
ENDBRANCH  54  57
ENDBRANCH  51  54
ENDBRANCH  48  51
ENDBRANCH  45  48
ENDBRANCH   1  45
TORSDOF 18
