REMARK SMILES C[C@@H](C(=O)NCCCCCCNC(=O)c1ccc(-c2c3nc(c(-c4c(F)c(F)c(F)c(F)c4F)c4ccc([nH]4)c(-c4c(F)c(F)c(F)c(F)c4F)c4nc(c(-c5c(F)c(F)c(F)c(F)c5F)c5ccc2[nH]5)C=C4)C=C3)cc1)c1ccc2c3cc(Cl)ccc3n(C(=O)c3cocn3)c2c1
REMARK SMILES IDX 8 1 7 4 6 7 5 10 3 11 4 12 2 14 1 16 78 20 79 21 98 22 80 23
REMARK SMILES IDX 97 25 81 27 89 29 82 30 88 31 83 32 87 33 84 34 86 36 85 38
REMARK SMILES IDX 90 40 91 41 92 42 93 43 96 44 94 45 95 47 9 49 10 52 11 55
REMARK SMILES IDX 12 58 13 59 14 61 15 62 16 63 77 64 17 65 76 67 18 69 19 72
REMARK SMILES IDX 20 73 70 74 21 75 75 76 69 77 71 78 22 79 74 80 68 82 67 84
REMARK SMILES IDX 23 86 55 89 35 90 54 91 36 92 39 93 53 94 72 95 37 96 38 98
REMARK SMILES IDX 52 100 73 101 40 104 24 106 25 107 33 108 26 109 27 110
REMARK SMILES IDX 31 111 34 112 28 113 29 114 32 115 30 116 56 117 57 118
REMARK SMILES IDX 65 119 58 120 59 121 63 122 66 123 60 124 61 125 64 126
REMARK SMILES IDX 62 127 41 128 42 129 50 130 43 131 44 132 48 133 51 134
REMARK SMILES IDX 45 135 46 136 49 137 47 138
REMARK H PARENT 8 2 8 3 7 5 7 6 6 8 6 9 5 13 2 15 1 17 1 18 1 19 79 24 98 26
REMARK H PARENT 80 28 83 35 87 37 86 39 93 46 95 48 9 50 9 51 10 53 10 54
REMARK H PARENT 11 56 11 57 12 60 16 66 77 68 17 70 76 71 75 81 69 83 71 85
REMARK H PARENT 74 87 68 88 36 97 39 99 72 102 37 103 73 105
REMARK Flexibility Score: inf
ROOT
ATOM      1  C   UNL     1       4.933  -2.235  -1.814  1.00  0.00    -0.052 C 
ATOM      2  H   UNL     1       4.176  -2.833  -2.277  1.00  0.00     0.027 H 
ATOM      3  H   UNL     1       5.546  -2.784  -1.130  1.00  0.00     0.027 H 
ENDROOT
BRANCH   1   4
ATOM      4  C   UNL     1       4.239  -1.143  -0.988  1.00  0.00    -0.036 C 
ATOM      5  H   UNL     1       3.538  -1.612  -0.329  1.00  0.00     0.028 H 
ATOM      6  H   UNL     1       5.007  -0.615  -0.462  1.00  0.00     0.028 H 
BRANCH   4   7
ATOM      7  C   UNL     1       3.489  -0.110  -1.831  1.00  0.00     0.017 C 
ATOM      8  H   UNL     1       3.094   0.649  -1.190  1.00  0.00     0.049 H 
ATOM      9  H   UNL     1       4.168   0.322  -2.537  1.00  0.00     0.049 H 
BRANCH   7  10
ATOM     10  N   UNL     1       2.406  -0.741  -2.547  1.00  0.00    -0.356 N 
ATOM     11  C   UNL     1       1.069  -0.728  -2.295  1.00  0.00     0.227 C 
ATOM     12  O   UNL     1       0.378  -1.465  -3.001  1.00  0.00    -0.274 OA
ATOM     13  H   UNL     1       2.676  -1.259  -3.339  1.00  0.00     0.163 HD
BRANCH  11  14
ATOM     14  C   UNL     1       0.496   0.217  -1.219  1.00  0.00     0.060 C 
ATOM     15  H   UNL     1       0.928   1.174  -1.427  1.00  0.00     0.045 H 
BRANCH  14  16
ATOM     16  C   UNL     1       0.889  -0.174   0.212  1.00  0.00    -0.049 C 
ATOM     17  H   UNL     1       1.955  -0.230   0.286  1.00  0.00     0.024 H 
ATOM     18  H   UNL     1       0.464  -1.126   0.451  1.00  0.00     0.024 H 
ATOM     19  H   UNL     1       0.522   0.562   0.896  1.00  0.00     0.024 H 
ENDBRANCH  14  16
BRANCH  14  20
ATOM     20  C   UNL     1      -1.023   0.292  -1.308  1.00  0.00    -0.034 A 
ATOM     21  C   UNL     1      -1.673   1.472  -1.667  1.00  0.00    -0.057 A 
ATOM     22  C   UNL     1      -1.779  -0.855  -1.020  1.00  0.00    -0.033 A 
ATOM     23  C   UNL     1      -3.067   1.508  -1.778  1.00  0.00    -0.052 A 
ATOM     24  H   UNL     1      -1.121   2.324  -1.853  1.00  0.00     0.063 H 
ATOM     25  C   UNL     1      -3.179  -0.798  -1.073  1.00  0.00     0.058 A 
ATOM     26  H   UNL     1      -1.306  -1.738  -0.772  1.00  0.00     0.065 H 
ATOM     27  C   UNL     1      -3.830   0.354  -1.491  1.00  0.00     0.008 A 
ATOM     28  H   UNL     1      -3.539   2.379  -2.070  1.00  0.00     0.063 H 
ATOM     29  N   UNL     1      -4.130  -1.782  -0.784  1.00  0.00    -0.274 N 
ATOM     30  C   UNL     1      -5.220   0.062  -1.512  1.00  0.00     0.009 A 
ATOM     31  C   UNL     1      -5.401  -1.239  -1.017  1.00  0.00     0.057 A 
ATOM     32  C   UNL     1      -6.344   0.837  -1.870  1.00  0.00    -0.033 A 
ATOM     33  C   UNL     1      -6.696  -1.730  -0.762  1.00  0.00    -0.036 A 
ATOM     34  C   UNL     1      -7.621   0.325  -1.664  1.00  0.00     0.041 A 
ATOM     35  H   UNL     1      -6.219   1.776  -2.281  1.00  0.00     0.065 H 
ATOM     36  C   UNL     1      -7.797  -0.931  -1.098  1.00  0.00    -0.041 A 
ATOM     37  H   UNL     1      -6.831  -2.660  -0.335  1.00  0.00     0.065 H 
ATOM     38  Cl  UNL     1      -8.991   1.281  -2.077  1.00  0.00    -0.084 Cl
ATOM     39  H   UNL     1      -8.752  -1.281  -0.923  1.00  0.00     0.064 H 
BRANCH  29  40
ATOM     40  C   UNL     1      -3.797  -3.061  -0.263  1.00  0.00     0.284 C 
ATOM     41  O   UNL     1      -2.804  -3.094   0.470  1.00  0.00    -0.266 OA
BRANCH  40  42
ATOM     42  C   UNL     1      -4.501  -4.306  -0.555  1.00  0.00     0.167 A 
ATOM     43  C   UNL     1      -5.356  -4.612  -1.593  1.00  0.00     0.124 A 
ATOM     44  N   UNL     1      -4.270  -5.468   0.174  1.00  0.00    -0.211 NA
ATOM     45  O   UNL     1      -5.672  -5.938  -1.518  1.00  0.00    -0.451 OA
ATOM     46  H   UNL     1      -5.699  -3.949  -2.306  1.00  0.00     0.107 H 
ATOM     47  C   UNL     1      -4.969  -6.386  -0.445  1.00  0.00     0.181 A 
ATOM     48  H   UNL     1      -4.985  -7.373  -0.141  1.00  0.00     0.127 H 
ENDBRANCH  40  42
ENDBRANCH  29  40
ENDBRANCH  14  20
ENDBRANCH  11  14
ENDBRANCH   7  10
ENDBRANCH   4   7
ENDBRANCH   1   4
BRANCH   1  49
ATOM     49  C   UNL     1       5.868  -1.717  -2.911  1.00  0.00    -0.052 C 
ATOM     50  H   UNL     1       5.271  -1.245  -3.662  1.00  0.00     0.027 H 
ATOM     51  H   UNL     1       6.407  -2.567  -3.274  1.00  0.00     0.027 H 
BRANCH  49  52
ATOM     52  C   UNL     1       6.917  -0.711  -2.434  1.00  0.00    -0.036 C 
ATOM     53  H   UNL     1       6.408   0.151  -2.056  1.00  0.00     0.028 H 
ATOM     54  H   UNL     1       7.537  -0.490  -3.278  1.00  0.00     0.028 H 
BRANCH  52  55
ATOM     55  C   UNL     1       7.837  -1.239  -1.343  1.00  0.00     0.018 C 
ATOM     56  H   UNL     1       7.240  -1.582  -0.523  1.00  0.00     0.049 H 
ATOM     57  H   UNL     1       8.485  -0.443  -1.041  1.00  0.00     0.049 H 
BRANCH  55  58
ATOM     58  N   UNL     1       8.662  -2.336  -1.815  1.00  0.00    -0.352 N 
ATOM     59  C   UNL     1      10.020  -2.502  -1.713  1.00  0.00     0.251 C 
ATOM     60  H   UNL     1       8.179  -3.062  -2.271  1.00  0.00     0.163 HD
ATOM     61  O   UNL     1      10.583  -3.385  -2.346  1.00  0.00    -0.269 OA
BRANCH  59  62
ATOM     62  C   UNL     1      10.806  -1.601  -0.842  1.00  0.00     0.039 A 
ATOM     63  C   UNL     1      12.042  -1.138  -1.297  1.00  0.00    -0.049 A 
ATOM     64  C   UNL     1      10.345  -1.242   0.428  1.00  0.00    -0.049 A 
ATOM     65  C   UNL     1      12.807  -0.299  -0.485  1.00  0.00    -0.053 A 
ATOM     66  H   UNL     1      12.389  -1.415  -2.229  1.00  0.00     0.063 H 
ATOM     67  C   UNL     1      11.068  -0.341   1.201  1.00  0.00    -0.053 A 
ATOM     68  H   UNL     1       9.468  -1.647   0.792  1.00  0.00     0.063 H 
ATOM     69  C   UNL     1      12.321   0.115   0.766  1.00  0.00    -0.014 A 
ATOM     70  H   UNL     1      13.736   0.018  -0.805  1.00  0.00     0.063 H 
ATOM     71  H   UNL     1      10.682  -0.006   2.098  1.00  0.00     0.063 H 
BRANCH  69  72
ATOM     72  C   UNL     1      13.141   0.974   1.656  1.00  0.00     0.031 A 
ATOM     73  C   UNL     1      13.624   0.436   2.976  1.00  0.00     0.074 A 
ATOM     74  C   UNL     1      13.419   2.241   1.298  1.00  0.00     0.049 A 
ATOM     75  N   UNL     1      14.328   1.029   3.907  1.00  0.00    -0.248 NA
ATOM     76  C   UNL     1      13.240  -0.946   3.308  1.00  0.00    -0.034 C 
ATOM     77  C   UNL     1      12.969   2.890   0.066  1.00  0.00    -0.036 A 
ATOM     78  N   UNL     1      14.149   3.211   1.938  1.00  0.00    -0.354 N 
ATOM     79  C   UNL     1      14.450   0.104   4.936  1.00  0.00     0.074 A 
ATOM     80  C   UNL     1      13.699  -1.067   4.544  1.00  0.00    -0.034 C 
ATOM     81  H   UNL     1      12.742  -1.639   2.729  1.00  0.00     0.065 H 
ATOM     82  C   UNL     1      13.460   4.139   0.024  1.00  0.00    -0.036 A 
ATOM     83  H   UNL     1      12.371   2.457  -0.655  1.00  0.00     0.065 H 
ATOM     84  C   UNL     1      14.230   4.390   1.239  1.00  0.00     0.049 A 
ATOM     85  H   UNL     1      14.573   3.075   2.816  1.00  0.00     0.167 HD
ATOM     86  C   UNL     1      15.148   0.211   6.092  1.00  0.00     0.037 A 
ATOM     87  H   UNL     1      13.542  -1.889   5.148  1.00  0.00     0.065 H 
ATOM     88  H   UNL     1      13.316   4.814  -0.744  1.00  0.00     0.065 H 
ATOM     89  C   UNL     1      14.861   5.539   1.544  1.00  0.00     0.037 A 
ATOM     90  C   UNL     1      15.924   1.366   6.460  1.00  0.00     0.049 A 
ATOM     91  C   UNL     1      15.640   5.628   2.830  1.00  0.00     0.074 A 
ATOM     92  C   UNL     1      16.721   1.551   7.576  1.00  0.00    -0.036 A 
ATOM     93  N   UNL     1      16.000   2.534   5.715  1.00  0.00    -0.354 N 
ATOM     94  N   UNL     1      15.811   4.721   3.761  1.00  0.00    -0.248 NA
ATOM     95  C   UNL     1      16.326   6.899   3.099  1.00  0.00    -0.034 C 
ATOM     96  C   UNL     1      17.239   2.850   7.531  1.00  0.00    -0.036 A 
ATOM     97  H   UNL     1      16.901   0.853   8.313  1.00  0.00     0.065 H 
ATOM     98  C   UNL     1      16.814   3.452   6.357  1.00  0.00     0.049 A 
ATOM     99  H   UNL     1      15.543   2.687   4.856  1.00  0.00     0.167 HD
ATOM    100  C   UNL     1      16.655   5.294   4.703  1.00  0.00     0.074 A 
ATOM    101  C   UNL     1      16.969   6.625   4.225  1.00  0.00    -0.034 C 
ATOM    102  H   UNL     1      16.311   7.775   2.554  1.00  0.00     0.065 H 
ATOM    103  H   UNL     1      17.836   3.286   8.251  1.00  0.00     0.065 H 
ATOM    104  C   UNL     1      17.131   4.766   5.857  1.00  0.00     0.037 A 
ATOM    105  H   UNL     1      17.611   7.277   4.701  1.00  0.00     0.065 H 
BRANCH  86 106
ATOM    106  C   UNL     1      15.101  -0.952   7.042  1.00  0.00     0.064 A 
ATOM    107  C   UNL     1      15.707  -2.181   6.739  1.00  0.00     0.173 A 
ATOM    108  C   UNL     1      14.462  -0.828   8.285  1.00  0.00     0.173 A 
ATOM    109  F   UNL     1      16.322  -2.358   5.559  1.00  0.00    -0.203 F 
ATOM    110  C   UNL     1      15.644  -3.252   7.627  1.00  0.00     0.198 A 
ATOM    111  C   UNL     1      14.431  -1.890   9.186  1.00  0.00     0.198 A 
ATOM    112  F   UNL     1      13.871   0.326   8.630  1.00  0.00    -0.203 F 
ATOM    113  F   UNL     1      16.180  -4.433   7.289  1.00  0.00    -0.200 F 
ATOM    114  C   UNL     1      15.013  -3.103   8.852  1.00  0.00     0.200 A 
ATOM    115  F   UNL     1      13.833  -1.740  10.376  1.00  0.00    -0.200 F 
ATOM    116  F   UNL     1      14.958  -4.132   9.708  1.00  0.00    -0.200 F 
ENDBRANCH  86 106
BRANCH  89 117
ATOM    117  C   UNL     1      14.825   6.684   0.597  1.00  0.00     0.064 A 
ATOM    118  C   UNL     1      15.981   7.085  -0.088  1.00  0.00     0.173 A 
ATOM    119  C   UNL     1      13.646   7.406   0.365  1.00  0.00     0.173 A 
ATOM    120  F   UNL     1      17.137   6.438   0.114  1.00  0.00    -0.203 F 
ATOM    121  C   UNL     1      15.965   8.181  -0.948  1.00  0.00     0.198 A 
ATOM    122  C   UNL     1      13.624   8.484  -0.518  1.00  0.00     0.198 A 
ATOM    123  F   UNL     1      12.511   7.059   0.990  1.00  0.00    -0.203 F 
ATOM    124  F   UNL     1      17.096   8.574  -1.550  1.00  0.00    -0.200 F 
ATOM    125  C   UNL     1      14.785   8.877  -1.166  1.00  0.00     0.200 A 
ATOM    126  F   UNL     1      12.479   9.144  -0.738  1.00  0.00    -0.200 F 
ATOM    127  F   UNL     1      14.770   9.930  -1.994  1.00  0.00    -0.200 F 
ENDBRANCH  89 117
BRANCH 104 128
ATOM    128  C   UNL     1      18.090   5.603   6.654  1.00  0.00     0.064 A 
ATOM    129  C   UNL     1      17.677   6.755   7.341  1.00  0.00     0.173 A 
ATOM    130  C   UNL     1      19.439   5.227   6.754  1.00  0.00     0.173 A 
ATOM    131  F   UNL     1      16.402   7.164   7.266  1.00  0.00    -0.203 F 
ATOM    132  C   UNL     1      18.586   7.518   8.069  1.00  0.00     0.198 A 
ATOM    133  C   UNL     1      20.337   5.973   7.512  1.00  0.00     0.198 A 
ATOM    134  F   UNL     1      19.884   4.130   6.125  1.00  0.00    -0.203 F 
ATOM    135  F   UNL     1      18.181   8.646   8.669  1.00  0.00    -0.200 F 
ATOM    136  C   UNL     1      19.913   7.123   8.160  1.00  0.00     0.200 A 
ATOM    137  F   UNL     1      21.615   5.581   7.611  1.00  0.00    -0.200 F 
ATOM    138  F   UNL     1      20.785   7.856   8.865  1.00  0.00    -0.200 F 
ENDBRANCH 104 128
ENDBRANCH  69  72
ENDBRANCH  59  62
ENDBRANCH  55  58
ENDBRANCH  52  55
ENDBRANCH  49  52
ENDBRANCH   1  49
TORSDOF 17
