REMARK SMILES O=C(NCCCCCCNC(=O)c1ccccc1Nc1cccc(S(F)(F)(F)(F)F)c1)c1ccc(-c2c3nc(c(-c4c(F)c(F)c(F)c(F)c4F)c4ccc([nH]4)c(-c4c(F)c(F)c(F)c(F)c4F)c4nc(c(-c5c(F)c(F)c(F)c(F)c5F)c5ccc2[nH]5)C=C4)C=C3)cc1
REMARK SMILES IDX 7 1 6 4 5 7 4 10 3 13 1 14 2 15 32 17 33 18 94 19 34 20
REMARK SMILES IDX 93 22 35 24 36 27 37 28 87 29 38 30 92 31 86 32 88 33 39 34
REMARK SMILES IDX 91 35 85 37 84 39 40 41 72 44 52 45 71 46 53 47 56 48 70 49
REMARK SMILES IDX 89 50 54 51 55 53 69 55 90 56 57 59 41 61 42 62 50 63 43 64
REMARK SMILES IDX 44 65 48 66 51 67 45 68 46 69 49 70 47 71 73 72 74 73 82 74
REMARK SMILES IDX 75 75 76 76 80 77 83 78 77 79 78 80 81 81 79 82 58 83 59 84
REMARK SMILES IDX 67 85 60 86 61 87 65 88 68 89 62 90 63 91 66 92 64 93 8 94
REMARK SMILES IDX 9 97 10 100 11 101 12 103 13 104 14 105 18 106 15 107 17 109
REMARK SMILES IDX 16 110 19 114 20 116 21 117 31 118 22 119 24 121 23 123
REMARK SMILES IDX 25 126 26 127 27 128 28 129 29 130 30 131
REMARK H PARENT 7 2 7 3 6 5 6 6 5 8 5 9 4 11 4 12 3 16 33 21 94 23 34 25 93 26
REMARK H PARENT 92 36 86 38 88 40 91 42 85 43 53 52 56 54 89 57 54 58 90 60
REMARK H PARENT 8 95 8 96 9 98 9 99 10 102 14 108 15 111 17 112 16 113 19 115
REMARK H PARENT 21 120 31 122 22 124 23 125
REMARK Flexibility Score: inf
ROOT
ATOM      1  C   UNL     1       5.023   3.246   2.456  1.00  0.00    -0.052 C 
ATOM      2  H   UNL     1       4.666   2.311   2.834  1.00  0.00     0.027 H 
ATOM      3  H   UNL     1       4.666   4.041   3.076  1.00  0.00     0.027 H 
ENDROOT
BRANCH   1   4
ATOM      4  C   UNL     1       4.516   3.444   1.036  1.00  0.00    -0.052 C 
ATOM      5  H   UNL     1       3.446   3.444   1.036  1.00  0.00     0.027 H 
ATOM      6  H   UNL     1       4.873   4.379   0.657  1.00  0.00     0.027 H 
BRANCH   4   7
ATOM      7  C   UNL     1       5.023   2.314   0.155  1.00  0.00    -0.036 C 
ATOM      8  H   UNL     1       4.666   2.453  -0.844  1.00  0.00     0.028 H 
ATOM      9  H   UNL     1       6.093   2.314   0.155  1.00  0.00     0.028 H 
BRANCH   7  10
ATOM     10  C   UNL     1       4.516   0.986   0.693  1.00  0.00     0.018 C 
ATOM     11  H   UNL     1       4.873   0.190   0.073  1.00  0.00     0.049 H 
ATOM     12  H   UNL     1       4.873   0.846   1.692  1.00  0.00     0.049 H 
BRANCH  10  13
ATOM     13  N   UNL     1       3.046   0.986   0.693  1.00  0.00    -0.352 N 
ATOM     14  O   UNL     1       1.040  -0.018  -0.090  1.00  0.00    -0.269 OA
ATOM     15  C   UNL     1       2.311  -0.018  -0.090  1.00  0.00     0.251 C 
ATOM     16  H   UNL     1       2.554   1.658   1.218  1.00  0.00     0.163 HD
BRANCH  15  17
ATOM     17  C   UNL     1       3.071  -1.056  -0.899  1.00  0.00     0.039 A 
ATOM     18  C   UNL     1       4.070  -1.722  -0.207  1.00  0.00    -0.049 A 
ATOM     19  C   UNL     1       2.761  -1.385  -2.148  1.00  0.00    -0.049 A 
ATOM     20  C   UNL     1       4.887  -2.538  -1.025  1.00  0.00    -0.053 A 
ATOM     21  H   UNL     1       4.205  -1.632   0.812  1.00  0.00     0.063 H 
ATOM     22  C   UNL     1       3.525  -2.292  -2.842  1.00  0.00    -0.053 A 
ATOM     23  H   UNL     1       1.939  -0.956  -2.600  1.00  0.00     0.063 H 
ATOM     24  C   UNL     1       4.564  -2.945  -2.239  1.00  0.00    -0.014 A 
ATOM     25  H   UNL     1       5.800  -2.836  -0.646  1.00  0.00     0.063 H 
ATOM     26  H   UNL     1       3.311  -2.484  -3.833  1.00  0.00     0.063 H 
BRANCH  24  27
ATOM     27  C   UNL     1       5.307  -4.077  -2.928  1.00  0.00     0.031 A 
ATOM     28  C   UNL     1       5.973  -3.884  -4.140  1.00  0.00     0.074 A 
ATOM     29  C   UNL     1       5.176  -5.306  -2.305  1.00  0.00     0.049 A 
ATOM     30  N   UNL     1       6.610  -4.798  -4.873  1.00  0.00    -0.248 NA
ATOM     31  C   UNL     1       6.084  -2.586  -4.821  1.00  0.00    -0.034 C 
ATOM     32  C   UNL     1       4.513  -5.508  -1.079  1.00  0.00    -0.036 A 
ATOM     33  N   UNL     1       5.646  -6.527  -2.736  1.00  0.00    -0.354 N 
ATOM     34  C   UNL     1       7.142  -4.231  -5.958  1.00  0.00     0.074 A 
ATOM     35  C   UNL     1       6.806  -2.801  -5.943  1.00  0.00    -0.034 C 
ATOM     36  H   UNL     1       5.688  -1.687  -4.505  1.00  0.00     0.065 H 
ATOM     37  C   UNL     1       4.571  -6.833  -0.781  1.00  0.00    -0.036 A 
ATOM     38  H   UNL     1       4.061  -4.778  -0.506  1.00  0.00     0.065 H 
ATOM     39  C   UNL     1       5.273  -7.481  -1.815  1.00  0.00     0.049 A 
ATOM     40  H   UNL     1       6.159  -6.690  -3.560  1.00  0.00     0.167 HD
ATOM     41  C   UNL     1       7.895  -4.849  -6.957  1.00  0.00     0.037 A 
ATOM     42  H   UNL     1       7.069  -2.098  -6.651  1.00  0.00     0.065 H 
ATOM     43  H   UNL     1       4.171  -7.284   0.057  1.00  0.00     0.065 H 
ATOM     44  C   UNL     1       5.519  -8.844  -1.858  1.00  0.00     0.037 A 
ATOM     45  C   UNL     1       8.178  -6.206  -6.977  1.00  0.00     0.049 A 
ATOM     46  C   UNL     1       6.223  -9.473  -2.888  1.00  0.00     0.074 A 
ATOM     47  C   UNL     1       8.942  -6.843  -7.973  1.00  0.00    -0.036 A 
ATOM     48  N   UNL     1       7.784  -7.163  -6.069  1.00  0.00    -0.354 N 
ATOM     49  N   UNL     1       6.788  -8.899  -3.951  1.00  0.00    -0.248 NA
ATOM     50  C   UNL     1       6.462 -10.920  -2.960  1.00  0.00    -0.034 C 
ATOM     51  C   UNL     1       9.001  -8.169  -7.675  1.00  0.00    -0.036 A 
ATOM     52  H   UNL     1       9.381  -6.385  -8.787  1.00  0.00     0.065 H 
ATOM     53  C   UNL     1       8.273  -8.381  -6.488  1.00  0.00     0.049 A 
ATOM     54  H   UNL     1       7.246  -7.005  -5.260  1.00  0.00     0.167 HD
ATOM     55  C   UNL     1       7.389  -9.821  -4.706  1.00  0.00     0.074 A 
ATOM     56  C   UNL     1       7.182 -11.135  -4.083  1.00  0.00    -0.034 C 
ATOM     57  H   UNL     1       6.143 -11.633  -2.285  1.00  0.00     0.065 H 
ATOM     58  H   UNL     1       9.492  -8.893  -8.223  1.00  0.00     0.065 H 
ATOM     59  C   UNL     1       8.105  -9.618  -5.887  1.00  0.00     0.037 A 
ATOM     60  H   UNL     1       7.520 -12.045  -4.434  1.00  0.00     0.065 H 
BRANCH  41  61
ATOM     61  C   UNL     1       8.434  -3.986  -8.086  1.00  0.00     0.064 A 
ATOM     62  C   UNL     1       9.405  -3.018  -7.894  1.00  0.00     0.173 A 
ATOM     63  C   UNL     1       8.024  -4.319  -9.305  1.00  0.00     0.173 A 
ATOM     64  F   UNL     1      10.024  -2.831  -6.732  1.00  0.00    -0.203 F 
ATOM     65  C   UNL     1       9.679  -2.244  -9.047  1.00  0.00     0.198 A 
ATOM     66  C   UNL     1       8.439  -3.603 -10.402  1.00  0.00     0.198 A 
ATOM     67  F   UNL     1       7.204  -5.353  -9.464  1.00  0.00    -0.203 F 
ATOM     68  F   UNL     1      10.309  -1.085  -8.879  1.00  0.00    -0.200 F 
ATOM     69  C   UNL     1       9.352  -2.593 -10.278  1.00  0.00     0.200 A 
ATOM     70  F   UNL     1       7.945  -3.897 -11.601  1.00  0.00    -0.200 F 
ATOM     71  F   UNL     1       9.883  -1.994 -11.340  1.00  0.00    -0.200 F 
ENDBRANCH  41  61
BRANCH  44  72
ATOM     72  C   UNL     1       4.994  -9.704  -0.720  1.00  0.00     0.064 A 
ATOM     73  C   UNL     1       5.834 -10.572  -0.041  1.00  0.00     0.173 A 
ATOM     74  C   UNL     1       3.682  -9.713  -0.514  1.00  0.00     0.173 A 
ATOM     75  F   UNL     1       7.156 -10.433  -0.021  1.00  0.00    -0.203 F 
ATOM     76  C   UNL     1       5.157 -11.618   0.629  1.00  0.00     0.198 A 
ATOM     77  C   UNL     1       3.103 -10.688   0.264  1.00  0.00     0.198 A 
ATOM     78  F   UNL     1       2.922  -8.772  -1.065  1.00  0.00    -0.203 F 
ATOM     79  F   UNL     1       5.869 -12.681   0.994  1.00  0.00    -0.200 F 
ATOM     80  C   UNL     1       3.868 -11.614   0.916  1.00  0.00     0.200 A 
ATOM     81  F   UNL     1       1.779 -10.730   0.382  1.00  0.00    -0.200 F 
ATOM     82  F   UNL     1       3.343 -12.464   1.794  1.00  0.00    -0.200 F 
ENDBRANCH  44  72
BRANCH  59  83
ATOM     83  C   UNL     1       8.740 -10.828  -6.553  1.00  0.00     0.064 A 
ATOM     84  C   UNL     1       7.842 -11.781  -7.005  1.00  0.00     0.173 A 
ATOM     85  C   UNL     1      10.044 -10.953  -6.769  1.00  0.00     0.173 A 
ATOM     86  F   UNL     1       6.528 -11.582  -7.038  1.00  0.00    -0.203 F 
ATOM     87  C   UNL     1       8.450 -12.987  -7.428  1.00  0.00     0.198 A 
ATOM     88  C   UNL     1      10.556 -12.107  -7.312  1.00  0.00     0.198 A 
ATOM     89  F   UNL     1      10.862  -9.952  -6.457  1.00  0.00    -0.203 F 
ATOM     90  F   UNL     1       7.680 -14.065  -7.532  1.00  0.00    -0.200 F 
ATOM     91  C   UNL     1       9.730 -13.115  -7.727  1.00  0.00     0.200 A 
ATOM     92  F   UNL     1      11.873 -12.245  -7.436  1.00  0.00    -0.200 F 
ATOM     93  F   UNL     1      10.192 -14.168  -8.395  1.00  0.00    -0.200 F 
ENDBRANCH  59  83
ENDBRANCH  24  27
ENDBRANCH  15  17
ENDBRANCH  10  13
ENDBRANCH   7  10
ENDBRANCH   4   7
ENDBRANCH   1   4
BRANCH   1  94
ATOM     94  C   UNL     1       6.543   3.246   2.456  1.00  0.00    -0.036 C 
ATOM     95  H   UNL     1       6.900   2.450   1.835  1.00  0.00     0.028 H 
ATOM     96  H   UNL     1       6.900   3.106   3.455  1.00  0.00     0.028 H 
BRANCH  94  97
ATOM     97  C   UNL     1       7.050   4.574   1.917  1.00  0.00     0.018 C 
ATOM     98  H   UNL     1       6.693   4.714   0.918  1.00  0.00     0.049 H 
ATOM     99  H   UNL     1       8.120   4.574   1.917  1.00  0.00     0.049 H 
BRANCH  97 100
ATOM    100  N   UNL     1       6.560   5.667   2.770  1.00  0.00    -0.352 N 
ATOM    101  C   UNL     1       7.515   6.548   3.457  1.00  0.00     0.253 C 
ATOM    102  H   UNL     1       5.592   5.809   2.880  1.00  0.00     0.163 HD
ATOM    103  O   UNL     1       7.091   7.493   4.194  1.00  0.00    -0.269 OA
BRANCH 101 104
ATOM    104  C   UNL     1       9.009   6.329   3.286  1.00  0.00     0.063 A 
ATOM    105  C   UNL     1       9.833   6.368   4.399  1.00  0.00    -0.047 A 
ATOM    106  C   UNL     1       9.500   6.104   2.073  1.00  0.00     0.051 A 
ATOM    107  C   UNL     1      11.212   6.444   4.089  1.00  0.00    -0.061 A 
ATOM    108  H   UNL     1       9.474   6.344   5.366  1.00  0.00     0.063 H 
ATOM    109  C   UNL     1      10.858   6.056   1.865  1.00  0.00    -0.038 A 
ATOM    110  C   UNL     1      11.733   6.147   2.912  1.00  0.00    -0.060 A 
ATOM    111  H   UNL     1      11.855   6.754   4.834  1.00  0.00     0.062 H 
ATOM    112  H   UNL     1      11.222   5.950   0.906  1.00  0.00     0.064 H 
ATOM    113  H   UNL     1      12.745   5.992   2.789  1.00  0.00     0.062 H 
BRANCH 106 114
ATOM    114  N   UNL     1       8.583   5.904   0.942  1.00  0.00    -0.355 N 
ATOM    115  H   UNL     1       7.610   5.938   1.085  1.00  0.00     0.167 HD
BRANCH 114 116
ATOM    116  C   UNL     1       9.119   5.655  -0.404  1.00  0.00     0.040 A 
ATOM    117  C   UNL     1       8.841   6.559  -1.415  1.00  0.00    -0.039 A 
ATOM    118  C   UNL     1       9.889   4.595  -0.621  1.00  0.00    -0.016 A 
ATOM    119  C   UNL     1       9.189   6.100  -2.708  1.00  0.00    -0.059 A 
ATOM    120  H   UNL     1       8.417   7.484  -1.242  1.00  0.00     0.064 H 
ATOM    121  C   UNL     1      10.306   4.281  -1.893  1.00  0.00     0.109 A 
ATOM    122  H   UNL     1      10.177   4.001   0.172  1.00  0.00     0.066 H 
ATOM    123  C   UNL     1      10.016   5.099  -2.949  1.00  0.00    -0.039 A 
ATOM    124  H   UNL     1       8.767   6.580  -3.518  1.00  0.00     0.062 H 
ATOM    125  H   UNL     1      10.422   4.944  -3.885  1.00  0.00     0.064 H 
BRANCH 121 126
ATOM    126  S   UNL     1      11.252   2.764  -2.173  1.00  0.00     0.310 S 
ATOM    127  F   UNL     1      11.795   2.741  -0.683  1.00  0.00    -0.094 F 
ATOM    128  F   UNL     1      12.517   3.624  -2.548  1.00  0.00    -0.094 F 
ATOM    129  F   UNL     1      12.041   1.446  -2.416  1.00  0.00    -0.094 F 
ATOM    130  F   UNL     1      10.019   1.921  -1.659  1.00  0.00    -0.094 F 
ATOM    131  F   UNL     1      10.474   4.092  -1.814  1.00  0.00    -0.094 F 
ENDBRANCH 121 126
ENDBRANCH 114 116
ENDBRANCH 106 114
ENDBRANCH 101 104
ENDBRANCH  97 100
ENDBRANCH  94  97
ENDBRANCH   1  94
TORSDOF 16
