REMARK SMILES CC/C=C/C/C=C/C/C=C/C/C=C/CCSCCCC(=O)NCCCCCCNC(=O)c1ccc(-c2c3nc(c(-c4c(F)c(F)c(F)c(F)c4F)c4ccc([nH]4)c(-c4c(F)c(F)c(F)c(F)c4F)c4nc(c(-c5c(F)c(F)c(F)c(F)c5F)c5ccc2[nH]5)C=C4)C=C3)cc1
REMARK SMILES IDX 17 1 16 4 15 5 14 8 13 11 12 12 11 15 10 18 9 19 8 22 7 25
REMARK SMILES IDX 6 26 5 29 4 32 3 33 2 36 1 39 18 43 19 46 20 49 21 50 22 51
REMARK SMILES IDX 23 53 24 56 25 59 26 62 27 65 28 68 29 71 30 72 31 74 32 75
REMARK SMILES IDX 33 76 94 77 34 78 93 80 35 82 36 85 37 86 87 87 38 88 92 89
REMARK SMILES IDX 86 90 88 91 39 92 91 93 85 95 84 97 40 99 72 102 52 103
REMARK SMILES IDX 71 104 53 105 56 106 70 107 89 108 54 109 55 111 69 113
REMARK SMILES IDX 90 114 57 117 41 119 42 120 50 121 43 122 44 123 48 124
REMARK SMILES IDX 51 125 45 126 46 127 49 128 47 129 73 130 74 131 82 132
REMARK SMILES IDX 75 133 76 134 80 135 83 136 77 137 78 138 81 139 79 140
REMARK SMILES IDX 58 141 59 142 67 143 60 144 61 145 65 146 68 147 62 148
REMARK SMILES IDX 63 149 66 150 64 151
REMARK H PARENT 17 2 17 3 15 6 15 7 14 9 14 10 12 13 13 14 11 16 11 17 9 20
REMARK H PARENT 10 21 8 23 8 24 6 27 7 28 5 30 5 31 3 34 4 35 2 37 2 38 1 40
REMARK H PARENT 1 41 1 42 18 44 18 45 19 47 19 48 22 52 23 54 23 55 24 57
REMARK H PARENT 24 58 25 60 25 61 26 63 26 64 27 66 27 67 28 69 28 70 29 73
REMARK H PARENT 33 79 94 81 34 83 93 84 92 94 86 96 88 98 91 100 85 101 53 110
REMARK H PARENT 56 112 89 115 54 116 90 118
REMARK Flexibility Score: inf
ROOT
ATOM      1  C   UNL     1      -6.187  -9.381  10.061  1.00  0.00    -0.006 C 
ATOM      2  H   UNL     1      -6.439  -9.932  10.943  1.00  0.00     0.038 H 
ATOM      3  H   UNL     1      -6.651  -8.468   9.753  1.00  0.00     0.038 H 
ENDROOT
BRANCH   1   4
ATOM      4  S   UNL     1      -6.754 -10.457   8.664  1.00  0.00    -0.162 SA
BRANCH   4   5
ATOM      5  C   UNL     1      -5.645 -10.295   7.194  1.00  0.00    -0.003 C 
ATOM      6  H   UNL     1      -4.701  -9.937   7.546  1.00  0.00     0.038 H 
ATOM      7  H   UNL     1      -5.638 -11.272   6.756  1.00  0.00     0.038 H 
BRANCH   5   8
ATOM      8  C   UNL     1      -6.096  -9.355   6.038  1.00  0.00    -0.026 C 
ATOM      9  H   UNL     1      -5.969  -9.886   5.118  1.00  0.00     0.032 H 
ATOM     10  H   UNL     1      -7.110  -9.095   6.261  1.00  0.00     0.032 H 
BRANCH   8  11
ATOM     11  C   UNL     1      -5.362  -8.045   5.919  1.00  0.00    -0.087 C 
ATOM     12  C   UNL     1      -5.394  -7.164   4.902  1.00  0.00    -0.085 C 
ATOM     13  H   UNL     1      -5.755  -7.477   3.988  1.00  0.00     0.058 H 
ATOM     14  H   UNL     1      -4.759  -7.792   6.717  1.00  0.00     0.057 H 
BRANCH  12  15
ATOM     15  C   UNL     1      -4.921  -5.727   5.046  1.00  0.00    -0.017 C 
ATOM     16  H   UNL     1      -5.065  -5.237   4.106  1.00  0.00     0.035 H 
ATOM     17  H   UNL     1      -5.496  -5.306   5.843  1.00  0.00     0.035 H 
BRANCH  15  18
ATOM     18  C   UNL     1      -3.482  -5.560   5.439  1.00  0.00    -0.084 C 
ATOM     19  C   UNL     1      -2.715  -4.543   5.009  1.00  0.00    -0.084 C 
ATOM     20  H   UNL     1      -3.154  -3.824   4.413  1.00  0.00     0.058 H 
ATOM     21  H   UNL     1      -3.061  -6.259   6.071  1.00  0.00     0.058 H 
BRANCH  19  22
ATOM     22  C   UNL     1      -1.256  -4.388   5.341  1.00  0.00    -0.017 C 
ATOM     23  H   UNL     1      -1.052  -3.373   5.610  1.00  0.00     0.035 H 
ATOM     24  H   UNL     1      -0.996  -5.019   6.165  1.00  0.00     0.035 H 
BRANCH  22  25
ATOM     25  C   UNL     1      -0.457  -4.763   4.130  1.00  0.00    -0.084 C 
ATOM     26  C   UNL     1       0.335  -3.922   3.449  1.00  0.00    -0.084 C 
ATOM     27  H   UNL     1       0.547  -3.002   3.866  1.00  0.00     0.058 H 
ATOM     28  H   UNL     1      -0.521  -5.737   3.796  1.00  0.00     0.058 H 
BRANCH  26  29
ATOM     29  C   UNL     1       0.928  -4.254   2.111  1.00  0.00    -0.017 C 
ATOM     30  H   UNL     1       1.994  -4.178   2.162  1.00  0.00     0.035 H 
ATOM     31  H   UNL     1       0.660  -5.252   1.833  1.00  0.00     0.035 H 
BRANCH  29  32
ATOM     32  C   UNL     1       0.404  -3.285   1.090  1.00  0.00    -0.085 C 
ATOM     33  C   UNL     1       1.172  -2.439   0.386  1.00  0.00    -0.089 C 
ATOM     34  H   UNL     1       2.196  -2.508   0.492  1.00  0.00     0.057 H 
ATOM     35  H   UNL     1      -0.614  -3.269   0.918  1.00  0.00     0.058 H 
BRANCH  33  36
ATOM     36  C   UNL     1       0.623  -1.400  -0.546  1.00  0.00    -0.038 C 
ATOM     37  H   UNL     1       0.987  -1.586  -1.535  1.00  0.00     0.031 H 
ATOM     38  H   UNL     1      -0.445  -1.450  -0.530  1.00  0.00     0.031 H 
BRANCH  36  39
ATOM     39  C   UNL     1       1.057  -0.008  -0.107  1.00  0.00    -0.062 C 
ATOM     40  H   UNL     1       0.657   0.719  -0.783  1.00  0.00     0.023 H 
ATOM     41  H   UNL     1       2.125   0.050  -0.112  1.00  0.00     0.023 H 
ATOM     42  H   UNL     1       0.693   0.184   0.880  1.00  0.00     0.023 H 
ENDBRANCH  36  39
ENDBRANCH  33  36
ENDBRANCH  29  32
ENDBRANCH  26  29
ENDBRANCH  22  25
ENDBRANCH  19  22
ENDBRANCH  15  18
ENDBRANCH  12  15
ENDBRANCH   8  11
ENDBRANCH   5   8
ENDBRANCH   4   5
ENDBRANCH   1   4
BRANCH   1  43
ATOM     43  C   UNL     1      -4.787  -8.839  10.336  1.00  0.00    -0.035 C 
ATOM     44  H   UNL     1      -4.170  -9.681  10.567  1.00  0.00     0.028 H 
ATOM     45  H   UNL     1      -4.951  -8.120  11.111  1.00  0.00     0.028 H 
BRANCH  43  46
ATOM     46  C   UNL     1      -4.061  -8.044   9.274  1.00  0.00     0.027 C 
ATOM     47  H   UNL     1      -4.294  -8.496   8.332  1.00  0.00     0.037 H 
ATOM     48  H   UNL     1      -3.038  -8.080   9.583  1.00  0.00     0.037 H 
BRANCH  46  49
ATOM     49  C   UNL     1      -4.347  -6.558   9.137  1.00  0.00     0.220 C 
ATOM     50  O   UNL     1      -3.408  -5.757   9.207  1.00  0.00    -0.275 OA
ATOM     51  N   UNL     1      -5.566  -6.026   8.873  1.00  0.00    -0.356 N 
ATOM     52  H   UNL     1      -5.637  -5.071   9.102  1.00  0.00     0.163 HD
BRANCH  51  53
ATOM     53  C   UNL     1      -6.785  -6.583   8.322  1.00  0.00     0.017 C 
ATOM     54  H   UNL     1      -6.811  -7.629   8.546  1.00  0.00     0.049 H 
ATOM     55  H   UNL     1      -6.769  -6.396   7.268  1.00  0.00     0.049 H 
BRANCH  53  56
ATOM     56  C   UNL     1      -8.049  -5.938   8.875  1.00  0.00    -0.036 C 
ATOM     57  H   UNL     1      -7.774  -5.178   9.577  1.00  0.00     0.028 H 
ATOM     58  H   UNL     1      -8.636  -6.697   9.348  1.00  0.00     0.028 H 
BRANCH  56  59
ATOM     59  C   UNL     1      -8.889  -5.304   7.756  1.00  0.00    -0.052 C 
ATOM     60  H   UNL     1      -8.267  -4.610   7.230  1.00  0.00     0.027 H 
ATOM     61  H   UNL     1      -9.728  -4.848   8.239  1.00  0.00     0.027 H 
BRANCH  59  62
ATOM     62  C   UNL     1      -9.472  -6.289   6.733  1.00  0.00    -0.052 C 
ATOM     63  H   UNL     1      -8.656  -6.788   6.255  1.00  0.00     0.027 H 
ATOM     64  H   UNL     1     -10.069  -5.700   6.068  1.00  0.00     0.027 H 
BRANCH  62  65
ATOM     65  C   UNL     1     -10.409  -7.356   7.300  1.00  0.00    -0.036 C 
ATOM     66  H   UNL     1      -9.820  -8.049   7.863  1.00  0.00     0.028 H 
ATOM     67  H   UNL     1     -10.900  -7.801   6.460  1.00  0.00     0.028 H 
BRANCH  65  68
ATOM     68  C   UNL     1     -11.511  -6.825   8.207  1.00  0.00     0.018 C 
ATOM     69  H   UNL     1     -11.059  -6.391   9.074  1.00  0.00     0.049 H 
ATOM     70  H   UNL     1     -12.145  -7.649   8.457  1.00  0.00     0.049 H 
BRANCH  68  71
ATOM     71  N   UNL     1     -12.338  -5.818   7.563  1.00  0.00    -0.352 N 
ATOM     72  C   UNL     1     -13.692  -5.618   7.659  1.00  0.00     0.251 C 
ATOM     73  H   UNL     1     -11.859  -5.191   6.974  1.00  0.00     0.163 HD
ATOM     74  O   UNL     1     -14.247  -4.792   6.946  1.00  0.00    -0.269 OA
BRANCH  72  75
ATOM     75  C   UNL     1     -14.485  -6.421   8.614  1.00  0.00     0.039 A 
ATOM     76  C   UNL     1     -15.720  -6.925   8.200  1.00  0.00    -0.049 A 
ATOM     77  C   UNL     1     -14.027  -6.661   9.912  1.00  0.00    -0.049 A 
ATOM     78  C   UNL     1     -16.483  -7.693   9.081  1.00  0.00    -0.053 A 
ATOM     79  H   UNL     1     -16.067  -6.731   7.247  1.00  0.00     0.063 H 
ATOM     80  C   UNL     1     -14.745  -7.500  10.757  1.00  0.00    -0.053 A 
ATOM     81  H   UNL     1     -13.157  -6.216  10.243  1.00  0.00     0.063 H 
ATOM     82  C   UNL     1     -15.994  -7.999  10.361  1.00  0.00    -0.014 A 
ATOM     83  H   UNL     1     -17.411  -8.037   8.790  1.00  0.00     0.063 H 
ATOM     84  H   UNL     1     -14.357  -7.757  11.678  1.00  0.00     0.063 H 
BRANCH  82  85
ATOM     85  C   UNL     1     -16.807  -8.789  11.318  1.00  0.00     0.031 A 
ATOM     86  C   UNL     1     -17.286  -8.153  12.595  1.00  0.00     0.074 A 
ATOM     87  C   UNL     1     -17.086 -10.079  11.053  1.00  0.00     0.049 A 
ATOM     88  N   UNL     1     -17.996  -8.672  13.565  1.00  0.00    -0.248 NA
ATOM     89  C   UNL     1     -16.889  -6.755  12.829  1.00  0.00    -0.034 C 
ATOM     90  C   UNL     1     -16.637 -10.817   9.872  1.00  0.00    -0.036 A 
ATOM     91  N   UNL     1     -17.819 -10.998  11.761  1.00  0.00    -0.354 N 
ATOM     92  C   UNL     1     -18.113  -7.674  14.523  1.00  0.00     0.074 A 
ATOM     93  C   UNL     1     -17.347  -6.542  14.052  1.00  0.00    -0.034 C 
ATOM     94  H   UNL     1     -16.384  -6.109  12.202  1.00  0.00     0.065 H 
ATOM     95  C   UNL     1     -17.134 -12.063   9.918  1.00  0.00    -0.036 A 
ATOM     96  H   UNL     1     -16.034 -10.440   9.124  1.00  0.00     0.065 H 
ATOM     97  C   UNL     1     -17.906 -12.223  11.146  1.00  0.00     0.049 A 
ATOM     98  H   UNL     1     -18.241 -10.799  12.628  1.00  0.00     0.167 HD
ATOM     99  C   UNL     1     -18.818  -7.689  15.679  1.00  0.00     0.037 A 
ATOM    100  H   UNL     1     -17.181  -5.681  14.597  1.00  0.00     0.065 H 
ATOM    101  H   UNL     1     -16.993 -12.791   9.200  1.00  0.00     0.065 H 
ATOM    102  C   UNL     1     -18.543 -13.345  11.532  1.00  0.00     0.037 A 
ATOM    103  C   UNL     1     -19.602  -8.810  16.126  1.00  0.00     0.049 A 
ATOM    104  C   UNL     1     -19.322 -13.334  12.821  1.00  0.00     0.074 A 
ATOM    105  C   UNL     1     -20.405  -8.910  17.248  1.00  0.00    -0.036 A 
ATOM    106  N   UNL     1     -19.677 -10.031  15.470  1.00  0.00    -0.354 N 
ATOM    107  N   UNL     1     -19.491 -12.360  13.681  1.00  0.00    -0.248 NA
ATOM    108  C   UNL     1     -20.011 -14.580  13.184  1.00  0.00    -0.034 C 
ATOM    109  C   UNL     1     -20.919 -10.210  17.302  1.00  0.00    -0.036 A 
ATOM    110  H   UNL     1     -20.593  -8.156  17.927  1.00  0.00     0.065 H 
ATOM    111  C   UNL     1     -20.493 -10.898  16.178  1.00  0.00     0.049 A 
ATOM    112  H   UNL     1     -19.217 -10.248  14.627  1.00  0.00     0.167 HD
ATOM    113  C   UNL     1     -20.338 -12.859  14.663  1.00  0.00     0.074 A 
ATOM    114  C   UNL     1     -20.656 -14.220  14.284  1.00  0.00    -0.034 C 
ATOM    115  H   UNL     1     -19.997 -15.495  12.707  1.00  0.00     0.065 H 
ATOM    116  H   UNL     1     -21.515 -10.591  18.053  1.00  0.00     0.065 H 
ATOM    117  C   UNL     1     -20.812 -12.245  15.776  1.00  0.00     0.037 A 
ATOM    118  H   UNL     1     -21.303 -14.832  14.805  1.00  0.00     0.065 H 
BRANCH  99 119
ATOM    119  C   UNL     1     -18.769  -6.459  16.541  1.00  0.00     0.064 A 
ATOM    120  C   UNL     1     -19.349  -5.246  16.137  1.00  0.00     0.173 A 
ATOM    121  C   UNL     1     -18.153  -6.500  17.802  1.00  0.00     0.173 A 
ATOM    122  F   UNL     1     -19.941  -5.146  14.937  1.00  0.00    -0.203 F 
ATOM    123  C   UNL     1     -19.282  -4.113  16.945  1.00  0.00     0.198 A 
ATOM    124  C   UNL     1     -18.120  -5.375  18.622  1.00  0.00     0.198 A 
ATOM    125  F   UNL     1     -17.586  -7.633  18.242  1.00  0.00    -0.203 F 
ATOM    126  F   UNL     1     -19.789  -2.951  16.510  1.00  0.00    -0.200 F 
ATOM    127  C   UNL     1     -18.674  -4.181  18.189  1.00  0.00     0.200 A 
ATOM    128  F   UNL     1     -17.546  -5.446  19.831  1.00  0.00    -0.200 F 
ATOM    129  F   UNL     1     -18.616  -3.091  18.968  1.00  0.00    -0.200 F 
ENDBRANCH  99 119
BRANCH 102 130
ATOM    130  C   UNL     1     -18.511 -14.556  10.671  1.00  0.00     0.064 A 
ATOM    131  C   UNL     1     -19.671 -15.015  10.030  1.00  0.00     0.173 A 
ATOM    132  C   UNL     1     -17.329 -15.288  10.480  1.00  0.00     0.173 A 
ATOM    133  F   UNL     1     -20.830 -14.361  10.195  1.00  0.00    -0.203 F 
ATOM    134  C   UNL     1     -19.657 -16.174   9.257  1.00  0.00     0.198 A 
ATOM    135  C   UNL     1     -17.310 -16.429   9.680  1.00  0.00     0.198 A 
ATOM    136  F   UNL     1     -16.190 -14.889  11.064  1.00  0.00    -0.203 F 
ATOM    137  F   UNL     1     -20.793 -16.620   8.702  1.00  0.00    -0.200 F 
ATOM    138  C   UNL     1     -18.476 -16.878   9.078  1.00  0.00     0.200 A 
ATOM    139  F   UNL     1     -16.163 -17.096   9.497  1.00  0.00    -0.200 F 
ATOM    140  F   UNL     1     -18.463 -17.992   8.334  1.00  0.00    -0.200 F 
ENDBRANCH 102 130
BRANCH 117 141
ATOM    141  C   UNL     1     -21.774 -13.020  16.632  1.00  0.00     0.064 A 
ATOM    142  C   UNL     1     -21.371 -14.132  17.385  1.00  0.00     0.173 A 
ATOM    143  C   UNL     1     -23.117 -12.621  16.719  1.00  0.00     0.173 A 
ATOM    144  F   UNL     1     -20.101 -14.562  17.329  1.00  0.00    -0.203 F 
ATOM    145  C   UNL     1     -22.285 -14.839  18.162  1.00  0.00     0.198 A 
ATOM    146  C   UNL     1     -24.019 -13.307  17.526  1.00  0.00     0.198 A 
ATOM    147  F   UNL     1     -23.554 -11.557  16.028  1.00  0.00    -0.203 F 
ATOM    148  F   UNL     1     -21.891 -15.937  18.823  1.00  0.00    -0.200 F 
ATOM    149  C   UNL     1     -23.605 -14.422  18.238  1.00  0.00     0.200 A 
ATOM    150  F   UNL     1     -25.290 -12.890  17.613  1.00  0.00    -0.200 F 
ATOM    151  F   UNL     1     -24.482 -15.101  18.990  1.00  0.00    -0.200 F 
ENDBRANCH 117 141
ENDBRANCH  82  85
ENDBRANCH  72  75
ENDBRANCH  68  71
ENDBRANCH  65  68
ENDBRANCH  62  65
ENDBRANCH  59  62
ENDBRANCH  56  59
ENDBRANCH  53  56
ENDBRANCH  51  53
ENDBRANCH  46  49
ENDBRANCH  43  46
ENDBRANCH   1  43
TORSDOF 27
