REMARK SMILES O=C(NCCCCCCNC(=O)[C@@H]1CCn2c(C(=O)c3ccccc3)ccc21)c1ccc(-c2c3nc(c(-c4c(F)c(F)c(F)c(F)c4F)c4ccc([nH]4)c(-c4c(F)c(F)c(F)c(F)c4F)c4nc(c(-c5c(F)c(F)c(F)c(F)c5F)c5ccc2[nH]5)C=C4)C=C3)cc1
REMARK SMILES IDX 6 1 5 4 4 7 3 10 1 11 2 12 29 14 30 15 91 16 31 17 90 19
REMARK SMILES IDX 32 21 33 24 34 25 84 26 35 27 89 28 83 29 85 30 36 31 88 32
REMARK SMILES IDX 82 34 81 36 37 38 69 41 49 42 68 43 50 44 53 45 67 46 86 47
REMARK SMILES IDX 51 48 52 50 66 52 87 53 54 56 38 58 39 59 47 60 40 61 41 62
REMARK SMILES IDX 45 63 48 64 42 65 43 66 46 67 44 68 70 69 71 70 79 71 72 72
REMARK SMILES IDX 73 73 77 74 80 75 74 76 75 77 78 78 76 79 55 80 56 81 64 82
REMARK SMILES IDX 57 83 58 84 62 85 65 86 59 87 60 88 63 89 61 90 7 91 8 94
REMARK SMILES IDX 9 97 10 100 11 101 12 103 13 104 14 105 28 106 15 108 16 111
REMARK SMILES IDX 27 112 17 115 26 116 18 119 19 120 20 121 21 122 25 123
REMARK SMILES IDX 22 124 24 126 23 128
REMARK H PARENT 6 2 6 3 5 5 5 6 4 8 4 9 3 13 30 18 91 20 31 22 90 23 89 33
REMARK H PARENT 83 35 85 37 88 39 82 40 50 49 53 51 86 54 51 55 87 57 7 92
REMARK H PARENT 7 93 8 95 8 96 9 98 9 99 10 102 13 107 14 109 14 110 15 113
REMARK H PARENT 15 114 27 117 26 118 21 125 25 127 22 129 24 130 23 131
REMARK Flexibility Score: inf
ROOT
ATOM      1  C   UNL     1       4.279   2.484   3.002  1.00  0.00    -0.052 C 
ATOM      2  H   UNL     1       3.215   2.373   3.039  1.00  0.00     0.027 H 
ATOM      3  H   UNL     1       4.607   3.478   3.224  1.00  0.00     0.027 H 
ENDROOT
BRANCH   1   4
ATOM      4  C   UNL     1       4.737   2.189   1.574  1.00  0.00    -0.036 C 
ATOM      5  H   UNL     1       4.215   2.847   0.911  1.00  0.00     0.028 H 
ATOM      6  H   UNL     1       5.797   2.336   1.554  1.00  0.00     0.028 H 
BRANCH   4   7
ATOM      7  C   UNL     1       4.485   0.758   1.123  1.00  0.00     0.018 C 
ATOM      8  H   UNL     1       4.926   0.618   0.158  1.00  0.00     0.049 H 
ATOM      9  H   UNL     1       4.922   0.102   1.847  1.00  0.00     0.049 H 
BRANCH   7  10
ATOM     10  N   UNL     1       3.067   0.453   1.040  1.00  0.00    -0.352 N 
ATOM     11  O   UNL     1       1.121  -0.018  -0.008  1.00  0.00    -0.269 OA
ATOM     12  C   UNL     1       2.348   0.005  -0.038  1.00  0.00     0.251 C 
ATOM     13  H   UNL     1       2.553   0.586   1.869  1.00  0.00     0.163 HD
BRANCH  12  14
ATOM     14  C   UNL     1       3.066  -0.440  -1.249  1.00  0.00     0.039 A 
ATOM     15  C   UNL     1       4.178  -1.281  -1.138  1.00  0.00    -0.049 A 
ATOM     16  C   UNL     1       2.618  -0.022  -2.504  1.00  0.00    -0.049 A 
ATOM     17  C   UNL     1       4.912  -1.607  -2.271  1.00  0.00    -0.053 A 
ATOM     18  H   UNL     1       4.452  -1.657  -0.217  1.00  0.00     0.063 H 
ATOM     19  C   UNL     1       3.304  -0.427  -3.651  1.00  0.00    -0.053 A 
ATOM     20  H   UNL     1       1.786   0.582  -2.583  1.00  0.00     0.063 H 
ATOM     21  C   UNL     1       4.463  -1.213  -3.541  1.00  0.00    -0.014 A 
ATOM     22  H   UNL     1       5.790  -2.142  -2.178  1.00  0.00     0.063 H 
ATOM     23  H   UNL     1       2.959  -0.147  -4.582  1.00  0.00     0.063 H 
BRANCH  21  24
ATOM     24  C   UNL     1       5.152  -1.731  -4.747  1.00  0.00     0.031 A 
ATOM     25  C   UNL     1       5.853  -0.811  -5.702  1.00  0.00     0.074 A 
ATOM     26  C   UNL     1       5.122  -3.059  -4.973  1.00  0.00     0.049 A 
ATOM     27  N   UNL     1       6.466  -1.101  -6.822  1.00  0.00    -0.248 NA
ATOM     28  C   UNL     1       5.862   0.620  -5.367  1.00  0.00    -0.034 C 
ATOM     29  C   UNL     1       4.456  -4.043  -4.114  1.00  0.00    -0.036 A 
ATOM     30  N   UNL     1       5.657  -3.813  -5.985  1.00  0.00    -0.354 N 
ATOM     31  C   UNL     1       6.914   0.108  -7.336  1.00  0.00     0.074 A 
ATOM     32  C   UNL     1       6.489   1.140  -6.415  1.00  0.00    -0.034 C 
ATOM     33  H   UNL     1       5.481   1.096  -4.534  1.00  0.00     0.065 H 
ATOM     34  C   UNL     1       4.642  -5.269  -4.620  1.00  0.00    -0.036 A 
ATOM     35  H   UNL     1       3.928  -3.825  -3.255  1.00  0.00     0.065 H 
ATOM     36  C   UNL     1       5.373  -5.153  -5.876  1.00  0.00     0.049 A 
ATOM     37  H   UNL     1       6.192  -3.433  -6.718  1.00  0.00     0.167 HD
ATOM     38  C   UNL     1       7.618   0.326  -8.473  1.00  0.00     0.037 A 
ATOM     39  H   UNL     1       6.651   2.150  -6.555  1.00  0.00     0.065 H 
ATOM     40  H   UNL     1       4.321  -6.151  -4.192  1.00  0.00     0.065 H 
ATOM     41  C   UNL     1       5.636  -6.172  -6.713  1.00  0.00     0.037 A 
ATOM     42  C   UNL     1       8.045  -0.717  -9.373  1.00  0.00     0.049 A 
ATOM     43  C   UNL     1       6.378  -5.889  -7.987  1.00  0.00     0.074 A 
ATOM     44  C   UNL     1       8.820  -0.605 -10.514  1.00  0.00    -0.036 A 
ATOM     45  N   UNL     1       7.719  -2.059  -9.242  1.00  0.00    -0.354 N 
ATOM     46  N   UNL     1       6.856  -4.751  -8.428  1.00  0.00    -0.248 NA
ATOM     47  C   UNL     1       6.614  -7.028  -8.883  1.00  0.00    -0.034 C 
ATOM     48  C   UNL     1       8.905  -1.866 -11.111  1.00  0.00    -0.036 A 
ATOM     49  H   UNL     1       9.259   0.261 -10.864  1.00  0.00     0.065 H 
ATOM     50  C   UNL     1       8.240  -2.778 -10.308  1.00  0.00     0.049 A 
ATOM     51  H   UNL     1       7.196  -2.445  -8.502  1.00  0.00     0.167 HD
ATOM     52  C   UNL     1       7.463  -5.038  -9.642  1.00  0.00     0.074 A 
ATOM     53  C   UNL     1       7.315  -6.463  -9.855  1.00  0.00    -0.034 C 
ATOM     54  H   UNL     1       6.313  -8.010  -8.781  1.00  0.00     0.065 H 
ATOM     55  H   UNL     1       9.382  -2.081 -12.001  1.00  0.00     0.065 H 
ATOM     56  C   UNL     1       8.083  -4.197 -10.505  1.00  0.00     0.037 A 
ATOM     57  H   UNL     1       7.705  -6.974 -10.662  1.00  0.00     0.065 H 
BRANCH  38  58
ATOM     58  C   UNL     1       7.954   1.744  -8.837  1.00  0.00     0.064 A 
ATOM     59  C   UNL     1       8.905   2.489  -8.125  1.00  0.00     0.173 A 
ATOM     60  C   UNL     1       7.368   2.340  -9.966  1.00  0.00     0.173 A 
ATOM     61  F   UNL     1       9.490   1.970  -7.035  1.00  0.00    -0.203 F 
ATOM     62  C   UNL     1       9.244   3.782  -8.518  1.00  0.00     0.198 A 
ATOM     63  C   UNL     1       7.731   3.621 -10.373  1.00  0.00     0.198 A 
ATOM     64  F   UNL     1       6.458   1.669 -10.689  1.00  0.00    -0.203 F 
ATOM     65  F   UNL     1      10.131   4.487  -7.801  1.00  0.00    -0.200 F 
ATOM     66  C   UNL     1       8.665   4.343  -9.646  1.00  0.00     0.200 A 
ATOM     67  F   UNL     1       7.181   4.154 -11.473  1.00  0.00    -0.200 F 
ATOM     68  F   UNL     1       9.005   5.580 -10.032  1.00  0.00    -0.200 F 
ENDBRANCH  38  58
BRANCH  41  69
ATOM     69  C   UNL     1       5.159  -7.541  -6.387  1.00  0.00     0.064 A 
ATOM     70  C   UNL     1       6.061  -8.577  -6.111  1.00  0.00     0.173 A 
ATOM     71  C   UNL     1       3.788  -7.843  -6.347  1.00  0.00     0.173 A 
ATOM     72  F   UNL     1       7.381  -8.343  -6.152  1.00  0.00    -0.203 F 
ATOM     73  C   UNL     1       5.612  -9.867  -5.835  1.00  0.00     0.198 A 
ATOM     74  C   UNL     1       3.340  -9.123  -6.035  1.00  0.00     0.198 A 
ATOM     75  F   UNL     1       2.881  -6.886  -6.595  1.00  0.00    -0.203 F 
ATOM     76  F   UNL     1       6.498 -10.850  -5.629  1.00  0.00    -0.200 F 
ATOM     77  C   UNL     1       4.253 -10.137  -5.791  1.00  0.00     0.200 A 
ATOM     78  F   UNL     1       2.025  -9.374  -5.972  1.00  0.00    -0.200 F 
ATOM     79  F   UNL     1       3.823 -11.377  -5.521  1.00  0.00    -0.200 F 
ENDBRANCH  41  69
BRANCH  56  80
ATOM     80  C   UNL     1       8.669  -4.800 -11.748  1.00  0.00     0.064 A 
ATOM     81  C   UNL     1       7.857  -5.272 -12.789  1.00  0.00     0.173 A 
ATOM     82  C   UNL     1      10.060  -4.865 -11.918  1.00  0.00     0.173 A 
ATOM     83  F   UNL     1       6.521  -5.250 -12.667  1.00  0.00    -0.203 F 
ATOM     84  C   UNL     1       8.417  -5.807 -13.946  1.00  0.00     0.198 A 
ATOM     85  C   UNL     1      10.616  -5.369 -13.089  1.00  0.00     0.198 A 
ATOM     86  F   UNL     1      10.881  -4.423 -10.953  1.00  0.00    -0.203 F 
ATOM     87  F   UNL     1       7.622  -6.297 -14.908  1.00  0.00    -0.200 F 
ATOM     88  C   UNL     1       9.795  -5.846 -14.100  1.00  0.00     0.200 A 
ATOM     89  F   UNL     1      11.947  -5.392 -13.242  1.00  0.00    -0.200 F 
ATOM     90  F   UNL     1      10.332  -6.349 -15.220  1.00  0.00    -0.200 F 
ENDBRANCH  56  80
ENDBRANCH  21  24
ENDBRANCH  12  14
ENDBRANCH   7  10
ENDBRANCH   4   7
ENDBRANCH   1   4
BRANCH   1  91
ATOM     91  C   UNL     1       4.891   1.577   4.074  1.00  0.00    -0.052 C 
ATOM     92  H   UNL     1       4.516   0.586   3.924  1.00  0.00     0.027 H 
ATOM     93  H   UNL     1       4.612   1.999   5.017  1.00  0.00     0.027 H 
BRANCH  91  94
ATOM     94  C   UNL     1       6.423   1.512   4.070  1.00  0.00    -0.036 C 
ATOM     95  H   UNL     1       6.737   1.050   3.157  1.00  0.00     0.028 H 
ATOM     96  H   UNL     1       6.710   0.953   4.936  1.00  0.00     0.028 H 
BRANCH  94  97
ATOM     97  C   UNL     1       7.107   2.873   4.179  1.00  0.00     0.017 C 
ATOM     98  H   UNL     1       6.772   3.498   3.379  1.00  0.00     0.049 H 
ATOM     99  H   UNL     1       8.166   2.729   4.123  1.00  0.00     0.049 H 
BRANCH  97 100
ATOM    100  N   UNL     1       6.793   3.509   5.442  1.00  0.00    -0.356 N 
ATOM    101  C   UNL     1       7.603   3.837   6.487  1.00  0.00     0.229 C 
ATOM    102  H   UNL     1       5.844   3.740   5.565  1.00  0.00     0.163 HD
ATOM    103  O   UNL     1       7.066   4.232   7.523  1.00  0.00    -0.274 OA
BRANCH 101 104
ATOM    104  C   UNL     1       9.110   3.689   6.339  1.00  0.00     0.080 C 
ATOM    105  C   UNL     1       9.667   2.623   7.308  1.00  0.00    -0.018 C 
ATOM    106  C   UNL     1       9.829   4.914   6.773  1.00  0.00     0.031 A 
ATOM    107  H   UNL     1       9.257   3.452   5.306  1.00  0.00     0.047 H 
ATOM    108  C   UNL     1      11.010   3.179   7.807  1.00  0.00     0.024 C 
ATOM    109  H   UNL     1       9.814   1.694   6.797  1.00  0.00     0.030 H 
ATOM    110  H   UNL     1       8.993   2.431   8.117  1.00  0.00     0.030 H 
ATOM    111  N   UNL     1      10.896   4.609   7.570  1.00  0.00    -0.341 N 
ATOM    112  C   UNL     1       9.760   6.271   6.630  1.00  0.00    -0.040 A 
ATOM    113  H   UNL     1      11.825   2.764   7.253  1.00  0.00     0.050 H 
ATOM    114  H   UNL     1      11.204   2.942   8.832  1.00  0.00     0.050 H 
ATOM    115  C   UNL     1      11.575   5.729   7.943  1.00  0.00     0.090 A 
ATOM    116  C   UNL     1      10.856   6.784   7.372  1.00  0.00    -0.033 A 
ATOM    117  H   UNL     1       9.059   6.808   6.096  1.00  0.00     0.064 H 
ATOM    118  H   UNL     1      11.087   7.785   7.475  1.00  0.00     0.065 H 
BRANCH 115 119
ATOM    119  C   UNL     1      12.751   5.877   8.785  1.00  0.00     0.209 C 
ATOM    120  O   UNL     1      13.150   6.970   9.187  1.00  0.00    -0.287 OA
BRANCH 119 121
ATOM    121  C   UNL     1      13.527   4.700   9.226  1.00  0.00     0.024 A 
ATOM    122  C   UNL     1      13.717   4.508  10.598  1.00  0.00    -0.051 A 
ATOM    123  C   UNL     1      14.108   3.825   8.303  1.00  0.00    -0.051 A 
ATOM    124  C   UNL     1      14.445   3.408  11.049  1.00  0.00    -0.062 A 
ATOM    125  H   UNL     1      13.319   5.177  11.275  1.00  0.00     0.063 H 
ATOM    126  C   UNL     1      14.825   2.718   8.759  1.00  0.00    -0.062 A 
ATOM    127  H   UNL     1      14.007   3.997   7.290  1.00  0.00     0.063 H 
ATOM    128  C   UNL     1      14.988   2.509  10.130  1.00  0.00    -0.062 A 
ATOM    129  H   UNL     1      14.583   3.259  12.061  1.00  0.00     0.062 H 
ATOM    130  H   UNL     1      15.234   2.054   8.084  1.00  0.00     0.062 H 
ATOM    131  H   UNL     1      15.513   1.685  10.465  1.00  0.00     0.062 H 
ENDBRANCH 119 121
ENDBRANCH 115 119
ENDBRANCH 101 104
ENDBRANCH  97 100
ENDBRANCH  94  97
ENDBRANCH  91  94
ENDBRANCH   1  91
TORSDOF 15
