REMARK SMILES COc1ccc(-c2noc(CC(=O)NCCCCCCNC(=O)c3ccc(-c4c5nc(c(-c6c(F)c(F)c(F)c(F)c6F)c6ccc([nH]6)c(-c6c(F)c(F)c(F)c(F)c6F)c6nc(c(-c7c(F)c(F)c(F)c(F)c7F)c7ccc4[nH]7)C=C6)C=C5)cc3)c2-c2ccc(OC)cc2)cc1
REMARK SMILES IDX 16 1 15 4 14 7 12 8 13 9 11 11 10 14 7 15 8 16 87 17 9 18
REMARK SMILES IDX 6 19 3 20 4 21 97 22 5 23 96 25 2 29 1 30 88 34 89 35 95 36
REMARK SMILES IDX 90 37 94 39 91 41 92 44 93 45 17 49 18 52 19 55 20 58 21 61
REMARK SMILES IDX 22 62 23 64 24 65 25 66 86 67 26 68 85 70 27 72 28 75 29 76
REMARK SMILES IDX 79 77 30 78 84 79 78 80 80 81 31 82 83 83 77 85 76 87 32 89
REMARK SMILES IDX 64 92 44 93 63 94 45 95 48 96 62 97 81 98 46 99 47 101
REMARK SMILES IDX 61 103 82 104 49 107 33 109 34 110 42 111 35 112 36 113
REMARK SMILES IDX 40 114 43 115 37 116 38 117 41 118 39 119 65 120 66 121
REMARK SMILES IDX 74 122 67 123 68 124 72 125 75 126 69 127 70 128 73 129
REMARK SMILES IDX 71 130 50 131 51 132 59 133 52 134 53 135 57 136 60 137
REMARK SMILES IDX 54 138 55 139 58 140 56 141
REMARK H PARENT 16 2 16 3 15 5 15 6 14 10 11 12 11 13 4 24 97 26 5 27 96 28
REMARK H PARENT 1 31 1 32 1 33 89 38 95 40 90 42 94 43 93 46 93 47 93 48 17 50
REMARK H PARENT 17 51 18 53 18 54 19 56 19 57 20 59 20 60 21 63 25 69 86 71
REMARK H PARENT 26 73 85 74 84 84 78 86 80 88 83 90 77 91 45 100 48 102 81 105
REMARK H PARENT 46 106 82 108
REMARK Flexibility Score: inf
ROOT
ATOM      1  C   UNL     1       0.075  -9.307  -3.105  1.00  0.00    -0.036 C 
ATOM      2  H   UNL     1      -0.065  -8.484  -3.774  1.00  0.00     0.028 H 
ATOM      3  H   UNL     1       0.039  -9.006  -2.078  1.00  0.00     0.028 H 
ENDROOT
BRANCH   1   4
ATOM      4  C   UNL     1       1.462  -9.901  -3.351  1.00  0.00     0.017 C 
ATOM      5  H   UNL     1       2.203  -9.237  -2.956  1.00  0.00     0.049 H 
ATOM      6  H   UNL     1       1.518 -10.853  -2.866  1.00  0.00     0.049 H 
BRANCH   4   7
ATOM      7  N   UNL     1       1.700 -10.088  -4.768  1.00  0.00    -0.356 N 
ATOM      8  C   UNL     1       2.454  -9.331  -5.618  1.00  0.00     0.227 C 
ATOM      9  O   UNL     1       2.436  -9.611  -6.818  1.00  0.00    -0.275 OA
ATOM     10  H   UNL     1       1.256 -10.867  -5.173  1.00  0.00     0.163 HD
BRANCH   8  11
ATOM     11  C   UNL     1       3.369  -8.253  -5.074  1.00  0.00     0.088 C 
ATOM     12  H   UNL     1       3.964  -8.673  -4.290  1.00  0.00     0.045 H 
ATOM     13  H   UNL     1       3.971  -7.903  -5.886  1.00  0.00     0.045 H 
BRANCH  11  14
ATOM     14  C   UNL     1       2.629  -7.087  -4.534  1.00  0.00     0.154 A 
ATOM     15  C   UNL     1       1.682  -5.362  -3.511  1.00  0.00     0.122 A 
ATOM     16  N   UNL     1       1.105  -5.449  -4.718  1.00  0.00    -0.079 NA
ATOM     17  C   UNL     1       2.643  -6.401  -3.336  1.00  0.00     0.053 A 
ATOM     18  O   UNL     1       1.716  -6.508  -5.361  1.00  0.00    -0.360 OA
BRANCH  15  19
ATOM     19  C   UNL     1       1.331  -4.312  -2.565  1.00  0.00     0.005 A 
ATOM     20  C   UNL     1       0.700  -2.328  -0.690  1.00  0.00     0.118 A 
ATOM     21  C   UNL     1      -0.297  -3.172  -1.183  1.00  0.00    -0.019 A 
ATOM     22  C   UNL     1       2.018  -2.490  -1.111  1.00  0.00    -0.019 A 
ATOM     23  C   UNL     1       0.011  -4.152  -2.131  1.00  0.00    -0.049 A 
ATOM     24  H   UNL     1      -1.267  -3.072  -0.844  1.00  0.00     0.066 H 
ATOM     25  C   UNL     1       2.332  -3.478  -2.048  1.00  0.00    -0.049 A 
ATOM     26  H   UNL     1       2.761  -1.883  -0.732  1.00  0.00     0.066 H 
ATOM     27  H   UNL     1      -0.735  -4.756  -2.510  1.00  0.00     0.063 H 
ATOM     28  H   UNL     1       3.308  -3.595  -2.362  1.00  0.00     0.063 H 
BRANCH  20  29
ATOM     29  O   UNL     1       0.302  -1.405   0.238  1.00  0.00    -0.497 OA
BRANCH  29  30
ATOM     30  C   UNL     1       0.914  -0.127   0.082  1.00  0.00     0.078 C 
ATOM     31  H   UNL     1       0.555   0.536   0.841  1.00  0.00     0.067 H 
ATOM     32  H   UNL     1       0.671   0.270  -0.881  1.00  0.00     0.067 H 
ATOM     33  H   UNL     1       1.976  -0.227   0.170  1.00  0.00     0.067 H 
ENDBRANCH  29  30
ENDBRANCH  20  29
ENDBRANCH  15  19
BRANCH  17  34
ATOM     34  C   UNL     1       3.423  -6.766  -2.169  1.00  0.00    -0.012 A 
ATOM     35  C   UNL     1       2.770  -7.017  -0.956  1.00  0.00    -0.050 A 
ATOM     36  C   UNL     1       4.815  -6.870  -2.228  1.00  0.00    -0.050 A 
ATOM     37  C   UNL     1       3.502  -7.382   0.174  1.00  0.00    -0.019 A 
ATOM     38  H   UNL     1       1.743  -6.932  -0.898  1.00  0.00     0.063 H 
ATOM     39  C   UNL     1       5.547  -7.236  -1.090  1.00  0.00    -0.019 A 
ATOM     40  H   UNL     1       5.308  -6.677  -3.114  1.00  0.00     0.063 H 
ATOM     41  C   UNL     1       4.892  -7.495   0.115  1.00  0.00     0.118 A 
ATOM     42  H   UNL     1       3.011  -7.571   1.063  1.00  0.00     0.066 H 
ATOM     43  H   UNL     1       6.575  -7.314  -1.143  1.00  0.00     0.066 H 
BRANCH  41  44
ATOM     44  O   UNL     1       5.481  -7.862   1.292  1.00  0.00    -0.497 OA
BRANCH  44  45
ATOM     45  C   UNL     1       6.901  -7.941   1.306  1.00  0.00     0.078 C 
ATOM     46  H   UNL     1       7.231  -8.237   2.280  1.00  0.00     0.067 H 
ATOM     47  H   UNL     1       7.314  -6.985   1.064  1.00  0.00     0.067 H 
ATOM     48  H   UNL     1       7.225  -8.663   0.586  1.00  0.00     0.067 H 
ENDBRANCH  44  45
ENDBRANCH  41  44
ENDBRANCH  17  34
ENDBRANCH  11  14
ENDBRANCH   8  11
ENDBRANCH   4   7
ENDBRANCH   1   4
BRANCH   1  49
ATOM     49  C   UNL     1      -1.068 -10.308  -3.321  1.00  0.00    -0.052 C 
ATOM     50  H   UNL     1      -1.018 -10.655  -4.332  1.00  0.00     0.027 H 
ATOM     51  H   UNL     1      -1.972  -9.783  -3.096  1.00  0.00     0.027 H 
BRANCH  49  52
ATOM     52  C   UNL     1      -1.042 -11.531  -2.396  1.00  0.00    -0.052 C 
ATOM     53  H   UNL     1      -0.165 -12.100  -2.624  1.00  0.00     0.027 H 
ATOM     54  H   UNL     1      -1.954 -12.061  -2.578  1.00  0.00     0.027 H 
BRANCH  52  55
ATOM     55  C   UNL     1      -1.025 -11.215  -0.898  1.00  0.00    -0.036 C 
ATOM     56  H   UNL     1      -0.143 -10.648  -0.687  1.00  0.00     0.028 H 
ATOM     57  H   UNL     1      -1.053 -12.156  -0.390  1.00  0.00     0.028 H 
BRANCH  55  58
ATOM     58  C   UNL     1      -2.230 -10.421  -0.399  1.00  0.00     0.018 C 
ATOM     59  H   UNL     1      -2.298  -9.511  -0.957  1.00  0.00     0.049 H 
ATOM     60  H   UNL     1      -2.089 -10.227   0.644  1.00  0.00     0.049 H 
BRANCH  58  61
ATOM     61  N   UNL     1      -3.473 -11.161  -0.554  1.00  0.00    -0.352 N 
ATOM     62  C   UNL     1      -4.442 -11.446   0.370  1.00  0.00     0.251 C 
ATOM     63  H   UNL     1      -3.643 -11.508  -1.459  1.00  0.00     0.163 HD
ATOM     64  O   UNL     1      -5.332 -12.254   0.098  1.00  0.00    -0.269 OA
BRANCH  62  65
ATOM     65  C   UNL     1      -4.425 -10.806   1.702  1.00  0.00     0.039 A 
ATOM     66  C   UNL     1      -4.714 -11.585   2.826  1.00  0.00    -0.049 A 
ATOM     67  C   UNL     1      -4.172  -9.438   1.845  1.00  0.00    -0.049 A 
ATOM     68  C   UNL     1      -4.702 -11.005   4.097  1.00  0.00    -0.053 A 
ATOM     69  H   UNL     1      -4.935 -12.587   2.718  1.00  0.00     0.063 H 
ATOM     70  C   UNL     1      -4.101  -8.873   3.117  1.00  0.00    -0.053 A 
ATOM     71  H   UNL     1      -4.037  -8.848   1.009  1.00  0.00     0.063 H 
ATOM     72  C   UNL     1      -4.372  -9.649   4.254  1.00  0.00    -0.014 A 
ATOM     73  H   UNL     1      -4.936 -11.576   4.924  1.00  0.00     0.063 H 
ATOM     74  H   UNL     1      -3.847  -7.878   3.223  1.00  0.00     0.063 H 
BRANCH  72  75
ATOM     75  C   UNL     1      -4.318  -9.028   5.601  1.00  0.00     0.031 A 
ATOM     76  C   UNL     1      -5.314  -7.971   5.987  1.00  0.00     0.074 A 
ATOM     77  C   UNL     1      -3.341  -9.380   6.457  1.00  0.00     0.049 A 
ATOM     78  N   UNL     1      -5.398  -7.278   7.095  1.00  0.00    -0.248 NA
ATOM     79  C   UNL     1      -6.339  -7.633   4.988  1.00  0.00    -0.034 C 
ATOM     80  C   UNL     1      -2.291 -10.362   6.183  1.00  0.00    -0.036 A 
ATOM     81  N   UNL     1      -3.066  -8.945   7.729  1.00  0.00    -0.354 N 
ATOM     82  C   UNL     1      -6.472  -6.415   6.920  1.00  0.00     0.074 A 
ATOM     83  C   UNL     1      -6.981  -6.638   5.583  1.00  0.00    -0.034 C 
ATOM     84  H   UNL     1      -6.513  -8.058   4.064  1.00  0.00     0.065 H 
ATOM     85  C   UNL     1      -1.498 -10.470   7.261  1.00  0.00    -0.036 A 
ATOM     86  H   UNL     1      -2.179 -10.888   5.302  1.00  0.00     0.065 H 
ATOM     87  C   UNL     1      -1.964  -9.543   8.289  1.00  0.00     0.049 A 
ATOM     88  H   UNL     1      -3.608  -8.269   8.196  1.00  0.00     0.167 HD
ATOM     89  C   UNL     1      -6.998  -5.532   7.801  1.00  0.00     0.037 A 
ATOM     90  H   UNL     1      -7.743  -6.093   5.151  1.00  0.00     0.065 H 
ATOM     91  H   UNL     1      -0.689 -11.104   7.349  1.00  0.00     0.065 H 
ATOM     92  C   UNL     1      -1.394  -9.362   9.495  1.00  0.00     0.037 A 
ATOM     93  C   UNL     1      -6.509  -5.331   9.140  1.00  0.00     0.049 A 
ATOM     94  C   UNL     1      -2.001  -8.378  10.457  1.00  0.00     0.074 A 
ATOM     95  C   UNL     1      -7.011  -4.502  10.128  1.00  0.00    -0.036 A 
ATOM     96  N   UNL     1      -5.401  -5.969   9.678  1.00  0.00    -0.354 N 
ATOM     97  N   UNL     1      -3.054  -7.613  10.303  1.00  0.00    -0.248 NA
ATOM     98  C   UNL     1      -1.342  -8.237  11.763  1.00  0.00    -0.034 C 
ATOM     99  C   UNL     1      -6.186  -4.612  11.253  1.00  0.00    -0.036 A 
ATOM    100  H   UNL     1      -7.850  -3.906  10.050  1.00  0.00     0.065 H 
ATOM    101  C   UNL     1      -5.194  -5.539  10.979  1.00  0.00     0.049 A 
ATOM    102  H   UNL     1      -4.844  -6.629   9.205  1.00  0.00     0.167 HD
ATOM    103  C   UNL     1      -3.200  -6.921  11.497  1.00  0.00     0.074 A 
ATOM    104  C   UNL     1      -2.135  -7.366  12.372  1.00  0.00    -0.034 C 
ATOM    105  H   UNL     1      -0.487  -8.695  12.114  1.00  0.00     0.065 H 
ATOM    106  H   UNL     1      -6.297  -4.090  12.136  1.00  0.00     0.065 H 
ATOM    107  C   UNL     1      -4.133  -5.999  11.838  1.00  0.00     0.037 A 
ATOM    108  H   UNL     1      -2.010  -7.047  13.345  1.00  0.00     0.065 H 
BRANCH  89 109
ATOM    109  C   UNL     1      -8.174  -4.718   7.348  1.00  0.00     0.064 A 
ATOM    110  C   UNL     1      -9.441  -5.295   7.170  1.00  0.00     0.173 A 
ATOM    111  C   UNL     1      -8.044  -3.339   7.123  1.00  0.00     0.173 A 
ATOM    112  F   UNL     1      -9.615  -6.611   7.361  1.00  0.00    -0.203 F 
ATOM    113  C   UNL     1     -10.527  -4.527   6.759  1.00  0.00     0.198 A 
ATOM    114  C   UNL     1      -9.138  -2.569   6.739  1.00  0.00     0.198 A 
ATOM    115  F   UNL     1      -6.856  -2.736   7.285  1.00  0.00    -0.203 F 
ATOM    116  F   UNL     1     -11.717  -5.109   6.553  1.00  0.00    -0.200 F 
ATOM    117  C   UNL     1     -10.377  -3.164   6.550  1.00  0.00     0.200 A 
ATOM    118  F   UNL     1      -8.995  -1.250   6.549  1.00  0.00    -0.200 F 
ATOM    119  F   UNL     1     -11.425  -2.425   6.160  1.00  0.00    -0.200 F 
ENDBRANCH  89 109
BRANCH  92 120
ATOM    120  C   UNL     1      -0.196 -10.154   9.873  1.00  0.00     0.064 A 
ATOM    121  C   UNL     1      -0.282 -11.166  10.840  1.00  0.00     0.173 A 
ATOM    122  C   UNL     1       1.053  -9.918   9.282  1.00  0.00     0.173 A 
ATOM    123  F   UNL     1      -1.451 -11.413  11.448  1.00  0.00    -0.203 F 
ATOM    124  C   UNL     1       0.842 -11.900  11.213  1.00  0.00     0.198 A 
ATOM    125  C   UNL     1       2.170 -10.670   9.639  1.00  0.00     0.198 A 
ATOM    126  F   UNL     1       1.185  -8.964   8.350  1.00  0.00    -0.203 F 
ATOM    127  F   UNL     1       0.741 -12.834  12.169  1.00  0.00    -0.200 F 
ATOM    128  C   UNL     1       2.065 -11.656  10.609  1.00  0.00     0.200 A 
ATOM    129  F   UNL     1       3.349 -10.439   9.044  1.00  0.00    -0.200 F 
ATOM    130  F   UNL     1       3.145 -12.364  10.966  1.00  0.00    -0.200 F 
ENDBRANCH  92 120
BRANCH 107 131
ATOM    131  C   UNL     1      -4.063  -5.433  13.225  1.00  0.00     0.064 A 
ATOM    132  C   UNL     1      -3.072  -4.511  13.592  1.00  0.00     0.173 A 
ATOM    133  C   UNL     1      -5.021  -5.789  14.187  1.00  0.00     0.173 A 
ATOM    134  F   UNL     1      -2.124  -4.153  12.712  1.00  0.00    -0.203 F 
ATOM    135  C   UNL     1      -3.029  -3.982  14.879  1.00  0.00     0.198 A 
ATOM    136  C   UNL     1      -4.990  -5.238  15.464  1.00  0.00     0.198 A 
ATOM    137  F   UNL     1      -5.992  -6.663  13.883  1.00  0.00    -0.203 F 
ATOM    138  F   UNL     1      -2.048  -3.136  15.221  1.00  0.00    -0.200 F 
ATOM    139  C   UNL     1      -3.992  -4.340  15.811  1.00  0.00     0.200 A 
ATOM    140  F   UNL     1      -5.927  -5.577  16.361  1.00  0.00    -0.200 F 
ATOM    141  F   UNL     1      -3.952  -3.826  17.048  1.00  0.00    -0.200 F 
ENDBRANCH 107 131
ENDBRANCH  72  75
ENDBRANCH  62  65
ENDBRANCH  58  61
ENDBRANCH  55  58
ENDBRANCH  52  55
ENDBRANCH  49  52
ENDBRANCH   1  49
TORSDOF 20
