REMARK SMILES Cc1ccc(-c2nn(-c3ccccc3)cc2[C@@H]2[NH2+][C@H](C(=O)NCCCCCCNC(=O)c3ccc(-c4c5nc(c(-c6c(F)c(F)c(F)c(F)c6F)c6ccc([nH]6)c(-c6c(F)c(F)c(F)c(F)c6F)c6nc(c(-c7c(F)c(F)c(F)c(F)c7F)c7ccc4[nH]7)C=C6)C=C5)cc3)CS2)cc1
REMARK SMILES IDX 25 1 24 4 23 7 22 10 20 11 21 12 19 14 17 15 18 16 96 17
REMARK SMILES IDX 95 21 16 25 6 26 7 27 8 28 15 29 5 31 2 32 3 33 98 34 4 35
REMARK SMILES IDX 97 37 1 41 9 45 10 46 14 47 11 48 13 50 12 52 26 56 27 59
REMARK SMILES IDX 28 62 29 65 30 66 31 68 32 69 33 70 94 71 34 72 93 74 35 76
REMARK SMILES IDX 36 79 37 80 87 81 38 82 92 83 86 84 88 85 39 86 91 87 85 89
REMARK SMILES IDX 84 91 40 93 72 96 52 97 71 98 53 99 56 100 70 101 89 102
REMARK SMILES IDX 54 103 55 105 69 107 90 108 57 111 41 113 42 114 50 115
REMARK SMILES IDX 43 116 44 117 48 118 51 119 45 120 46 121 49 122 47 123
REMARK SMILES IDX 73 124 74 125 82 126 75 127 76 128 80 129 83 130 77 131
REMARK SMILES IDX 78 132 81 133 79 134 58 135 59 136 67 137 60 138 61 139
REMARK SMILES IDX 65 140 68 141 62 142 63 143 66 144 64 145
REMARK H PARENT 25 2 25 3 24 5 24 6 23 8 23 9 22 13 17 18 18 19 18 20 19 22
REMARK H PARENT 95 23 95 24 15 30 3 36 98 38 4 39 97 40 1 42 1 43 1 44 10 49
REMARK H PARENT 14 51 11 53 13 54 12 55 26 57 26 58 27 60 27 61 28 63 28 64
REMARK H PARENT 29 67 33 73 94 75 34 77 93 78 92 88 86 90 88 92 91 94 85 95
REMARK H PARENT 53 104 56 106 89 109 54 110 90 112
REMARK Flexibility Score: inf
ROOT
ATOM      1  C   UNL     1      -4.780  -1.383  -3.505  1.00  0.00    -0.052 C 
ATOM      2  H   UNL     1      -5.127  -2.173  -4.137  1.00  0.00     0.027 H 
ATOM      3  H   UNL     1      -3.902  -0.815  -3.734  1.00  0.00     0.027 H 
ENDROOT
BRANCH   1   4
ATOM      4  C   UNL     1      -4.322  -2.076  -2.191  1.00  0.00    -0.036 C 
ATOM      5  H   UNL     1      -4.428  -3.127  -2.365  1.00  0.00     0.028 H 
ATOM      6  H   UNL     1      -3.355  -1.640  -2.055  1.00  0.00     0.028 H 
BRANCH   4   7
ATOM      7  C   UNL     1      -4.957  -1.815  -0.824  1.00  0.00     0.018 C 
ATOM      8  H   UNL     1      -4.162  -1.698  -0.117  1.00  0.00     0.049 H 
ATOM      9  H   UNL     1      -5.570  -0.950  -0.965  1.00  0.00     0.049 H 
BRANCH   7  10
ATOM     10  N   UNL     1      -5.858  -2.833  -0.304  1.00  0.00    -0.351 N 
ATOM     11  C   UNL     1      -6.159  -3.229   0.971  1.00  0.00     0.279 C 
ATOM     12  O   UNL     1      -7.185  -3.923   1.072  1.00  0.00    -0.268 OA
ATOM     13  H   UNL     1      -6.343  -3.331  -1.001  1.00  0.00     0.163 HD
BRANCH  11  14
ATOM     14  C   UNL     1      -5.356  -2.961   2.278  1.00  0.00     0.176 C 
ATOM     15  C   UNL     1      -4.060  -1.000   2.874  1.00  0.00     0.163 C 
ATOM     16  N   UNL     1      -4.048  -2.275   2.149  1.00  0.00    -0.320 N 
ATOM     17  S   UNL     1      -5.133  -1.251   4.300  1.00  0.00    -0.087 SA
ATOM     18  H   UNL     1      -3.101  -0.685   3.228  1.00  0.00     0.115 H 
ATOM     19  H   UNL     1      -3.316  -2.873   2.534  1.00  0.00     0.348 HD
ATOM     20  H   UNL     1      -3.868  -2.091   1.162  1.00  0.00     0.348 HD
ATOM     21  C   UNL     1      -6.240  -2.336   3.367  1.00  0.00     0.061 C 
ATOM     22  H   UNL     1      -5.063  -3.943   2.583  1.00  0.00     0.108 H 
ATOM     23  H   UNL     1      -6.647  -3.094   4.002  1.00  0.00     0.045 H 
ATOM     24  H   UNL     1      -7.071  -1.804   2.954  1.00  0.00     0.045 H 
BRANCH  15  25
ATOM     25  C   UNL     1      -4.519   0.071   1.938  1.00  0.00     0.067 A 
ATOM     26  C   UNL     1      -3.749   0.801   0.958  1.00  0.00     0.103 A 
ATOM     27  N   UNL     1      -4.538   1.690   0.306  1.00  0.00    -0.167 NA
ATOM     28  N   UNL     1      -5.801   1.395   0.712  1.00  0.00    -0.240 N 
ATOM     29  C   UNL     1      -5.806   0.540   1.770  1.00  0.00     0.041 A 
ATOM     30  H   UNL     1      -6.625   0.288   2.345  1.00  0.00     0.085 H 
BRANCH  26  31
ATOM     31  C   UNL     1      -2.314   0.634   0.616  1.00  0.00     0.003 A 
ATOM     32  C   UNL     1       0.463   0.318   0.056  1.00  0.00    -0.051 A 
ATOM     33  C   UNL     1      -0.342  -0.794   0.282  1.00  0.00    -0.059 A 
ATOM     34  C   UNL     1      -0.133   1.584   0.062  1.00  0.00    -0.059 A 
ATOM     35  C   UNL     1      -1.704  -0.632   0.558  1.00  0.00    -0.052 A 
ATOM     36  H   UNL     1       0.066  -1.741   0.245  1.00  0.00     0.063 H 
ATOM     37  C   UNL     1      -1.507   1.740   0.331  1.00  0.00    -0.052 A 
ATOM     38  H   UNL     1       0.443   2.417  -0.134  1.00  0.00     0.063 H 
ATOM     39  H   UNL     1      -2.282  -1.471   0.725  1.00  0.00     0.063 H 
ATOM     40  H   UNL     1      -1.923   2.684   0.318  1.00  0.00     0.063 H 
BRANCH  32  41
ATOM     41  C   UNL     1       1.932   0.126  -0.186  1.00  0.00    -0.040 C 
ATOM     42  H   UNL     1       2.167  -0.917  -0.146  1.00  0.00     0.028 H 
ATOM     43  H   UNL     1       2.488   0.646   0.566  1.00  0.00     0.028 H 
ATOM     44  H   UNL     1       2.188   0.513  -1.150  1.00  0.00     0.028 H 
ENDBRANCH  32  41
ENDBRANCH  26  31
BRANCH  28  45
ATOM     45  C   UNL     1      -6.957   1.718  -0.038  1.00  0.00     0.065 A 
ATOM     46  C   UNL     1      -7.767   0.677  -0.534  1.00  0.00    -0.036 A 
ATOM     47  C   UNL     1      -7.296   3.046  -0.277  1.00  0.00    -0.036 A 
ATOM     48  C   UNL     1      -8.863   0.968  -1.345  1.00  0.00    -0.060 A 
ATOM     49  H   UNL     1      -7.549  -0.303  -0.295  1.00  0.00     0.065 H 
ATOM     50  C   UNL     1      -8.451   3.328  -1.016  1.00  0.00    -0.060 A 
ATOM     51  H   UNL     1      -6.707   3.811   0.086  1.00  0.00     0.065 H 
ATOM     52  C   UNL     1      -9.212   2.295  -1.575  1.00  0.00    -0.062 A 
ATOM     53  H   UNL     1      -9.410   0.205  -1.772  1.00  0.00     0.062 H 
ATOM     54  H   UNL     1      -8.744   4.308  -1.150  1.00  0.00     0.062 H 
ATOM     55  H   UNL     1     -10.033   2.518  -2.159  1.00  0.00     0.062 H 
ENDBRANCH  28  45
ENDBRANCH  15  25
ENDBRANCH  11  14
ENDBRANCH   7  10
ENDBRANCH   4   7
ENDBRANCH   1   4
BRANCH   1  56
ATOM     56  C   UNL     1      -5.849  -0.282  -3.603  1.00  0.00    -0.052 C 
ATOM     57  H   UNL     1      -6.705  -0.622  -3.058  1.00  0.00     0.027 H 
ATOM     58  H   UNL     1      -5.989  -0.144  -4.655  1.00  0.00     0.027 H 
BRANCH  56  59
ATOM     59  C   UNL     1      -5.504   1.115  -3.082  1.00  0.00    -0.036 C 
ATOM     60  H   UNL     1      -4.976   0.986  -2.159  1.00  0.00     0.028 H 
ATOM     61  H   UNL     1      -6.449   1.612  -3.018  1.00  0.00     0.028 H 
BRANCH  59  62
ATOM     62  C   UNL     1      -4.655   2.032  -3.962  1.00  0.00     0.018 C 
ATOM     63  H   UNL     1      -4.111   1.418  -4.649  1.00  0.00     0.049 H 
ATOM     64  H   UNL     1      -4.034   2.589  -3.292  1.00  0.00     0.049 H 
BRANCH  62  65
ATOM     65  N   UNL     1      -5.402   3.033  -4.744  1.00  0.00    -0.352 N 
ATOM     66  C   UNL     1      -4.893   4.062  -5.537  1.00  0.00     0.251 C 
ATOM     67  H   UNL     1      -6.384   2.968  -4.701  1.00  0.00     0.163 HD
ATOM     68  O   UNL     1      -5.605   4.845  -6.133  1.00  0.00    -0.269 OA
BRANCH  66  69
ATOM     69  C   UNL     1      -3.424   4.098  -5.722  1.00  0.00     0.039 A 
ATOM     70  C   UNL     1      -2.940   3.647  -6.954  1.00  0.00    -0.049 A 
ATOM     71  C   UNL     1      -2.624   4.113  -4.583  1.00  0.00    -0.049 A 
ATOM     72  C   UNL     1      -1.766   2.906  -6.971  1.00  0.00    -0.053 A 
ATOM     73  H   UNL     1      -3.443   3.861  -7.829  1.00  0.00     0.063 H 
ATOM     74  C   UNL     1      -1.508   3.300  -4.584  1.00  0.00    -0.053 A 
ATOM     75  H   UNL     1      -2.856   4.706  -3.772  1.00  0.00     0.063 H 
ATOM     76  C   UNL     1      -1.146   2.618  -5.756  1.00  0.00    -0.014 A 
ATOM     77  H   UNL     1      -1.362   2.576  -7.861  1.00  0.00     0.063 H 
ATOM     78  H   UNL     1      -0.943   3.196  -3.727  1.00  0.00     0.063 H 
BRANCH  76  79
ATOM     79  C   UNL     1      -0.197   1.523  -5.592  1.00  0.00     0.031 A 
ATOM     80  C   UNL     1       1.234   1.823  -5.412  1.00  0.00     0.074 A 
ATOM     81  C   UNL     1      -0.620   0.238  -5.567  1.00  0.00     0.049 A 
ATOM     82  N   UNL     1       2.179   0.961  -5.581  1.00  0.00    -0.248 NA
ATOM     83  C   UNL     1       1.723   3.167  -5.134  1.00  0.00    -0.034 C 
ATOM     84  C   UNL     1       0.138  -0.932  -5.131  1.00  0.00    -0.036 A 
ATOM     85  N   UNL     1      -1.781  -0.299  -6.147  1.00  0.00    -0.354 N 
ATOM     86  C   UNL     1       3.356   1.544  -5.182  1.00  0.00     0.074 A 
ATOM     87  C   UNL     1       3.037   2.944  -5.054  1.00  0.00    -0.034 C 
ATOM     88  H   UNL     1       1.198   4.049  -5.027  1.00  0.00     0.065 H 
ATOM     89  C   UNL     1      -0.388  -2.028  -5.696  1.00  0.00    -0.036 A 
ATOM     90  H   UNL     1       0.948  -0.917  -4.491  1.00  0.00     0.065 H 
ATOM     91  C   UNL     1      -1.419  -1.588  -6.615  1.00  0.00     0.049 A 
ATOM     92  H   UNL     1      -2.664   0.131  -6.215  1.00  0.00     0.167 HD
ATOM     93  C   UNL     1       4.416   0.735  -4.898  1.00  0.00     0.037 A 
ATOM     94  H   UNL     1       3.742   3.686  -4.918  1.00  0.00     0.065 H 
ATOM     95  H   UNL     1      -0.110  -3.004  -5.511  1.00  0.00     0.065 H 
ATOM     96  C   UNL     1      -1.484  -1.905  -7.940  1.00  0.00     0.037 A 
ATOM     97  C   UNL     1       4.187  -0.622  -5.409  1.00  0.00     0.049 A 
ATOM     98  C   UNL     1      -0.158  -2.274  -8.571  1.00  0.00     0.074 A 
ATOM     99  C   UNL     1       3.865  -1.847  -4.848  1.00  0.00    -0.036 A 
ATOM    100  N   UNL     1       4.041  -0.784  -6.777  1.00  0.00    -0.354 N 
ATOM    101  N   UNL     1       0.984  -2.256  -7.942  1.00  0.00    -0.248 NA
ATOM    102  C   UNL     1      -0.003  -2.587  -9.994  1.00  0.00    -0.034 C 
ATOM    103  C   UNL     1       3.495  -2.735  -5.905  1.00  0.00    -0.036 A 
ATOM    104  H   UNL     1       3.888  -2.078  -3.843  1.00  0.00     0.065 H 
ATOM    105  C   UNL     1       3.606  -2.052  -7.103  1.00  0.00     0.049 A 
ATOM    106  H   UNL     1       4.226  -0.079  -7.439  1.00  0.00     0.167 HD
ATOM    107  C   UNL     1       1.997  -2.452  -8.840  1.00  0.00     0.074 A 
ATOM    108  C   UNL     1       1.333  -2.674 -10.110  1.00  0.00    -0.034 C 
ATOM    109  H   UNL     1      -0.729  -2.708 -10.717  1.00  0.00     0.065 H 
ATOM    110  H   UNL     1       3.197  -3.716  -5.793  1.00  0.00     0.065 H 
ATOM    111  C   UNL     1       3.312  -2.361  -8.493  1.00  0.00     0.037 A 
ATOM    112  H   UNL     1       1.826  -2.874 -10.995  1.00  0.00     0.065 H 
BRANCH  93 113
ATOM    113  C   UNL     1       5.598   1.099  -4.013  1.00  0.00     0.064 A 
ATOM    114  C   UNL     1       6.519   0.099  -3.626  1.00  0.00     0.173 A 
ATOM    115  C   UNL     1       5.834   2.356  -3.416  1.00  0.00     0.173 A 
ATOM    116  F   UNL     1       6.459  -1.142  -4.129  1.00  0.00    -0.203 F 
ATOM    117  C   UNL     1       7.533   0.324  -2.686  1.00  0.00     0.198 A 
ATOM    118  C   UNL     1       6.859   2.586  -2.494  1.00  0.00     0.198 A 
ATOM    119  F   UNL     1       5.084   3.428  -3.662  1.00  0.00    -0.203 F 
ATOM    120  F   UNL     1       8.338  -0.684  -2.323  1.00  0.00    -0.200 F 
ATOM    121  C   UNL     1       7.699   1.567  -2.114  1.00  0.00     0.200 A 
ATOM    122  F   UNL     1       7.003   3.809  -1.962  1.00  0.00    -0.200 F 
ATOM    123  F   UNL     1       8.654   1.782  -1.201  1.00  0.00    -0.200 F 
ENDBRANCH  93 113
BRANCH  96 124
ATOM    124  C   UNL     1      -2.595  -1.203  -8.632  1.00  0.00     0.064 A 
ATOM    125  C   UNL     1      -3.913  -1.498  -8.233  1.00  0.00     0.173 A 
ATOM    126  C   UNL     1      -2.376  -0.012  -9.332  1.00  0.00     0.173 A 
ATOM    127  F   UNL     1      -4.172  -2.629  -7.558  1.00  0.00    -0.203 F 
ATOM    128  C   UNL     1      -4.941  -0.576  -8.408  1.00  0.00     0.198 A 
ATOM    129  C   UNL     1      -3.413   0.902  -9.519  1.00  0.00     0.198 A 
ATOM    130  F   UNL     1      -1.139   0.328  -9.722  1.00  0.00    -0.203 F 
ATOM    131  F   UNL     1      -6.158  -0.830  -7.907  1.00  0.00    -0.200 F 
ATOM    132  C   UNL     1      -4.682   0.637  -9.024  1.00  0.00     0.200 A 
ATOM    133  F   UNL     1      -3.158   2.085 -10.095  1.00  0.00    -0.200 F 
ATOM    134  F   UNL     1      -5.643   1.567  -9.104  1.00  0.00    -0.200 F 
ENDBRANCH  96 124
BRANCH 111 135
ATOM    135  C   UNL     1       4.431  -2.551  -9.469  1.00  0.00     0.064 A 
ATOM    136  C   UNL     1       4.514  -3.680 -10.297  1.00  0.00     0.173 A 
ATOM    137  C   UNL     1       5.524  -1.662  -9.507  1.00  0.00     0.173 A 
ATOM    138  F   UNL     1       3.529  -4.591 -10.309  1.00  0.00    -0.203 F 
ATOM    139  C   UNL     1       5.621  -3.902 -11.119  1.00  0.00     0.198 A 
ATOM    140  C   UNL     1       6.649  -1.910 -10.290  1.00  0.00     0.198 A 
ATOM    141  F   UNL     1       5.514  -0.520  -8.802  1.00  0.00    -0.203 F 
ATOM    142  F   UNL     1       5.649  -4.974 -11.923  1.00  0.00    -0.200 F 
ATOM    143  C   UNL     1       6.695  -3.028 -11.100  1.00  0.00     0.200 A 
ATOM    144  F   UNL     1       7.685  -1.060 -10.255  1.00  0.00    -0.200 F 
ATOM    145  F   UNL     1       7.771  -3.259 -11.866  1.00  0.00    -0.200 F 
ENDBRANCH 111 135
ENDBRANCH  76  79
ENDBRANCH  66  69
ENDBRANCH  62  65
ENDBRANCH  59  62
ENDBRANCH  56  59
ENDBRANCH   1  56
TORSDOF 17
