REMARK SMILES CC(=O)Nc1ccc(/C(=C\c2ccc(S(C)(=O)=O)cc2)C(=O)NCCCCCCNC(=O)c2ccc(-c3c4nc(c(-c5c(F)c(F)c(F)c(F)c5F)c5ccc([nH]5)c(-c5c(F)c(F)c(F)c(F)c5F)c5nc(c(-c6c(F)c(F)c(F)c(F)c6F)c6ccc3[nH]6)C=C5)C=C4)cc2)cc1
REMARK SMILES IDX 26 1 25 4 24 7 23 10 21 11 22 12 9 14 10 15 8 17 5 18 6 19
REMARK SMILES IDX 97 20 7 21 96 23 4 27 2 28 3 29 1 31 11 35 12 36 20 37 13 38
REMARK SMILES IDX 19 40 14 42 15 45 17 46 18 47 16 48 27 52 28 55 29 58 30 61
REMARK SMILES IDX 31 62 32 64 33 65 34 66 95 67 35 68 94 70 36 72 37 75 38 76
REMARK SMILES IDX 88 77 39 78 93 79 87 80 89 81 40 82 92 83 86 85 85 87 41 89
REMARK SMILES IDX 73 92 53 93 72 94 54 95 57 96 71 97 90 98 55 99 56 101
REMARK SMILES IDX 70 103 91 104 58 107 42 109 43 110 51 111 44 112 45 113
REMARK SMILES IDX 49 114 52 115 46 116 47 117 50 118 48 119 74 120 75 121
REMARK SMILES IDX 83 122 76 123 77 124 81 125 84 126 78 127 79 128 82 129
REMARK SMILES IDX 80 130 59 131 60 132 68 133 61 134 62 135 66 136 69 137
REMARK SMILES IDX 63 138 64 139 67 140 65 141
REMARK H PARENT 26 2 26 3 25 5 25 6 24 8 24 9 23 13 10 16 6 22 97 24 7 25
REMARK H PARENT 96 26 4 30 1 32 1 33 1 34 12 39 20 41 13 43 19 44 16 49 16 50
REMARK H PARENT 16 51 27 53 27 54 28 56 28 57 29 59 29 60 30 63 34 69 95 71
REMARK H PARENT 35 73 94 74 93 84 87 86 89 88 92 90 86 91 54 100 57 102 90 105
REMARK H PARENT 55 106 91 108
REMARK Flexibility Score: inf
ROOT
ATOM      1  C   UNL     1       6.661  -8.156  -3.732  1.00  0.00    -0.052 C 
ATOM      2  H   UNL     1       6.896  -7.115  -3.814  1.00  0.00     0.027 H 
ATOM      3  H   UNL     1       6.298  -8.582  -4.644  1.00  0.00     0.027 H 
ENDROOT
BRANCH   1   4
ATOM      4  C   UNL     1       5.527  -8.309  -2.704  1.00  0.00    -0.036 C 
ATOM      5  H   UNL     1       4.687  -7.739  -3.040  1.00  0.00     0.028 H 
ATOM      6  H   UNL     1       5.306  -9.353  -2.633  1.00  0.00     0.028 H 
BRANCH   4   7
ATOM      7  C   UNL     1       5.909  -7.831  -1.300  1.00  0.00     0.018 C 
ATOM      8  H   UNL     1       5.174  -8.166  -0.598  1.00  0.00     0.049 H 
ATOM      9  H   UNL     1       6.866  -8.232  -1.036  1.00  0.00     0.049 H 
BRANCH   7  10
ATOM     10  N   UNL     1       5.972  -6.386  -1.278  1.00  0.00    -0.352 N 
ATOM     11  C   UNL     1       5.164  -5.378  -0.862  1.00  0.00     0.251 C 
ATOM     12  O   UNL     1       5.625  -4.259  -1.101  1.00  0.00    -0.269 OA
ATOM     13  H   UNL     1       6.813  -6.048  -1.661  1.00  0.00     0.163 HD
BRANCH  11  14
ATOM     14  C   UNL     1       3.854  -5.562  -0.096  1.00  0.00     0.047 C 
ATOM     15  C   UNL     1       3.161  -6.716  -0.253  1.00  0.00    -0.042 C 
ATOM     16  H   UNL     1       3.472  -7.317  -1.032  1.00  0.00     0.064 H 
BRANCH  14  17
ATOM     17  C   UNL     1       3.267  -4.386   0.652  1.00  0.00    -0.013 A 
ATOM     18  C   UNL     1       1.764  -2.172   1.652  1.00  0.00     0.041 A 
ATOM     19  C   UNL     1       1.733  -3.409   2.298  1.00  0.00    -0.038 A 
ATOM     20  C   UNL     1       2.676  -2.003   0.626  1.00  0.00    -0.038 A 
ATOM     21  C   UNL     1       2.501  -4.490   1.823  1.00  0.00    -0.052 A 
ATOM     22  H   UNL     1       1.140  -3.533   3.133  1.00  0.00     0.064 H 
ATOM     23  C   UNL     1       3.378  -3.096   0.113  1.00  0.00    -0.052 A 
ATOM     24  H   UNL     1       2.840  -1.061   0.237  1.00  0.00     0.064 H 
ATOM     25  H   UNL     1       2.501  -5.378   2.349  1.00  0.00     0.063 H 
ATOM     26  H   UNL     1       4.004  -2.949  -0.695  1.00  0.00     0.063 H 
BRANCH  18  27
ATOM     27  N   UNL     1       0.867  -1.177   2.075  1.00  0.00    -0.326 N 
ATOM     28  C   UNL     1       0.416  -0.039   1.466  1.00  0.00     0.221 C 
ATOM     29  O   UNL     1      -0.326   0.715   2.101  1.00  0.00    -0.275 OA
ATOM     30  H   UNL     1       0.496  -1.326   2.975  1.00  0.00     0.169 HD
BRANCH  28  31
ATOM     31  C   UNL     1       0.762   0.277   0.034  1.00  0.00     0.015 C 
ATOM     32  H   UNL     1       0.312   1.206  -0.245  1.00  0.00     0.033 H 
ATOM     33  H   UNL     1       0.395  -0.502  -0.602  1.00  0.00     0.033 H 
ATOM     34  H   UNL     1       1.825   0.350  -0.069  1.00  0.00     0.033 H 
ENDBRANCH  28  31
ENDBRANCH  18  27
ENDBRANCH  14  17
BRANCH  15  35
ATOM     35  C   UNL     1       2.029  -7.232   0.531  1.00  0.00    -0.025 A 
ATOM     36  C   UNL     1       2.320  -8.148   1.559  1.00  0.00    -0.054 A 
ATOM     37  C   UNL     1       0.715  -6.797   0.346  1.00  0.00    -0.054 A 
ATOM     38  C   UNL     1       1.321  -8.575   2.434  1.00  0.00    -0.043 A 
ATOM     39  H   UNL     1       3.281  -8.507   1.667  1.00  0.00     0.063 H 
ATOM     40  C   UNL     1      -0.292  -7.222   1.222  1.00  0.00    -0.043 A 
ATOM     41  H   UNL     1       0.485  -6.163  -0.436  1.00  0.00     0.063 H 
ATOM     42  C   UNL     1       0.020  -8.098   2.267  1.00  0.00     0.067 A 
ATOM     43  H   UNL     1       1.541  -9.235   3.196  1.00  0.00     0.064 H 
ATOM     44  H   UNL     1      -1.261  -6.889   1.097  1.00  0.00     0.064 H 
BRANCH  42  45
ATOM     45  S   UNL     1      -1.208  -8.510   3.488  1.00  0.00     0.175 S 
ATOM     46  O   UNL     1      -0.540  -8.507   4.775  1.00  0.00    -0.224 OA
ATOM     47  O   UNL     1      -2.364  -7.667   3.248  1.00  0.00    -0.224 OA
BRANCH  45  48
ATOM     48  C   UNL     1      -1.659 -10.179   3.102  1.00  0.00     0.043 C 
ATOM     49  H   UNL     1      -0.822 -10.823   3.271  1.00  0.00     0.040 H 
ATOM     50  H   UNL     1      -1.955 -10.240   2.076  1.00  0.00     0.040 H 
ATOM     51  H   UNL     1      -2.474 -10.482   3.727  1.00  0.00     0.040 H 
ENDBRANCH  45  48
ENDBRANCH  42  45
ENDBRANCH  15  35
ENDBRANCH  11  14
ENDBRANCH   7  10
ENDBRANCH   4   7
ENDBRANCH   1   4
BRANCH   1  52
ATOM     52  C   UNL     1       7.951  -8.910  -3.389  1.00  0.00    -0.052 C 
ATOM     53  H   UNL     1       8.397  -8.438  -2.538  1.00  0.00     0.027 H 
ATOM     54  H   UNL     1       8.567  -8.870  -4.263  1.00  0.00     0.027 H 
BRANCH  52  55
ATOM     55  C   UNL     1       7.759 -10.393  -3.064  1.00  0.00    -0.036 C 
ATOM     56  H   UNL     1       7.102 -10.471  -2.223  1.00  0.00     0.028 H 
ATOM     57  H   UNL     1       8.730 -10.796  -2.869  1.00  0.00     0.028 H 
BRANCH  55  58
ATOM     58  C   UNL     1       7.168 -11.207  -4.209  1.00  0.00     0.018 C 
ATOM     59  H   UNL     1       6.263 -10.739  -4.537  1.00  0.00     0.049 H 
ATOM     60  H   UNL     1       6.978 -12.198  -3.852  1.00  0.00     0.049 H 
BRANCH  58  61
ATOM     61  N   UNL     1       8.086 -11.298  -5.332  1.00  0.00    -0.352 N 
ATOM     62  C   UNL     1       8.574 -12.415  -5.961  1.00  0.00     0.251 C 
ATOM     63  H   UNL     1       8.402 -10.438  -5.691  1.00  0.00     0.163 HD
ATOM     64  O   UNL     1       9.516 -12.326  -6.741  1.00  0.00    -0.269 OA
BRANCH  62  65
ATOM     65  C   UNL     1       7.964 -13.733  -5.689  1.00  0.00     0.039 A 
ATOM     66  C   UNL     1       8.797 -14.838  -5.497  1.00  0.00    -0.049 A 
ATOM     67  C   UNL     1       6.574 -13.882  -5.649  1.00  0.00    -0.049 A 
ATOM     68  C   UNL     1       8.236 -16.087  -5.225  1.00  0.00    -0.053 A 
ATOM     69  H   UNL     1       9.822 -14.732  -5.556  1.00  0.00     0.063 H 
ATOM     70  C   UNL     1       6.019 -15.110  -5.306  1.00  0.00    -0.053 A 
ATOM     71  H   UNL     1       5.962 -13.082  -5.874  1.00  0.00     0.063 H 
ATOM     72  C   UNL     1       6.843 -16.228  -5.106  1.00  0.00    -0.014 A 
ATOM     73  H   UNL     1       8.847 -16.911  -5.111  1.00  0.00     0.063 H 
ATOM     74  H   UNL     1       4.997 -15.200  -5.197  1.00  0.00     0.063 H 
BRANCH  72  75
ATOM     75  C   UNL     1       6.226 -17.544  -4.809  1.00  0.00     0.031 A 
ATOM     76  C   UNL     1       5.337 -18.202  -5.827  1.00  0.00     0.074 A 
ATOM     77  C   UNL     1       6.418 -18.117  -3.605  1.00  0.00     0.049 A 
ATOM     78  N   UNL     1       4.645 -19.309  -5.733  1.00  0.00    -0.248 NA
ATOM     79  C   UNL     1       5.179 -17.505  -7.114  1.00  0.00    -0.034 C 
ATOM     80  C   UNL     1       7.226 -17.557  -2.521  1.00  0.00    -0.036 A 
ATOM     81  N   UNL     1       5.939 -19.295  -3.089  1.00  0.00    -0.354 N 
ATOM     82  C   UNL     1       3.962 -19.431  -6.936  1.00  0.00     0.074 A 
ATOM     83  C   UNL     1       4.276 -18.258  -7.722  1.00  0.00    -0.034 C 
ATOM     84  H   UNL     1       5.651 -16.652  -7.454  1.00  0.00     0.065 H 
ATOM     85  C   UNL     1       7.203 -18.399  -1.476  1.00  0.00    -0.036 A 
ATOM     86  H   UNL     1       7.732 -16.658  -2.555  1.00  0.00     0.065 H 
ATOM     87  C   UNL     1       6.351 -19.539  -1.802  1.00  0.00     0.049 A 
ATOM     88  H   UNL     1       5.355 -19.906  -3.593  1.00  0.00     0.167 HD
ATOM     89  C   UNL     1       3.165 -20.442  -7.357  1.00  0.00     0.037 A 
ATOM     90  H   UNL     1       3.851 -18.037  -8.636  1.00  0.00     0.065 H 
ATOM     91  H   UNL     1       7.707 -18.263  -0.586  1.00  0.00     0.065 H 
ATOM     92  C   UNL     1       6.067 -20.565  -0.977  1.00  0.00     0.037 A 
ATOM     93  C   UNL     1       2.881 -21.621  -6.582  1.00  0.00     0.049 A 
ATOM     94  C   UNL     1       5.177 -21.675  -1.468  1.00  0.00     0.074 A 
ATOM     95  C   UNL     1       2.133 -22.729  -6.939  1.00  0.00    -0.036 A 
ATOM     96  N   UNL     1       3.335 -21.844  -5.290  1.00  0.00    -0.354 N 
ATOM     97  N   UNL     1       4.587 -21.811  -2.631  1.00  0.00    -0.248 NA
ATOM     98  C   UNL     1       4.921 -22.780  -0.534  1.00  0.00    -0.034 C 
ATOM     99  C   UNL     1       2.096 -23.602  -5.846  1.00  0.00    -0.036 A 
ATOM    100  H   UNL     1       1.681 -22.885  -7.854  1.00  0.00     0.065 H 
ATOM    101  C   UNL     1       2.865 -23.063  -4.828  1.00  0.00     0.049 A 
ATOM    102  H   UNL     1       3.906 -21.227  -4.778  1.00  0.00     0.167 HD
ATOM    103  C   UNL     1       3.918 -23.027  -2.582  1.00  0.00     0.074 A 
ATOM    104  C   UNL     1       4.186 -23.596  -1.277  1.00  0.00    -0.034 C 
ATOM    105  H   UNL     1       5.231 -22.892   0.443  1.00  0.00     0.065 H 
ATOM    106  H   UNL     1       1.582 -24.495  -5.806  1.00  0.00     0.065 H 
ATOM    107  C   UNL     1       3.152 -23.619  -3.530  1.00  0.00     0.037 A 
ATOM    108  H   UNL     1       3.848 -24.520  -0.965  1.00  0.00     0.065 H 
BRANCH  89 109
ATOM    109  C   UNL     1       2.546 -20.318  -8.720  1.00  0.00     0.064 A 
ATOM    110  C   UNL     1       3.318 -20.393  -9.890  1.00  0.00     0.173 A 
ATOM    111  C   UNL     1       1.160 -20.153  -8.860  1.00  0.00     0.173 A 
ATOM    112  F   UNL     1       4.650 -20.538  -9.812  1.00  0.00    -0.203 F 
ATOM    113  C   UNL     1       2.730 -20.276 -11.146  1.00  0.00     0.198 A 
ATOM    114  C   UNL     1       0.572 -20.068 -10.120  1.00  0.00     0.198 A 
ATOM    115  F   UNL     1       0.374 -20.079  -7.776  1.00  0.00    -0.203 F 
ATOM    116  F   UNL     1       3.495 -20.296 -12.247  1.00  0.00    -0.200 F 
ATOM    117  C   UNL     1       1.357 -20.121 -11.261  1.00  0.00     0.200 A 
ATOM    118  F   UNL     1      -0.757 -19.932 -10.228  1.00  0.00    -0.200 F 
ATOM    119  F   UNL     1       0.792 -20.014 -12.471  1.00  0.00    -0.200 F 
ENDBRANCH  89 109
BRANCH  92 120
ATOM    120  C   UNL     1       6.650 -20.604   0.389  1.00  0.00     0.064 A 
ATOM    121  C   UNL     1       7.622 -21.556   0.730  1.00  0.00     0.173 A 
ATOM    122  C   UNL     1       6.248 -19.699   1.382  1.00  0.00     0.173 A 
ATOM    123  F   UNL     1       8.025 -22.455  -0.180  1.00  0.00    -0.203 F 
ATOM    124  C   UNL     1       8.151 -21.617   2.017  1.00  0.00     0.198 A 
ATOM    125  C   UNL     1       6.800 -19.742   2.661  1.00  0.00     0.198 A 
ATOM    126  F   UNL     1       5.327 -18.764   1.106  1.00  0.00    -0.203 F 
ATOM    127  F   UNL     1       9.042 -22.567   2.329  1.00  0.00    -0.200 F 
ATOM    128  C   UNL     1       7.744 -20.706   2.980  1.00  0.00     0.200 A 
ATOM    129  F   UNL     1       6.414 -18.850   3.584  1.00  0.00    -0.200 F 
ATOM    130  F   UNL     1       8.255 -20.762   4.218  1.00  0.00    -0.200 F 
ENDBRANCH  92 120
BRANCH 107 131
ATOM    131  C   UNL     1       2.583 -24.971  -3.211  1.00  0.00     0.064 A 
ATOM    132  C   UNL     1       1.544 -25.133  -2.283  1.00  0.00     0.173 A 
ATOM    133  C   UNL     1       3.056 -26.113  -3.875  1.00  0.00     0.173 A 
ATOM    134  F   UNL     1       1.067 -24.075  -1.611  1.00  0.00    -0.203 F 
ATOM    135  C   UNL     1       1.018 -26.394  -2.012  1.00  0.00     0.198 A 
ATOM    136  C   UNL     1       2.506 -27.367  -3.625  1.00  0.00     0.198 A 
ATOM    137  F   UNL     1       4.043 -26.010  -4.777  1.00  0.00    -0.203 F 
ATOM    138  F   UNL     1       0.059 -26.532  -1.086  1.00  0.00    -0.200 F 
ATOM    139  C   UNL     1       1.493 -27.507  -2.689  1.00  0.00     0.200 A 
ATOM    140  F   UNL     1       2.956 -28.439  -4.291  1.00  0.00    -0.200 F 
ATOM    141  F   UNL     1       0.979 -28.718  -2.433  1.00  0.00    -0.200 F 
ENDBRANCH 107 131
ENDBRANCH  72  75
ENDBRANCH  62  65
ENDBRANCH  58  61
ENDBRANCH  55  58
ENDBRANCH  52  55
ENDBRANCH   1  52
TORSDOF 19
