REMARK SMILES COc1ccc(/C=C/c2cc(OC)cc(OC)c2/C=C/C(=O)NCCCCCCNC(=O)c2ccc(-c3c4nc(c(-c5c(F)c(F)c(F)c(F)c5F)c5ccc([nH]5)c(-c5c(F)c(F)c(F)c(F)c5F)c5nc(c(-c6c(F)c(F)c(F)c(F)c6F)c6ccc3[nH]6)C=C5)C=C4)cc2)cc1
REMARK SMILES IDX 25 1 24 4 23 7 21 8 22 9 20 11 19 12 18 15 9 16 10 17 11 18
REMARK SMILES IDX 15 20 14 21 8 23 7 24 6 27 3 28 4 29 97 30 5 31 96 33 2 37
REMARK SMILES IDX 1 38 12 42 13 43 16 47 17 48 26 52 27 55 28 58 29 61 30 64
REMARK SMILES IDX 31 65 32 67 33 68 34 69 95 70 35 71 94 73 36 75 37 78 38 79
REMARK SMILES IDX 88 80 39 81 93 82 87 83 89 84 40 85 92 86 86 88 85 90 41 92
REMARK SMILES IDX 73 95 53 96 72 97 54 98 57 99 71 100 90 101 55 102 56 104
REMARK SMILES IDX 70 106 91 107 58 110 42 112 43 113 51 114 44 115 45 116
REMARK SMILES IDX 49 117 52 118 46 119 47 120 50 121 48 122 74 123 75 124
REMARK SMILES IDX 83 125 76 126 77 127 81 128 84 129 78 130 79 131 82 132
REMARK SMILES IDX 80 133 59 134 60 135 68 136 61 137 62 138 66 139 69 140
REMARK SMILES IDX 63 141 64 142 67 143 65 144
REMARK H PARENT 25 2 25 3 24 5 24 6 23 10 19 13 20 14 10 19 14 22 7 25 8 26
REMARK H PARENT 4 32 97 34 5 35 96 36 1 39 1 40 1 41 13 44 13 45 13 46 17 49
REMARK H PARENT 17 50 17 51 26 53 26 54 27 56 27 57 28 59 28 60 29 62 29 63
REMARK H PARENT 30 66 34 72 95 74 35 76 94 77 93 87 87 89 89 91 92 93 86 94
REMARK H PARENT 54 103 57 105 90 108 55 109 91 111
REMARK Flexibility Score: inf
ROOT
ATOM      1  C   UNL     1       3.252  -2.812  -5.951  1.00  0.00    -0.036 C 
ATOM      2  H   UNL     1       3.114  -3.232  -6.925  1.00  0.00     0.028 H 
ATOM      3  H   UNL     1       2.327  -2.532  -5.492  1.00  0.00     0.028 H 
ENDROOT
BRANCH   1   4
ATOM      4  C   UNL     1       4.083  -1.543  -6.088  1.00  0.00     0.018 C 
ATOM      5  H   UNL     1       3.477  -0.774  -6.519  1.00  0.00     0.049 H 
ATOM      6  H   UNL     1       4.423  -1.256  -5.114  1.00  0.00     0.049 H 
BRANCH   4   7
ATOM      7  N   UNL     1       5.239  -1.758  -6.929  1.00  0.00    -0.353 N 
ATOM      8  C   UNL     1       5.633  -1.053  -8.021  1.00  0.00     0.244 C 
ATOM      9  O   UNL     1       6.679  -1.319  -8.601  1.00  0.00    -0.270 OA
ATOM     10  H   UNL     1       5.817  -2.515  -6.677  1.00  0.00     0.163 HD
BRANCH   8  11
ATOM     11  C   UNL     1       4.806   0.081  -8.479  1.00  0.00     0.004 C 
ATOM     12  C   UNL     1       3.595  -0.129  -9.016  1.00  0.00    -0.045 C 
ATOM     13  H   UNL     1       3.194  -1.079  -8.981  1.00  0.00     0.063 H 
ATOM     14  H   UNL     1       5.163   1.045  -8.384  1.00  0.00     0.068 H 
BRANCH  12  15
ATOM     15  C   UNL     1       2.818   0.946  -9.652  1.00  0.00     0.024 A 
ATOM     16  C   UNL     1       1.684   1.465  -8.961  1.00  0.00    -0.011 A 
ATOM     17  C   UNL     1       0.877   2.443  -9.568  1.00  0.00    -0.012 A 
ATOM     18  C   UNL     1       1.156   2.911 -10.847  1.00  0.00     0.123 A 
ATOM     19  H   UNL     1       0.065   2.821  -9.055  1.00  0.00     0.067 H 
ATOM     20  C   UNL     1       3.108   1.441 -10.943  1.00  0.00     0.130 A 
ATOM     21  C   UNL     1       2.276   2.425 -11.510  1.00  0.00     0.023 A 
ATOM     22  H   UNL     1       2.505   2.796 -12.445  1.00  0.00     0.070 H 
BRANCH  16  23
ATOM     23  C   UNL     1       1.226   1.008  -7.630  1.00  0.00    -0.054 C 
ATOM     24  C   UNL     1       1.831   1.367  -6.486  1.00  0.00    -0.054 C 
ATOM     25  H   UNL     1       2.652   1.986  -6.567  1.00  0.00     0.063 H 
ATOM     26  H   UNL     1       0.405   0.385  -7.579  1.00  0.00     0.063 H 
BRANCH  24  27
ATOM     27  C   UNL     1       1.435   0.960  -5.120  1.00  0.00    -0.025 A 
ATOM     28  C   UNL     1       0.835   0.197  -2.454  1.00  0.00     0.118 A 
ATOM     29  C   UNL     1      -0.071  -0.045  -3.487  1.00  0.00    -0.019 A 
ATOM     30  C   UNL     1       2.033   0.843  -2.749  1.00  0.00    -0.019 A 
ATOM     31  C   UNL     1       0.221   0.337  -4.806  1.00  0.00    -0.051 A 
ATOM     32  H   UNL     1      -0.968  -0.512  -3.279  1.00  0.00     0.066 H 
ATOM     33  C   UNL     1       2.328   1.215  -4.068  1.00  0.00    -0.051 A 
ATOM     34  H   UNL     1       2.705   1.048  -1.994  1.00  0.00     0.066 H 
ATOM     35  H   UNL     1      -0.467   0.156  -5.553  1.00  0.00     0.063 H 
ATOM     36  H   UNL     1       3.223   1.687  -4.270  1.00  0.00     0.063 H 
BRANCH  28  37
ATOM     37  O   UNL     1       0.459  -0.273  -1.225  1.00  0.00    -0.497 OA
BRANCH  37  38
ATOM     38  C   UNL     1       1.291   0.076  -0.125  1.00  0.00     0.078 C 
ATOM     39  H   UNL     1       0.892  -0.350   0.773  1.00  0.00     0.067 H 
ATOM     40  H   UNL     1       1.327   1.141  -0.029  1.00  0.00     0.067 H 
ATOM     41  H   UNL     1       2.278  -0.302  -0.290  1.00  0.00     0.067 H 
ENDBRANCH  37  38
ENDBRANCH  28  37
ENDBRANCH  24  27
ENDBRANCH  16  23
BRANCH  18  42
ATOM     42  O   UNL     1       0.271   3.825 -11.349  1.00  0.00    -0.497 OA
BRANCH  42  43
ATOM     43  C   UNL     1       0.340   4.056 -12.754  1.00  0.00     0.078 C 
ATOM     44  H   UNL     1      -0.393   4.785 -13.032  1.00  0.00     0.067 H 
ATOM     45  H   UNL     1       0.150   3.142 -13.276  1.00  0.00     0.067 H 
ATOM     46  H   UNL     1       1.315   4.416 -13.009  1.00  0.00     0.067 H 
ENDBRANCH  42  43
ENDBRANCH  18  42
BRANCH  20  47
ATOM     47  O   UNL     1       4.081   1.099 -11.844  1.00  0.00    -0.496 OA
BRANCH  47  48
ATOM     48  C   UNL     1       5.109   0.172 -11.558  1.00  0.00     0.078 C 
ATOM     49  H   UNL     1       5.745   0.070 -12.412  1.00  0.00     0.067 H 
ATOM     50  H   UNL     1       4.677  -0.778 -11.320  1.00  0.00     0.067 H 
ATOM     51  H   UNL     1       5.684   0.521 -10.726  1.00  0.00     0.067 H 
ENDBRANCH  47  48
ENDBRANCH  20  47
ENDBRANCH  12  15
ENDBRANCH   8  11
ENDBRANCH   4   7
ENDBRANCH   1   4
BRANCH   1  52
ATOM     52  C   UNL     1       3.892  -3.876  -5.053  1.00  0.00    -0.052 C 
ATOM     53  H   UNL     1       4.797  -4.204  -5.520  1.00  0.00     0.027 H 
ATOM     54  H   UNL     1       3.164  -4.652  -4.943  1.00  0.00     0.027 H 
BRANCH  52  55
ATOM     55  C   UNL     1       4.234  -3.406  -3.633  1.00  0.00    -0.052 C 
ATOM     56  H   UNL     1       5.058  -2.727  -3.696  1.00  0.00     0.027 H 
ATOM     57  H   UNL     1       4.457  -4.288  -3.069  1.00  0.00     0.027 H 
BRANCH  55  58
ATOM     58  C   UNL     1       3.092  -2.703  -2.899  1.00  0.00    -0.036 C 
ATOM     59  H   UNL     1       2.812  -1.839  -3.466  1.00  0.00     0.028 H 
ATOM     60  H   UNL     1       3.459  -2.461  -1.924  1.00  0.00     0.028 H 
BRANCH  58  61
ATOM     61  C   UNL     1       1.850  -3.560  -2.694  1.00  0.00     0.018 C 
ATOM     62  H   UNL     1       1.557  -3.980  -3.633  1.00  0.00     0.049 H 
ATOM     63  H   UNL     1       1.073  -2.940  -2.297  1.00  0.00     0.049 H 
BRANCH  61  64
ATOM     64  N   UNL     1       2.103  -4.637  -1.753  1.00  0.00    -0.352 N 
ATOM     65  C   UNL     1       1.489  -4.904  -0.556  1.00  0.00     0.251 C 
ATOM     66  H   UNL     1       2.816  -5.264  -2.011  1.00  0.00     0.163 HD
ATOM     67  O   UNL     1       2.006  -5.687   0.235  1.00  0.00    -0.269 OA
BRANCH  65  68
ATOM     68  C   UNL     1       0.208  -4.249  -0.208  1.00  0.00     0.039 A 
ATOM     69  C   UNL     1      -0.001  -3.843   1.113  1.00  0.00    -0.049 A 
ATOM     70  C   UNL     1      -0.805  -4.082  -1.157  1.00  0.00    -0.049 A 
ATOM     71  C   UNL     1      -1.207  -3.239   1.473  1.00  0.00    -0.053 A 
ATOM     72  H   UNL     1       0.736  -3.989   1.821  1.00  0.00     0.063 H 
ATOM     73  C   UNL     1      -1.978  -3.412  -0.815  1.00  0.00    -0.053 A 
ATOM     74  H   UNL     1      -0.685  -4.456  -2.111  1.00  0.00     0.063 H 
ATOM     75  C   UNL     1      -2.198  -2.997   0.507  1.00  0.00    -0.014 A 
ATOM     76  H   UNL     1      -1.372  -2.968   2.455  1.00  0.00     0.063 H 
ATOM     77  H   UNL     1      -2.688  -3.219  -1.538  1.00  0.00     0.063 H 
BRANCH  75  78
ATOM     78  C   UNL     1      -3.473  -2.326   0.870  1.00  0.00     0.031 A 
ATOM     79  C   UNL     1      -4.777  -3.064   0.759  1.00  0.00     0.074 A 
ATOM     80  C   UNL     1      -3.462  -1.035   1.254  1.00  0.00     0.049 A 
ATOM     81  N   UNL     1      -5.992  -2.634   0.991  1.00  0.00    -0.248 NA
ATOM     82  C   UNL     1      -4.712  -4.461   0.305  1.00  0.00    -0.034 C 
ATOM     83  C   UNL     1      -2.266  -0.203   1.351  1.00  0.00    -0.036 A 
ATOM     84  N   UNL     1      -4.480  -0.192   1.621  1.00  0.00    -0.354 N 
ATOM     85  C   UNL     1      -6.831  -3.700   0.702  1.00  0.00     0.074 A 
ATOM     86  C   UNL     1      -5.995  -4.780   0.225  1.00  0.00    -0.034 C 
ATOM     87  H   UNL     1      -3.883  -5.042   0.103  1.00  0.00     0.065 H 
ATOM     88  C   UNL     1      -2.608   1.025   1.765  1.00  0.00    -0.036 A 
ATOM     89  H   UNL     1      -1.305  -0.513   1.135  1.00  0.00     0.065 H 
ATOM     90  C   UNL     1      -4.057   1.079   1.929  1.00  0.00     0.049 A 
ATOM     91  H   UNL     1      -5.423  -0.470   1.661  1.00  0.00     0.167 HD
ATOM     92  C   UNL     1      -8.176  -3.777   0.844  1.00  0.00     0.037 A 
ATOM     93  H   UNL     1      -6.352  -5.681  -0.131  1.00  0.00     0.065 H 
ATOM     94  H   UNL     1      -1.955   1.805   1.939  1.00  0.00     0.065 H 
ATOM     95  C   UNL     1      -4.758   2.169   2.293  1.00  0.00     0.037 A 
ATOM     96  C   UNL     1      -8.998  -2.704   1.340  1.00  0.00     0.049 A 
ATOM     97  C   UNL     1      -6.250   2.058   2.437  1.00  0.00     0.074 A 
ATOM     98  C   UNL     1     -10.360  -2.704   1.586  1.00  0.00    -0.036 A 
ATOM     99  N   UNL     1      -8.534  -1.435   1.659  1.00  0.00    -0.354 N 
ATOM    100  N   UNL     1      -7.024   1.019   2.239  1.00  0.00    -0.248 NA
ATOM    101  C   UNL     1      -6.966   3.267   2.867  1.00  0.00    -0.034 C 
ATOM    102  C   UNL     1     -10.729  -1.421   2.001  1.00  0.00    -0.036 A 
ATOM    103  H   UNL     1     -10.993  -3.512   1.481  1.00  0.00     0.065 H 
ATOM    104  C   UNL     1      -9.589  -0.636   2.072  1.00  0.00     0.049 A 
ATOM    105  H   UNL     1      -7.595  -1.146   1.600  1.00  0.00     0.167 HD
ATOM    106  C   UNL     1      -8.311   1.438   2.544  1.00  0.00     0.074 A 
ATOM    107  C   UNL     1      -8.211   2.822   2.960  1.00  0.00    -0.034 C 
ATOM    108  H   UNL     1      -6.596   4.213   3.049  1.00  0.00     0.065 H 
ATOM    109  H   UNL     1     -11.689  -1.110   2.219  1.00  0.00     0.065 H 
ATOM    110  C   UNL     1      -9.472   0.740   2.485  1.00  0.00     0.037 A 
ATOM    111  H   UNL     1      -9.008   3.389   3.288  1.00  0.00     0.065 H 
BRANCH  92 112
ATOM    112  C   UNL     1      -8.844  -5.065   0.458  1.00  0.00     0.064 A 
ATOM    113  C   UNL     1      -8.667  -6.241   1.203  1.00  0.00     0.173 A 
ATOM    114  C   UNL     1      -9.705  -5.115  -0.649  1.00  0.00     0.173 A 
ATOM    115  F   UNL     1      -7.846  -6.251   2.264  1.00  0.00    -0.203 F 
ATOM    116  C   UNL     1      -9.303  -7.425   0.837  1.00  0.00     0.198 A 
ATOM    117  C   UNL     1     -10.365  -6.293  -0.993  1.00  0.00     0.198 A 
ATOM    118  F   UNL     1      -9.915  -4.019  -1.393  1.00  0.00    -0.203 F 
ATOM    119  F   UNL     1      -9.078  -8.547   1.535  1.00  0.00    -0.200 F 
ATOM    120  C   UNL     1     -10.157  -7.448  -0.255  1.00  0.00     0.200 A 
ATOM    121  F   UNL     1     -11.201  -6.309  -2.040  1.00  0.00    -0.200 F 
ATOM    122  F   UNL     1     -10.776  -8.585  -0.599  1.00  0.00    -0.200 F 
ENDBRANCH  92 112
BRANCH  95 123
ATOM    123  C   UNL     1      -4.054   3.451   2.564  1.00  0.00     0.064 A 
ATOM    124  C   UNL     1      -3.984   3.976   3.861  1.00  0.00     0.173 A 
ATOM    125  C   UNL     1      -3.440   4.177   1.533  1.00  0.00     0.173 A 
ATOM    126  F   UNL     1      -4.571   3.328   4.878  1.00  0.00    -0.203 F 
ATOM    127  C   UNL     1      -3.348   5.189   4.114  1.00  0.00     0.198 A 
ATOM    128  C   UNL     1      -2.776   5.375   1.792  1.00  0.00     0.198 A 
ATOM    129  F   UNL     1      -3.471   3.716   0.274  1.00  0.00    -0.203 F 
ATOM    130  F   UNL     1      -3.337   5.692   5.356  1.00  0.00    -0.200 F 
ATOM    131  C   UNL     1      -2.739   5.885   3.080  1.00  0.00     0.200 A 
ATOM    132  F   UNL     1      -2.174   6.035   0.793  1.00  0.00    -0.200 F 
ATOM    133  F   UNL     1      -2.123   7.049   3.325  1.00  0.00    -0.200 F 
ENDBRANCH  95 123
BRANCH 110 134
ATOM    134  C   UNL     1     -10.722   1.453   2.911  1.00  0.00     0.064 A 
ATOM    135  C   UNL     1     -11.287   2.477   2.136  1.00  0.00     0.173 A 
ATOM    136  C   UNL     1     -11.380   1.084   4.094  1.00  0.00     0.173 A 
ATOM    137  F   UNL     1     -10.688   2.877   1.005  1.00  0.00    -0.203 F 
ATOM    138  C   UNL     1     -12.449   3.125   2.546  1.00  0.00     0.198 A 
ATOM    139  C   UNL     1     -12.560   1.712   4.484  1.00  0.00     0.198 A 
ATOM    140  F   UNL     1     -10.885   0.107   4.868  1.00  0.00    -0.203 F 
ATOM    141  F   UNL     1     -12.941   4.137   1.818  1.00  0.00    -0.200 F 
ATOM    142  C   UNL     1     -13.088   2.737   3.715  1.00  0.00     0.200 A 
ATOM    143  F   UNL     1     -13.184   1.326   5.605  1.00  0.00    -0.200 F 
ATOM    144  F   UNL     1     -14.210   3.358   4.104  1.00  0.00    -0.200 F 
ENDBRANCH 110 134
ENDBRANCH  75  78
ENDBRANCH  65  68
ENDBRANCH  61  64
ENDBRANCH  58  61
ENDBRANCH  55  58
ENDBRANCH  52  55
ENDBRANCH   1  52
TORSDOF 22
