REMARK SMILES C=C1C(=O)O[C@H]2[C@@H]1[C@@H](OC(=O)[C@]1(C)O[C@@H]1C)[C@@H](OC(C)=O)/C(C(=O)NCCCCCCNC(=O)c1ccc(-c3c4nc(c(-c5c(F)c(F)c(F)c(F)c5F)c5ccc([nH]5)c(-c5c(F)c(F)c(F)c(F)c5F)c5nc(c(-c6c(F)c(F)c(F)c(F)c6F)c6ccc3[nH]6)C=C5)C=C4)cc1)=C/[C@@H]1O[C@@H]1[C@]1(C)O[C@H]21
REMARK SMILES IDX 26 1 25 4 23 5 24 6 22 8 98 9 99 11 101 12 100 13 102 16
REMARK SMILES IDX 105 17 104 18 6 20 1 21 2 22 3 25 7 26 5 27 4 28 103 32
REMARK SMILES IDX 17 36 8 38 9 41 10 42 11 43 12 44 14 45 15 46 13 48 16 52
REMARK SMILES IDX 18 56 19 57 21 58 20 59 27 63 28 66 29 69 30 72 31 75 32 78
REMARK SMILES IDX 33 79 34 81 35 82 36 83 97 84 37 85 96 87 38 89 39 92 40 93
REMARK SMILES IDX 90 94 41 95 95 96 89 97 91 98 42 99 94 100 88 102 87 104
REMARK SMILES IDX 43 106 75 109 55 110 74 111 56 112 59 113 73 114 92 115
REMARK SMILES IDX 57 116 58 118 72 120 93 121 60 124 44 126 45 127 53 128
REMARK SMILES IDX 46 129 47 130 51 131 54 132 48 133 49 134 52 135 50 136
REMARK SMILES IDX 76 137 77 138 85 139 78 140 79 141 83 142 86 143 80 144
REMARK SMILES IDX 81 145 84 146 82 147 61 148 62 149 70 150 63 151 64 152
REMARK SMILES IDX 68 153 71 154 65 155 66 156 69 157 67 158
REMARK H PARENT 26 2 26 3 25 7 98 10 101 14 99 15 105 19 1 23 1 24 7 29 6 31
REMARK H PARENT 103 33 103 34 103 35 17 37 8 39 15 47 13 49 13 50 13 51 16 53
REMARK H PARENT 16 54 16 55 20 60 20 61 20 62 27 64 27 65 28 67 28 68 29 70
REMARK H PARENT 29 71 30 73 30 74 31 76 31 77 32 80 36 86 97 88 37 90 96 91
REMARK H PARENT 95 101 89 103 91 105 94 107 88 108 56 117 59 119 92 122 57 123
REMARK H PARENT 93 125
REMARK Flexibility Score: 90.00
ROOT
ATOM      1  C   UNL     1      -5.673  -2.665   1.312  1.00  0.00     0.018 C 
ATOM      2  H   UNL     1      -5.909  -3.321   0.500  1.00  0.00     0.049 H 
ATOM      3  H   UNL     1      -6.200  -2.945   2.200  1.00  0.00     0.049 H 
ENDROOT
BRANCH   1   4
ATOM      4  N   UNL     1      -6.072  -1.330   0.960  1.00  0.00    -0.352 N 
ATOM      5  C   UNL     1      -6.668  -0.919  -0.173  1.00  0.00     0.250 C 
ATOM      6  O   UNL     1      -6.914   0.270  -0.325  1.00  0.00    -0.270 OA
ATOM      7  H   UNL     1      -5.886  -0.632   1.629  1.00  0.00     0.163 HD
BRANCH   5   8
ATOM      8  C   UNL     1      -7.008  -1.941  -1.181  1.00  0.00     0.060 C 
ATOM      9  C   UNL     1      -8.111  -2.692  -1.007  1.00  0.00    -0.041 C 
ATOM     10  H   UNL     1      -8.214  -3.489  -1.655  1.00  0.00     0.061 H 
BRANCH   9  11
ATOM     11  C   UNL     1      -9.182  -2.532  -0.027  1.00  0.00     0.106 C 
ATOM     12  C   UNL     1      -9.942  -1.232   0.167  1.00  0.00     0.120 C 
ATOM     13  O   UNL     1     -10.515  -2.338  -0.533  1.00  0.00    -0.362 OA
ATOM     14  H   UNL     1     -10.154  -0.630   1.025  1.00  0.00     0.067 H 
ATOM     15  H   UNL     1      -8.664  -3.189   0.641  1.00  0.00     0.068 H 
BRANCH  12  16
ATOM     16  C   UNL     1      -9.672   0.078  -0.599  1.00  0.00     0.125 C 
ATOM     17  C   UNL     1      -9.254   0.414  -2.069  1.00  0.00     0.127 C 
ATOM     18  O   UNL     1     -10.621   0.377  -1.630  1.00  0.00    -0.359 OA
ATOM     19  H   UNL     1      -8.491   1.066  -2.440  1.00  0.00     0.068 H 
BRANCH  17  20
ATOM     20  C   UNL     1      -8.960  -0.547  -3.203  1.00  0.00     0.142 C 
ATOM     21  C   UNL     1      -7.431   2.014  -4.787  1.00  0.00    -0.088 C 
ATOM     22  C   UNL     1      -7.900   0.767  -4.706  1.00  0.00     0.041 C 
ATOM     23  H   UNL     1      -7.852   2.682  -5.451  1.00  0.00     0.054 H 
ATOM     24  H   UNL     1      -6.647   2.310  -4.184  1.00  0.00     0.054 H 
ATOM     25  C   UNL     1      -9.245   0.499  -5.257  1.00  0.00     0.334 C 
ATOM     26  C   UNL     1      -7.575  -0.452  -3.902  1.00  0.00     0.072 CG0
ATOM     27  O   UNL     1      -9.872  -0.260  -4.316  1.00  0.00    -0.455 OA
ATOM     28  O   UNL     1      -9.669   0.844  -6.341  1.00  0.00    -0.247 OA
ATOM     29  H   UNL     1      -7.262  -1.347  -4.398  1.00  0.00     0.043 H 
ATOM     30  G   UNL     1      -6.170  -0.664  -3.225  1.00  0.00     0.000 G0
ATOM     31  H   UNL     1      -9.040  -1.495  -2.714  1.00  0.00     0.078 H 
ENDBRANCH  17  20
BRANCH  16  32
ATOM     32  C   UNL     1      -9.505   1.235   0.377  1.00  0.00    -0.030 C 
ATOM     33  H   UNL     1      -9.810   0.925   1.354  1.00  0.00     0.026 H 
ATOM     34  H   UNL     1     -10.109   2.059   0.059  1.00  0.00     0.026 H 
ATOM     35  H   UNL     1      -8.478   1.535   0.402  1.00  0.00     0.026 H 
ENDBRANCH  16  32
ENDBRANCH  12  16
ENDBRANCH   9  11
BRANCH   8  36
ATOM     36  C   UNL     1      -6.159  -2.006  -2.417  1.00  0.00     0.169 C 
ATOM     37  H   UNL     1      -6.561  -2.701  -3.125  1.00  0.00     0.084 H 
BRANCH  36  38
ATOM     38  C   UNL     1      -6.170  -0.664  -3.225  1.00  0.00     0.154 CG0
ATOM     39  H   UNL     1      -5.385  -0.814  -3.937  1.00  0.00     0.080 H 
ATOM     40  G   UNL     1      -7.575  -0.452  -3.902  1.00  0.00     0.000 G0
BRANCH  38  41
ATOM     41  O   UNL     1      -5.774   0.551  -2.545  1.00  0.00    -0.455 OA
BRANCH  41  42
ATOM     42  C   UNL     1      -4.634   0.721  -1.812  1.00  0.00     0.341 C 
ATOM     43  O   UNL     1      -3.794  -0.139  -1.576  1.00  0.00    -0.249 OA
BRANCH  42  44
ATOM     44  C   UNL     1      -4.532   2.140  -1.342  1.00  0.00     0.188 C 
ATOM     45  O   UNL     1      -3.230   2.574  -0.901  1.00  0.00    -0.354 OA
ATOM     46  C   UNL     1      -4.261   2.551   0.095  1.00  0.00     0.096 C 
ATOM     47  H   UNL     1      -4.840   3.177   0.742  1.00  0.00     0.064 H 
BRANCH  44  48
ATOM     48  C   UNL     1      -5.218   3.188  -2.165  1.00  0.00    -0.022 C 
ATOM     49  H   UNL     1      -5.067   4.149  -1.718  1.00  0.00     0.027 H 
ATOM     50  H   UNL     1      -6.266   2.977  -2.209  1.00  0.00     0.027 H 
ATOM     51  H   UNL     1      -4.812   3.187  -3.155  1.00  0.00     0.027 H 
ENDBRANCH  44  48
BRANCH  46  52
ATOM     52  C   UNL     1      -3.922   1.698   1.253  1.00  0.00    -0.035 C 
ATOM     53  H   UNL     1      -3.291   0.895   0.932  1.00  0.00     0.026 H 
ATOM     54  H   UNL     1      -4.820   1.299   1.676  1.00  0.00     0.026 H 
ATOM     55  H   UNL     1      -3.409   2.282   1.988  1.00  0.00     0.026 H 
ENDBRANCH  46  52
ENDBRANCH  42  44
ENDBRANCH  41  42
ENDBRANCH  38  41
ENDBRANCH  36  38
BRANCH  36  56
ATOM     56  O   UNL     1      -4.855  -2.483  -2.021  1.00  0.00    -0.453 OA
BRANCH  56  57
ATOM     57  C   UNL     1      -3.971  -3.180  -2.765  1.00  0.00     0.303 C 
ATOM     58  O   UNL     1      -2.954  -3.641  -2.249  1.00  0.00    -0.253 OA
BRANCH  57  59
ATOM     59  C   UNL     1      -4.240  -3.412  -4.223  1.00  0.00     0.034 C 
ATOM     60  H   UNL     1      -5.162  -2.941  -4.494  1.00  0.00     0.035 H 
ATOM     61  H   UNL     1      -4.307  -4.463  -4.411  1.00  0.00     0.035 H 
ATOM     62  H   UNL     1      -3.443  -2.995  -4.803  1.00  0.00     0.035 H 
ENDBRANCH  57  59
ENDBRANCH  56  57
ENDBRANCH  36  56
ENDBRANCH   8  36
ENDBRANCH   5   8
ENDBRANCH   1   4
BRANCH   1  63
ATOM     63  C   UNL     1      -4.185  -2.754   1.600  1.00  0.00    -0.036 C 
ATOM     64  H   UNL     1      -3.662  -2.560   0.687  1.00  0.00     0.028 H 
ATOM     65  H   UNL     1      -4.025  -3.735   1.995  1.00  0.00     0.028 H 
BRANCH  63  66
ATOM     66  C   UNL     1      -3.650  -1.787   2.661  1.00  0.00    -0.052 C 
ATOM     67  H   UNL     1      -3.516  -0.835   2.191  1.00  0.00     0.027 H 
ATOM     68  H   UNL     1      -2.753  -2.244   3.024  1.00  0.00     0.027 H 
BRANCH  66  69
ATOM     69  C   UNL     1      -4.514  -1.569   3.906  1.00  0.00    -0.052 C 
ATOM     70  H   UNL     1      -5.386  -1.024   3.610  1.00  0.00     0.027 H 
ATOM     71  H   UNL     1      -3.895  -1.046   4.604  1.00  0.00     0.027 H 
BRANCH  69  72
ATOM     72  C   UNL     1      -4.971  -2.836   4.619  1.00  0.00    -0.036 C 
ATOM     73  H   UNL     1      -5.705  -3.319   4.008  1.00  0.00     0.028 H 
ATOM     74  H   UNL     1      -5.359  -2.532   5.568  1.00  0.00     0.028 H 
BRANCH  72  75
ATOM     75  C   UNL     1      -3.858  -3.825   4.898  1.00  0.00     0.018 C 
ATOM     76  H   UNL     1      -3.349  -4.040   3.982  1.00  0.00     0.049 H 
ATOM     77  H   UNL     1      -4.295  -4.709   5.312  1.00  0.00     0.049 H 
BRANCH  75  78
ATOM     78  N   UNL     1      -2.903  -3.303   5.855  1.00  0.00    -0.352 N 
ATOM     79  C   UNL     1      -2.464  -3.894   7.011  1.00  0.00     0.251 C 
ATOM     80  H   UNL     1      -2.523  -2.418   5.650  1.00  0.00     0.163 HD
ATOM     81  O   UNL     1      -1.817  -3.260   7.836  1.00  0.00    -0.269 OA
BRANCH  79  82
ATOM     82  C   UNL     1      -2.817  -5.306   7.262  1.00  0.00     0.039 A 
ATOM     83  C   UNL     1      -3.327  -5.660   8.511  1.00  0.00    -0.049 A 
ATOM     84  C   UNL     1      -2.690  -6.263   6.249  1.00  0.00    -0.049 A 
ATOM     85  C   UNL     1      -3.751  -6.970   8.730  1.00  0.00    -0.053 A 
ATOM     86  H   UNL     1      -3.389  -4.960   9.266  1.00  0.00     0.063 H 
ATOM     87  C   UNL     1      -3.203  -7.540   6.438  1.00  0.00    -0.053 A 
ATOM     88  H   UNL     1      -2.218  -6.020   5.364  1.00  0.00     0.063 H 
ATOM     89  C   UNL     1      -3.723  -7.912   7.687  1.00  0.00    -0.014 A 
ATOM     90  H   UNL     1      -4.088  -7.250   9.664  1.00  0.00     0.063 H 
ATOM     91  H   UNL     1      -3.202  -8.216   5.659  1.00  0.00     0.063 H 
BRANCH  89  92
ATOM     92  C   UNL     1      -4.214  -9.296   7.894  1.00  0.00     0.031 A 
ATOM     93  C   UNL     1      -3.267 -10.457   7.763  1.00  0.00     0.074 A 
ATOM     94  C   UNL     1      -5.517  -9.510   8.161  1.00  0.00     0.049 A 
ATOM     95  N   UNL     1      -3.508 -11.739   7.875  1.00  0.00    -0.248 NA
ATOM     96  C   UNL     1      -1.869 -10.137   7.435  1.00  0.00    -0.034 C 
ATOM     97  C   UNL     1      -6.540  -8.468   8.268  1.00  0.00    -0.036 A 
ATOM     98  N   UNL     1      -6.205 -10.675   8.388  1.00  0.00    -0.354 N 
ATOM     99  C   UNL     1      -2.298 -12.373   7.626  1.00  0.00     0.074 A 
ATOM    100  C   UNL     1      -1.341 -11.343   7.288  1.00  0.00    -0.034 C 
ATOM    101  H   UNL     1      -1.417  -9.214   7.343  1.00  0.00     0.065 H 
ATOM    102  C   UNL     1      -7.716  -9.037   8.574  1.00  0.00    -0.036 A 
ATOM    103  H   UNL     1      -6.382  -7.458   8.130  1.00  0.00     0.065 H 
ATOM    104  C   UNL     1      -7.542 -10.485   8.640  1.00  0.00     0.049 A 
ATOM    105  H   UNL     1      -5.780 -11.563   8.373  1.00  0.00     0.167 HD
ATOM    106  C   UNL     1      -2.004 -13.692   7.701  1.00  0.00     0.037 A 
ATOM    107  H   UNL     1      -0.375 -11.524   6.974  1.00  0.00     0.065 H 
ATOM    108  H   UNL     1      -8.602  -8.533   8.736  1.00  0.00     0.065 H 
ATOM    109  C   UNL     1      -8.517 -11.380   8.888  1.00  0.00     0.037 A 
ATOM    110  C   UNL     1      -2.959 -14.711   8.051  1.00  0.00     0.049 A 
ATOM    111  C   UNL     1      -8.170 -12.844   8.935  1.00  0.00     0.074 A 
ATOM    112  C   UNL     1      -2.752 -16.070   8.203  1.00  0.00    -0.036 A 
ATOM    113  N   UNL     1      -4.305 -14.481   8.295  1.00  0.00    -0.354 N 
ATOM    114  N   UNL     1      -7.007 -13.427   8.770  1.00  0.00    -0.248 NA
ATOM    115  C   UNL     1      -9.272 -13.776   9.211  1.00  0.00    -0.034 C 
ATOM    116  C   UNL     1      -3.985 -16.671   8.477  1.00  0.00    -0.036 A 
ATOM    117  H   UNL     1      -1.845 -16.557   8.128  1.00  0.00     0.065 H 
ATOM    118  C   UNL     1      -4.948 -15.679   8.566  1.00  0.00     0.049 A 
ATOM    119  H   UNL     1      -4.740 -13.598   8.278  1.00  0.00     0.167 HD
ATOM    120  C   UNL     1      -7.230 -14.785   8.954  1.00  0.00     0.074 A 
ATOM    121  C   UNL     1      -8.637 -14.938   9.260  1.00  0.00    -0.034 C 
ATOM    122  H   UNL     1     -10.277 -13.578   9.333  1.00  0.00     0.065 H 
ATOM    123  H   UNL     1      -4.150 -17.683   8.592  1.00  0.00     0.065 H 
ATOM    124  C   UNL     1      -6.349 -15.813   8.877  1.00  0.00     0.037 A 
ATOM    125  H   UNL     1      -9.088 -15.838   9.488  1.00  0.00     0.065 H 
BRANCH 106 126
ATOM    126  C   UNL     1      -0.593 -14.109   7.395  1.00  0.00     0.064 A 
ATOM    127  C   UNL     1       0.478 -13.762   8.234  1.00  0.00     0.173 A 
ATOM    128  C   UNL     1      -0.310 -14.891   6.265  1.00  0.00     0.173 A 
ATOM    129  F   UNL     1       0.267 -13.006   9.323  1.00  0.00    -0.203 F 
ATOM    130  C   UNL     1       1.781 -14.153   7.935  1.00  0.00     0.198 A 
ATOM    131  C   UNL     1       0.988 -15.311   5.989  1.00  0.00     0.198 A 
ATOM    132  F   UNL     1      -1.295 -15.256   5.431  1.00  0.00    -0.203 F 
ATOM    133  F   UNL     1       2.793 -13.760   8.720  1.00  0.00    -0.200 F 
ATOM    134  C   UNL     1       2.034 -14.934   6.818  1.00  0.00     0.200 A 
ATOM    135  F   UNL     1       1.228 -16.080   4.918  1.00  0.00    -0.200 F 
ATOM    136  F   UNL     1       3.287 -15.317   6.536  1.00  0.00    -0.200 F 
ENDBRANCH 106 126
BRANCH 109 137
ATOM    137  C   UNL     1      -9.909 -10.918   9.131  1.00  0.00     0.064 A 
ATOM    138  C   UNL     1     -10.511 -11.067  10.389  1.00  0.00     0.173 A 
ATOM    139  C   UNL     1     -10.672 -10.330   8.111  1.00  0.00     0.173 A 
ATOM    140  F   UNL     1      -9.830 -11.640  11.393  1.00  0.00    -0.203 F 
ATOM    141  C   UNL     1     -11.829 -10.672  10.610  1.00  0.00     0.198 A 
ATOM    142  C   UNL     1     -11.979  -9.904   8.342  1.00  0.00     0.198 A 
ATOM    143  F   UNL     1     -10.144 -10.156   6.891  1.00  0.00    -0.203 F 
ATOM    144  F   UNL     1     -12.396 -10.878  11.806  1.00  0.00    -0.200 F 
ATOM    145  C   UNL     1     -12.560 -10.086   9.588  1.00  0.00     0.200 A 
ATOM    146  F   UNL     1     -12.675  -9.321   7.357  1.00  0.00    -0.200 F 
ATOM    147  F   UNL     1     -13.826  -9.704   9.801  1.00  0.00    -0.200 F 
ENDBRANCH 109 137
BRANCH 124 148
ATOM    148  C   UNL     1      -6.870 -17.192   9.169  1.00  0.00     0.064 A 
ATOM    149  C   UNL     1      -7.751 -17.852   8.299  1.00  0.00     0.173 A 
ATOM    150  C   UNL     1      -6.448 -17.879  10.319  1.00  0.00     0.173 A 
ATOM    151  F   UNL     1      -8.196 -17.236   7.194  1.00  0.00    -0.203 F 
ATOM    152  C   UNL     1      -8.215 -19.133   8.586  1.00  0.00     0.198 A 
ATOM    153  C   UNL     1      -6.884 -19.174  10.582  1.00  0.00     0.198 A 
ATOM    154  F   UNL     1      -5.599 -17.298  11.180  1.00  0.00    -0.203 F 
ATOM    155  F   UNL     1      -9.101 -19.720   7.770  1.00  0.00    -0.200 F 
ATOM    156  C   UNL     1      -7.775 -19.796   9.722  1.00  0.00     0.200 A 
ATOM    157  F   UNL     1      -6.442 -19.819  11.671  1.00  0.00    -0.200 F 
ATOM    158  F   UNL     1      -8.215 -21.033   9.990  1.00  0.00    -0.200 F 
ENDBRANCH 124 148
ENDBRANCH  89  92
ENDBRANCH  79  82
ENDBRANCH  75  78
ENDBRANCH  72  75
ENDBRANCH  69  72
ENDBRANCH  66  69
ENDBRANCH  63  66
ENDBRANCH   1  63
TORSDOF 22
