REMARK SMILES O=C(NCCCCCCNC(=O)c1cccnc1Nc1cccc(C(F)(F)F)c1)c1ccc(-c2c3nc(c(-c4c(F)c(F)c(F)c(F)c4F)c4ccc([nH]4)c(-c4c(F)c(F)c(F)c(F)c4F)c4nc(c(-c5c(F)c(F)c(F)c(F)c5F)c5ccc2[nH]5)C=C4)C=C3)cc1
REMARK SMILES IDX 7 1 6 4 5 7 4 10 3 13 1 14 2 15 30 17 31 18 92 19 32 20
REMARK SMILES IDX 91 22 33 24 34 27 35 28 85 29 36 30 90 31 84 32 86 33 37 34
REMARK SMILES IDX 89 35 83 37 82 39 38 41 70 44 50 45 69 46 51 47 54 48 68 49
REMARK SMILES IDX 87 50 52 51 53 53 67 55 88 56 55 59 39 61 40 62 48 63 41 64
REMARK SMILES IDX 42 65 46 66 49 67 43 68 44 69 47 70 45 71 71 72 72 73 80 74
REMARK SMILES IDX 73 75 74 76 78 77 81 78 75 79 76 80 79 81 77 82 56 83 57 84
REMARK SMILES IDX 65 85 58 86 59 87 63 88 66 89 60 90 61 91 64 92 62 93 8 94
REMARK SMILES IDX 9 97 10 100 11 101 12 103 13 104 14 105 18 106 15 107 17 109
REMARK SMILES IDX 16 110 19 113 20 115 21 116 29 117 22 118 24 120 23 122
REMARK SMILES IDX 25 125 26 126 27 127 28 128
REMARK H PARENT 7 2 7 3 6 5 6 6 5 8 5 9 4 11 4 12 3 16 31 21 92 23 32 25 91 26
REMARK H PARENT 90 36 84 38 86 40 89 42 83 43 51 52 54 54 87 57 52 58 88 60
REMARK H PARENT 8 95 8 96 9 98 9 99 10 102 14 108 15 111 16 112 19 114 21 119
REMARK H PARENT 29 121 22 123 23 124
REMARK Flexibility Score: inf
ROOT
ATOM      1  C   UNL     1       4.881   3.173   2.890  1.00  0.00    -0.052 C 
ATOM      2  H   UNL     1       4.465   2.237   3.200  1.00  0.00     0.027 H 
ATOM      3  H   UNL     1       4.612   3.992   3.523  1.00  0.00     0.027 H 
ENDROOT
BRANCH   1   4
ATOM      4  C   UNL     1       4.319   3.506   1.504  1.00  0.00    -0.052 C 
ATOM      5  H   UNL     1       3.252   3.451   1.557  1.00  0.00     0.027 H 
ATOM      6  H   UNL     1       4.683   4.482   1.260  1.00  0.00     0.027 H 
BRANCH   4   7
ATOM      7  C   UNL     1       4.785   2.583   0.379  1.00  0.00    -0.036 C 
ATOM      8  H   UNL     1       4.288   2.875  -0.522  1.00  0.00     0.028 H 
ATOM      9  H   UNL     1       5.849   2.686   0.320  1.00  0.00     0.028 H 
BRANCH   7  10
ATOM     10  C   UNL     1       4.504   1.108   0.622  1.00  0.00     0.018 C 
ATOM     11  H   UNL     1       4.961   0.537  -0.159  1.00  0.00     0.049 H 
ATOM     12  H   UNL     1       4.905   0.850   1.580  1.00  0.00     0.049 H 
BRANCH  10  13
ATOM     13  N   UNL     1       3.080   0.817   0.642  1.00  0.00    -0.352 N 
ATOM     14  O   UNL     1       1.156  -0.090  -0.120  1.00  0.00    -0.269 OA
ATOM     15  C   UNL     1       2.384  -0.089  -0.115  1.00  0.00     0.251 C 
ATOM     16  H   UNL     1       2.546   1.339   1.284  1.00  0.00     0.163 HD
BRANCH  15  17
ATOM     17  C   UNL     1       3.128  -1.065  -0.937  1.00  0.00     0.039 A 
ATOM     18  C   UNL     1       4.215  -1.756  -0.394  1.00  0.00    -0.049 A 
ATOM     19  C   UNL     1       2.725  -1.302  -2.253  1.00  0.00    -0.049 A 
ATOM     20  C   UNL     1       4.963  -2.606  -1.197  1.00  0.00    -0.053 A 
ATOM     21  H   UNL     1       4.460  -1.635   0.601  1.00  0.00     0.063 H 
ATOM     22  C   UNL     1       3.424  -2.227  -3.033  1.00  0.00    -0.053 A 
ATOM     23  H   UNL     1       1.916  -0.797  -2.648  1.00  0.00     0.063 H 
ATOM     24  C   UNL     1       4.549  -2.884  -2.509  1.00  0.00    -0.014 A 
ATOM     25  H   UNL     1       5.827  -3.035  -0.828  1.00  0.00     0.063 H 
ATOM     26  H   UNL     1       3.113  -2.427  -3.996  1.00  0.00     0.063 H 
BRANCH  24  27
ATOM     27  C   UNL     1       5.213  -3.979  -3.256  1.00  0.00     0.031 A 
ATOM     28  C   UNL     1       5.988  -3.718  -4.512  1.00  0.00     0.074 A 
ATOM     29  C   UNL     1       5.087  -5.231  -2.773  1.00  0.00     0.049 A 
ATOM     30  N   UNL     1       6.594  -4.576  -5.294  1.00  0.00    -0.248 NA
ATOM     31  C   UNL     1       6.096  -2.321  -4.959  1.00  0.00    -0.034 C 
ATOM     32  C   UNL     1       4.335  -5.595  -1.567  1.00  0.00    -0.036 A 
ATOM     33  N   UNL     1       5.577  -6.428  -3.228  1.00  0.00    -0.354 N 
ATOM     34  C   UNL     1       7.136  -3.831  -6.332  1.00  0.00     0.074 A 
ATOM     35  C   UNL     1       6.780  -2.449  -6.090  1.00  0.00    -0.034 C 
ATOM     36  H   UNL     1       5.734  -1.464  -4.510  1.00  0.00     0.065 H 
ATOM     37  C   UNL     1       4.434  -6.915  -1.365  1.00  0.00    -0.036 A 
ATOM     38  H   UNL     1       3.812  -4.936  -0.969  1.00  0.00     0.065 H 
ATOM     39  C   UNL     1       5.188  -7.502  -2.465  1.00  0.00     0.049 A 
ATOM     40  H   UNL     1       6.152  -6.509  -4.023  1.00  0.00     0.167 HD
ATOM     41  C   UNL     1       7.864  -4.272  -7.385  1.00  0.00     0.037 A 
ATOM     42  H   UNL     1       7.026  -1.665  -6.715  1.00  0.00     0.065 H 
ATOM     43  H   UNL     1       4.041  -7.431  -0.562  1.00  0.00     0.065 H 
ATOM     44  C   UNL     1       5.376  -8.820  -2.652  1.00  0.00     0.037 A 
ATOM     45  C   UNL     1       8.225  -5.652  -7.599  1.00  0.00     0.049 A 
ATOM     46  C   UNL     1       6.153  -9.273  -3.855  1.00  0.00     0.074 A 
ATOM     47  C   UNL     1       9.028  -6.186  -8.593  1.00  0.00    -0.036 A 
ATOM     48  N   UNL     1       7.793  -6.715  -6.821  1.00  0.00    -0.354 N 
ATOM     49  N   UNL     1       6.730  -8.551  -4.785  1.00  0.00    -0.248 NA
ATOM     50  C   UNL     1       6.298 -10.722  -4.042  1.00  0.00    -0.034 C 
ATOM     51  C   UNL     1       9.023  -7.577  -8.458  1.00  0.00    -0.036 A 
ATOM     52  H   UNL     1       9.541  -5.649  -9.310  1.00  0.00     0.065 H 
ATOM     53  C   UNL     1       8.270  -7.907  -7.343  1.00  0.00     0.049 A 
ATOM     54  H   UNL     1       7.231  -6.636  -6.016  1.00  0.00     0.167 HD
ATOM     55  C   UNL     1       7.314  -9.455  -5.659  1.00  0.00     0.074 A 
ATOM     56  C   UNL     1       7.053 -10.777  -5.129  1.00  0.00    -0.034 C 
ATOM     57  H   UNL     1       5.914 -11.494  -3.475  1.00  0.00     0.065 H 
ATOM     58  H   UNL     1       9.501  -8.245  -9.084  1.00  0.00     0.065 H 
ATOM     59  C   UNL     1       7.995  -9.214  -6.805  1.00  0.00     0.037 A 
ATOM     60  H   UNL     1       7.409 -11.651  -5.545  1.00  0.00     0.065 H 
BRANCH  41  61
ATOM     61  C   UNL     1       8.313  -3.276  -8.414  1.00  0.00     0.064 A 
ATOM     62  C   UNL     1       9.348  -2.365  -8.160  1.00  0.00     0.173 A 
ATOM     63  C   UNL     1       7.777  -3.316  -9.711  1.00  0.00     0.173 A 
ATOM     64  F   UNL     1       9.891  -2.283  -6.937  1.00  0.00    -0.203 F 
ATOM     65  C   UNL     1       9.828  -1.529  -9.167  1.00  0.00     0.198 A 
ATOM     66  C   UNL     1       8.275  -2.497 -10.721  1.00  0.00     0.198 A 
ATOM     67  F   UNL     1       6.790  -4.175 -10.008  1.00  0.00    -0.203 F 
ATOM     68  F   UNL     1      10.807  -0.654  -8.898  1.00  0.00    -0.200 F 
ATOM     69  C   UNL     1       9.300  -1.604 -10.448  1.00  0.00     0.200 A 
ATOM     70  F   UNL     1       7.775  -2.583 -11.961  1.00  0.00    -0.200 F 
ATOM     71  F   UNL     1       9.782  -0.818 -11.420  1.00  0.00    -0.200 F 
ENDBRANCH  41  61
BRANCH  44  72
ATOM     72  C   UNL     1       4.775  -9.803  -1.712  1.00  0.00     0.064 A 
ATOM     73  C   UNL     1       5.576 -10.641  -0.926  1.00  0.00     0.173 A 
ATOM     74  C   UNL     1       3.382  -9.942  -1.603  1.00  0.00     0.173 A 
ATOM     75  F   UNL     1       6.912 -10.558  -1.007  1.00  0.00    -0.203 F 
ATOM     76  C   UNL     1       5.009 -11.605  -0.096  1.00  0.00     0.198 A 
ATOM     77  C   UNL     1       2.816 -10.879  -0.742  1.00  0.00     0.198 A 
ATOM     78  F   UNL     1       2.568  -9.160  -2.327  1.00  0.00    -0.203 F 
ATOM     79  F   UNL     1       5.799 -12.439   0.594  1.00  0.00    -0.200 F 
ATOM     80  C   UNL     1       3.630 -11.720  -0.000  1.00  0.00     0.200 A 
ATOM     81  F   UNL     1       1.484 -10.971  -0.639  1.00  0.00    -0.200 F 
ATOM     82  F   UNL     1       3.086 -12.649   0.797  1.00  0.00    -0.200 F 
ENDBRANCH  44  72
BRANCH  59  83
ATOM     83  C   UNL     1       8.511 -10.407  -7.554  1.00  0.00     0.064 A 
ATOM     84  C   UNL     1       7.644 -11.274  -8.236  1.00  0.00     0.173 A 
ATOM     85  C   UNL     1       9.888 -10.668  -7.621  1.00  0.00     0.173 A 
ATOM     86  F   UNL     1       6.317 -11.078  -8.185  1.00  0.00    -0.203 F 
ATOM     87  C   UNL     1       8.134 -12.372  -8.936  1.00  0.00     0.198 A 
ATOM     88  C   UNL     1      10.377 -11.747  -8.351  1.00  0.00     0.198 A 
ATOM     89  F   UNL     1      10.760  -9.867  -6.990  1.00  0.00    -0.203 F 
ATOM     90  F   UNL     1       7.283 -13.216  -9.535  1.00  0.00    -0.200 F 
ATOM     91  C   UNL     1       9.500 -12.602  -9.001  1.00  0.00     0.200 A 
ATOM     92  F   UNL     1      11.698 -11.960  -8.425  1.00  0.00    -0.200 F 
ATOM     93  F   UNL     1       9.971 -13.654  -9.684  1.00  0.00    -0.200 F 
ENDBRANCH  59  83
ENDBRANCH  24  27
ENDBRANCH  15  17
ENDBRANCH  10  13
ENDBRANCH   7  10
ENDBRANCH   4   7
ENDBRANCH   1   4
BRANCH   1  94
ATOM     94  C   UNL     1       6.408   3.062   2.966  1.00  0.00    -0.036 C 
ATOM     95  H   UNL     1       6.710   2.214   2.387  1.00  0.00     0.028 H 
ATOM     96  H   UNL     1       6.654   2.971   4.003  1.00  0.00     0.028 H 
BRANCH  94  97
ATOM     97  C   UNL     1       7.162   4.284   2.449  1.00  0.00     0.018 C 
ATOM     98  H   UNL     1       6.878   4.465   1.434  1.00  0.00     0.049 H 
ATOM     99  H   UNL     1       8.212   4.087   2.521  1.00  0.00     0.049 H 
BRANCH  97 100
ATOM    100  N   UNL     1       6.864   5.465   3.240  1.00  0.00    -0.352 N 
ATOM    101  C   UNL     1       7.718   6.213   4.008  1.00  0.00     0.255 C 
ATOM    102  H   UNL     1       5.928   5.767   3.222  1.00  0.00     0.163 HD
ATOM    103  O   UNL     1       7.274   6.988   4.851  1.00  0.00    -0.269 OA
BRANCH 101 104
ATOM    104  C   UNL     1       9.175   6.077   3.837  1.00  0.00     0.082 A 
ATOM    105  C   UNL     1       9.737   6.156   2.556  1.00  0.00    -0.044 A 
ATOM    106  C   UNL     1      10.007   5.928   4.951  1.00  0.00     0.143 A 
ATOM    107  C   UNL     1      11.107   5.995   2.402  1.00  0.00    -0.043 A 
ATOM    108  H   UNL     1       9.138   6.332   1.734  1.00  0.00     0.063 H 
ATOM    109  N   UNL     1      11.345   5.762   4.787  1.00  0.00    -0.238 NA
ATOM    110  C   UNL     1      11.861   5.792   3.539  1.00  0.00     0.029 A 
ATOM    111  H   UNL     1      11.546   6.026   1.468  1.00  0.00     0.064 H 
ATOM    112  H   UNL     1      12.879   5.654   3.430  1.00  0.00     0.084 H 
BRANCH 106 113
ATOM    113  N   UNL     1       9.470   5.838   6.254  1.00  0.00    -0.340 N 
ATOM    114  H   UNL     1       8.495   5.718   6.325  1.00  0.00     0.168 HD
BRANCH 113 115
ATOM    115  C   UNL     1      10.191   5.905   7.459  1.00  0.00     0.040 A 
ATOM    116  C   UNL     1       9.857   5.055   8.516  1.00  0.00    -0.039 A 
ATOM    117  C   UNL     1      11.176   6.879   7.662  1.00  0.00    -0.026 A 
ATOM    118  C   UNL     1      10.548   5.124   9.727  1.00  0.00    -0.060 A 
ATOM    119  H   UNL     1       9.093   4.371   8.401  1.00  0.00     0.064 H 
ATOM    120  C   UNL     1      11.867   6.976   8.878  1.00  0.00     0.058 A 
ATOM    121  H   UNL     1      11.397   7.540   6.901  1.00  0.00     0.065 H 
ATOM    122  C   UNL     1      11.552   6.076   9.906  1.00  0.00    -0.050 A 
ATOM    123  H   UNL     1      10.316   4.470  10.491  1.00  0.00     0.062 H 
ATOM    124  H   UNL     1      12.066   6.119  10.800  1.00  0.00     0.063 H 
BRANCH 120 125
ATOM    125  C   UNL     1      12.931   8.022   9.076  1.00  0.00     0.416 C 
ATOM    126  F   UNL     1      12.695   8.803  10.168  1.00  0.00    -0.166 F 
ATOM    127  F   UNL     1      14.167   7.481   9.269  1.00  0.00    -0.166 F 
ATOM    128  F   UNL     1      13.062   8.885   8.029  1.00  0.00    -0.166 F 
ENDBRANCH 120 125
ENDBRANCH 113 115
ENDBRANCH 106 113
ENDBRANCH 101 104
ENDBRANCH  97 100
ENDBRANCH  94  97
ENDBRANCH   1  94
TORSDOF 16
