REMARK SMILES O=C(Cc1cccn1-c1ccc2c(c1)OCCO2)NCCCCCCNC(=O)c1ccc(-c2c3nc(c(-c4c(F)c(F)c(F)c(F)c4F)c4ccc([nH]4)c(-c4c(F)c(F)c(F)c(F)c4F)c4nc(c(-c5c(F)c(F)c(F)c(F)c5F)c5ccc2[nH]5)C=C4)C=C3)cc1
REMARK SMILES IDX 22 1 21 4 20 7 19 10 1 11 2 12 3 14 4 17 5 18 8 19 6 20 7 22
REMARK SMILES IDX 9 25 10 26 14 27 11 28 13 30 12 32 15 34 18 35 16 36 17 37
REMARK SMILES IDX 23 42 24 45 25 48 26 51 27 52 28 54 29 55 30 56 91 57 31 58
REMARK SMILES IDX 90 60 32 62 33 65 34 66 84 67 35 68 89 69 83 70 85 71 36 72
REMARK SMILES IDX 88 73 82 75 81 77 37 79 69 82 49 83 68 84 50 85 53 86 67 87
REMARK SMILES IDX 86 88 51 89 52 91 66 93 87 94 54 97 38 99 39 100 47 101
REMARK SMILES IDX 40 102 41 103 45 104 48 105 42 106 43 107 46 108 44 109
REMARK SMILES IDX 70 110 71 111 79 112 72 113 73 114 77 115 80 116 74 117
REMARK SMILES IDX 75 118 78 119 76 120 55 121 56 122 64 123 57 124 58 125
REMARK SMILES IDX 62 126 65 127 59 128 60 129 63 130 61 131
REMARK H PARENT 22 2 22 3 21 5 21 6 20 8 20 9 19 13 3 15 3 16 5 21 6 23 7 24
REMARK H PARENT 10 29 14 31 11 33 16 38 16 39 17 40 17 41 23 43 23 44 24 46
REMARK H PARENT 24 47 25 49 25 50 26 53 30 59 91 61 31 63 90 64 89 74 83 76
REMARK H PARENT 85 78 88 80 82 81 50 90 53 92 86 95 51 96 87 98
REMARK Flexibility Score: inf
ROOT
ATOM      1  C   UNL     1       4.147   3.526   1.437  1.00  0.00    -0.052 C 
ATOM      2  H   UNL     1       4.685   2.602   1.399  1.00  0.00     0.027 H 
ATOM      3  H   UNL     1       4.377   4.121   2.296  1.00  0.00     0.027 H 
ENDROOT
BRANCH   1   4
ATOM      4  C   UNL     1       2.651   3.200   1.536  1.00  0.00    -0.036 C 
ATOM      5  H   UNL     1       2.496   2.611   2.416  1.00  0.00     0.028 H 
ATOM      6  H   UNL     1       2.139   4.139   1.560  1.00  0.00     0.028 H 
BRANCH   4   7
ATOM      7  C   UNL     1       2.084   2.432   0.344  1.00  0.00     0.017 C 
ATOM      8  H   UNL     1       1.036   2.277   0.496  1.00  0.00     0.049 H 
ATOM      9  H   UNL     1       2.258   3.007  -0.541  1.00  0.00     0.049 H 
BRANCH   7  10
ATOM     10  N   UNL     1       2.731   1.149   0.187  1.00  0.00    -0.356 N 
ATOM     11  O   UNL     1       0.843  -0.025  -0.395  1.00  0.00    -0.275 OA
ATOM     12  C   UNL     1       2.054   0.012  -0.198  1.00  0.00     0.225 C 
ATOM     13  H   UNL     1       3.698   1.085   0.363  1.00  0.00     0.163 HD
BRANCH  12  14
ATOM     14  C   UNL     1       2.944  -1.213  -0.321  1.00  0.00     0.067 C 
ATOM     15  H   UNL     1       2.326  -2.087  -0.323  1.00  0.00     0.043 H 
ATOM     16  H   UNL     1       3.619  -1.207   0.509  1.00  0.00     0.043 H 
BRANCH  14  17
ATOM     17  C   UNL     1       3.773  -1.207  -1.582  1.00  0.00     0.032 A 
ATOM     18  C   UNL     1       4.243  -0.135  -2.330  1.00  0.00    -0.040 A 
ATOM     19  N   UNL     1       4.348  -2.358  -2.116  1.00  0.00    -0.320 N 
ATOM     20  C   UNL     1       5.195  -0.619  -3.249  1.00  0.00    -0.044 A 
ATOM     21  H   UNL     1       3.946   0.849  -2.229  1.00  0.00     0.064 H 
ATOM     22  C   UNL     1       5.280  -1.976  -3.060  1.00  0.00     0.009 A 
ATOM     23  H   UNL     1       5.727  -0.059  -3.934  1.00  0.00     0.064 H 
ATOM     24  H   UNL     1       5.935  -2.609  -3.545  1.00  0.00     0.082 H 
BRANCH  19  25
ATOM     25  C   UNL     1       4.068  -3.707  -1.786  1.00  0.00     0.049 A 
ATOM     26  C   UNL     1       5.124  -4.611  -1.613  1.00  0.00    -0.034 A 
ATOM     27  C   UNL     1       2.741  -4.143  -1.699  1.00  0.00     0.008 A 
ATOM     28  C   UNL     1       4.848  -5.946  -1.311  1.00  0.00    -0.014 A 
ATOM     29  H   UNL     1       6.101  -4.292  -1.708  1.00  0.00     0.065 H 
ATOM     30  C   UNL     1       2.475  -5.481  -1.414  1.00  0.00     0.163 A 
ATOM     31  H   UNL     1       1.965  -3.479  -1.845  1.00  0.00     0.069 H 
ATOM     32  C   UNL     1       3.527  -6.383  -1.230  1.00  0.00     0.161 A 
ATOM     33  H   UNL     1       5.622  -6.609  -1.149  1.00  0.00     0.066 H 
ATOM     34  O   UNL     1       1.153  -5.843  -1.358  1.00  0.00    -0.486 OA
ATOM     35  O   UNL     1       3.334  -7.716  -0.972  1.00  0.00    -0.486 OA
ATOM     36  C   UNL     1       0.984  -7.136  -0.770  1.00  0.00     0.122 C 
ATOM     37  C   UNL     1       2.005  -8.120  -1.319  1.00  0.00     0.122 C 
ATOM     38  H   UNL     1      -0.000  -7.495  -0.989  1.00  0.00     0.074 H 
ATOM     39  H   UNL     1       1.125  -7.052   0.287  1.00  0.00     0.074 H 
ATOM     40  H   UNL     1       1.916  -8.160  -2.385  1.00  0.00     0.074 H 
ATOM     41  H   UNL     1       1.816  -9.084  -0.894  1.00  0.00     0.074 H 
ENDBRANCH  19  25
ENDBRANCH  14  17
ENDBRANCH  12  14
ENDBRANCH   7  10
ENDBRANCH   4   7
ENDBRANCH   1   4
BRANCH   1  42
ATOM     42  C   UNL     1       4.558   4.363   0.221  1.00  0.00    -0.052 C 
ATOM     43  H   UNL     1       4.361   3.787  -0.659  1.00  0.00     0.027 H 
ATOM     44  H   UNL     1       5.594   4.595   0.356  1.00  0.00     0.027 H 
BRANCH  42  45
ATOM     45  C   UNL     1       3.836   5.709   0.079  1.00  0.00    -0.036 C 
ATOM     46  H   UNL     1       2.785   5.521   0.001  1.00  0.00     0.028 H 
ATOM     47  H   UNL     1       4.235   6.185  -0.793  1.00  0.00     0.028 H 
BRANCH  45  48
ATOM     48  C   UNL     1       4.067   6.666   1.249  1.00  0.00     0.018 C 
ATOM     49  H   UNL     1       3.826   6.165   2.163  1.00  0.00     0.049 H 
ATOM     50  H   UNL     1       3.443   7.524   1.116  1.00  0.00     0.049 H 
BRANCH  48  51
ATOM     51  N   UNL     1       5.452   7.104   1.299  1.00  0.00    -0.352 N 
ATOM     52  C   UNL     1       6.059   8.011   2.128  1.00  0.00     0.251 C 
ATOM     53  H   UNL     1       6.045   6.684   0.635  1.00  0.00     0.163 HD
ATOM     54  O   UNL     1       7.112   8.530   1.777  1.00  0.00    -0.269 OA
BRANCH  52  55
ATOM     55  C   UNL     1       5.471   8.382   3.432  1.00  0.00     0.039 A 
ATOM     56  C   UNL     1       5.618   9.709   3.859  1.00  0.00    -0.049 A 
ATOM     57  C   UNL     1       4.886   7.432   4.276  1.00  0.00    -0.049 A 
ATOM     58  C   UNL     1       5.131  10.095   5.103  1.00  0.00    -0.053 A 
ATOM     59  H   UNL     1       6.086  10.399   3.251  1.00  0.00     0.063 H 
ATOM     60  C   UNL     1       4.375   7.818   5.512  1.00  0.00    -0.053 A 
ATOM     61  H   UNL     1       4.834   6.444   3.983  1.00  0.00     0.063 H 
ATOM     62  C   UNL     1       4.485   9.154   5.915  1.00  0.00    -0.014 A 
ATOM     63  H   UNL     1       5.245  11.069   5.425  1.00  0.00     0.063 H 
ATOM     64  H   UNL     1       3.919   7.126   6.125  1.00  0.00     0.063 H 
BRANCH  62  65
ATOM     65  C   UNL     1       3.750   9.640   7.104  1.00  0.00     0.031 A 
ATOM     66  C   UNL     1       2.396  10.279   6.694  1.00  0.00     0.074 A 
ATOM     67  C   UNL     1       4.369   9.471   8.315  1.00  0.00     0.049 A 
ATOM     68  N   UNL     1       1.665  11.172   7.290  1.00  0.00    -0.248 NA
ATOM     69  C   UNL     1       1.788   9.898   5.385  1.00  0.00    -0.034 C 
ATOM     70  C   UNL     1       5.655   8.764   8.515  1.00  0.00    -0.036 A 
ATOM     71  N   UNL     1       4.070   9.846   9.611  1.00  0.00    -0.354 N 
ATOM     72  C   UNL     1       0.457  11.305   6.559  1.00  0.00     0.074 A 
ATOM     73  C   UNL     1       0.642  10.582   5.341  1.00  0.00    -0.034 C 
ATOM     74  H   UNL     1       2.167   9.252   4.675  1.00  0.00     0.065 H 
ATOM     75  C   UNL     1       6.056   8.833   9.804  1.00  0.00    -0.036 A 
ATOM     76  H   UNL     1       6.178   8.282   7.768  1.00  0.00     0.065 H 
ATOM     77  C   UNL     1       5.084   9.579  10.578  1.00  0.00     0.049 A 
ATOM     78  H   UNL     1       3.214  10.268   9.852  1.00  0.00     0.167 HD
ATOM     79  C   UNL     1      -0.669  11.891   7.072  1.00  0.00     0.037 A 
ATOM     80  H   UNL     1      -0.013  10.587   4.544  1.00  0.00     0.065 H 
ATOM     81  H   UNL     1       6.923   8.417  10.181  1.00  0.00     0.065 H 
ATOM     82  C   UNL     1       5.155   9.980  11.889  1.00  0.00     0.037 A 
ATOM     83  C   UNL     1      -0.389  12.399   8.369  1.00  0.00     0.049 A 
ATOM     84  C   UNL     1       3.857  10.611  12.146  1.00  0.00     0.074 A 
ATOM     85  C   UNL     1       0.327  13.485   8.795  1.00  0.00    -0.036 A 
ATOM     86  N   UNL     1      -0.589  11.544   9.422  1.00  0.00    -0.354 N 
ATOM     87  N   UNL     1       2.744   9.960  12.301  1.00  0.00    -0.248 NA
ATOM     88  C   UNL     1       3.772  12.075  12.135  1.00  0.00    -0.034 C 
ATOM     89  C   UNL     1       0.960  13.009   9.960  1.00  0.00    -0.036 A 
ATOM     90  H   UNL     1       0.389  14.422   8.367  1.00  0.00     0.065 H 
ATOM     91  C   UNL     1       0.424  11.766  10.317  1.00  0.00     0.049 A 
ATOM     92  H   UNL     1      -1.322  10.893   9.516  1.00  0.00     0.167 HD
ATOM     93  C   UNL     1       1.810  10.937  12.065  1.00  0.00     0.074 A 
ATOM     94  C   UNL     1       2.460  12.206  12.302  1.00  0.00    -0.034 C 
ATOM     95  H   UNL     1       4.510  12.790  12.029  1.00  0.00     0.065 H 
ATOM     96  H   UNL     1       1.706  13.504  10.474  1.00  0.00     0.065 H 
ATOM     97  C   UNL     1       0.795  10.689  11.199  1.00  0.00     0.037 A 
ATOM     98  H   UNL     1       1.978  13.081  12.562  1.00  0.00     0.065 H 
BRANCH  79  99
ATOM     99  C   UNL     1      -2.122  11.876   6.666  1.00  0.00     0.064 A 
ATOM    100  C   UNL     1      -2.993  12.819   7.276  1.00  0.00     0.173 A 
ATOM    101  C   UNL     1      -2.740  10.781   6.052  1.00  0.00     0.173 A 
ATOM    102  F   UNL     1      -2.511  13.941   7.834  1.00  0.00    -0.203 F 
ATOM    103  C   UNL     1      -4.360  12.587   7.415  1.00  0.00     0.198 A 
ATOM    104  C   UNL     1      -4.122  10.579   6.146  1.00  0.00     0.198 A 
ATOM    105  F   UNL     1      -2.020   9.832   5.440  1.00  0.00    -0.203 F 
ATOM    106  F   UNL     1      -5.111  13.425   8.143  1.00  0.00    -0.200 F 
ATOM    107  C   UNL     1      -4.921  11.452   6.868  1.00  0.00     0.200 A 
ATOM    108  F   UNL     1      -4.670   9.484   5.600  1.00  0.00    -0.200 F 
ATOM    109  F   UNL     1      -6.218  11.179   7.066  1.00  0.00    -0.200 F 
ENDBRANCH  79  99
BRANCH  82 110
ATOM    110  C   UNL     1       6.149  10.034  13.036  1.00  0.00     0.064 A 
ATOM    111  C   UNL     1       7.402   9.414  13.081  1.00  0.00     0.173 A 
ATOM    112  C   UNL     1       5.871  10.849  14.178  1.00  0.00     0.173 A 
ATOM    113  F   UNL     1       7.758   8.514  12.159  1.00  0.00    -0.203 F 
ATOM    114  C   UNL     1       8.337   9.691  14.102  1.00  0.00     0.198 A 
ATOM    115  C   UNL     1       6.812  11.168  15.156  1.00  0.00     0.198 A 
ATOM    116  F   UNL     1       4.659  11.378  14.391  1.00  0.00    -0.203 F 
ATOM    117  F   UNL     1       9.529   9.077  14.096  1.00  0.00    -0.200 F 
ATOM    118  C   UNL     1       8.060  10.602  15.108  1.00  0.00     0.200 A 
ATOM    119  F   UNL     1       6.496  12.043  16.122  1.00  0.00    -0.200 F 
ATOM    120  F   UNL     1       8.978  10.920  16.030  1.00  0.00    -0.200 F 
ENDBRANCH  82 110
BRANCH  97 121
ATOM    121  C   UNL     1       0.487   9.213  11.016  1.00  0.00     0.064 A 
ATOM    122  C   UNL     1       0.067   8.448  12.116  1.00  0.00     0.173 A 
ATOM    123  C   UNL     1       0.716   8.498   9.827  1.00  0.00     0.173 A 
ATOM    124  F   UNL     1      -0.197   9.051  13.285  1.00  0.00    -0.203 F 
ATOM    125  C   UNL     1      -0.086   7.060  12.035  1.00  0.00     0.198 A 
ATOM    126  C   UNL     1       0.559   7.112   9.739  1.00  0.00     0.198 A 
ATOM    127  F   UNL     1       1.093   9.127   8.718  1.00  0.00    -0.203 F 
ATOM    128  F   UNL     1      -0.483   6.370  13.112  1.00  0.00    -0.200 F 
ATOM    129  C   UNL     1       0.164   6.392  10.848  1.00  0.00     0.200 A 
ATOM    130  F   UNL     1       0.788   6.483   8.576  1.00  0.00    -0.200 F 
ATOM    131  F   UNL     1       0.008   5.062  10.768  1.00  0.00    -0.200 F 
ENDBRANCH  97 121
ENDBRANCH  62  65
ENDBRANCH  52  55
ENDBRANCH  48  51
ENDBRANCH  45  48
ENDBRANCH  42  45
ENDBRANCH   1  42
TORSDOF 15
