REMARK SMILES O=C(NCCCCCCNC(=O)c1ccc(-c2c3nc(c(-c4c(F)c(F)c(F)c(F)c4F)c4ccc([nH]4)c(-c4c(F)c(F)c(F)c(F)c4F)c4nc(c(-c5c(F)c(F)c(F)c(F)c5F)c5ccc2[nH]5)C=C4)C=C3)cc1)C1=Cc2c(ccc(Cl)c2-c2ccccc2)O[C@H]1C(F)(F)F
REMARK SMILES IDX 7 1 6 4 5 7 4 10 3 13 1 14 2 15 76 17 77 18 92 19 78 20
REMARK SMILES IDX 91 22 79 24 84 25 80 26 82 27 81 28 83 30 93 32 94 33 95 34
REMARK SMILES IDX 96 35 85 36 86 37 90 38 87 39 89 41 88 43 8 47 9 50 10 53
REMARK SMILES IDX 11 54 12 56 13 57 14 58 75 59 15 60 74 62 16 64 17 67 18 68
REMARK SMILES IDX 68 69 19 70 73 71 67 72 69 73 20 74 72 75 66 77 65 79 21 81
REMARK SMILES IDX 53 84 33 85 52 86 34 87 37 88 51 89 70 90 35 91 36 93 50 95
REMARK SMILES IDX 71 96 38 99 22 101 23 102 31 103 24 104 25 105 29 106 32 107
REMARK SMILES IDX 26 108 27 109 30 110 28 111 54 112 55 113 63 114 56 115
REMARK SMILES IDX 57 116 61 117 64 118 58 119 59 120 62 121 60 122 39 123
REMARK SMILES IDX 40 124 48 125 41 126 42 127 46 128 49 129 43 130 44 131
REMARK SMILES IDX 47 132 45 133
REMARK H PARENT 7 2 7 3 6 5 6 6 5 8 5 9 4 11 4 12 3 16 77 21 92 23 80 29 81 31
REMARK H PARENT 86 40 90 42 87 44 89 45 88 46 8 48 8 49 9 51 9 52 10 55 14 61
REMARK H PARENT 75 63 15 65 74 66 73 76 67 78 69 80 72 82 66 83 34 92 37 94
REMARK H PARENT 70 97 35 98 71 100
REMARK Flexibility Score: inf
ROOT
ATOM      1  C   UNL     1       4.510   4.019  -2.134  1.00  0.00    -0.052 C 
ATOM      2  H   UNL     1       4.086   3.816  -1.173  1.00  0.00     0.027 H 
ATOM      3  H   UNL     1       4.305   4.995  -2.523  1.00  0.00     0.027 H 
ENDROOT
BRANCH   1   4
ATOM      4  C   UNL     1       3.868   3.051  -3.135  1.00  0.00    -0.052 C 
ATOM      5  H   UNL     1       2.807   3.115  -3.010  1.00  0.00     0.027 H 
ATOM      6  H   UNL     1       4.233   3.363  -4.092  1.00  0.00     0.027 H 
BRANCH   4   7
ATOM      7  C   UNL     1       4.254   1.572  -3.031  1.00  0.00    -0.036 C 
ATOM      8  H   UNL     1       3.702   1.038  -3.776  1.00  0.00     0.028 H 
ATOM      9  H   UNL     1       5.316   1.547  -3.163  1.00  0.00     0.028 H 
BRANCH   7  10
ATOM     10  C   UNL     1       3.998   0.894  -1.688  1.00  0.00     0.018 C 
ATOM     11  H   UNL     1       4.631   0.034  -1.626  1.00  0.00     0.049 H 
ATOM     12  H   UNL     1       4.201   1.634  -0.942  1.00  0.00     0.049 H 
BRANCH  10  13
ATOM     13  N   UNL     1       2.634   0.461  -1.456  1.00  0.00    -0.352 N 
ATOM     14  O   UNL     1       0.958  -0.731  -0.549  1.00  0.00    -0.270 OA
ATOM     15  C   UNL     1       2.159  -0.470  -0.572  1.00  0.00     0.251 C 
ATOM     16  H   UNL     1       1.951   0.900  -2.014  1.00  0.00     0.163 HD
BRANCH  15  17
ATOM     17  C   UNL     1       3.058  -1.158   0.381  1.00  0.00     0.067 C 
ATOM     18  C   UNL     1       3.370  -0.518   1.514  1.00  0.00    -0.038 C 
ATOM     19  C   UNL     1       3.950  -2.283  -0.036  1.00  0.00     0.224 C 
ATOM     20  C   UNL     1       4.745   0.039   1.369  1.00  0.00     0.027 A 
ATOM     21  H   UNL     1       2.765  -0.427   2.344  1.00  0.00     0.064 H 
ATOM     22  O   UNL     1       5.372  -1.897   0.021  1.00  0.00    -0.475 OA
ATOM     23  H   UNL     1       3.712  -2.509  -1.054  1.00  0.00     0.090 H 
ATOM     24  C   UNL     1       5.674  -0.686   0.607  1.00  0.00     0.128 A 
ATOM     25  C   UNL     1       5.003   1.354   1.840  1.00  0.00     0.011 A 
ATOM     26  C   UNL     1       6.894  -0.102   0.295  1.00  0.00    -0.018 A 
ATOM     27  C   UNL     1       6.223   1.934   1.480  1.00  0.00     0.049 A 
ATOM     28  C   UNL     1       7.158   1.210   0.715  1.00  0.00    -0.039 A 
ATOM     29  H   UNL     1       7.602  -0.629  -0.240  1.00  0.00     0.066 H 
ATOM     30  Cl  UNL     1       6.597   3.572   1.873  1.00  0.00    -0.084 Cl
ATOM     31  H   UNL     1       8.055   1.652   0.459  1.00  0.00     0.064 H 
BRANCH  19  32
ATOM     32  C   UNL     1       3.689  -3.561   0.801  1.00  0.00     0.429 C 
ATOM     33  F   UNL     1       2.744  -3.392   1.758  1.00  0.00    -0.167 F 
ATOM     34  F   UNL     1       3.273  -4.581   0.014  1.00  0.00    -0.167 F 
ATOM     35  F   UNL     1       4.806  -3.983   1.442  1.00  0.00    -0.167 F 
ENDBRANCH  19  32
BRANCH  25  36
ATOM     36  C   UNL     1       3.884   2.018   2.546  1.00  0.00    -0.016 A 
ATOM     37  C   UNL     1       2.936   2.736   1.796  1.00  0.00    -0.054 A 
ATOM     38  C   UNL     1       3.515   1.541   3.818  1.00  0.00    -0.054 A 
ATOM     39  C   UNL     1       1.610   2.814   2.226  1.00  0.00    -0.062 A 
ATOM     40  H   UNL     1       3.221   3.207   0.924  1.00  0.00     0.063 H 
ATOM     41  C   UNL     1       2.185   1.610   4.237  1.00  0.00    -0.062 A 
ATOM     42  H   UNL     1       4.230   1.139   4.443  1.00  0.00     0.063 H 
ATOM     43  C   UNL     1       1.228   2.213   3.423  1.00  0.00    -0.062 A 
ATOM     44  H   UNL     1       0.912   3.318   1.656  1.00  0.00     0.062 H 
ATOM     45  H   UNL     1       1.911   1.214   5.149  1.00  0.00     0.062 H 
ATOM     46  H   UNL     1       0.236   2.214   3.708  1.00  0.00     0.062 H 
ENDBRANCH  25  36
ENDBRANCH  15  17
ENDBRANCH  10  13
ENDBRANCH   7  10
ENDBRANCH   4   7
ENDBRANCH   1   4
BRANCH   1  47
ATOM     47  C   UNL     1       6.032   3.965  -1.986  1.00  0.00    -0.036 C 
ATOM     48  H   UNL     1       6.287   2.999  -1.602  1.00  0.00     0.028 H 
ATOM     49  H   UNL     1       6.283   4.780  -1.340  1.00  0.00     0.028 H 
BRANCH  47  50
ATOM     50  C   UNL     1       6.845   4.189  -3.256  1.00  0.00     0.018 C 
ATOM     51  H   UNL     1       6.558   3.453  -3.978  1.00  0.00     0.049 H 
ATOM     52  H   UNL     1       7.878   4.110  -2.989  1.00  0.00     0.049 H 
BRANCH  50  53
ATOM     53  N   UNL     1       6.651   5.506  -3.839  1.00  0.00    -0.352 N 
ATOM     54  C   UNL     1       7.563   6.466  -4.196  1.00  0.00     0.251 C 
ATOM     55  H   UNL     1       5.711   5.749  -4.003  1.00  0.00     0.163 HD
ATOM     56  O   UNL     1       7.162   7.574  -4.563  1.00  0.00    -0.269 OA
BRANCH  54  57
ATOM     57  C   UNL     1       9.022   6.214  -4.130  1.00  0.00     0.039 A 
ATOM     58  C   UNL     1       9.861   7.248  -3.699  1.00  0.00    -0.049 A 
ATOM     59  C   UNL     1       9.582   4.996  -4.524  1.00  0.00    -0.049 A 
ATOM     60  C   UNL     1      11.241   7.043  -3.608  1.00  0.00    -0.053 A 
ATOM     61  H   UNL     1       9.460   8.165  -3.448  1.00  0.00     0.063 H 
ATOM     62  C   UNL     1      10.947   4.764  -4.353  1.00  0.00    -0.053 A 
ATOM     63  H   UNL     1       8.984   4.266  -4.941  1.00  0.00     0.063 H 
ATOM     64  C   UNL     1      11.795   5.787  -3.901  1.00  0.00    -0.014 A 
ATOM     65  H   UNL     1      11.857   7.821  -3.323  1.00  0.00     0.063 H 
ATOM     66  H   UNL     1      11.338   3.832  -4.562  1.00  0.00     0.063 H 
BRANCH  64  67
ATOM     67  C   UNL     1      13.255   5.535  -3.753  1.00  0.00     0.031 A 
ATOM     68  C   UNL     1      14.090   5.173  -4.953  1.00  0.00     0.074 A 
ATOM     69  C   UNL     1      13.823   5.587  -2.532  1.00  0.00     0.049 A 
ATOM     70  N   UNL     1      15.361   4.860  -5.016  1.00  0.00    -0.248 NA
ATOM     71  C   UNL     1      13.401   5.133  -6.252  1.00  0.00    -0.034 C 
ATOM     72  C   UNL     1      13.119   5.886  -1.284  1.00  0.00    -0.036 A 
ATOM     73  N   UNL     1      15.122   5.380  -2.136  1.00  0.00    -0.354 N 
ATOM     74  C   UNL     1      15.617   4.579  -6.351  1.00  0.00     0.074 A 
ATOM     75  C   UNL     1      14.360   4.699  -7.057  1.00  0.00    -0.034 C 
ATOM     76  H   UNL     1      12.425   5.380  -6.478  1.00  0.00     0.065 H 
ATOM     77  C   UNL     1      13.995   5.867  -0.268  1.00  0.00    -0.036 A 
ATOM     78  H   UNL     1      12.109   6.081  -1.200  1.00  0.00     0.065 H 
ATOM     79  C   UNL     1      15.315   5.511  -0.782  1.00  0.00     0.049 A 
ATOM     80  H   UNL     1      15.848   5.158  -2.764  1.00  0.00     0.167 HD
ATOM     81  C   UNL     1      16.798   4.275  -6.942  1.00  0.00     0.037 A 
ATOM     82  H   UNL     1      14.227   4.475  -8.055  1.00  0.00     0.065 H 
ATOM     83  H   UNL     1      13.772   6.071   0.719  1.00  0.00     0.065 H 
ATOM     84  C   UNL     1      16.425   5.352  -0.036  1.00  0.00     0.037 A 
ATOM     85  C   UNL     1      18.053   4.176  -6.242  1.00  0.00     0.049 A 
ATOM     86  C   UNL     1      17.721   4.992  -0.716  1.00  0.00     0.074 A 
ATOM     87  C   UNL     1      19.311   3.921  -6.760  1.00  0.00    -0.036 A 
ATOM     88  N   UNL     1      18.207   4.327  -4.872  1.00  0.00    -0.354 N 
ATOM     89  N   UNL     1      17.961   4.792  -1.989  1.00  0.00    -0.248 NA
ATOM     90  C   UNL     1      18.902   4.843   0.146  1.00  0.00    -0.034 C 
ATOM     91  C   UNL     1      20.218   3.862  -5.697  1.00  0.00    -0.036 A 
ATOM     92  H   UNL     1      19.541   3.796  -7.758  1.00  0.00     0.065 H 
ATOM     93  C   UNL     1      19.537   4.144  -4.524  1.00  0.00     0.049 A 
ATOM     94  H   UNL     1      17.481   4.533  -4.241  1.00  0.00     0.167 HD
ATOM     95  C   UNL     1      19.321   4.527  -2.084  1.00  0.00     0.074 A 
ATOM     96  C   UNL     1      19.857   4.609  -0.743  1.00  0.00    -0.034 C 
ATOM     97  H   UNL     1      18.970   4.904   1.174  1.00  0.00     0.065 H 
ATOM     98  H   UNL     1      21.224   3.645  -5.773  1.00  0.00     0.065 H 
ATOM     99  C   UNL     1      20.059   4.241  -3.185  1.00  0.00     0.037 A 
ATOM    100  H   UNL     1      20.856   4.500  -0.507  1.00  0.00     0.065 H 
BRANCH  81 101
ATOM    101  C   UNL     1      16.795   4.029  -8.425  1.00  0.00     0.064 A 
ATOM    102  C   UNL     1      16.565   5.066  -9.343  1.00  0.00     0.173 A 
ATOM    103  C   UNL     1      17.077   2.753  -8.937  1.00  0.00     0.173 A 
ATOM    104  F   UNL     1      16.282   6.303  -8.907  1.00  0.00    -0.203 F 
ATOM    105  C   UNL     1      16.589   4.829 -10.715  1.00  0.00     0.198 A 
ATOM    106  C   UNL     1      17.134   2.527 -10.310  1.00  0.00     0.198 A 
ATOM    107  F   UNL     1      17.311   1.727  -8.106  1.00  0.00    -0.203 F 
ATOM    108  F   UNL     1      16.318   5.825 -11.570  1.00  0.00    -0.200 F 
ATOM    109  C   UNL     1      16.882   3.563 -11.198  1.00  0.00     0.200 A 
ATOM    110  F   UNL     1      17.433   1.306 -10.775  1.00  0.00    -0.200 F 
ATOM    111  F   UNL     1      16.917   3.339 -12.518  1.00  0.00    -0.200 F 
ENDBRANCH  81 101
BRANCH  84 112
ATOM    112  C   UNL     1      16.370   5.540   1.439  1.00  0.00     0.064 A 
ATOM    113  C   UNL     1      17.043   6.601   2.059  1.00  0.00     0.173 A 
ATOM    114  C   UNL     1      15.664   4.649   2.261  1.00  0.00     0.173 A 
ATOM    115  F   UNL     1      17.750   7.469   1.320  1.00  0.00    -0.203 F 
ATOM    116  C   UNL     1      17.039   6.747   3.446  1.00  0.00     0.198 A 
ATOM    117  C   UNL     1      15.632   4.815   3.644  1.00  0.00     0.198 A 
ATOM    118  F   UNL     1      14.998   3.618   1.720  1.00  0.00    -0.203 F 
ATOM    119  F   UNL     1      17.741   7.736   4.015  1.00  0.00    -0.200 F 
ATOM    120  C   UNL     1      16.328   5.857   4.236  1.00  0.00     0.200 A 
ATOM    121  F   UNL     1      14.931   3.961   4.403  1.00  0.00    -0.200 F 
ATOM    122  F   UNL     1      16.325   5.996   5.569  1.00  0.00    -0.200 F 
ENDBRANCH  84 112
BRANCH  99 123
ATOM    123  C   UNL     1      21.536   4.038  -2.994  1.00  0.00     0.064 A 
ATOM    124  C   UNL     1      22.049   2.908  -2.341  1.00  0.00     0.173 A 
ATOM    125  C   UNL     1      22.451   4.971  -3.507  1.00  0.00     0.173 A 
ATOM    126  F   UNL     1      21.218   1.993  -1.819  1.00  0.00    -0.203 F 
ATOM    127  C   UNL     1      23.422   2.734  -2.183  1.00  0.00     0.198 A 
ATOM    128  C   UNL     1      23.823   4.776  -3.379  1.00  0.00     0.198 A 
ATOM    129  F   UNL     1      22.014   6.065  -4.148  1.00  0.00    -0.203 F 
ATOM    130  F   UNL     1      23.887   1.674  -1.508  1.00  0.00    -0.200 F 
ATOM    131  C   UNL     1      24.307   3.663  -2.709  1.00  0.00     0.200 A 
ATOM    132  F   UNL     1      24.677   5.666  -3.903  1.00  0.00    -0.200 F 
ATOM    133  F   UNL     1      25.628   3.489  -2.564  1.00  0.00    -0.200 F 
ENDBRANCH  99 123
ENDBRANCH  64  67
ENDBRANCH  54  57
ENDBRANCH  50  53
ENDBRANCH  47  50
ENDBRANCH   1  47
TORSDOF 15
