REMARK SMILES C[C@@H](C(=O)NCCCCCCNC(=O)c1ccc(-c2c3nc(c(-c4c(F)c(F)c(F)c(F)c4F)c4ccc([nH]4)c(-c4c(F)c(F)c(F)c(F)c4F)c4nc(c(-c5c(F)c(F)c(F)c(F)c5F)c5ccc2[nH]5)C=C4)C=C3)cc1)c1ccc(OC2CCCC2)cc1F
REMARK SMILES IDX 8 1 7 4 6 7 5 10 3 11 4 12 2 14 1 16 78 20 79 21 89 22 80 23
REMARK SMILES IDX 88 25 90 26 81 27 82 30 83 31 84 32 87 33 85 35 86 38 9 45
REMARK SMILES IDX 10 48 11 51 12 54 13 55 14 57 15 58 16 59 77 60 17 61 76 63
REMARK SMILES IDX 18 65 19 68 20 69 70 70 21 71 75 72 69 73 71 74 22 75 74 76
REMARK SMILES IDX 68 78 67 80 23 82 55 85 35 86 54 87 36 88 39 89 53 90 72 91
REMARK SMILES IDX 37 92 38 94 52 96 73 97 40 100 24 102 25 103 33 104 26 105
REMARK SMILES IDX 27 106 31 107 34 108 28 109 29 110 32 111 30 112 56 113
REMARK SMILES IDX 57 114 65 115 58 116 59 117 63 118 66 119 60 120 61 121
REMARK SMILES IDX 64 122 62 123 41 124 42 125 50 126 43 127 44 128 48 129
REMARK SMILES IDX 51 130 45 131 46 132 49 133 47 134
REMARK H PARENT 8 2 8 3 7 5 7 6 6 8 6 9 5 13 2 15 1 17 1 18 1 19 79 24 80 28
REMARK H PARENT 88 29 83 34 84 36 84 37 87 39 87 40 85 41 85 42 86 43 86 44
REMARK H PARENT 9 46 9 47 10 49 10 50 11 52 11 53 12 56 16 62 77 64 17 66
REMARK H PARENT 76 67 75 77 69 79 71 81 74 83 68 84 36 93 39 95 72 98 37 99
REMARK H PARENT 73 101
REMARK Flexibility Score: inf
ROOT
ATOM      1  C   UNL     1       4.963   2.523   1.187  1.00  0.00    -0.052 C 
ATOM      2  H   UNL     1       4.235   3.229   1.528  1.00  0.00     0.027 H 
ATOM      3  H   UNL     1       5.568   2.891   0.384  1.00  0.00     0.027 H 
ENDROOT
BRANCH   1   4
ATOM      4  C   UNL     1       4.219   1.298   0.638  1.00  0.00    -0.036 C 
ATOM      5  H   UNL     1       3.546   1.628  -0.126  1.00  0.00     0.028 H 
ATOM      6  H   UNL     1       4.964   0.624   0.269  1.00  0.00     0.028 H 
BRANCH   4   7
ATOM      7  C   UNL     1       3.414   0.534   1.691  1.00  0.00     0.017 C 
ATOM      8  H   UNL     1       2.953  -0.316   1.234  1.00  0.00     0.049 H 
ATOM      9  H   UNL     1       4.074   0.217   2.471  1.00  0.00     0.049 H 
BRANCH   7  10
ATOM     10  N   UNL     1       2.391   1.386   2.256  1.00  0.00    -0.356 N 
ATOM     11  C   UNL     1       1.049   1.425   2.018  1.00  0.00     0.227 C 
ATOM     12  O   UNL     1       0.439   2.377   2.505  1.00  0.00    -0.274 OA
ATOM     13  H   UNL     1       2.714   2.040   2.917  1.00  0.00     0.163 HD
BRANCH  11  14
ATOM     14  C   UNL     1       0.388   0.294   1.216  1.00  0.00     0.063 C 
ATOM     15  H   UNL     1       0.835  -0.587   1.626  1.00  0.00     0.045 H 
BRANCH  14  16
ATOM     16  C   UNL     1       0.688   0.364  -0.283  1.00  0.00    -0.049 C 
ATOM     17  H   UNL     1       1.745   0.433  -0.432  1.00  0.00     0.024 H 
ATOM     18  H   UNL     1       0.211   1.226  -0.702  1.00  0.00     0.024 H 
ATOM     19  H   UNL     1       0.316  -0.517  -0.762  1.00  0.00     0.024 H 
ENDBRANCH  14  16
BRANCH  14  20
ATOM     20  C   UNL     1      -1.118   0.197   1.403  1.00  0.00     0.000 A 
ATOM     21  C   UNL     1      -1.967   1.306   1.295  1.00  0.00    -0.052 A 
ATOM     22  C   UNL     1      -1.703  -1.053   1.612  1.00  0.00     0.130 A 
ATOM     23  C   UNL     1      -3.350   1.155   1.421  1.00  0.00    -0.019 A 
ATOM     24  H   UNL     1      -1.568   2.241   1.120  1.00  0.00     0.063 H 
ATOM     25  C   UNL     1      -3.082  -1.210   1.721  1.00  0.00     0.016 A 
ATOM     26  F   UNL     1      -0.932  -2.148   1.681  1.00  0.00    -0.207 F 
ATOM     27  C   UNL     1      -3.919  -0.105   1.615  1.00  0.00     0.122 A 
ATOM     28  H   UNL     1      -3.959   1.986   1.371  1.00  0.00     0.066 H 
ATOM     29  H   UNL     1      -3.483  -2.147   1.881  1.00  0.00     0.069 H 
BRANCH  27  30
ATOM     30  O   UNL     1      -5.279  -0.098   1.687  1.00  0.00    -0.490 OA
BRANCH  30  31
ATOM     31  C   UNL     1      -6.058  -1.270   1.493  1.00  0.00     0.099 C 
ATOM     32  C   UNL     1      -5.792  -2.074   0.223  1.00  0.00    -0.016 C 
ATOM     33  C   UNL     1      -6.054  -2.261   2.654  1.00  0.00    -0.016 C 
ATOM     34  H   UNL     1      -7.018  -0.806   1.406  1.00  0.00     0.074 H 
ATOM     35  C   UNL     1      -6.428  -3.422   0.516  1.00  0.00    -0.050 C 
ATOM     36  H   UNL     1      -4.741  -2.177   0.049  1.00  0.00     0.030 H 
ATOM     37  H   UNL     1      -6.189  -1.609  -0.655  1.00  0.00     0.030 H 
ATOM     38  C   UNL     1      -6.312  -3.628   2.025  1.00  0.00    -0.050 C 
ATOM     39  H   UNL     1      -6.826  -2.019   3.354  1.00  0.00     0.030 H 
ATOM     40  H   UNL     1      -5.128  -2.240   3.190  1.00  0.00     0.030 H 
ATOM     41  H   UNL     1      -5.909  -4.199  -0.006  1.00  0.00     0.027 H 
ATOM     42  H   UNL     1      -7.449  -3.451   0.195  1.00  0.00     0.027 H 
ATOM     43  H   UNL     1      -5.500  -4.290   2.243  1.00  0.00     0.027 H 
ATOM     44  H   UNL     1      -7.209  -4.061   2.417  1.00  0.00     0.027 H 
ENDBRANCH  30  31
ENDBRANCH  27  30
ENDBRANCH  14  20
ENDBRANCH  11  14
ENDBRANCH   7  10
ENDBRANCH   4   7
ENDBRANCH   1   4
BRANCH   1  45
ATOM     45  C   UNL     1       5.921   2.231   2.345  1.00  0.00    -0.052 C 
ATOM     46  H   UNL     1       5.340   1.912   3.186  1.00  0.00     0.027 H 
ATOM     47  H   UNL     1       6.461   3.137   2.527  1.00  0.00     0.027 H 
BRANCH  45  48
ATOM     48  C   UNL     1       6.968   1.155   2.054  1.00  0.00    -0.036 C 
ATOM     49  H   UNL     1       6.457   0.232   1.874  1.00  0.00     0.028 H 
ATOM     50  H   UNL     1       7.612   1.116   2.907  1.00  0.00     0.028 H 
BRANCH  48  51
ATOM     51  C   UNL     1       7.857   1.450   0.851  1.00  0.00     0.018 C 
ATOM     52  H   UNL     1       7.237   1.595  -0.009  1.00  0.00     0.049 H 
ATOM     53  H   UNL     1       8.517   0.619   0.716  1.00  0.00     0.049 H 
BRANCH  51  54
ATOM     54  N   UNL     1       8.669   2.640   1.051  1.00  0.00    -0.352 N 
ATOM     55  C   UNL     1      10.031   2.781   0.993  1.00  0.00     0.251 C 
ATOM     56  H   UNL     1       8.168   3.462   1.257  1.00  0.00     0.163 HD
ATOM     57  O   UNL     1      10.566   3.815   1.390  1.00  0.00    -0.269 OA
BRANCH  55  58
ATOM     58  C   UNL     1      10.864   1.676   0.476  1.00  0.00     0.039 A 
ATOM     59  C   UNL     1      12.007   1.303   1.186  1.00  0.00    -0.049 A 
ATOM     60  C   UNL     1      10.514   1.003  -0.699  1.00  0.00    -0.049 A 
ATOM     61  C   UNL     1      12.759   0.208   0.759  1.00  0.00    -0.053 A 
ATOM     62  H   UNL     1      12.294   1.835   2.022  1.00  0.00     0.063 H 
ATOM     63  C   UNL     1      11.225  -0.131  -1.085  1.00  0.00    -0.053 A 
ATOM     64  H   UNL     1       9.732   1.346  -1.279  1.00  0.00     0.063 H 
ATOM     65  C   UNL     1      12.348  -0.545  -0.354  1.00  0.00    -0.014 A 
ATOM     66  H   UNL     1      13.621  -0.051   1.264  1.00  0.00     0.063 H 
ATOM     67  H   UNL     1      10.923  -0.669  -1.912  1.00  0.00     0.063 H 
BRANCH  65  68
ATOM     68  C   UNL     1      13.060  -1.792  -0.737  1.00  0.00     0.031 A 
ATOM     69  C   UNL     1      13.767  -1.893  -2.060  1.00  0.00     0.074 A 
ATOM     70  C   UNL     1      13.008  -2.858   0.086  1.00  0.00     0.049 A 
ATOM     71  N   UNL     1      14.385  -2.918  -2.589  1.00  0.00    -0.248 NA
ATOM     72  C   UNL     1      13.761  -0.692  -2.911  1.00  0.00    -0.034 C 
ATOM     73  C   UNL     1      12.309  -2.899   1.373  1.00  0.00    -0.036 A 
ATOM     74  N   UNL     1      13.540  -4.118  -0.041  1.00  0.00    -0.354 N 
ATOM     75  C   UNL     1      14.830  -2.493  -3.833  1.00  0.00     0.074 A 
ATOM     76  C   UNL     1      14.376  -1.129  -4.002  1.00  0.00    -0.034 C 
ATOM     77  H   UNL     1      13.379   0.245  -2.711  1.00  0.00     0.065 H 
ATOM     78  C   UNL     1      12.469  -4.113   1.923  1.00  0.00    -0.036 A 
ATOM     79  H   UNL     1      11.779  -2.119   1.790  1.00  0.00     0.065 H 
ATOM     80  C   UNL     1      13.242  -4.950   1.012  1.00  0.00     0.049 A 
ATOM     81  H   UNL     1      14.083  -4.398  -0.812  1.00  0.00     0.167 HD
ATOM     82  C   UNL     1      15.567  -3.174  -4.743  1.00  0.00     0.037 A 
ATOM     83  H   UNL     1      14.513  -0.570  -4.858  1.00  0.00     0.065 H 
ATOM     84  H   UNL     1      12.103  -4.407   2.842  1.00  0.00     0.065 H 
ATOM     85  C   UNL     1      13.544  -6.248   1.211  1.00  0.00     0.037 A 
ATOM     86  C   UNL     1      16.041  -4.521  -4.558  1.00  0.00     0.049 A 
ATOM     87  C   UNL     1      14.354  -6.979   0.174  1.00  0.00     0.074 A 
ATOM     88  C   UNL     1      16.862  -5.265  -5.388  1.00  0.00    -0.036 A 
ATOM     89  N   UNL     1      15.731  -5.328  -3.474  1.00  0.00    -0.354 N 
ATOM     90  N   UNL     1      14.845  -6.536  -0.958  1.00  0.00    -0.248 NA
ATOM     91  C   UNL     1      14.654  -8.393   0.443  1.00  0.00    -0.034 C 
ATOM     92  C   UNL     1      17.001  -6.542  -4.836  1.00  0.00    -0.036 A 
ATOM     93  H   UNL     1      17.297  -4.934  -6.263  1.00  0.00     0.065 H 
ATOM     94  C   UNL     1      16.315  -6.575  -3.633  1.00  0.00     0.049 A 
ATOM     95  H   UNL     1      15.178  -5.056  -2.706  1.00  0.00     0.167 HD
ATOM     96  C   UNL     1      15.533  -7.603  -1.519  1.00  0.00     0.074 A 
ATOM     97  C   UNL     1      15.416  -8.709  -0.593  1.00  0.00    -0.034 C 
ATOM     98  H   UNL     1      14.351  -8.984   1.233  1.00  0.00     0.065 H 
ATOM     99  H   UNL     1      17.525  -7.327  -5.254  1.00  0.00     0.065 H 
ATOM    100  C   UNL     1      16.196  -7.665  -2.699  1.00  0.00     0.037 A 
ATOM    101  H   UNL     1      15.869  -9.627  -0.724  1.00  0.00     0.065 H 
BRANCH  82 102
ATOM    102  C   UNL     1      15.919  -2.483  -6.028  1.00  0.00     0.064 A 
ATOM    103  C   UNL     1      16.863  -1.447  -6.071  1.00  0.00     0.173 A 
ATOM    104  C   UNL     1      15.375  -2.927  -7.243  1.00  0.00     0.173 A 
ATOM    105  F   UNL     1      17.407  -0.981  -4.937  1.00  0.00    -0.203 F 
ATOM    106  C   UNL     1      17.242  -0.874  -7.283  1.00  0.00     0.198 A 
ATOM    107  C   UNL     1      15.776  -2.371  -8.454  1.00  0.00     0.198 A 
ATOM    108  F   UNL     1      14.472  -3.920  -7.257  1.00  0.00    -0.203 F 
ATOM    109  F   UNL     1      18.126   0.133  -7.298  1.00  0.00    -0.200 F 
ATOM    110  C   UNL     1      16.707  -1.344  -8.473  1.00  0.00     0.200 A 
ATOM    111  F   UNL     1      15.270  -2.837  -9.604  1.00  0.00    -0.200 F 
ATOM    112  F   UNL     1      17.090  -0.806  -9.640  1.00  0.00    -0.200 F 
ENDBRANCH  82 102
BRANCH  85 113
ATOM    113  C   UNL     1      13.075  -6.950   2.437  1.00  0.00     0.064 A 
ATOM    114  C   UNL     1      13.986  -7.414   3.397  1.00  0.00     0.173 A 
ATOM    115  C   UNL     1      11.714  -7.210   2.652  1.00  0.00     0.173 A 
ATOM    116  F   UNL     1      15.300  -7.209   3.228  1.00  0.00    -0.203 F 
ATOM    117  C   UNL     1      13.556  -8.143   4.504  1.00  0.00     0.198 A 
ATOM    118  C   UNL     1      11.283  -7.908   3.778  1.00  0.00     0.198 A 
ATOM    119  F   UNL     1      10.800  -6.784   1.768  1.00  0.00    -0.203 F 
ATOM    120  F   UNL     1      14.454  -8.633   5.370  1.00  0.00    -0.200 F 
ATOM    121  C   UNL     1      12.205  -8.387   4.696  1.00  0.00     0.200 A 
ATOM    122  F   UNL     1       9.974  -8.128   3.966  1.00  0.00    -0.200 F 
ATOM    123  F   UNL     1      11.793  -9.093   5.757  1.00  0.00    -0.200 F 
ENDBRANCH  85 113
BRANCH 100 124
ATOM    124  C   UNL     1      16.871  -8.961  -3.043  1.00  0.00     0.064 A 
ATOM    125  C   UNL     1      16.136 -10.106  -3.382  1.00  0.00     0.173 A 
ATOM    126  C   UNL     1      18.272  -9.050  -3.065  1.00  0.00     0.173 A 
ATOM    127  F   UNL     1      14.794 -10.078  -3.361  1.00  0.00    -0.203 F 
ATOM    128  C   UNL     1      16.777 -11.300  -3.703  1.00  0.00     0.198 A 
ATOM    129  C   UNL     1      18.909 -10.235  -3.419  1.00  0.00     0.198 A 
ATOM    130  F   UNL     1      19.023  -7.982  -2.755  1.00  0.00    -0.203 F 
ATOM    131  F   UNL     1      16.053 -12.395  -3.972  1.00  0.00    -0.200 F 
ATOM    132  C   UNL     1      18.162 -11.361  -3.729  1.00  0.00     0.200 A 
ATOM    133  F   UNL     1      20.248 -10.288  -3.460  1.00  0.00    -0.200 F 
ATOM    134  F   UNL     1      18.777 -12.509  -4.046  1.00  0.00    -0.200 F 
ENDBRANCH 100 124
ENDBRANCH  65  68
ENDBRANCH  55  58
ENDBRANCH  51  54
ENDBRANCH  48  51
ENDBRANCH  45  48
ENDBRANCH   1  45
TORSDOF 17
