REMARK SMILES Cc1cc(=O)c(Oc2ccc(C(=O)NCCCCCCNC(=O)c3ccc(-c4c5nc(c(-c6c(F)c(F)c(F)c(F)c6F)c6ccc([nH]6)c(-c6c(F)c(F)c(F)c(F)c6F)c6nc(c(-c7c(F)c(F)c(F)c(F)c7F)c7ccc4[nH]7)C=C6)C=C5)cc3)cc2)c(-c2ccc(S(C)(=O)=O)cc2)o1
REMARK SMILES IDX 16 1 15 4 14 7 12 8 13 9 11 11 8 12 9 13 88 14 10 15 87 17
REMARK SMILES IDX 7 21 6 22 2 23 3 24 100 25 4 26 89 28 5 29 1 30 90 34 91 35
REMARK SMILES IDX 99 36 92 37 98 39 93 41 94 44 96 45 97 46 95 47 17 51 18 54
REMARK SMILES IDX 19 57 20 60 21 63 22 64 23 66 24 67 25 68 86 69 26 70 85 72
REMARK SMILES IDX 27 74 28 77 29 78 79 79 30 80 84 81 78 82 80 83 31 84 83 85
REMARK SMILES IDX 77 87 76 89 32 91 64 94 44 95 63 96 45 97 48 98 62 99 81 100
REMARK SMILES IDX 46 101 47 103 61 105 82 106 49 109 33 111 34 112 42 113
REMARK SMILES IDX 35 114 36 115 40 116 43 117 37 118 38 119 41 120 39 121
REMARK SMILES IDX 65 122 66 123 74 124 67 125 68 126 72 127 75 128 69 129
REMARK SMILES IDX 70 130 73 131 71 132 50 133 51 134 59 135 52 136 53 137
REMARK SMILES IDX 57 138 60 139 54 140 55 141 58 142 56 143
REMARK H PARENT 16 2 16 3 15 5 15 6 14 10 9 16 88 18 10 19 87 20 3 27 1 31
REMARK H PARENT 1 32 1 33 91 38 99 40 92 42 98 43 95 48 95 49 95 50 17 52
REMARK H PARENT 17 53 18 55 18 56 19 58 19 59 20 61 20 62 21 65 25 71 86 73
REMARK H PARENT 26 75 85 76 84 86 78 88 80 90 83 92 77 93 45 102 48 104 81 107
REMARK H PARENT 46 108 82 110
REMARK Flexibility Score: inf
ROOT
ATOM      1  C   UNL     1      -7.141  -6.777   2.453  1.00  0.00    -0.036 C 
ATOM      2  H   UNL     1      -7.147  -5.714   2.330  1.00  0.00     0.028 H 
ATOM      3  H   UNL     1      -6.743  -7.130   3.382  1.00  0.00     0.028 H 
ENDROOT
BRANCH   1   4
ATOM      4  C   UNL     1      -6.212  -7.354   1.389  1.00  0.00     0.018 C 
ATOM      5  H   UNL     1      -5.264  -6.865   1.483  1.00  0.00     0.049 H 
ATOM      6  H   UNL     1      -6.180  -8.407   1.573  1.00  0.00     0.049 H 
BRANCH   4   7
ATOM      7  N   UNL     1      -6.653  -7.208   0.018  1.00  0.00    -0.352 N 
ATOM      8  C   UNL     1      -5.934  -7.137  -1.155  1.00  0.00     0.251 C 
ATOM      9  O   UNL     1      -6.539  -7.142  -2.226  1.00  0.00    -0.269 OA
ATOM     10  H   UNL     1      -7.629  -7.151  -0.095  1.00  0.00     0.163 HD
BRANCH   8  11
ATOM     11  C   UNL     1      -4.458  -6.938  -1.161  1.00  0.00     0.040 A 
ATOM     12  C   UNL     1      -1.849  -5.992  -0.939  1.00  0.00     0.127 A 
ATOM     13  C   UNL     1      -2.600  -5.654  -2.058  1.00  0.00    -0.019 A 
ATOM     14  C   UNL     1      -2.307  -6.978  -0.067  1.00  0.00    -0.019 A 
ATOM     15  C   UNL     1      -3.923  -6.096  -2.148  1.00  0.00    -0.046 A 
ATOM     16  H   UNL     1      -2.187  -5.085  -2.813  1.00  0.00     0.066 H 
ATOM     17  C   UNL     1      -3.602  -7.479  -0.201  1.00  0.00    -0.046 A 
ATOM     18  H   UNL     1      -1.689  -7.336   0.678  1.00  0.00     0.066 H 
ATOM     19  H   UNL     1      -4.509  -5.802  -2.945  1.00  0.00     0.063 H 
ATOM     20  H   UNL     1      -3.925  -8.247   0.407  1.00  0.00     0.063 H 
BRANCH  12  21
ATOM     21  O   UNL     1      -0.621  -5.462  -0.681  1.00  0.00    -0.449 OA
BRANCH  21  22
ATOM     22  C   UNL     1      -0.388  -4.109  -0.463  1.00  0.00     0.217 A 
ATOM     23  C   UNL     1       0.568  -1.458  -0.128  1.00  0.00     0.105 A 
ATOM     24  C   UNL     1       1.496  -2.417  -0.135  1.00  0.00     0.028 A 
ATOM     25  O   UNL     1      -0.781  -1.733  -0.200  1.00  0.00    -0.457 OA
ATOM     26  C   UNL     1       1.069  -3.816  -0.261  1.00  0.00     0.228 A 
ATOM     27  H   UNL     1       2.497  -2.179  -0.054  1.00  0.00     0.070 H 
ATOM     28  C   UNL     1      -1.228  -3.042  -0.367  1.00  0.00     0.180 A 
ATOM     29  O   UNL     1       1.913  -4.706  -0.197  1.00  0.00    -0.285 OA
BRANCH  23  30
ATOM     30  C   UNL     1       0.900  -0.003  -0.039  1.00  0.00    -0.006 C 
ATOM     31  H   UNL     1       1.962   0.118   0.014  1.00  0.00     0.031 H 
ATOM     32  H   UNL     1       0.450   0.412   0.839  1.00  0.00     0.031 H 
ATOM     33  H   UNL     1       0.525   0.502  -0.904  1.00  0.00     0.031 H 
ENDBRANCH  23  30
BRANCH  28  34
ATOM     34  C   UNL     1      -2.701  -3.046  -0.447  1.00  0.00     0.021 A 
ATOM     35  C   UNL     1      -3.336  -2.500  -1.577  1.00  0.00    -0.050 A 
ATOM     36  C   UNL     1      -3.488  -3.570   0.590  1.00  0.00    -0.050 A 
ATOM     37  C   UNL     1      -4.726  -2.558  -1.712  1.00  0.00    -0.043 A 
ATOM     38  H   UNL     1      -2.769  -2.052  -2.314  1.00  0.00     0.063 H 
ATOM     39  C   UNL     1      -4.881  -3.619   0.465  1.00  0.00    -0.043 A 
ATOM     40  H   UNL     1      -3.037  -3.920   1.449  1.00  0.00     0.063 H 
ATOM     41  C   UNL     1      -5.491  -3.127  -0.691  1.00  0.00     0.067 A 
ATOM     42  H   UNL     1      -5.182  -2.183  -2.558  1.00  0.00     0.064 H 
ATOM     43  H   UNL     1      -5.455  -4.018   1.225  1.00  0.00     0.064 H 
BRANCH  41  44
ATOM     44  S   UNL     1      -7.245  -3.317  -0.930  1.00  0.00     0.175 S 
ATOM     45  O   UNL     1      -7.455  -3.653  -2.323  1.00  0.00    -0.224 OA
ATOM     46  O   UNL     1      -7.752  -4.162   0.137  1.00  0.00    -0.224 OA
BRANCH  44  47
ATOM     47  C   UNL     1      -7.887  -1.689  -0.664  1.00  0.00     0.043 C 
ATOM     48  H   UNL     1      -7.533  -1.036  -1.434  1.00  0.00     0.040 H 
ATOM     49  H   UNL     1      -7.559  -1.328   0.288  1.00  0.00     0.040 H 
ATOM     50  H   UNL     1      -8.956  -1.720  -0.685  1.00  0.00     0.040 H 
ENDBRANCH  44  47
ENDBRANCH  41  44
ENDBRANCH  28  34
ENDBRANCH  21  22
ENDBRANCH  12  21
ENDBRANCH   8  11
ENDBRANCH   4   7
ENDBRANCH   1   4
BRANCH   1  51
ATOM     51  C   UNL     1      -8.596  -7.245   2.452  1.00  0.00    -0.052 C 
ATOM     52  H   UNL     1      -9.071  -6.820   1.593  1.00  0.00     0.027 H 
ATOM     53  H   UNL     1      -8.993  -6.923   3.392  1.00  0.00     0.027 H 
BRANCH  51  54
ATOM     54  C   UNL     1      -8.839  -8.755   2.414  1.00  0.00    -0.052 C 
ATOM     55  H   UNL     1      -8.540  -9.108   1.449  1.00  0.00     0.027 H 
ATOM     56  H   UNL     1      -9.879  -8.880   2.631  1.00  0.00     0.027 H 
BRANCH  54  57
ATOM     57  C   UNL     1      -8.104  -9.590   3.460  1.00  0.00    -0.036 C 
ATOM     58  H   UNL     1      -7.059  -9.548   3.238  1.00  0.00     0.028 H 
ATOM     59  H   UNL     1      -8.526 -10.571   3.395  1.00  0.00     0.028 H 
BRANCH  57  60
ATOM     60  C   UNL     1      -8.291  -9.157   4.908  1.00  0.00     0.018 C 
ATOM     61  H   UNL     1      -8.003  -8.130   4.994  1.00  0.00     0.049 H 
ATOM     62  H   UNL     1      -7.684  -9.802   5.509  1.00  0.00     0.049 H 
BRANCH  60  63
ATOM     63  N   UNL     1      -9.659  -9.293   5.383  1.00  0.00    -0.352 N 
ATOM     64  C   UNL     1     -10.147  -9.962   6.482  1.00  0.00     0.251 C 
ATOM     65  H   UNL     1     -10.339  -8.837   4.836  1.00  0.00     0.163 HD
ATOM     66  O   UNL     1     -11.357 -10.060   6.659  1.00  0.00    -0.269 OA
BRANCH  64  67
ATOM     67  C   UNL     1      -9.213 -10.602   7.437  1.00  0.00     0.039 A 
ATOM     68  C   UNL     1      -8.056  -9.948   7.858  1.00  0.00    -0.049 A 
ATOM     69  C   UNL     1      -9.493 -11.891   7.904  1.00  0.00    -0.049 A 
ATOM     70  C   UNL     1      -7.092 -10.645   8.578  1.00  0.00    -0.053 A 
ATOM     71  H   UNL     1      -7.915  -8.950   7.636  1.00  0.00     0.063 H 
ATOM     72  C   UNL     1      -8.568 -12.554   8.718  1.00  0.00    -0.053 A 
ATOM     73  H   UNL     1     -10.380 -12.352   7.648  1.00  0.00     0.063 H 
ATOM     74  C   UNL     1      -7.334 -11.958   9.017  1.00  0.00    -0.014 A 
ATOM     75  H   UNL     1      -6.189 -10.193   8.793  1.00  0.00     0.063 H 
ATOM     76  H   UNL     1      -8.795 -13.486   9.100  1.00  0.00     0.063 H 
BRANCH  74  77
ATOM     77  C   UNL     1      -6.281 -12.673   9.788  1.00  0.00     0.031 A 
ATOM     78  C   UNL     1      -5.634 -13.921   9.247  1.00  0.00     0.074 A 
ATOM     79  C   UNL     1      -5.860 -12.155  10.958  1.00  0.00     0.049 A 
ATOM     80  N   UNL     1      -4.665 -14.637   9.762  1.00  0.00    -0.248 NA
ATOM     81  C   UNL     1      -6.141 -14.438   7.967  1.00  0.00    -0.034 C 
ATOM     82  C   UNL     1      -6.406 -10.950  11.585  1.00  0.00    -0.036 A 
ATOM     83  N   UNL     1      -4.862 -12.550  11.813  1.00  0.00    -0.354 N 
ATOM     84  C   UNL     1      -4.456 -15.689   8.879  1.00  0.00     0.074 A 
ATOM     85  C   UNL     1      -5.425 -15.544   7.815  1.00  0.00    -0.034 C 
ATOM     86  H   UNL     1      -6.865 -14.042   7.347  1.00  0.00     0.065 H 
ATOM     87  C   UNL     1      -5.697 -10.667  12.686  1.00  0.00    -0.036 A 
ATOM     88  H   UNL     1      -7.210 -10.405  11.234  1.00  0.00     0.065 H 
ATOM     89  C   UNL     1      -4.693 -11.707  12.884  1.00  0.00     0.049 A 
ATOM     90  H   UNL     1      -4.320 -13.360  11.672  1.00  0.00     0.167 HD
ATOM     91  C   UNL     1      -3.528 -16.674   8.941  1.00  0.00     0.037 A 
ATOM     92  H   UNL     1      -5.545 -16.214   7.039  1.00  0.00     0.065 H 
ATOM     93  H   UNL     1      -5.839  -9.847  13.296  1.00  0.00     0.065 H 
ATOM     94  C   UNL     1      -3.833 -11.765  13.919  1.00  0.00     0.037 A 
ATOM     95  C   UNL     1      -2.553 -16.806   9.994  1.00  0.00     0.049 A 
ATOM     96  C   UNL     1      -2.849 -12.898  13.992  1.00  0.00     0.074 A 
ATOM     97  C   UNL     1      -1.554 -17.754  10.129  1.00  0.00    -0.036 A 
ATOM     98  N   UNL     1      -2.458 -15.967  11.095  1.00  0.00    -0.354 N 
ATOM     99  N   UNL     1      -2.644 -13.868  13.136  1.00  0.00    -0.248 NA
ATOM    100  C   UNL     1      -1.983 -12.949  15.177  1.00  0.00    -0.034 C 
ATOM    101  C   UNL     1      -0.893 -17.525  11.338  1.00  0.00    -0.036 A 
ATOM    102  H   UNL     1      -1.335 -18.502   9.452  1.00  0.00     0.065 H 
ATOM    103  C   UNL     1      -1.436 -16.396  11.929  1.00  0.00     0.049 A 
ATOM    104  H   UNL     1      -3.030 -15.183  11.260  1.00  0.00     0.167 HD
ATOM    105  C   UNL     1      -1.618 -14.636  13.667  1.00  0.00     0.074 A 
ATOM    106  C   UNL     1      -1.228 -14.007  14.913  1.00  0.00    -0.034 C 
ATOM    107  H   UNL     1      -1.965 -12.325  15.999  1.00  0.00     0.065 H 
ATOM    108  H   UNL     1      -0.129 -18.101  11.726  1.00  0.00     0.065 H 
ATOM    109  C   UNL     1      -1.054 -15.761  13.166  1.00  0.00     0.037 A 
ATOM    110  H   UNL     1      -0.461 -14.341  15.518  1.00  0.00     0.065 H 
BRANCH  91 111
ATOM    111  C   UNL     1      -3.516 -17.701   7.843  1.00  0.00     0.064 A 
ATOM    112  C   UNL     1      -3.104 -17.382   6.540  1.00  0.00     0.173 A 
ATOM    113  C   UNL     1      -3.857 -19.036   8.112  1.00  0.00     0.173 A 
ATOM    114  F   UNL     1      -2.774 -16.120   6.226  1.00  0.00    -0.203 F 
ATOM    115  C   UNL     1      -3.055 -18.355   5.544  1.00  0.00     0.198 A 
ATOM    116  C   UNL     1      -3.776 -20.012   7.122  1.00  0.00     0.198 A 
ATOM    117  F   UNL     1      -4.248 -19.399   9.342  1.00  0.00    -0.203 F 
ATOM    118  F   UNL     1      -2.697 -18.017   4.297  1.00  0.00    -0.200 F 
ATOM    119  C   UNL     1      -3.382 -19.670   5.838  1.00  0.00     0.200 A 
ATOM    120  F   UNL     1      -4.075 -21.286   7.413  1.00  0.00    -0.200 F 
ATOM    121  F   UNL     1      -3.319 -20.608   4.882  1.00  0.00    -0.200 F 
ENDBRANCH  91 111
BRANCH  94 122
ATOM    122  C   UNL     1      -3.867 -10.699  14.953  1.00  0.00     0.064 A 
ATOM    123  C   UNL     1      -2.820  -9.775  15.068  1.00  0.00     0.173 A 
ATOM    124  C   UNL     1      -4.969 -10.546  15.808  1.00  0.00     0.173 A 
ATOM    125  F   UNL     1      -1.737  -9.890  14.286  1.00  0.00    -0.203 F 
ATOM    126  C   UNL     1      -2.876  -8.737  15.996  1.00  0.00     0.198 A 
ATOM    127  C   UNL     1      -5.038  -9.491  16.714  1.00  0.00     0.198 A 
ATOM    128  F   UNL     1      -6.000 -11.402  15.734  1.00  0.00    -0.203 F 
ATOM    129  F   UNL     1      -1.851  -7.880  16.101  1.00  0.00    -0.200 F 
ATOM    130  C   UNL     1      -3.989  -8.589  16.809  1.00  0.00     0.200 A 
ATOM    131  F   UNL     1      -6.125  -9.339  17.482  1.00  0.00    -0.200 F 
ATOM    132  F   UNL     1      -4.053  -7.576  17.684  1.00  0.00    -0.200 F 
ENDBRANCH  94 122
BRANCH 109 133
ATOM    133  C   UNL     1       0.062 -16.392  13.948  1.00  0.00     0.064 A 
ATOM    134  C   UNL     1      -0.181 -17.081  15.145  1.00  0.00     0.173 A 
ATOM    135  C   UNL     1       1.373 -16.384  13.448  1.00  0.00     0.173 A 
ATOM    136  F   UNL     1      -1.414 -17.105  15.672  1.00  0.00    -0.203 F 
ATOM    137  C   UNL     1       0.851 -17.732  15.817  1.00  0.00     0.198 A 
ATOM    138  C   UNL     1       2.395 -17.062  14.106  1.00  0.00     0.198 A 
ATOM    139  F   UNL     1       1.657 -15.745  12.303  1.00  0.00    -0.203 F 
ATOM    140  F   UNL     1       0.602 -18.359  16.975  1.00  0.00    -0.200 F 
ATOM    141  C   UNL     1       2.134 -17.733  15.291  1.00  0.00     0.200 A 
ATOM    142  F   UNL     1       3.631 -17.077  13.587  1.00  0.00    -0.200 F 
ATOM    143  F   UNL     1       3.120 -18.381  15.927  1.00  0.00    -0.200 F 
ENDBRANCH 109 133
ENDBRANCH  74  77
ENDBRANCH  64  67
ENDBRANCH  60  63
ENDBRANCH  57  60
ENDBRANCH  54  57
ENDBRANCH  51  54
ENDBRANCH   1  51
TORSDOF 19
