REMARK SMILES O=C(NCCCCCCNC(=O)c1ccccc1Nc1nc(Cl)nc(Nc2ccc(N3CCOCC3=O)cc2)n1)c1ccc(-c2c3nc(c(-c4c(F)c(F)c(F)c(F)c4F)c4ccc([nH]4)c(-c4c(F)c(F)c(F)c(F)c4F)c4nc(c(-c5c(F)c(F)c(F)c(F)c5F)c5ccc2[nH]5)C=C4)C=C3)cc1
REMARK SMILES IDX 8 1 7 4 6 7 5 10 4 13 3 16 1 17 2 18 41 20 42 21 103 22
REMARK SMILES IDX 43 23 102 25 44 27 45 30 46 31 96 32 47 33 101 34 95 35
REMARK SMILES IDX 97 36 48 37 100 38 94 40 93 42 49 44 81 47 61 48 80 49 62 50
REMARK SMILES IDX 65 51 79 52 98 53 63 54 64 56 78 58 99 59 66 62 50 64 51 65
REMARK SMILES IDX 59 66 52 67 53 68 57 69 60 70 54 71 55 72 58 73 56 74 82 75
REMARK SMILES IDX 83 76 91 77 84 78 85 79 89 80 92 81 86 82 87 83 90 84 88 85
REMARK SMILES IDX 67 86 68 87 76 88 69 89 70 90 74 91 77 92 71 93 72 94 75 95
REMARK SMILES IDX 73 96 9 97 10 100 11 101 12 103 13 104 14 105 18 106 15 107
REMARK SMILES IDX 17 109 16 110 19 114 20 116 21 117 40 118 22 119 25 120
REMARK SMILES IDX 23 121 24 122 26 123 27 125 28 126 39 127 29 128 38 130
REMARK SMILES IDX 30 132 31 135 32 136 36 137 33 138 35 141 37 142 34 143
REMARK H PARENT 8 2 8 3 7 5 7 6 6 8 6 9 5 11 5 12 4 14 4 15 3 19 42 24 103 26
REMARK H PARENT 43 28 102 29 101 39 95 41 97 43 100 45 94 46 62 55 65 57 98 60
REMARK H PARENT 63 61 99 63 9 98 9 99 10 102 14 108 15 111 17 112 16 113
REMARK H PARENT 19 115 26 124 28 129 39 131 29 133 38 134 32 139 32 140 33 144
REMARK H PARENT 33 145 35 146 35 147
REMARK Flexibility Score: inf
ROOT
ATOM      1  C   UNL     1       6.274  -3.446   2.795  1.00  0.00    -0.036 C 
ATOM      2  H   UNL     1       6.598  -2.811   1.997  1.00  0.00     0.028 H 
ATOM      3  H   UNL     1       6.440  -4.486   2.609  1.00  0.00     0.028 H 
ENDROOT
BRANCH   1   4
ATOM      4  C   UNL     1       4.758  -3.278   2.948  1.00  0.00    -0.052 C 
ATOM      5  H   UNL     1       4.307  -3.489   2.001  1.00  0.00     0.027 H 
ATOM      6  H   UNL     1       4.468  -3.951   3.727  1.00  0.00     0.027 H 
BRANCH   4   7
ATOM      7  C   UNL     1       4.284  -1.892   3.396  1.00  0.00    -0.052 C 
ATOM      8  H   UNL     1       3.214  -1.889   3.383  1.00  0.00     0.027 H 
ATOM      9  H   UNL     1       4.704  -1.738   4.368  1.00  0.00     0.027 H 
BRANCH   7  10
ATOM     10  C   UNL     1       4.769  -0.721   2.539  1.00  0.00    -0.036 C 
ATOM     11  H   UNL     1       4.293   0.169   2.894  1.00  0.00     0.028 H 
ATOM     12  H   UNL     1       5.834  -0.702   2.635  1.00  0.00     0.028 H 
BRANCH  10  13
ATOM     13  C   UNL     1       4.478  -0.850   1.048  1.00  0.00     0.018 C 
ATOM     14  H   UNL     1       4.885   0.002   0.544  1.00  0.00     0.049 H 
ATOM     15  H   UNL     1       4.925  -1.760   0.706  1.00  0.00     0.049 H 
BRANCH  13  16
ATOM     16  N   UNL     1       3.054  -0.922   0.765  1.00  0.00    -0.352 N 
ATOM     17  O   UNL     1       1.058  -0.223  -0.019  1.00  0.00    -0.269 OA
ATOM     18  C   UNL     1       2.284  -0.118  -0.033  1.00  0.00     0.251 C 
ATOM     19  H   UNL     1       2.573  -1.656   1.212  1.00  0.00     0.163 HD
BRANCH  18  20
ATOM     20  C   UNL     1       2.921   0.894  -0.898  1.00  0.00     0.039 A 
ATOM     21  C   UNL     1       4.032   0.571  -1.686  1.00  0.00    -0.049 A 
ATOM     22  C   UNL     1       2.379   2.180  -0.940  1.00  0.00    -0.049 A 
ATOM     23  C   UNL     1       4.668   1.562  -2.427  1.00  0.00    -0.053 A 
ATOM     24  H   UNL     1       4.379  -0.400  -1.716  1.00  0.00     0.063 H 
ATOM     25  C   UNL     1       2.975   3.155  -1.740  1.00  0.00    -0.053 A 
ATOM     26  H   UNL     1       1.541   2.408  -0.383  1.00  0.00     0.063 H 
ATOM     27  C   UNL     1       4.137   2.860  -2.472  1.00  0.00    -0.014 A 
ATOM     28  H   UNL     1       5.532   1.342  -2.946  1.00  0.00     0.063 H 
ATOM     29  H   UNL     1       2.560   4.099  -1.794  1.00  0.00     0.063 H 
BRANCH  27  30
ATOM     30  C   UNL     1       4.761   3.900  -3.324  1.00  0.00     0.031 A 
ATOM     31  C   UNL     1       5.372   5.125  -2.710  1.00  0.00     0.074 A 
ATOM     32  C   UNL     1       4.727   3.758  -4.662  1.00  0.00     0.049 A 
ATOM     33  N   UNL     1       5.855   6.192  -3.295  1.00  0.00    -0.248 NA
ATOM     34  C   UNL     1       5.437   5.161  -1.242  1.00  0.00    -0.034 C 
ATOM     35  C   UNL     1       4.159   2.610  -5.370  1.00  0.00    -0.036 A 
ATOM     36  N   UNL     1       5.157   4.590  -5.663  1.00  0.00    -0.354 N 
ATOM     37  C   UNL     1       6.257   7.037  -2.269  1.00  0.00     0.074 A 
ATOM     38  C   UNL     1       5.938   6.368  -1.024  1.00  0.00    -0.034 C 
ATOM     39  H   UNL     1       5.164   4.436  -0.560  1.00  0.00     0.065 H 
ATOM     40  C   UNL     1       4.273   2.810  -6.690  1.00  0.00    -0.036 A 
ATOM     41  H   UNL     1       3.738   1.780  -4.924  1.00  0.00     0.065 H 
ATOM     42  C   UNL     1       4.862   4.125  -6.921  1.00  0.00     0.049 A 
ATOM     43  H   UNL     1       5.630   5.437  -5.497  1.00  0.00     0.167 HD
ATOM     44  C   UNL     1       6.840   8.257  -2.362  1.00  0.00     0.037 A 
ATOM     45  H   UNL     1       6.082   6.779  -0.089  1.00  0.00     0.065 H 
ATOM     46  H   UNL     1       3.991   2.142  -7.425  1.00  0.00     0.065 H 
ATOM     47  C   UNL     1       5.008   4.709  -8.125  1.00  0.00     0.037 A 
ATOM     48  C   UNL     1       7.151   8.909  -3.609  1.00  0.00     0.049 A 
ATOM     49  C   UNL     1       5.613   6.081  -8.205  1.00  0.00     0.074 A 
ATOM     50  C   UNL     1       7.779  10.124  -3.815  1.00  0.00    -0.036 A 
ATOM     51  N   UNL     1       6.840   8.403  -4.865  1.00  0.00    -0.354 N 
ATOM     52  N   UNL     1       6.026   6.857  -7.234  1.00  0.00    -0.248 NA
ATOM     53  C   UNL     1       5.774   6.658  -9.546  1.00  0.00    -0.034 C 
ATOM     54  C   UNL     1       7.790  10.384  -5.189  1.00  0.00    -0.036 A 
ATOM     55  H   UNL     1       8.172  10.734  -3.081  1.00  0.00     0.065 H 
ATOM     56  C   UNL     1       7.234   9.298  -5.847  1.00  0.00     0.049 A 
ATOM     57  H   UNL     1       6.404   7.537  -5.033  1.00  0.00     0.167 HD
ATOM     58  C   UNL     1       6.524   8.000  -7.843  1.00  0.00     0.074 A 
ATOM     59  C   UNL     1       6.360   7.816  -9.270  1.00  0.00    -0.034 C 
ATOM     60  H   UNL     1       5.502   6.266 -10.461  1.00  0.00     0.065 H 
ATOM     61  H   UNL     1       8.150  11.241  -5.638  1.00  0.00     0.065 H 
ATOM     62  C   UNL     1       7.075   9.097  -7.267  1.00  0.00     0.037 A 
ATOM     63  H   UNL     1       6.661   8.499  -9.983  1.00  0.00     0.065 H 
BRANCH  44  64
ATOM     64  C   UNL     1       7.140   8.982  -1.079  1.00  0.00     0.064 A 
ATOM     65  C   UNL     1       8.117   8.530  -0.179  1.00  0.00     0.173 A 
ATOM     66  C   UNL     1       6.443  10.155  -0.750  1.00  0.00     0.173 A 
ATOM     67  F   UNL     1       8.810   7.411  -0.440  1.00  0.00    -0.203 F 
ATOM     68  C   UNL     1       8.353   9.198   1.021  1.00  0.00     0.198 A 
ATOM     69  C   UNL     1       6.706  10.841   0.433  1.00  0.00     0.198 A 
ATOM     70  F   UNL     1       5.507  10.642  -1.578  1.00  0.00    -0.203 F 
ATOM     71  F   UNL     1       9.246   8.710   1.893  1.00  0.00    -0.200 F 
ATOM     72  C   UNL     1       7.651  10.354   1.324  1.00  0.00     0.200 A 
ATOM     73  F   UNL     1       6.039  11.969   0.715  1.00  0.00    -0.200 F 
ATOM     74  F   UNL     1       7.879  10.997   2.478  1.00  0.00    -0.200 F 
ENDBRANCH  44  64
BRANCH  47  75
ATOM     75  C   UNL     1       4.557   3.982  -9.338  1.00  0.00     0.064 A 
ATOM     76  C   UNL     1       5.480   3.453 -10.248  1.00  0.00     0.173 A 
ATOM     77  C   UNL     1       3.193   3.750  -9.579  1.00  0.00     0.173 A 
ATOM     78  F   UNL     1       6.793   3.661 -10.067  1.00  0.00    -0.203 F 
ATOM     79  C   UNL     1       5.057   2.720 -11.355  1.00  0.00     0.198 A 
ATOM     80  C   UNL     1       2.774   2.993 -10.670  1.00  0.00     0.198 A 
ATOM     81  F   UNL     1       2.271   4.229  -8.731  1.00  0.00    -0.203 F 
ATOM     82  F   UNL     1       5.960   2.244 -12.224  1.00  0.00    -0.200 F 
ATOM     83  C   UNL     1       3.706   2.482 -11.559  1.00  0.00     0.200 A 
ATOM     84  F   UNL     1       1.469   2.748 -10.851  1.00  0.00    -0.200 F 
ATOM     85  F   UNL     1       3.303   1.759 -12.612  1.00  0.00    -0.200 F 
ENDBRANCH  47  75
BRANCH  62  86
ATOM     86  C   UNL     1       7.598  10.171  -8.177  1.00  0.00     0.064 A 
ATOM     87  C   UNL     1       6.742  11.030  -8.880  1.00  0.00     0.173 A 
ATOM     88  C   UNL     1       8.981  10.391  -8.281  1.00  0.00     0.173 A 
ATOM     89  F   UNL     1       5.413  10.851  -8.828  1.00  0.00    -0.203 F 
ATOM     90  C   UNL     1       7.251  12.065  -9.660  1.00  0.00     0.198 A 
ATOM     91  C   UNL     1       9.485  11.445  -9.037  1.00  0.00     0.198 A 
ATOM     92  F   UNL     1       9.842   9.598  -7.625  1.00  0.00    -0.203 F 
ATOM     93  F   UNL     1       6.417  12.856 -10.349  1.00  0.00    -0.200 F 
ATOM     94  C   UNL     1       8.620  12.279  -9.727  1.00  0.00     0.200 A 
ATOM     95  F   UNL     1      10.807  11.658  -9.088  1.00  0.00    -0.200 F 
ATOM     96  F   UNL     1       9.107  13.290 -10.461  1.00  0.00    -0.200 F 
ENDBRANCH  62  86
ENDBRANCH  27  30
ENDBRANCH  18  20
ENDBRANCH  13  16
ENDBRANCH  10  13
ENDBRANCH   7  10
ENDBRANCH   4   7
ENDBRANCH   1   4
BRANCH   1  97
ATOM     97  C   UNL     1       7.096  -3.101   4.035  1.00  0.00     0.018 C 
ATOM     98  H   UNL     1       6.909  -2.081   4.299  1.00  0.00     0.049 H 
ATOM     99  H   UNL     1       8.127  -3.261   3.798  1.00  0.00     0.049 H 
BRANCH  97 100
ATOM    100  N   UNL     1       6.764  -3.946   5.170  1.00  0.00    -0.352 N 
ATOM    101  C   UNL     1       7.606  -4.599   6.034  1.00  0.00     0.253 C 
ATOM    102  H   UNL     1       5.802  -4.066   5.342  1.00  0.00     0.163 HD
ATOM    103  O   UNL     1       7.146  -5.341   6.897  1.00  0.00    -0.269 OA
BRANCH 101 104
ATOM    104  C   UNL     1       9.071  -4.435   5.922  1.00  0.00     0.063 A 
ATOM    105  C   UNL     1       9.821  -5.606   5.739  1.00  0.00    -0.047 A 
ATOM    106  C   UNL     1       9.701  -3.180   6.023  1.00  0.00     0.054 A 
ATOM    107  C   UNL     1      11.206  -5.536   5.599  1.00  0.00    -0.061 A 
ATOM    108  H   UNL     1       9.347  -6.522   5.708  1.00  0.00     0.063 H 
ATOM    109  C   UNL     1      11.092  -3.134   5.829  1.00  0.00    -0.038 A 
ATOM    110  C   UNL     1      11.838  -4.298   5.630  1.00  0.00    -0.060 A 
ATOM    111  H   UNL     1      11.759  -6.398   5.474  1.00  0.00     0.062 H 
ATOM    112  H   UNL     1      11.572  -2.221   5.834  1.00  0.00     0.064 H 
ATOM    113  H   UNL     1      12.861  -4.239   5.504  1.00  0.00     0.062 H 
BRANCH 106 114
ATOM    114  N   UNL     1       8.975  -2.010   6.301  1.00  0.00    -0.323 N 
ATOM    115  H   UNL     1       8.118  -2.150   6.764  1.00  0.00     0.170 HD
BRANCH 114 116
ATOM    116  C   UNL     1       9.287  -0.686   6.022  1.00  0.00     0.233 A 
ATOM    117  N   UNL     1       9.926  -0.384   4.904  1.00  0.00    -0.182 NA
ATOM    118  N   UNL     1       8.908   0.208   6.927  1.00  0.00    -0.176 NA
ATOM    119  C   UNL     1      10.158   0.907   4.757  1.00  0.00     0.228 A 
ATOM    120  C   UNL     1       9.268   1.469   6.705  1.00  0.00     0.233 A 
ATOM    121  Cl  UNL     1      10.973   1.366   3.327  1.00  0.00    -0.041 Cl
ATOM    122  N   UNL     1       9.868   1.879   5.600  1.00  0.00    -0.182 NA
BRANCH 120 123
ATOM    123  N   UNL     1       9.095   2.340   7.777  1.00  0.00    -0.324 N 
ATOM    124  H   UNL     1       8.645   1.961   8.567  1.00  0.00     0.170 HD
BRANCH 123 125
ATOM    125  C   UNL     1       9.475   3.679   7.881  1.00  0.00     0.041 A 
ATOM    126  C   UNL     1      10.301   4.086   8.934  1.00  0.00    -0.036 A 
ATOM    127  C   UNL     1       9.141   4.611   6.897  1.00  0.00    -0.036 A 
ATOM    128  C   UNL     1      10.790   5.397   8.997  1.00  0.00    -0.036 A 
ATOM    129  H   UNL     1      10.553   3.413   9.674  1.00  0.00     0.065 H 
ATOM    130  C   UNL     1       9.577   5.934   6.988  1.00  0.00    -0.036 A 
ATOM    131  H   UNL     1       8.564   4.319   6.093  1.00  0.00     0.065 H 
ATOM    132  C   UNL     1      10.417   6.336   8.031  1.00  0.00     0.044 A 
ATOM    133  H   UNL     1      11.429   5.670   9.760  1.00  0.00     0.065 H 
ATOM    134  H   UNL     1       9.277   6.621   6.279  1.00  0.00     0.065 H 
BRANCH 132 135
ATOM    135  N   UNL     1      10.918   7.669   8.078  1.00  0.00    -0.308 N 
ATOM    136  C   UNL     1      12.376   7.827   8.124  1.00  0.00     0.049 C 
ATOM    137  C   UNL     1      10.090   8.751   7.756  1.00  0.00     0.253 C 
ATOM    138  C   UNL     1      12.820   9.257   8.407  1.00  0.00     0.065 C 
ATOM    139  H   UNL     1      12.780   7.527   7.180  1.00  0.00     0.052 H 
ATOM    140  H   UNL     1      12.735   7.219   8.928  1.00  0.00     0.052 H 
ATOM    141  C   UNL     1      10.784  10.120   7.686  1.00  0.00     0.126 C 
ATOM    142  O   UNL     1       8.865   8.680   7.630  1.00  0.00    -0.272 OA
ATOM    143  O   UNL     1      12.188  10.141   7.486  1.00  0.00    -0.370 OA
ATOM    144  H   UNL     1      13.882   9.328   8.299  1.00  0.00     0.059 H 
ATOM    145  H   UNL     1      12.543   9.525   9.405  1.00  0.00     0.059 H 
ATOM    146  H   UNL     1      10.338  10.662   6.877  1.00  0.00     0.067 H 
ATOM    147  H   UNL     1      10.644  10.543   8.658  1.00  0.00     0.067 H 
ENDBRANCH 132 135
ENDBRANCH 123 125
ENDBRANCH 120 123
ENDBRANCH 114 116
ENDBRANCH 106 114
ENDBRANCH 101 104
ENDBRANCH  97 100
ENDBRANCH   1  97
TORSDOF 18
