REMARK SMILES Cc1ccc(S(=O)(=O)n2cc(C(=O)C(=O)NCC(=O)N[C@H](Cc3c[nH]c4ccccc34)C(=O)NCCCCCCNC(=O)c3ccc(-c4c5nc(c(-c6c(F)c(F)c(F)c(F)c6F)c6ccc([nH]6)c(-c6c(F)c(F)c(F)c(F)c6F)c6nc(c(-c7c(F)c(F)c(F)c(F)c7F)c7ccc4[nH]7)C=C6)C=C5)cc3)c3ccccc32)cc1
REMARK SMILES IDX 32 1 33 2 34 3 21 5 20 7 18 8 19 9 17 11 16 14 14 15 15 16
REMARK SMILES IDX 12 18 13 19 11 20 9 21 10 22 112 23 107 25 111 26 108 27
REMARK SMILES IDX 110 28 109 30 6 34 7 35 8 36 5 37 2 38 3 39 114 40 4 41
REMARK SMILES IDX 113 43 1 47 22 51 23 54 24 55 31 56 25 57 26 59 30 60 27 62
REMARK SMILES IDX 29 63 28 65 35 69 36 72 37 75 38 78 39 81 40 84 41 87 42 88
REMARK SMILES IDX 43 90 44 91 45 92 106 93 46 94 105 96 47 98 48 101 49 102
REMARK SMILES IDX 99 103 50 104 104 105 98 106 100 107 51 108 103 109 97 111
REMARK SMILES IDX 96 113 52 115 84 118 64 119 83 120 65 121 68 122 82 123
REMARK SMILES IDX 101 124 66 125 67 127 81 129 102 130 69 133 53 135 54 136
REMARK SMILES IDX 62 137 55 138 56 139 60 140 63 141 57 142 58 143 61 144
REMARK SMILES IDX 59 145 85 146 86 147 94 148 87 149 88 150 92 151 95 152
REMARK SMILES IDX 89 153 90 154 93 155 91 156 70 157 71 158 79 159 72 160
REMARK SMILES IDX 73 161 77 162 80 163 74 164 75 165 78 166 76 167
REMARK H PARENT 34 4 21 6 20 10 17 12 17 13 16 17 10 24 111 29 108 31 110 32
REMARK H PARENT 109 33 3 42 114 44 4 45 113 46 1 48 1 49 1 50 22 52 22 53
REMARK H PARENT 24 58 25 61 30 64 27 66 29 67 28 68 35 70 35 71 36 73 36 74
REMARK H PARENT 37 76 37 77 38 79 38 80 39 82 39 83 40 85 40 86 41 89 45 95
REMARK H PARENT 106 97 46 99 105 100 104 110 98 112 100 114 103 116 97 117
REMARK H PARENT 65 126 68 128 101 131 66 132 102 134
REMARK Flexibility Score: inf
ROOT
ATOM      1  C   UNL     1      -9.223   0.394   3.787  1.00  0.00     0.242 C 
ATOM      2  O   UNL     1      -8.667  -0.688   3.563  1.00  0.00    -0.273 OA
ATOM      3  N   UNL     1      -9.298   0.755   5.093  1.00  0.00    -0.354 N 
ATOM      4  H   UNL     1      -8.726   0.215   5.685  1.00  0.00     0.163 HD
ENDROOT
BRANCH   1   5
ATOM      5  C   UNL     1      -9.796   1.216   2.622  1.00  0.00     0.112 C 
ATOM      6  H   UNL     1      -9.405   0.778   1.727  1.00  0.00     0.064 H 
BRANCH   5   7
ATOM      7  N   UNL     1      -9.351   2.607   2.809  1.00  0.00    -0.342 N 
ATOM      8  C   UNL     1      -8.099   3.136   2.692  1.00  0.00     0.240 C 
ATOM      9  O   UNL     1      -7.961   4.310   3.049  1.00  0.00    -0.273 OA
ATOM     10  H   UNL     1     -10.059   3.247   3.053  1.00  0.00     0.164 HD
BRANCH   8  11
ATOM     11  C   UNL     1      -6.958   2.390   1.966  1.00  0.00     0.097 C 
ATOM     12  H   UNL     1      -7.175   2.420   0.919  1.00  0.00     0.059 H 
ATOM     13  H   UNL     1      -6.069   2.900   2.275  1.00  0.00     0.059 H 
BRANCH  11  14
ATOM     14  N   UNL     1      -6.712   0.993   2.316  1.00  0.00    -0.340 N 
ATOM     15  C   UNL     1      -6.397  -0.069   1.481  1.00  0.00     0.292 C 
ATOM     16  O   UNL     1      -6.127  -1.183   1.913  1.00  0.00    -0.265 OA
ATOM     17  H   UNL     1      -6.779   0.776   3.274  1.00  0.00     0.164 HD
BRANCH  15  18
ATOM     18  C   UNL     1      -6.351   0.168  -0.025  1.00  0.00     0.252 C 
ATOM     19  O   UNL     1      -5.542   1.011  -0.411  1.00  0.00    -0.283 OA
BRANCH  18  20
ATOM     20  C   UNL     1      -7.346  -0.428  -0.928  1.00  0.00     0.054 A 
ATOM     21  N   UNL     1      -8.746  -1.779  -2.087  1.00  0.00    -0.240 N 
ATOM     22  C   UNL     1      -7.767  -1.754  -1.092  1.00  0.00     0.033 A 
ATOM     23  C   UNL     1      -9.097  -0.444  -2.362  1.00  0.00     0.065 A 
ATOM     24  H   UNL     1      -7.415  -2.571  -0.568  1.00  0.00     0.084 H 
ATOM     25  C   UNL     1      -8.021   0.327  -1.932  1.00  0.00     0.012 A 
ATOM     26  C   UNL     1     -10.092   0.090  -3.205  1.00  0.00    -0.037 A 
ATOM     27  C   UNL     1      -7.834   1.605  -2.501  1.00  0.00    -0.052 A 
ATOM     28  C   UNL     1      -9.840   1.317  -3.817  1.00  0.00    -0.060 A 
ATOM     29  H   UNL     1     -10.979  -0.411  -3.364  1.00  0.00     0.065 H 
ATOM     30  C   UNL     1      -8.705   2.049  -3.499  1.00  0.00    -0.061 A 
ATOM     31  H   UNL     1      -7.059   2.207  -2.182  1.00  0.00     0.063 H 
ATOM     32  H   UNL     1     -10.505   1.685  -4.514  1.00  0.00     0.062 H 
ATOM     33  H   UNL     1      -8.502   2.927  -4.003  1.00  0.00     0.062 H 
BRANCH  21  34
ATOM     34  S   UNL     1      -8.698  -2.724  -3.558  1.00  0.00     0.268 S 
ATOM     35  O   UNL     1      -7.546  -2.175  -4.256  1.00  0.00    -0.201 OA
ATOM     36  O   UNL     1     -10.048  -2.546  -4.079  1.00  0.00    -0.201 OA
BRANCH  34  37
ATOM     37  C   UNL     1      -8.520  -4.465  -3.692  1.00  0.00     0.088 A 
ATOM     38  C   UNL     1      -8.576  -7.171  -4.489  1.00  0.00    -0.051 A 
ATOM     39  C   UNL     1      -8.717  -6.176  -5.445  1.00  0.00    -0.058 A 
ATOM     40  C   UNL     1      -8.386  -6.800  -3.138  1.00  0.00    -0.058 A 
ATOM     41  C   UNL     1      -8.675  -4.853  -5.048  1.00  0.00    -0.041 A 
ATOM     42  H   UNL     1      -8.852  -6.420  -6.438  1.00  0.00     0.063 H 
ATOM     43  C   UNL     1      -8.361  -5.441  -2.725  1.00  0.00    -0.041 A 
ATOM     44  H   UNL     1      -8.261  -7.540  -2.430  1.00  0.00     0.063 H 
ATOM     45  H   UNL     1      -8.760  -4.117  -5.767  1.00  0.00     0.064 H 
ATOM     46  H   UNL     1      -8.229  -5.190  -1.732  1.00  0.00     0.064 H 
BRANCH  38  47
ATOM     47  C   UNL     1      -8.698  -8.594  -4.958  1.00  0.00    -0.040 C 
ATOM     48  H   UNL     1      -8.836  -8.609  -6.019  1.00  0.00     0.028 H 
ATOM     49  H   UNL     1      -9.539  -9.055  -4.482  1.00  0.00     0.028 H 
ATOM     50  H   UNL     1      -7.808  -9.130  -4.706  1.00  0.00     0.028 H 
ENDBRANCH  38  47
ENDBRANCH  34  37
ENDBRANCH  21  34
ENDBRANCH  18  20
ENDBRANCH  15  18
ENDBRANCH  11  14
ENDBRANCH   8  11
ENDBRANCH   5   7
BRANCH   5  51
ATOM     51  C   UNL     1     -11.314   1.115   2.339  1.00  0.00     0.004 C 
ATOM     52  H   UNL     1     -11.419   1.053   1.276  1.00  0.00     0.034 H 
ATOM     53  H   UNL     1     -11.698   1.976   2.846  1.00  0.00     0.034 H 
BRANCH  51  54
ATOM     54  C   UNL     1     -12.156   0.000   2.915  1.00  0.00    -0.020 A 
ATOM     55  C   UNL     1     -11.791  -1.084   3.688  1.00  0.00     0.005 A 
ATOM     56  C   UNL     1     -13.589  -0.122   2.755  1.00  0.00     0.003 A 
ATOM     57  N   UNL     1     -12.916  -1.681   4.186  1.00  0.00    -0.361 N 
ATOM     58  H   UNL     1     -10.822  -1.395   3.862  1.00  0.00     0.082 H 
ATOM     59  C   UNL     1     -14.030  -1.122   3.623  1.00  0.00     0.046 A 
ATOM     60  C   UNL     1     -14.559   0.539   1.971  1.00  0.00    -0.053 A 
ATOM     61  H   UNL     1     -12.923  -2.406   4.852  1.00  0.00     0.166 HD
ATOM     62  C   UNL     1     -15.377  -1.445   3.811  1.00  0.00    -0.038 A 
ATOM     63  C   UNL     1     -15.910   0.180   2.094  1.00  0.00    -0.062 A 
ATOM     64  H   UNL     1     -14.277   1.282   1.312  1.00  0.00     0.063 H 
ATOM     65  C   UNL     1     -16.313  -0.780   3.019  1.00  0.00    -0.060 A 
ATOM     66  H   UNL     1     -15.668  -2.147   4.508  1.00  0.00     0.064 H 
ATOM     67  H   UNL     1     -16.614   0.633   1.492  1.00  0.00     0.062 H 
ATOM     68  H   UNL     1     -17.316  -1.003   3.120  1.00  0.00     0.062 H 
ENDBRANCH  51  54
ENDBRANCH   5  51
ENDBRANCH   1   5
BRANCH   3  69
ATOM     69  C   UNL     1     -10.051   1.778   5.789  1.00  0.00     0.017 C 
ATOM     70  H   UNL     1     -10.235   2.590   5.116  1.00  0.00     0.049 H 
ATOM     71  H   UNL     1      -9.475   2.096   6.632  1.00  0.00     0.049 H 
BRANCH  69  72
ATOM     72  C   UNL     1     -11.391   1.254   6.305  1.00  0.00    -0.036 C 
ATOM     73  H   UNL     1     -12.029   1.087   5.463  1.00  0.00     0.028 H 
ATOM     74  H   UNL     1     -11.763   1.996   6.980  1.00  0.00     0.028 H 
BRANCH  72  75
ATOM     75  C   UNL     1     -11.311  -0.054   7.109  1.00  0.00    -0.052 C 
ATOM     76  H   UNL     1     -10.860  -0.795   6.483  1.00  0.00     0.027 H 
ATOM     77  H   UNL     1     -12.316  -0.278   7.397  1.00  0.00     0.027 H 
BRANCH  75  78
ATOM     78  C   UNL     1     -10.509   0.009   8.416  1.00  0.00    -0.052 C 
ATOM     79  H   UNL     1      -9.475   0.113   8.163  1.00  0.00     0.027 H 
ATOM     80  H   UNL     1     -10.736  -0.895   8.942  1.00  0.00     0.027 H 
BRANCH  78  81
ATOM     81  C   UNL     1     -10.880   1.149   9.363  1.00  0.00    -0.036 C 
ATOM     82  H   UNL     1     -10.728   2.075   8.848  1.00  0.00     0.028 H 
ATOM     83  H   UNL     1     -10.257   1.048  10.226  1.00  0.00     0.028 H 
BRANCH  81  84
ATOM     84  C   UNL     1     -12.321   1.107   9.855  1.00  0.00     0.018 C 
ATOM     85  H   UNL     1     -12.906   0.568   9.140  1.00  0.00     0.049 H 
ATOM     86  H   UNL     1     -12.643   2.122   9.965  1.00  0.00     0.049 H 
BRANCH  84  87
ATOM     87  N   UNL     1     -12.478   0.471  11.148  1.00  0.00    -0.352 N 
ATOM     88  C   UNL     1     -13.604   0.312  11.940  1.00  0.00     0.251 C 
ATOM     89  H   UNL     1     -11.651   0.091  11.525  1.00  0.00     0.163 HD
ATOM     90  O   UNL     1     -13.473  -0.037  13.093  1.00  0.00    -0.269 OA
BRANCH  88  91
ATOM     91  C   UNL     1     -14.966   0.388  11.337  1.00  0.00     0.039 A 
ATOM     92  C   UNL     1     -15.912  -0.536  11.811  1.00  0.00    -0.049 A 
ATOM     93  C   UNL     1     -15.259   1.158  10.217  1.00  0.00    -0.049 A 
ATOM     94  C   UNL     1     -17.015  -0.863  11.025  1.00  0.00    -0.053 A 
ATOM     95  H   UNL     1     -15.791  -0.971  12.739  1.00  0.00     0.063 H 
ATOM     96  C   UNL     1     -16.297   0.777   9.393  1.00  0.00    -0.053 A 
ATOM     97  H   UNL     1     -14.707   2.003  10.005  1.00  0.00     0.063 H 
ATOM     98  C   UNL     1     -17.128  -0.281   9.767  1.00  0.00    -0.014 A 
ATOM     99  H   UNL     1     -17.731  -1.522  11.369  1.00  0.00     0.063 H 
ATOM    100  H   UNL     1     -16.460   1.274   8.503  1.00  0.00     0.063 H 
BRANCH  98 101
ATOM    101  C   UNL     1     -18.006  -0.780   8.724  1.00  0.00     0.031 A 
ATOM    102  C   UNL     1     -19.272  -0.090   8.422  1.00  0.00     0.074 A 
ATOM    103  C   UNL     1     -17.576  -1.805   7.955  1.00  0.00     0.049 A 
ATOM    104  N   UNL     1     -20.269  -0.652   7.829  1.00  0.00    -0.248 NA
ATOM    105  C   UNL     1     -19.529   1.298   8.795  1.00  0.00    -0.034 C 
ATOM    106  C   UNL     1     -18.134  -2.261   6.686  1.00  0.00    -0.036 A 
ATOM    107  N   UNL     1     -16.611  -2.773   8.281  1.00  0.00    -0.354 N 
ATOM    108  C   UNL     1     -21.174   0.332   7.514  1.00  0.00     0.074 A 
ATOM    109  C   UNL     1     -20.697   1.521   8.182  1.00  0.00    -0.034 C 
ATOM    110  H   UNL     1     -18.962   1.935   9.375  1.00  0.00     0.065 H 
ATOM    111  C   UNL     1     -17.741  -3.527   6.470  1.00  0.00    -0.036 A 
ATOM    112  H   UNL     1     -18.732  -1.702   6.058  1.00  0.00     0.065 H 
ATOM    113  C   UNL     1     -17.047  -3.969   7.667  1.00  0.00     0.049 A 
ATOM    114  H   UNL     1     -15.800  -2.645   8.824  1.00  0.00     0.167 HD
ATOM    115  C   UNL     1     -22.163   0.067   6.617  1.00  0.00     0.037 A 
ATOM    116  H   UNL     1     -21.194   2.426   8.186  1.00  0.00     0.065 H 
ATOM    117  H   UNL     1     -17.901  -4.081   5.615  1.00  0.00     0.065 H 
ATOM    118  C   UNL     1     -17.403  -5.055   8.414  1.00  0.00     0.037 A 
ATOM    119  C   UNL     1     -22.106  -1.313   6.154  1.00  0.00     0.049 A 
ATOM    120  C   UNL     1     -18.837  -5.485   8.212  1.00  0.00     0.074 A 
ATOM    121  C   UNL     1     -21.508  -1.899   5.051  1.00  0.00    -0.036 A 
ATOM    122  N   UNL     1     -22.397  -2.343   7.041  1.00  0.00    -0.354 N 
ATOM    123  N   UNL     1     -19.768  -4.702   7.744  1.00  0.00    -0.248 NA
ATOM    124  C   UNL     1     -19.338  -6.817   8.541  1.00  0.00    -0.034 C 
ATOM    125  C   UNL     1     -21.385  -3.287   5.304  1.00  0.00    -0.036 A 
ATOM    126  H   UNL     1     -21.206  -1.411   4.194  1.00  0.00     0.065 H 
ATOM    127  C   UNL     1     -21.933  -3.547   6.548  1.00  0.00     0.049 A 
ATOM    128  H   UNL     1     -22.867  -2.230   7.898  1.00  0.00     0.167 HD
ATOM    129  C   UNL     1     -20.960  -5.377   7.715  1.00  0.00     0.074 A 
ATOM    130  C   UNL     1     -20.637  -6.701   8.211  1.00  0.00    -0.034 C 
ATOM    131  H   UNL     1     -18.831  -7.630   8.924  1.00  0.00     0.065 H 
ATOM    132  H   UNL     1     -20.961  -3.983   4.671  1.00  0.00     0.065 H 
ATOM    133  C   UNL     1     -22.113  -4.782   7.291  1.00  0.00     0.037 A 
ATOM    134  H   UNL     1     -21.324  -7.465   8.301  1.00  0.00     0.065 H 
BRANCH 115 135
ATOM    135  C   UNL     1     -22.984   1.147   5.970  1.00  0.00     0.064 A 
ATOM    136  C   UNL     1     -23.301   1.096   4.596  1.00  0.00     0.173 A 
ATOM    137  C   UNL     1     -23.450   2.282   6.655  1.00  0.00     0.173 A 
ATOM    138  F   UNL     1     -22.963   0.045   3.838  1.00  0.00    -0.203 F 
ATOM    139  C   UNL     1     -23.959   2.140   3.944  1.00  0.00     0.198 A 
ATOM    140  C   UNL     1     -24.064   3.350   5.993  1.00  0.00     0.198 A 
ATOM    141  F   UNL     1     -23.336   2.375   7.988  1.00  0.00    -0.203 F 
ATOM    142  F   UNL     1     -24.229   2.041   2.635  1.00  0.00    -0.200 F 
ATOM    143  C   UNL     1     -24.313   3.281   4.635  1.00  0.00     0.200 A 
ATOM    144  F   UNL     1     -24.404   4.451   6.677  1.00  0.00    -0.200 F 
ATOM    145  F   UNL     1     -24.900   4.303   3.999  1.00  0.00    -0.200 F 
ENDBRANCH 115 135
BRANCH 118 146
ATOM    146  C   UNL     1     -16.652  -5.147   9.695  1.00  0.00     0.064 A 
ATOM    147  C   UNL     1     -15.255  -5.322   9.630  1.00  0.00     0.173 A 
ATOM    148  C   UNL     1     -17.189  -4.670  10.896  1.00  0.00     0.173 A 
ATOM    149  F   UNL     1     -14.689  -5.774   8.499  1.00  0.00    -0.203 F 
ATOM    150  C   UNL     1     -14.425  -4.913  10.671  1.00  0.00     0.198 A 
ATOM    151  C   UNL     1     -16.353  -4.275  11.944  1.00  0.00     0.198 A 
ATOM    152  F   UNL     1     -18.509  -4.470  11.016  1.00  0.00    -0.203 F 
ATOM    153  F   UNL     1     -13.093  -4.976  10.526  1.00  0.00    -0.200 F 
ATOM    154  C   UNL     1     -14.974  -4.361  11.815  1.00  0.00     0.200 A 
ATOM    155  F   UNL     1     -16.882  -3.721  13.044  1.00  0.00    -0.200 F 
ATOM    156  F   UNL     1     -14.175  -3.877  12.776  1.00  0.00    -0.200 F 
ENDBRANCH 118 146
BRANCH 133 157
ATOM    157  C   UNL     1     -23.508  -5.336   7.441  1.00  0.00     0.064 A 
ATOM    158  C   UNL     1     -23.903  -6.187   8.485  1.00  0.00     0.173 A 
ATOM    159  C   UNL     1     -24.552  -4.880   6.597  1.00  0.00     0.173 A 
ATOM    160  F   UNL     1     -23.032  -6.595   9.417  1.00  0.00    -0.203 F 
ATOM    161  C   UNL     1     -25.230  -6.598   8.641  1.00  0.00     0.198 A 
ATOM    162  C   UNL     1     -25.883  -5.245   6.792  1.00  0.00     0.198 A 
ATOM    163  F   UNL     1     -24.315  -4.044   5.576  1.00  0.00    -0.203 F 
ATOM    164  F   UNL     1     -25.549  -7.443   9.631  1.00  0.00    -0.200 F 
ATOM    165  C   UNL     1     -26.220  -6.117   7.805  1.00  0.00     0.200 A 
ATOM    166  F   UNL     1     -26.837  -4.726   6.006  1.00  0.00    -0.200 F 
ATOM    167  F   UNL     1     -27.497  -6.475   7.989  1.00  0.00    -0.200 F 
ENDBRANCH 133 157
ENDBRANCH  98 101
ENDBRANCH  88  91
ENDBRANCH  84  87
ENDBRANCH  81  84
ENDBRANCH  78  81
ENDBRANCH  75  78
ENDBRANCH  72  75
ENDBRANCH  69  72
ENDBRANCH   3  69
TORSDOF 23
