REMARK SMILES O=C(NCCCCCCNC(=O)c1cc(/C=C/c2cc(O)cc(O)c2)ccc1O)c1ccc(-c2c3nc(c(-c4c(F)c(F)c(F)c(F)c4F)c4ccc([nH]4)c(-c4c(F)c(F)c(F)c(F)c4F)c4nc(c(-c5c(F)c(F)c(F)c(F)c5F)c5ccc2[nH]5)C=C4)C=C3)cc1
REMARK SMILES IDX 7 1 6 4 5 7 4 10 3 13 1 14 2 15 30 17 31 18 92 19 32 20
REMARK SMILES IDX 91 22 33 24 34 27 35 28 85 29 36 30 90 31 84 32 86 33 37 34
REMARK SMILES IDX 89 35 83 37 82 39 38 41 70 44 50 45 69 46 51 47 54 48 68 49
REMARK SMILES IDX 87 50 52 51 53 53 67 55 88 56 55 59 39 61 40 62 48 63 41 64
REMARK SMILES IDX 42 65 46 66 49 67 43 68 44 69 47 70 45 71 71 72 72 73 80 74
REMARK SMILES IDX 73 75 74 76 78 77 81 78 75 79 76 80 79 81 77 82 56 83 57 84
REMARK SMILES IDX 65 85 58 86 59 87 63 88 66 89 60 90 61 91 64 92 62 93 8 94
REMARK SMILES IDX 9 97 10 100 11 101 12 103 13 104 14 105 28 106 15 107 27 109
REMARK SMILES IDX 26 110 29 113 16 115 17 116 18 119 19 120 25 121 20 122
REMARK SMILES IDX 23 124 22 126 21 128 24 130
REMARK H PARENT 7 2 7 3 6 5 6 6 5 8 5 9 4 11 4 12 3 16 31 21 92 23 32 25 91 26
REMARK H PARENT 90 36 84 38 86 40 89 42 83 43 51 52 54 54 87 57 52 58 88 60
REMARK H PARENT 8 95 8 96 9 98 9 99 10 102 14 108 27 111 26 112 29 114 16 117
REMARK H PARENT 17 118 19 123 25 125 22 127 21 129 24 131
REMARK Flexibility Score: inf
ROOT
ATOM      1  C   UNL     1       4.755   3.235   3.051  1.00  0.00    -0.052 C 
ATOM      2  H   UNL     1       4.321   2.296   3.324  1.00  0.00     0.027 H 
ATOM      3  H   UNL     1       4.475   4.041   3.697  1.00  0.00     0.027 H 
ENDROOT
BRANCH   1   4
ATOM      4  C   UNL     1       4.236   3.609   1.659  1.00  0.00    -0.052 C 
ATOM      5  H   UNL     1       3.167   3.570   1.682  1.00  0.00     0.027 H 
ATOM      6  H   UNL     1       4.622   4.585   1.449  1.00  0.00     0.027 H 
BRANCH   4   7
ATOM      7  C   UNL     1       4.718   2.707   0.524  1.00  0.00    -0.036 C 
ATOM      8  H   UNL     1       4.235   3.018  -0.379  1.00  0.00     0.028 H 
ATOM      9  H   UNL     1       5.783   2.810   0.484  1.00  0.00     0.028 H 
BRANCH   7  10
ATOM     10  C   UNL     1       4.433   1.228   0.731  1.00  0.00     0.018 C 
ATOM     11  H   UNL     1       4.886   0.675  -0.065  1.00  0.00     0.049 H 
ATOM     12  H   UNL     1       4.835   0.947   1.681  1.00  0.00     0.049 H 
BRANCH  10  13
ATOM     13  N   UNL     1       3.009   0.939   0.748  1.00  0.00    -0.352 N 
ATOM     14  O   UNL     1       1.084   0.029  -0.014  1.00  0.00    -0.269 OA
ATOM     15  C   UNL     1       2.312   0.036  -0.013  1.00  0.00     0.251 C 
ATOM     16  H   UNL     1       2.474   1.459   1.391  1.00  0.00     0.163 HD
BRANCH  15  17
ATOM     17  C   UNL     1       3.057  -0.930  -0.846  1.00  0.00     0.039 A 
ATOM     18  C   UNL     1       4.145  -1.627  -0.311  1.00  0.00    -0.049 A 
ATOM     19  C   UNL     1       2.653  -1.153  -2.164  1.00  0.00    -0.049 A 
ATOM     20  C   UNL     1       4.893  -2.468  -1.123  1.00  0.00    -0.053 A 
ATOM     21  H   UNL     1       4.391  -1.515   0.685  1.00  0.00     0.063 H 
ATOM     22  C   UNL     1       3.352  -2.069  -2.954  1.00  0.00    -0.053 A 
ATOM     23  H   UNL     1       1.844  -0.645  -2.553  1.00  0.00     0.063 H 
ATOM     24  C   UNL     1       4.477  -2.732  -2.438  1.00  0.00    -0.014 A 
ATOM     25  H   UNL     1       5.756  -2.901  -0.759  1.00  0.00     0.063 H 
ATOM     26  H   UNL     1       3.041  -2.259  -3.920  1.00  0.00     0.063 H 
BRANCH  24  27
ATOM     27  C   UNL     1       5.141  -3.818  -3.197  1.00  0.00     0.031 A 
ATOM     28  C   UNL     1       5.915  -3.543  -4.451  1.00  0.00     0.074 A 
ATOM     29  C   UNL     1       5.012  -5.076  -2.730  1.00  0.00     0.049 A 
ATOM     30  N   UNL     1       6.519  -4.393  -5.244  1.00  0.00    -0.248 NA
ATOM     31  C   UNL     1       6.025  -2.141  -4.880  1.00  0.00    -0.034 C 
ATOM     32  C   UNL     1       4.260  -5.453  -1.529  1.00  0.00    -0.036 A 
ATOM     33  N   UNL     1       5.499  -6.268  -3.200  1.00  0.00    -0.354 N 
ATOM     34  C   UNL     1       7.062  -3.635  -6.272  1.00  0.00     0.074 A 
ATOM     35  C   UNL     1       6.708  -2.256  -6.013  1.00  0.00    -0.034 C 
ATOM     36  H   UNL     1       5.665  -1.290  -4.420  1.00  0.00     0.065 H 
ATOM     37  C   UNL     1       4.355  -6.776  -1.344  1.00  0.00    -0.036 A 
ATOM     38  H   UNL     1       3.739  -4.801  -0.921  1.00  0.00     0.065 H 
ATOM     39  C   UNL     1       5.107  -7.351  -2.451  1.00  0.00     0.049 A 
ATOM     40  H   UNL     1       6.074  -6.341  -3.996  1.00  0.00     0.167 HD
ATOM     41  C   UNL     1       7.787  -4.065  -7.332  1.00  0.00     0.037 A 
ATOM     42  H   UNL     1       6.955  -1.465  -6.628  1.00  0.00     0.065 H 
ATOM     43  H   UNL     1       3.961  -7.302  -0.548  1.00  0.00     0.065 H 
ATOM     44  C   UNL     1       5.291  -8.668  -2.656  1.00  0.00     0.037 A 
ATOM     45  C   UNL     1       8.145  -5.442  -7.564  1.00  0.00     0.049 A 
ATOM     46  C   UNL     1       6.066  -9.106  -3.866  1.00  0.00     0.074 A 
ATOM     47  C   UNL     1       8.947  -5.966  -8.564  1.00  0.00    -0.036 A 
ATOM     48  N   UNL     1       7.711  -6.515  -6.799  1.00  0.00    -0.354 N 
ATOM     49  N   UNL     1       6.644  -8.374  -4.786  1.00  0.00    -0.248 NA
ATOM     50  C   UNL     1       6.207 -10.553  -4.071  1.00  0.00    -0.034 C 
ATOM     51  C   UNL     1       8.939  -7.359  -8.447  1.00  0.00    -0.036 A 
ATOM     52  H   UNL     1       9.461  -5.421  -9.274  1.00  0.00     0.065 H 
ATOM     53  C   UNL     1       8.185  -7.701  -7.337  1.00  0.00     0.049 A 
ATOM     54  H   UNL     1       7.149  -6.444  -5.994  1.00  0.00     0.167 HD
ATOM     55  C   UNL     1       7.225  -9.268  -5.672  1.00  0.00     0.074 A 
ATOM     56  C   UNL     1       6.960 -10.596  -5.160  1.00  0.00    -0.034 C 
ATOM     57  H   UNL     1       5.821 -11.332  -3.514  1.00  0.00     0.065 H 
ATOM     58  H   UNL     1       9.415  -8.020  -9.081  1.00  0.00     0.065 H 
ATOM     59  C   UNL     1       7.907  -9.014  -6.815  1.00  0.00     0.037 A 
ATOM     60  H   UNL     1       7.314 -11.466  -5.588  1.00  0.00     0.065 H 
BRANCH  41  61
ATOM     61  C   UNL     1       8.238  -3.057  -8.349  1.00  0.00     0.064 A 
ATOM     62  C   UNL     1       9.275  -2.152  -8.085  1.00  0.00     0.173 A 
ATOM     63  C   UNL     1       7.699  -3.078  -9.646  1.00  0.00     0.173 A 
ATOM     64  F   UNL     1       9.820  -2.087  -6.861  1.00  0.00    -0.203 F 
ATOM     65  C   UNL     1       9.755  -1.304  -9.081  1.00  0.00     0.198 A 
ATOM     66  C   UNL     1       8.199  -2.248 -10.645  1.00  0.00     0.198 A 
ATOM     67  F   UNL     1       6.710  -3.931  -9.953  1.00  0.00    -0.203 F 
ATOM     68  F   UNL     1      10.737  -0.435  -8.803  1.00  0.00    -0.200 F 
ATOM     69  C   UNL     1       9.226  -1.361 -10.362  1.00  0.00     0.200 A 
ATOM     70  F   UNL     1       7.697  -2.317 -11.886  1.00  0.00    -0.200 F 
ATOM     71  F   UNL     1       9.708  -0.563 -11.325  1.00  0.00    -0.200 F 
ENDBRANCH  41  61
BRANCH  44  72
ATOM     72  C   UNL     1       4.687  -9.660  -1.729  1.00  0.00     0.064 A 
ATOM     73  C   UNL     1       5.486 -10.510  -0.953  1.00  0.00     0.173 A 
ATOM     74  C   UNL     1       3.294  -9.798  -1.621  1.00  0.00     0.173 A 
ATOM     75  F   UNL     1       6.823 -10.429  -1.032  1.00  0.00    -0.203 F 
ATOM     76  C   UNL     1       4.917 -11.482  -0.133  1.00  0.00     0.198 A 
ATOM     77  C   UNL     1       2.726 -10.742  -0.771  1.00  0.00     0.198 A 
ATOM     78  F   UNL     1       2.482  -9.005  -2.336  1.00  0.00    -0.203 F 
ATOM     79  F   UNL     1       5.705 -12.325   0.547  1.00  0.00    -0.200 F 
ATOM     80  C   UNL     1       3.538 -11.594  -0.040  1.00  0.00     0.200 A 
ATOM     81  F   UNL     1       1.393 -10.832  -0.669  1.00  0.00    -0.200 F 
ATOM     82  F   UNL     1       2.991 -12.531   0.747  1.00  0.00    -0.200 F 
ENDBRANCH  44  72
BRANCH  59  83
ATOM     83  C   UNL     1       8.418 -10.198  -7.581  1.00  0.00     0.064 A 
ATOM     84  C   UNL     1       7.547 -11.052  -8.275  1.00  0.00     0.173 A 
ATOM     85  C   UNL     1       9.794 -10.463  -7.651  1.00  0.00     0.173 A 
ATOM     86  F   UNL     1       6.221 -10.852  -8.221  1.00  0.00    -0.203 F 
ATOM     87  C   UNL     1       8.033 -12.142  -8.991  1.00  0.00     0.198 A 
ATOM     88  C   UNL     1      10.279 -11.534  -8.397  1.00  0.00     0.198 A 
ATOM     89  F   UNL     1      10.669  -9.675  -7.009  1.00  0.00    -0.203 F 
ATOM     90  F   UNL     1       7.179 -12.973  -9.603  1.00  0.00    -0.200 F 
ATOM     91  C   UNL     1       9.399 -12.376  -9.059  1.00  0.00     0.200 A 
ATOM     92  F   UNL     1      11.599 -11.750  -8.474  1.00  0.00    -0.200 F 
ATOM     93  F   UNL     1       9.866 -13.419  -9.758  1.00  0.00    -0.200 F 
ENDBRANCH  59  83
ENDBRANCH  24  27
ENDBRANCH  15  17
ENDBRANCH  10  13
ENDBRANCH   7  10
ENDBRANCH   4   7
ENDBRANCH   1   4
BRANCH   1  94
ATOM     94  C   UNL     1       6.277   3.107   3.171  1.00  0.00    -0.036 C 
ATOM     95  H   UNL     1       6.587   2.270   2.580  1.00  0.00     0.028 H 
ATOM     96  H   UNL     1       6.487   2.989   4.213  1.00  0.00     0.028 H 
BRANCH  94  97
ATOM     97  C   UNL     1       7.061   4.330   2.710  1.00  0.00     0.018 C 
ATOM     98  H   UNL     1       6.831   4.522   1.683  1.00  0.00     0.049 H 
ATOM     99  H   UNL     1       8.103   4.124   2.842  1.00  0.00     0.049 H 
BRANCH  97 100
ATOM    100  N   UNL     1       6.737   5.509   3.489  1.00  0.00    -0.352 N 
ATOM    101  C   UNL     1       7.595   6.411   4.063  1.00  0.00     0.255 C 
ATOM    102  H   UNL     1       5.778   5.684   3.623  1.00  0.00     0.163 HD
ATOM    103  O   UNL     1       7.159   7.312   4.775  1.00  0.00    -0.269 OA
BRANCH 101 104
ATOM    104  C   UNL     1       9.053   6.245   3.905  1.00  0.00     0.082 A 
ATOM    105  C   UNL     1       9.801   6.102   5.082  1.00  0.00    -0.038 A 
ATOM    106  C   UNL     1       9.689   6.240   2.662  1.00  0.00     0.128 A 
ATOM    107  C   UNL     1      11.186   5.909   5.030  1.00  0.00    -0.025 A 
ATOM    108  H   UNL     1       9.325   6.139   5.997  1.00  0.00     0.064 H 
ATOM    109  C   UNL     1      11.064   6.039   2.592  1.00  0.00    -0.019 A 
ATOM    110  C   UNL     1      11.803   5.868   3.769  1.00  0.00    -0.051 A 
ATOM    111  H   UNL     1      11.538   6.016   1.675  1.00  0.00     0.066 H 
ATOM    112  H   UNL     1      12.820   5.707   3.708  1.00  0.00     0.063 H 
BRANCH 106 113
ATOM    113  O   UNL     1       8.973   6.420   1.512  1.00  0.00    -0.507 OA
ATOM    114  H   UNL     1       8.047   6.556   1.554  1.00  0.00     0.293 HD
ENDBRANCH 106 113
BRANCH 107 115
ATOM    115  C   UNL     1      12.028   5.756   6.231  1.00  0.00    -0.054 C 
ATOM    116  C   UNL     1      11.601   5.815   7.503  1.00  0.00    -0.054 C 
ATOM    117  H   UNL     1      13.035   5.588   6.080  1.00  0.00     0.063 H 
ATOM    118  H   UNL     1      10.594   5.957   7.677  1.00  0.00     0.063 H 
BRANCH 116 119
ATOM    119  C   UNL     1      12.499   5.686   8.659  1.00  0.00    -0.018 A 
ATOM    120  C   UNL     1      13.697   6.409   8.740  1.00  0.00    -0.013 A 
ATOM    121  C   UNL     1      12.110   4.876   9.735  1.00  0.00    -0.013 A 
ATOM    122  C   UNL     1      14.497   6.298   9.875  1.00  0.00     0.119 A 
ATOM    123  H   UNL     1      13.986   7.021   7.961  1.00  0.00     0.067 H 
ATOM    124  C   UNL     1      12.927   4.779  10.859  1.00  0.00     0.119 A 
ATOM    125  H   UNL     1      11.221   4.354   9.694  1.00  0.00     0.067 H 
ATOM    126  C   UNL     1      14.122   5.483  10.935  1.00  0.00     0.022 A 
ATOM    127  H   UNL     1      14.724   5.402  11.770  1.00  0.00     0.070 H 
BRANCH 122 128
ATOM    128  O   UNL     1      15.667   6.992   9.987  1.00  0.00    -0.508 OA
ATOM    129  H   UNL     1      15.949   7.551   9.290  1.00  0.00     0.293 HD
ENDBRANCH 122 128
BRANCH 124 130
ATOM    130  O   UNL     1      12.580   3.996  11.921  1.00  0.00    -0.508 OA
ATOM    131  H   UNL     1      13.143   3.944  12.668  1.00  0.00     0.293 HD
ENDBRANCH 124 130
ENDBRANCH 116 119
ENDBRANCH 107 115
ENDBRANCH 101 104
ENDBRANCH  97 100
ENDBRANCH  94  97
ENDBRANCH   1  94
TORSDOF 18
