REMARK SMILES CC(C)(C)OC(=O)N1CCC[C@H]1C(=O)N[C@@H](Cc1ccccc1)C(=O)NCCCCCCNC(=O)c1ccc(-c2c3nc(c(-c4c(F)c(F)c(F)c(F)c4F)c4ccc([nH]4)c(-c4c(F)c(F)c(F)c(F)c4F)c4nc(c(-c5c(F)c(F)c(F)c(F)c5F)c5ccc2[nH]5)C=C4)C=C3)cc1
REMARK SMILES IDX 27 1 26 4 24 5 25 6 16 8 15 10 13 11 14 12 12 14 8 15 9 16
REMARK SMILES IDX 10 17 11 20 6 26 7 27 5 28 2 29 1 30 3 34 4 38 17 42 18 45
REMARK SMILES IDX 19 46 23 47 20 48 22 50 21 52 28 56 29 59 30 62 31 65 32 68
REMARK SMILES IDX 33 71 34 72 35 74 36 75 37 76 98 77 38 78 97 80 39 82 40 85
REMARK SMILES IDX 41 86 91 87 42 88 96 89 90 90 92 91 43 92 95 93 89 95 88 97
REMARK SMILES IDX 44 99 76 102 56 103 75 104 57 105 60 106 74 107 93 108
REMARK SMILES IDX 58 109 59 111 73 113 94 114 61 117 45 119 46 120 54 121
REMARK SMILES IDX 47 122 48 123 52 124 55 125 49 126 50 127 53 128 51 129
REMARK SMILES IDX 77 130 78 131 86 132 79 133 80 134 84 135 87 136 81 137
REMARK SMILES IDX 82 138 85 139 83 140 62 141 63 142 71 143 64 144 65 145
REMARK SMILES IDX 69 146 72 147 66 148 67 149 70 150 68 151
REMARK H PARENT 27 2 27 3 26 7 16 9 15 13 9 18 9 19 12 21 10 22 10 23 11 24
REMARK H PARENT 11 25 1 31 1 32 1 33 3 35 3 36 3 37 4 39 4 40 4 41 17 43 17 44
REMARK H PARENT 19 49 23 51 20 53 22 54 21 55 28 57 28 58 29 60 29 61 30 63
REMARK H PARENT 30 64 31 66 31 67 32 69 32 70 33 73 37 79 98 81 38 83 97 84
REMARK H PARENT 96 94 90 96 92 98 95 100 89 101 57 110 60 112 93 115 58 116
REMARK H PARENT 94 118
REMARK Flexibility Score: inf
ROOT
ATOM      1  C   UNL     1      -3.150  -6.078  -7.601  1.00  0.00     0.017 C 
ATOM      2  H   UNL     1      -2.082  -6.090  -7.553  1.00  0.00     0.049 H 
ATOM      3  H   UNL     1      -3.524  -6.342  -8.568  1.00  0.00     0.049 H 
ENDROOT
BRANCH   1   4
ATOM      4  N   UNL     1      -3.601  -4.732  -7.333  1.00  0.00    -0.354 N 
ATOM      5  C   UNL     1      -2.955  -3.547  -7.520  1.00  0.00     0.242 C 
ATOM      6  O   UNL     1      -3.664  -2.536  -7.613  1.00  0.00    -0.273 OA
ATOM      7  H   UNL     1      -4.509  -4.661  -6.960  1.00  0.00     0.163 HD
BRANCH   5   8
ATOM      8  C   UNL     1      -1.427  -3.424  -7.736  1.00  0.00     0.112 C 
ATOM      9  H   UNL     1      -1.230  -2.407  -7.470  1.00  0.00     0.064 H 
BRANCH   8  10
ATOM     10  N   UNL     1      -0.594  -4.193  -6.804  1.00  0.00    -0.342 N 
ATOM     11  C   UNL     1       0.250  -3.754  -5.822  1.00  0.00     0.243 C 
ATOM     12  O   UNL     1       0.884  -4.606  -5.197  1.00  0.00    -0.273 OA
ATOM     13  H   UNL     1      -0.652  -5.171  -6.900  1.00  0.00     0.164 HD
BRANCH  11  14
ATOM     14  C   UNL     1       0.461  -2.240  -5.634  1.00  0.00     0.114 C 
ATOM     15  N   UNL     1       1.110  -1.904  -4.375  1.00  0.00    -0.296 N 
ATOM     16  C   UNL     1       2.437  -1.367  -4.577  1.00  0.00     0.025 C 
ATOM     17  C   UNL     1       2.365  -0.774  -5.971  1.00  0.00    -0.033 C 
ATOM     18  H   UNL     1       3.175  -2.141  -4.527  1.00  0.00     0.050 H 
ATOM     19  H   UNL     1       2.719  -0.653  -3.831  1.00  0.00     0.050 H 
ATOM     20  C   UNL     1       1.421  -1.716  -6.713  1.00  0.00    -0.022 C 
ATOM     21  H   UNL     1      -0.517  -1.810  -5.676  1.00  0.00     0.064 H 
ATOM     22  H   UNL     1       3.330  -0.760  -6.431  1.00  0.00     0.029 H 
ATOM     23  H   UNL     1       2.026   0.241  -5.973  1.00  0.00     0.029 H 
ATOM     24  H   UNL     1       1.966  -2.522  -7.156  1.00  0.00     0.029 H 
ATOM     25  H   UNL     1       0.903  -1.224  -7.509  1.00  0.00     0.029 H 
BRANCH  15  26
ATOM     26  C   UNL     1       0.430  -1.989  -3.186  1.00  0.00     0.410 C 
ATOM     27  O   UNL     1      -0.663  -2.520  -3.083  1.00  0.00    -0.224 OA
BRANCH  26  28
ATOM     28  O   UNL     1       1.095  -1.359  -2.186  1.00  0.00    -0.444 OA
BRANCH  28  29
ATOM     29  C   UNL     1       0.584  -1.299  -0.829  1.00  0.00     0.106 C 
BRANCH  29  30
ATOM     30  C   UNL     1       1.300  -0.095  -0.198  1.00  0.00    -0.025 C 
ATOM     31  H   UNL     1       0.977   0.021   0.816  1.00  0.00     0.027 H 
ATOM     32  H   UNL     1       1.065   0.790  -0.751  1.00  0.00     0.027 H 
ATOM     33  H   UNL     1       2.357  -0.258  -0.218  1.00  0.00     0.027 H 
ENDBRANCH  29  30
BRANCH  29  34
ATOM     34  C   UNL     1       0.996  -2.578  -0.099  1.00  0.00    -0.025 C 
ATOM     35  H   UNL     1       0.627  -2.551   0.905  1.00  0.00     0.027 H 
ATOM     36  H   UNL     1       2.064  -2.652  -0.085  1.00  0.00     0.027 H 
ATOM     37  H   UNL     1       0.587  -3.426  -0.607  1.00  0.00     0.027 H 
ENDBRANCH  29  34
BRANCH  29  38
ATOM     38  C   UNL     1      -0.928  -1.058  -0.723  1.00  0.00    -0.025 C 
ATOM     39  H   UNL     1      -1.214  -1.029   0.307  1.00  0.00     0.027 H 
ATOM     40  H   UNL     1      -1.451  -1.851  -1.216  1.00  0.00     0.027 H 
ATOM     41  H   UNL     1      -1.174  -0.126  -1.188  1.00  0.00     0.027 H 
ENDBRANCH  29  38
ENDBRANCH  28  29
ENDBRANCH  26  28
ENDBRANCH  15  26
ENDBRANCH  11  14
ENDBRANCH   8  10
BRANCH   8  42
ATOM     42  C   UNL     1      -0.983  -3.556  -9.210  1.00  0.00     0.002 C 
ATOM     43  H   UNL     1       0.049  -3.276  -9.259  1.00  0.00     0.034 H 
ATOM     44  H   UNL     1      -1.658  -2.927  -9.752  1.00  0.00     0.034 H 
BRANCH  42  45
ATOM     45  C   UNL     1      -1.114  -4.909  -9.867  1.00  0.00    -0.045 A 
ATOM     46  C   UNL     1      -2.112  -5.131 -10.828  1.00  0.00    -0.059 A 
ATOM     47  C   UNL     1      -0.253  -5.965  -9.534  1.00  0.00    -0.059 A 
ATOM     48  C   UNL     1      -2.276  -6.393 -11.404  1.00  0.00    -0.062 A 
ATOM     49  H   UNL     1      -2.731  -4.355 -11.112  1.00  0.00     0.063 H 
ATOM     50  C   UNL     1      -0.432  -7.231 -10.096  1.00  0.00    -0.062 A 
ATOM     51  H   UNL     1       0.520  -5.805  -8.869  1.00  0.00     0.063 H 
ATOM     52  C   UNL     1      -1.446  -7.446 -11.027  1.00  0.00    -0.062 A 
ATOM     53  H   UNL     1      -3.013  -6.545 -12.110  1.00  0.00     0.062 H 
ATOM     54  H   UNL     1       0.188  -8.009  -9.821  1.00  0.00     0.062 H 
ATOM     55  H   UNL     1      -1.582  -8.383 -11.437  1.00  0.00     0.062 H 
ENDBRANCH  42  45
ENDBRANCH   8  42
ENDBRANCH   5   8
ENDBRANCH   1   4
BRANCH   1  56
ATOM     56  C   UNL     1      -3.684  -7.119  -6.627  1.00  0.00    -0.036 C 
ATOM     57  H   UNL     1      -3.635  -6.705  -5.641  1.00  0.00     0.028 H 
ATOM     58  H   UNL     1      -3.073  -7.988  -6.756  1.00  0.00     0.028 H 
BRANCH  56  59
ATOM     59  C   UNL     1      -5.125  -7.571  -6.879  1.00  0.00    -0.052 C 
ATOM     60  H   UNL     1      -5.768  -6.742  -6.666  1.00  0.00     0.027 H 
ATOM     61  H   UNL     1      -5.271  -8.420  -6.245  1.00  0.00     0.027 H 
BRANCH  59  62
ATOM     62  C   UNL     1      -5.447  -8.059  -8.297  1.00  0.00    -0.052 C 
ATOM     63  H   UNL     1      -5.454  -7.205  -8.941  1.00  0.00     0.027 H 
ATOM     64  H   UNL     1      -6.388  -8.562  -8.216  1.00  0.00     0.027 H 
BRANCH  62  65
ATOM     65  C   UNL     1      -4.488  -9.090  -8.899  1.00  0.00    -0.036 C 
ATOM     66  H   UNL     1      -3.533  -8.621  -9.013  1.00  0.00     0.028 H 
ATOM     67  H   UNL     1      -4.936  -9.398  -9.821  1.00  0.00     0.028 H 
BRANCH  65  68
ATOM     68  C   UNL     1      -4.287 -10.367  -8.090  1.00  0.00     0.018 C 
ATOM     69  H   UNL     1      -3.889 -10.106  -7.132  1.00  0.00     0.049 H 
ATOM     70  H   UNL     1      -3.619 -10.995  -8.640  1.00  0.00     0.049 H 
BRANCH  68  71
ATOM     71  N   UNL     1      -5.521 -11.107  -7.894  1.00  0.00    -0.352 N 
ATOM     72  C   UNL     1      -5.830 -12.413  -8.174  1.00  0.00     0.251 C 
ATOM     73  H   UNL     1      -6.255 -10.586  -7.494  1.00  0.00     0.163 HD
ATOM     74  O   UNL     1      -6.991 -12.798  -8.059  1.00  0.00    -0.269 OA
BRANCH  72  75
ATOM     75  C   UNL     1      -4.793 -13.364  -8.636  1.00  0.00     0.039 A 
ATOM     76  C   UNL     1      -5.128 -14.276  -9.642  1.00  0.00    -0.049 A 
ATOM     77  C   UNL     1      -3.519 -13.403  -8.063  1.00  0.00    -0.049 A 
ATOM     78  C   UNL     1      -4.176 -15.186 -10.110  1.00  0.00    -0.053 A 
ATOM     79  H   UNL     1      -6.081 -14.278 -10.040  1.00  0.00     0.063 H 
ATOM     80  C   UNL     1      -2.548 -14.262  -8.578  1.00  0.00    -0.053 A 
ATOM     81  H   UNL     1      -3.296 -12.795  -7.260  1.00  0.00     0.063 H 
ATOM     82  C   UNL     1      -2.868 -15.167  -9.602  1.00  0.00    -0.014 A 
ATOM     83  H   UNL     1      -4.436 -15.875 -10.833  1.00  0.00     0.063 H 
ATOM     84  H   UNL     1      -1.587 -14.233  -8.203  1.00  0.00     0.063 H 
BRANCH  82  85
ATOM     85  C   UNL     1      -1.828 -16.089 -10.127  1.00  0.00     0.031 A 
ATOM     86  C   UNL     1      -1.224 -17.140  -9.239  1.00  0.00     0.074 A 
ATOM     87  C   UNL     1      -1.378 -15.936 -11.388  1.00  0.00     0.049 A 
ATOM     88  N   UNL     1      -0.260 -17.989  -9.496  1.00  0.00    -0.248 NA
ATOM     89  C   UNL     1      -1.752 -17.230  -7.869  1.00  0.00    -0.034 C 
ATOM     90  C   UNL     1      -1.843 -14.920 -12.332  1.00  0.00    -0.036 A 
ATOM     91  N   UNL     1      -0.417 -16.624 -12.086  1.00  0.00    -0.354 N 
ATOM     92  C   UNL     1      -0.052 -18.694  -8.318  1.00  0.00     0.074 A 
ATOM     93  C   UNL     1      -0.959 -18.145  -7.332  1.00  0.00    -0.034 C 
ATOM     94  H   UNL     1      -2.536 -16.714  -7.439  1.00  0.00     0.065 H 
ATOM     95  C   UNL     1      -1.176 -15.057 -13.489  1.00  0.00    -0.036 A 
ATOM     96  H   UNL     1      -2.568 -14.211 -12.140  1.00  0.00     0.065 H 
ATOM     97  C   UNL     1      -0.215 -16.149 -13.358  1.00  0.00     0.049 A 
ATOM     98  H   UNL     1       0.081 -17.386 -11.709  1.00  0.00     0.167 HD
ATOM     99  C   UNL     1       0.804 -19.718  -8.085  1.00  0.00     0.037 A 
ATOM    100  H   UNL     1      -0.984 -18.430  -6.341  1.00  0.00     0.065 H 
ATOM    101  H   UNL     1      -1.320 -14.484 -14.335  1.00  0.00     0.065 H 
ATOM    102  C   UNL     1       0.652 -16.543 -14.310  1.00  0.00     0.037 A 
ATOM    103  C   UNL     1       1.678 -20.287  -9.077  1.00  0.00     0.049 A 
ATOM    104  C   UNL     1       1.573 -17.699 -14.037  1.00  0.00     0.074 A 
ATOM    105  C   UNL     1       2.515 -21.383  -8.963  1.00  0.00    -0.036 A 
ATOM    106  N   UNL     1       1.829 -19.801 -10.368  1.00  0.00    -0.354 N 
ATOM    107  N   UNL     1       1.703 -18.411 -12.945  1.00  0.00    -0.248 NA
ATOM    108  C   UNL     1       2.462 -18.112 -15.132  1.00  0.00    -0.034 C 
ATOM    109  C   UNL     1       3.208 -21.533 -10.170  1.00  0.00    -0.036 A 
ATOM    110  H   UNL     1       2.612 -21.986  -8.132  1.00  0.00     0.065 H 
ATOM    111  C   UNL     1       2.766 -20.559 -11.052  1.00  0.00     0.049 A 
ATOM    112  H   UNL     1       1.343 -19.032 -10.742  1.00  0.00     0.167 HD
ATOM    113  C   UNL     1       2.670 -19.367 -13.225  1.00  0.00     0.074 A 
ATOM    114  C   UNL     1       3.082 -19.154 -14.597  1.00  0.00    -0.034 C 
ATOM    115  H   UNL     1       2.573 -17.700 -16.072  1.00  0.00     0.065 H 
ATOM    116  H   UNL     1       3.925 -22.247 -10.369  1.00  0.00     0.065 H 
ATOM    117  C   UNL     1       3.169 -20.335 -12.417  1.00  0.00     0.037 A 
ATOM    118  H   UNL     1       3.772 -19.739 -15.094  1.00  0.00     0.065 H 
BRANCH  99 119
ATOM    119  C   UNL     1       0.839 -20.290  -6.697  1.00  0.00     0.064 A 
ATOM    120  C   UNL     1      -0.228 -21.040  -6.179  1.00  0.00     0.173 A 
ATOM    121  C   UNL     1       1.968 -20.108  -5.883  1.00  0.00     0.173 A 
ATOM    122  F   UNL     1      -1.334 -21.235  -6.913  1.00  0.00    -0.203 F 
ATOM    123  C   UNL     1      -0.181 -21.557  -4.887  1.00  0.00     0.198 A 
ATOM    124  C   UNL     1       2.024 -20.653  -4.602  1.00  0.00     0.198 A 
ATOM    125  F   UNL     1       3.019 -19.406  -6.331  1.00  0.00    -0.203 F 
ATOM    126  F   UNL     1      -1.234 -22.225  -4.396  1.00  0.00    -0.200 F 
ATOM    127  C   UNL     1       0.947 -21.369  -4.102  1.00  0.00     0.200 A 
ATOM    128  F   UNL     1       3.119 -20.481  -3.850  1.00  0.00    -0.200 F 
ATOM    129  F   UNL     1       0.992 -21.870  -2.860  1.00  0.00    -0.200 F 
ENDBRANCH  99 119
BRANCH 102 130
ATOM    130  C   UNL     1       0.668 -15.845 -15.621  1.00  0.00     0.064 A 
ATOM    131  C   UNL     1       0.173 -16.467 -16.775  1.00  0.00     0.173 A 
ATOM    132  C   UNL     1       1.158 -14.536 -15.743  1.00  0.00     0.173 A 
ATOM    133  F   UNL     1      -0.288 -17.725 -16.711  1.00  0.00    -0.203 F 
ATOM    134  C   UNL     1       0.178 -15.812 -18.004  1.00  0.00     0.198 A 
ATOM    135  C   UNL     1       1.139 -13.873 -16.968  1.00  0.00     0.198 A 
ATOM    136  F   UNL     1       1.636 -13.895 -14.666  1.00  0.00    -0.203 F 
ATOM    137  F   UNL     1      -0.269 -16.442 -19.099  1.00  0.00    -0.200 F 
ATOM    138  C   UNL     1       0.655 -14.513 -18.098  1.00  0.00     0.200 A 
ATOM    139  F   UNL     1       1.587 -12.612 -17.051  1.00  0.00    -0.200 F 
ATOM    140  F   UNL     1       0.650 -13.879 -19.279  1.00  0.00    -0.200 F 
ENDBRANCH 102 130
BRANCH 117 141
ATOM    141  C   UNL     1       4.204 -21.252 -13.001  1.00  0.00     0.064 A 
ATOM    142  C   UNL     1       5.514 -20.817 -13.248  1.00  0.00     0.173 A 
ATOM    143  C   UNL     1       3.892 -22.591 -13.276  1.00  0.00     0.173 A 
ATOM    144  F   UNL     1       5.857 -19.541 -13.016  1.00  0.00    -0.203 F 
ATOM    145  C   UNL     1       6.469 -21.686 -13.770  1.00  0.00     0.198 A 
ATOM    146  C   UNL     1       4.857 -23.464 -13.772  1.00  0.00     0.198 A 
ATOM    147  F   UNL     1       2.654 -23.058 -13.053  1.00  0.00    -0.203 F 
ATOM    148  F   UNL     1       7.704 -21.238 -14.038  1.00  0.00    -0.200 F 
ATOM    149  C   UNL     1       6.142 -23.009 -14.024  1.00  0.00     0.200 A 
ATOM    150  F   UNL     1       4.542 -24.746 -14.006  1.00  0.00    -0.200 F 
ATOM    151  F   UNL     1       7.065 -23.845 -14.519  1.00  0.00    -0.200 F 
ENDBRANCH 117 141
ENDBRANCH  82  85
ENDBRANCH  72  75
ENDBRANCH  68  71
ENDBRANCH  65  68
ENDBRANCH  62  65
ENDBRANCH  59  62
ENDBRANCH  56  59
ENDBRANCH   1  56
TORSDOF 23
