REMARK SMILES O=C(/C=C/[C@@]12C=C(O)C(=O)C=C1C(=O)C1=Cc3cc(O)c(O)cc3O[C@@H](c3ccc(O)c(O)c3)[C@@H]12)NCCCCCCNC(=O)c1ccc(-c2c3nc(c(-c4c(F)c(F)c(F)c(F)c4F)c4ccc([nH]4)c(-c4c(F)c(F)c(F)c(F)c4F)c4nc(c(-c5c(F)c(F)c(F)c(F)c5F)c5ccc2[nH]5)C=C4)C=C3)cc1
REMARK SMILES IDX 37 1 36 4 1 5 2 6 3 8 4 9 5 12 6 13 12 14 35 15 7 16 11 18
REMARK SMILES IDX 13 19 15 20 9 23 14 25 16 26 10 27 8 29 17 31 18 32 24 33
REMARK SMILES IDX 19 34 23 36 21 37 25 39 26 40 27 43 28 44 34 45 29 46 32 48
REMARK SMILES IDX 30 50 33 52 31 54 20 56 22 58 38 60 39 63 40 66 41 69 42 72
REMARK SMILES IDX 43 75 44 76 45 78 46 79 47 80 108 81 48 82 107 84 49 86
REMARK SMILES IDX 50 89 51 90 101 91 52 92 106 93 100 94 102 95 53 96 105 97
REMARK SMILES IDX 99 99 98 101 54 103 86 106 66 107 85 108 67 109 70 110
REMARK SMILES IDX 84 111 103 112 68 113 69 115 83 117 104 118 71 121 55 123
REMARK SMILES IDX 56 124 64 125 57 126 58 127 62 128 65 129 59 130 60 131
REMARK SMILES IDX 63 132 61 133 87 134 88 135 96 136 89 137 90 138 94 139
REMARK SMILES IDX 97 140 91 141 92 142 95 143 93 144 72 145 73 146 81 147
REMARK SMILES IDX 74 148 75 149 79 150 82 151 76 152 77 153 80 154 78 155
REMARK H PARENT 37 2 37 3 36 7 3 10 4 11 6 17 35 21 11 24 16 28 8 30 18 35
REMARK H PARENT 23 38 26 41 28 47 34 49 29 51 33 53 31 55 20 57 22 59 38 61
REMARK H PARENT 38 62 39 64 39 65 40 67 40 68 41 70 41 71 42 73 42 74 43 77
REMARK H PARENT 47 83 108 85 48 87 107 88 106 98 100 100 102 102 105 104
REMARK H PARENT 99 105 67 114 70 116 103 119 68 120 104 122
REMARK Flexibility Score: 80.00
ROOT
ATOM      1  C   UNL     1       2.303  -1.103  -2.428  1.00  0.00     0.018 C 
ATOM      2  H   UNL     1       1.248  -0.967  -2.304  1.00  0.00     0.049 H 
ATOM      3  H   UNL     1       2.519  -2.118  -2.688  1.00  0.00     0.049 H 
ENDROOT
BRANCH   1   4
ATOM      4  N   UNL     1       2.971  -0.790  -1.185  1.00  0.00    -0.353 N 
ATOM      5  O   UNL     1       1.272   0.528  -0.401  1.00  0.00    -0.270 OA
ATOM      6  C   UNL     1       2.404   0.070  -0.299  1.00  0.00     0.243 C 
ATOM      7  H   UNL     1       3.841  -1.203  -0.979  1.00  0.00     0.163 HD
BRANCH   6   8
ATOM      8  C   UNL     1       3.219   0.433   0.877  1.00  0.00     0.000 C 
ATOM      9  C   UNL     1       4.557   0.585   1.004  1.00  0.00    -0.064 C 
ATOM     10  H   UNL     1       2.681   0.598   1.742  1.00  0.00     0.068 H 
ATOM     11  H   UNL     1       5.182   0.260   0.249  1.00  0.00     0.059 H 
BRANCH   9  12
ATOM     12  C   UNL     1       5.167   1.246   2.277  1.00  0.00     0.051 C 
ATOM     13  C   UNL     1       4.895   2.716   2.110  1.00  0.00    -0.023 C 
ATOM     14  C   UNL     1       4.459   0.668   3.482  1.00  0.00     0.018 C 
ATOM     15  C   UNL     1       6.646   0.836   2.624  1.00  0.00     0.046 CG0
ATOM     16  C   UNL     1       3.939   3.359   2.793  1.00  0.00     0.160 C 
ATOM     17  H   UNL     1       5.470   3.252   1.440  1.00  0.00     0.063 H 
ATOM     18  C   UNL     1       3.531   1.276   4.228  1.00  0.00    -0.002 C 
ATOM     19  C   UNL     1       5.077  -0.657   3.745  1.00  0.00     0.186 C 
ATOM     20  C   UNL     1       6.442  -0.571   3.152  1.00  0.00     0.009 C 
ATOM     21  H   UNL     1       7.253   1.019   1.762  1.00  0.00     0.041 H 
ATOM     22  G   UNL     1       7.373   1.597   3.798  1.00  0.00     0.000 G0
ATOM     23  C   UNL     1       3.158   2.668   3.872  1.00  0.00     0.220 C 
ATOM     24  H   UNL     1       3.088   0.793   5.025  1.00  0.00     0.067 H 
ATOM     25  O   UNL     1       4.600  -1.574   4.369  1.00  0.00    -0.289 OA
ATOM     26  C   UNL     1       7.398  -1.497   3.273  1.00  0.00    -0.044 C 
ATOM     27  O   UNL     1       2.280   3.279   4.469  1.00  0.00    -0.286 OA
ATOM     28  H   UNL     1       7.164  -2.471   3.522  1.00  0.00     0.063 H 
BRANCH  16  29
ATOM     29  O   UNL     1       3.660   4.686   2.533  1.00  0.00    -0.504 OA
ATOM     30  H   UNL     1       4.133   5.142   1.865  1.00  0.00     0.293 HD
ENDBRANCH  16  29
BRANCH  26  31
ATOM     31  C   UNL     1       8.793  -1.091   3.044  1.00  0.00     0.021 A 
ATOM     32  C   UNL     1       9.666  -1.931   2.336  1.00  0.00    -0.005 A 
ATOM     33  C   UNL     1       9.296   0.099   3.618  1.00  0.00     0.131 A 
ATOM     34  C   UNL     1      11.014  -1.586   2.230  1.00  0.00     0.158 A 
ATOM     35  H   UNL     1       9.315  -2.797   1.899  1.00  0.00     0.067 H 
ATOM     36  C   UNL     1      10.660   0.393   3.562  1.00  0.00     0.027 A 
ATOM     37  C   UNL     1      11.504  -0.441   2.852  1.00  0.00     0.161 A 
ATOM     38  H   UNL     1      11.034   1.224   4.046  1.00  0.00     0.070 H 
BRANCH  33  39
ATOM     39  O   UNL     1       8.549   0.965   4.370  1.00  0.00    -0.484 OA
BRANCH  39  40
ATOM     40  C   UNL     1       7.373   1.597   3.798  1.00  0.00     0.132 CG0
ATOM     41  H   UNL     1       6.592   1.546   4.528  1.00  0.00     0.080 H 
ATOM     42  G   UNL     1       6.646   0.836   2.624  1.00  0.00     0.000 G0
BRANCH  40  43
ATOM     43  C   UNL     1       7.719   3.050   3.512  1.00  0.00    -0.003 A 
ATOM     44  C   UNL     1       6.896   4.073   4.016  1.00  0.00    -0.051 A 
ATOM     45  C   UNL     1       8.834   3.414   2.745  1.00  0.00    -0.009 A 
ATOM     46  C   UNL     1       7.081   5.403   3.634  1.00  0.00    -0.016 A 
ATOM     47  H   UNL     1       6.142   3.837   4.681  1.00  0.00     0.063 H 
ATOM     48  C   UNL     1       9.066   4.755   2.438  1.00  0.00     0.157 A 
ATOM     49  H   UNL     1       9.484   2.689   2.405  1.00  0.00     0.067 H 
ATOM     50  C   UNL     1       8.159   5.736   2.825  1.00  0.00     0.157 A 
ATOM     51  H   UNL     1       6.423   6.132   3.951  1.00  0.00     0.066 H 
BRANCH  48  52
ATOM     52  O   UNL     1      10.183   5.103   1.734  1.00  0.00    -0.504 OA
ATOM     53  H   UNL     1      10.344   6.002   1.525  1.00  0.00     0.293 HD
ENDBRANCH  48  52
BRANCH  50  54
ATOM     54  O   UNL     1       8.334   7.024   2.412  1.00  0.00    -0.504 OA
ATOM     55  H   UNL     1       7.724   7.686   2.671  1.00  0.00     0.293 HD
ENDBRANCH  50  54
ENDBRANCH  40  43
ENDBRANCH  39  40
ENDBRANCH  33  39
BRANCH  34  56
ATOM     56  O   UNL     1      11.910  -2.352   1.537  1.00  0.00    -0.504 OA
ATOM     57  H   UNL     1      11.624  -3.132   1.103  1.00  0.00     0.293 HD
ENDBRANCH  34  56
BRANCH  37  58
ATOM     58  O   UNL     1      12.830  -0.126   2.772  1.00  0.00    -0.504 OA
ATOM     59  H   UNL     1      13.415  -0.680   2.295  1.00  0.00     0.293 HD
ENDBRANCH  37  58
ENDBRANCH  26  31
ENDBRANCH   9  12
ENDBRANCH   6   8
ENDBRANCH   1   4
BRANCH   1  60
ATOM     60  C   UNL     1       2.795  -0.193  -3.552  1.00  0.00    -0.036 C 
ATOM     61  H   UNL     1       2.523   0.814  -3.315  1.00  0.00     0.028 H 
ATOM     62  H   UNL     1       2.338  -0.539  -4.456  1.00  0.00     0.028 H 
BRANCH  60  63
ATOM     63  C   UNL     1       4.313  -0.245  -3.772  1.00  0.00    -0.052 C 
ATOM     64  H   UNL     1       4.786   0.197  -2.920  1.00  0.00     0.027 H 
ATOM     65  H   UNL     1       4.500   0.281  -4.685  1.00  0.00     0.027 H 
BRANCH  63  66
ATOM     66  C   UNL     1       4.895  -1.650  -3.962  1.00  0.00    -0.052 C 
ATOM     67  H   UNL     1       4.786  -2.182  -3.041  1.00  0.00     0.027 H 
ATOM     68  H   UNL     1       5.915  -1.514  -4.256  1.00  0.00     0.027 H 
BRANCH  66  69
ATOM     69  C   UNL     1       4.239  -2.475  -5.067  1.00  0.00    -0.036 C 
ATOM     70  H   UNL     1       3.217  -2.642  -4.798  1.00  0.00     0.028 H 
ATOM     71  H   UNL     1       4.804  -3.381  -5.146  1.00  0.00     0.028 H 
BRANCH  69  72
ATOM     72  C   UNL     1       4.269  -1.826  -6.442  1.00  0.00     0.018 C 
ATOM     73  H   UNL     1       3.841  -0.848  -6.368  1.00  0.00     0.049 H 
ATOM     74  H   UNL     1       3.713  -2.452  -7.108  1.00  0.00     0.049 H 
BRANCH  72  75
ATOM     75  N   UNL     1       5.617  -1.704  -6.978  1.00  0.00    -0.352 N 
ATOM     76  C   UNL     1       6.078  -2.057  -8.225  1.00  0.00     0.251 C 
ATOM     77  H   UNL     1       6.287  -1.319  -6.367  1.00  0.00     0.163 HD
ATOM     78  O   UNL     1       7.275  -2.027  -8.484  1.00  0.00    -0.269 OA
BRANCH  76  79
ATOM     79  C   UNL     1       5.107  -2.524  -9.236  1.00  0.00     0.039 A 
ATOM     80  C   UNL     1       3.931  -1.807  -9.465  1.00  0.00    -0.049 A 
ATOM     81  C   UNL     1       5.338  -3.735  -9.893  1.00  0.00    -0.049 A 
ATOM     82  C   UNL     1       2.909  -2.388 -10.205  1.00  0.00    -0.053 A 
ATOM     83  H   UNL     1       3.822  -0.852  -9.088  1.00  0.00     0.063 H 
ATOM     84  C   UNL     1       4.341  -4.277 -10.707  1.00  0.00    -0.053 A 
ATOM     85  H   UNL     1       6.239  -4.225  -9.778  1.00  0.00     0.063 H 
ATOM     86  C   UNL     1       3.096  -3.637 -10.821  1.00  0.00    -0.014 A 
ATOM     87  H   UNL     1       2.005  -1.899 -10.303  1.00  0.00     0.063 H 
ATOM     88  H   UNL     1       4.519  -5.150 -11.226  1.00  0.00     0.063 H 
BRANCH  86  89
ATOM     89  C   UNL     1       1.966  -4.272 -11.546  1.00  0.00     0.031 A 
ATOM     90  C   UNL     1       1.359  -5.556 -11.044  1.00  0.00     0.074 A 
ATOM     91  C   UNL     1       1.444  -3.659 -12.624  1.00  0.00     0.049 A 
ATOM     92  N   UNL     1       0.379  -6.262 -11.551  1.00  0.00    -0.248 NA
ATOM     93  C   UNL     1       1.927  -6.126  -9.811  1.00  0.00    -0.034 C 
ATOM     94  C   UNL     1       1.925  -2.398 -13.189  1.00  0.00    -0.036 A 
ATOM     95  N   UNL     1       0.381  -3.998 -13.422  1.00  0.00    -0.354 N 
ATOM     96  C   UNL     1       0.227  -7.361 -10.716  1.00  0.00     0.074 A 
ATOM     97  C   UNL     1       1.232  -7.248  -9.682  1.00  0.00    -0.034 C 
ATOM     98  H   UNL     1       2.672  -5.750  -9.205  1.00  0.00     0.065 H 
ATOM     99  C   UNL     1       1.131  -2.044 -14.210  1.00  0.00    -0.036 A 
ATOM    100  H   UNL     1       2.744  -1.867 -12.856  1.00  0.00     0.065 H 
ATOM    101  C   UNL     1       0.128  -3.084 -14.414  1.00  0.00     0.049 A 
ATOM    102  H   UNL     1      -0.149  -4.818 -13.296  1.00  0.00     0.167 HD
ATOM    103  C   UNL     1      -0.679  -8.365 -10.797  1.00  0.00     0.037 A 
ATOM    104  H   UNL     1       1.389  -7.949  -8.941  1.00  0.00     0.065 H 
ATOM    105  H   UNL     1       1.216  -1.176 -14.763  1.00  0.00     0.065 H 
ATOM    106  C   UNL     1      -0.798  -3.089 -15.391  1.00  0.00     0.037 A 
ATOM    107  C   UNL     1      -1.698  -8.461 -11.810  1.00  0.00     0.049 A 
ATOM    108  C   UNL     1      -1.755  -4.243 -15.489  1.00  0.00     0.074 A 
ATOM    109  C   UNL     1      -2.672  -9.432 -11.965  1.00  0.00    -0.036 A 
ATOM    110  N   UNL     1      -1.879  -7.547 -12.838  1.00  0.00    -0.354 N 
ATOM    111  N   UNL     1      -1.879  -5.283 -14.702  1.00  0.00    -0.248 NA
ATOM    112  C   UNL     1      -2.691  -4.231 -16.622  1.00  0.00    -0.034 C 
ATOM    113  C   UNL     1      -3.416  -9.129 -13.109  1.00  0.00    -0.036 A 
ATOM    114  H   UNL     1      -2.822 -10.242 -11.343  1.00  0.00     0.065 H 
ATOM    115  C   UNL     1      -2.935  -7.944 -13.643  1.00  0.00     0.049 A 
ATOM    116  H   UNL     1      -1.337  -6.737 -12.976  1.00  0.00     0.167 HD
ATOM    117  C   UNL     1      -2.908  -6.044 -15.236  1.00  0.00     0.074 A 
ATOM    118  C   UNL     1      -3.392  -5.334 -16.402  1.00  0.00    -0.034 C 
ATOM    119  H   UNL     1      -2.779  -3.544 -17.387  1.00  0.00     0.065 H 
ATOM    120  H   UNL     1      -4.192  -9.692 -13.491  1.00  0.00     0.065 H 
ATOM    121  C   UNL     1      -3.401  -7.230 -14.804  1.00  0.00     0.037 A 
ATOM    122  H   UNL     1      -4.183  -5.647 -16.986  1.00  0.00     0.065 H 
BRANCH 103 123
ATOM    123  C   UNL     1      -0.615  -9.454  -9.765  1.00  0.00     0.064 A 
ATOM    124  C   UNL     1      -1.034  -9.239  -8.444  1.00  0.00     0.173 A 
ATOM    125  C   UNL     1      -0.196 -10.745 -10.120  1.00  0.00     0.173 A 
ATOM    126  F   UNL     1      -1.431  -8.020  -8.051  1.00  0.00    -0.203 F 
ATOM    127  C   UNL     1      -1.024 -10.275  -7.513  1.00  0.00     0.198 A 
ATOM    128  C   UNL     1      -0.211 -11.784  -9.193  1.00  0.00     0.198 A 
ATOM    129  F   UNL     1       0.209 -11.004 -11.372  1.00  0.00    -0.203 F 
ATOM    130  F   UNL     1      -1.398 -10.040  -6.248  1.00  0.00    -0.200 F 
ATOM    131  C   UNL     1      -0.622 -11.548  -7.890  1.00  0.00     0.200 A 
ATOM    132  F   UNL     1       0.166 -13.016  -9.563  1.00  0.00    -0.200 F 
ATOM    133  F   UNL     1      -0.626 -12.546  -6.996  1.00  0.00    -0.200 F 
ENDBRANCH 103 123
BRANCH 106 134
ATOM    134  C   UNL     1      -0.854  -1.961 -16.354  1.00  0.00     0.064 A 
ATOM    135  C   UNL     1      -1.924  -1.057 -16.341  1.00  0.00     0.173 A 
ATOM    136  C   UNL     1       0.172  -1.748 -17.288  1.00  0.00     0.173 A 
ATOM    137  F   UNL     1      -2.938  -1.232 -15.481  1.00  0.00    -0.203 F 
ATOM    138  C   UNL     1      -1.968   0.017 -17.228  1.00  0.00     0.198 A 
ATOM    139  C   UNL     1       0.141  -0.659 -18.154  1.00  0.00     0.198 A 
ATOM    140  F   UNL     1       1.218  -2.585 -17.338  1.00  0.00    -0.203 F 
ATOM    141  F   UNL     1      -3.017   0.850 -17.216  1.00  0.00    -0.200 F 
ATOM    142  C   UNL     1      -0.931   0.220 -18.128  1.00  0.00     0.200 A 
ATOM    143  F   UNL     1       1.152  -0.457 -19.010  1.00  0.00    -0.200 F 
ATOM    144  F   UNL     1      -0.968   1.261 -18.970  1.00  0.00    -0.200 F 
ENDBRANCH 106 134
BRANCH 121 145
ATOM    145  C   UNL     1      -4.524  -7.836 -15.591  1.00  0.00     0.064 A 
ATOM    146  C   UNL     1      -4.301  -8.422 -16.846  1.00  0.00     0.173 A 
ATOM    147  C   UNL     1      -5.824  -7.879 -15.065  1.00  0.00     0.173 A 
ATOM    148  F   UNL     1      -3.078  -8.392 -17.397  1.00  0.00    -0.203 F 
ATOM    149  C   UNL     1      -5.344  -9.013 -17.554  1.00  0.00     0.198 A 
ATOM    150  C   UNL     1      -6.858  -8.495 -15.764  1.00  0.00     0.198 A 
ATOM    151  F   UNL     1      -6.086  -7.338 -13.866  1.00  0.00    -0.203 F 
ATOM    152  F   UNL     1      -5.117  -9.533 -18.768  1.00  0.00    -0.200 F 
ATOM    153  C   UNL     1      -6.619  -9.056 -17.009  1.00  0.00     0.200 A 
ATOM    154  F   UNL     1      -8.086  -8.547 -15.230  1.00  0.00    -0.200 F 
ATOM    155  F   UNL     1      -7.619  -9.636 -17.687  1.00  0.00    -0.200 F 
ENDBRANCH 121 145
ENDBRANCH  86  89
ENDBRANCH  76  79
ENDBRANCH  72  75
ENDBRANCH  69  72
ENDBRANCH  66  69
ENDBRANCH  63  66
ENDBRANCH  60  63
ENDBRANCH   1  60
TORSDOF 20
