REMARK SMILES NS(=O)(=O)c1ccc(/N=N/c2ccc(O)c(C(=O)NCCCCCCNC(=O)c3ccc(-c4c5nc(c(-c6c(F)c(F)c(F)c(F)c6F)c6ccc([nH]6)c(-c6c(F)c(F)c(F)c(F)c6F)c6nc(c(-c7c(F)c(F)c(F)c(F)c7F)c7ccc4[nH]7)C=C6)C=C5)cc3)c2)cc1
REMARK SMILES IDX 21 1 20 4 19 7 17 8 18 9 16 11 11 12 12 13 92 14 13 15 14 18
REMARK SMILES IDX 10 20 9 21 8 22 5 23 6 24 94 25 7 26 93 28 2 32 3 33 4 34
REMARK SMILES IDX 1 35 15 38 22 40 23 43 24 46 25 49 26 52 27 53 28 55 29 56
REMARK SMILES IDX 30 57 91 58 31 59 90 61 32 63 33 66 34 67 84 68 35 69 89 70
REMARK SMILES IDX 83 71 85 72 36 73 88 74 82 76 81 78 37 80 69 83 49 84 68 85
REMARK SMILES IDX 50 86 53 87 67 88 86 89 51 90 52 92 66 94 87 95 54 98 38 100
REMARK SMILES IDX 39 101 47 102 40 103 41 104 45 105 48 106 42 107 43 108
REMARK SMILES IDX 46 109 44 110 70 111 71 112 79 113 72 114 73 115 77 116
REMARK SMILES IDX 80 117 74 118 75 119 78 120 76 121 55 122 56 123 64 124
REMARK SMILES IDX 57 125 58 126 62 127 65 128 59 129 60 130 63 131 61 132
REMARK H PARENT 21 2 21 3 20 5 20 6 19 10 12 16 92 17 13 19 6 27 94 29 7 30
REMARK H PARENT 93 31 1 36 1 37 15 39 22 41 22 42 23 44 23 45 24 47 24 48
REMARK H PARENT 25 50 25 51 26 54 30 60 91 62 31 64 90 65 89 75 83 77 85 79
REMARK H PARENT 88 81 82 82 50 91 53 93 86 96 51 97 87 99
REMARK Flexibility Score: inf
ROOT
ATOM      1  C   UNL     1       6.696   7.158   3.012  1.00  0.00    -0.036 C 
ATOM      2  H   UNL     1       7.005   7.946   2.357  1.00  0.00     0.028 H 
ATOM      3  H   UNL     1       6.491   6.226   2.526  1.00  0.00     0.028 H 
ENDROOT
BRANCH   1   4
ATOM      4  C   UNL     1       5.375   7.577   3.648  1.00  0.00     0.018 C 
ATOM      5  H   UNL     1       4.650   7.691   2.869  1.00  0.00     0.049 H 
ATOM      6  H   UNL     1       5.117   6.810   4.349  1.00  0.00     0.049 H 
BRANCH   4   7
ATOM      7  N   UNL     1       5.438   8.820   4.397  1.00  0.00    -0.352 N 
ATOM      8  C   UNL     1       4.544   9.865   4.471  1.00  0.00     0.255 C 
ATOM      9  O   UNL     1       4.849  10.873   5.110  1.00  0.00    -0.269 OA
ATOM     10  H   UNL     1       6.250   8.934   4.941  1.00  0.00     0.163 HD
BRANCH   8  11
ATOM     11  C   UNL     1       3.253   9.866   3.736  1.00  0.00     0.083 A 
ATOM     12  C   UNL     1       1.462   8.654   2.608  1.00  0.00     0.087 A 
ATOM     13  C   UNL     1       1.001   9.860   2.071  1.00  0.00    -0.031 A 
ATOM     14  C   UNL     1       2.529   8.692   3.519  1.00  0.00    -0.018 A 
ATOM     15  C   UNL     1       1.626  11.068   2.397  1.00  0.00    -0.017 A 
ATOM     16  H   UNL     1       0.193   9.859   1.430  1.00  0.00     0.065 H 
ATOM     17  H   UNL     1       2.783   7.837   4.038  1.00  0.00     0.066 H 
ATOM     18  C   UNL     1       2.755  11.066   3.213  1.00  0.00     0.128 A 
ATOM     19  H   UNL     1       1.251  11.959   2.034  1.00  0.00     0.066 H 
BRANCH  12  20
ATOM     20  N   UNL     1       0.897   7.434   2.164  1.00  0.00    -0.151 NA
ATOM     21  N   UNL     1       1.799   6.573   2.038  1.00  0.00    -0.151 NA
BRANCH  21  22
ATOM     22  C   UNL     1       1.365   5.402   1.400  1.00  0.00     0.086 A 
ATOM     23  C   UNL     1       0.830   3.001   0.056  1.00  0.00     0.082 A 
ATOM     24  C   UNL     1       1.276   2.967   1.379  1.00  0.00    -0.040 A 
ATOM     25  C   UNL     1       0.643   4.222  -0.600  1.00  0.00    -0.040 A 
ATOM     26  C   UNL     1       1.545   4.169   2.042  1.00  0.00    -0.033 A 
ATOM     27  H   UNL     1       1.406   2.065   1.862  1.00  0.00     0.064 H 
ATOM     28  C   UNL     1       0.910   5.416   0.075  1.00  0.00    -0.033 A 
ATOM     29  H   UNL     1       0.310   4.241  -1.576  1.00  0.00     0.064 H 
ATOM     30  H   UNL     1       1.881   4.147   3.018  1.00  0.00     0.065 H 
ATOM     31  H   UNL     1       0.771   6.318  -0.408  1.00  0.00     0.065 H 
BRANCH  23  32
ATOM     32  S   UNL     1       0.551   1.511  -0.860  1.00  0.00     0.238 S 
ATOM     33  O   UNL     1       1.267   1.612  -2.109  1.00  0.00    -0.207 OA
ATOM     34  O   UNL     1      -0.854   1.192  -0.781  1.00  0.00    -0.207 OA
BRANCH  32  35
ATOM     35  N   UNL     1       1.351   0.319   0.014  1.00  0.00    -0.225 NA
ATOM     36  H   UNL     1       1.236  -0.580  -0.454  1.00  0.00     0.137 HD
ATOM     37  H   UNL     1       0.959   0.265   0.954  1.00  0.00     0.137 HD
ENDBRANCH  32  35
ENDBRANCH  23  32
ENDBRANCH  21  22
ENDBRANCH  12  20
BRANCH  18  38
ATOM     38  O   UNL     1       3.338  12.283   3.452  1.00  0.00    -0.507 OA
ATOM     39  H   UNL     1       2.969  13.060   3.081  1.00  0.00     0.293 HD
ENDBRANCH  18  38
ENDBRANCH   8  11
ENDBRANCH   4   7
ENDBRANCH   1   4
BRANCH   1  40
ATOM     40  C   UNL     1       7.857   6.866   3.963  1.00  0.00    -0.052 C 
ATOM     41  H   UNL     1       8.152   7.793   4.408  1.00  0.00     0.027 H 
ATOM     42  H   UNL     1       8.606   6.401   3.358  1.00  0.00     0.027 H 
BRANCH  40  43
ATOM     43  C   UNL     1       7.585   5.874   5.097  1.00  0.00    -0.052 C 
ATOM     44  H   UNL     1       6.919   6.346   5.789  1.00  0.00     0.027 H 
ATOM     45  H   UNL     1       8.546   5.633   5.499  1.00  0.00     0.027 H 
BRANCH  43  46
ATOM     46  C   UNL     1       6.965   4.534   4.698  1.00  0.00    -0.036 C 
ATOM     47  H   UNL     1       5.972   4.723   4.348  1.00  0.00     0.028 H 
ATOM     48  H   UNL     1       7.010   3.922   5.574  1.00  0.00     0.028 H 
BRANCH  46  49
ATOM     49  C   UNL     1       7.702   3.758   3.614  1.00  0.00     0.018 C 
ATOM     50  H   UNL     1       7.786   4.380   2.747  1.00  0.00     0.049 H 
ATOM     51  H   UNL     1       7.138   2.870   3.417  1.00  0.00     0.049 H 
BRANCH  49  52
ATOM     52  N   UNL     1       9.036   3.344   4.016  1.00  0.00    -0.352 N 
ATOM     53  C   UNL     1       9.613   2.099   3.954  1.00  0.00     0.251 C 
ATOM     54  H   UNL     1       9.606   4.057   4.384  1.00  0.00     0.163 HD
ATOM     55  O   UNL     1      10.712   1.897   4.460  1.00  0.00    -0.269 OA
BRANCH  53  56
ATOM     56  C   UNL     1       8.893   0.985   3.297  1.00  0.00     0.039 A 
ATOM     57  C   UNL     1       8.824  -0.252   3.945  1.00  0.00    -0.049 A 
ATOM     58  C   UNL     1       8.292   1.158   2.048  1.00  0.00    -0.049 A 
ATOM     59  C   UNL     1       8.099  -1.299   3.369  1.00  0.00    -0.053 A 
ATOM     60  H   UNL     1       9.308  -0.393   4.846  1.00  0.00     0.063 H 
ATOM     61  C   UNL     1       7.512   0.138   1.509  1.00  0.00    -0.053 A 
ATOM     62  H   UNL     1       8.425   2.038   1.527  1.00  0.00     0.063 H 
ATOM     63  C   UNL     1       7.412  -1.102   2.161  1.00  0.00    -0.014 A 
ATOM     64  H   UNL     1       8.068  -2.220   3.833  1.00  0.00     0.063 H 
ATOM     65  H   UNL     1       7.005   0.295   0.625  1.00  0.00     0.063 H 
BRANCH  63  66
ATOM     66  C   UNL     1       6.605  -2.180   1.534  1.00  0.00     0.031 A 
ATOM     67  C   UNL     1       7.013  -2.727   0.195  1.00  0.00     0.074 A 
ATOM     68  C   UNL     1       5.468  -2.602   2.120  1.00  0.00     0.049 A 
ATOM     69  N   UNL     1       6.374  -3.555  -0.593  1.00  0.00    -0.248 NA
ATOM     70  C   UNL     1       8.296  -2.253  -0.345  1.00  0.00    -0.034 C 
ATOM     71  C   UNL     1       4.953  -2.132   3.405  1.00  0.00    -0.036 A 
ATOM     72  N   UNL     1       4.530  -3.512   1.698  1.00  0.00    -0.354 N 
ATOM     73  C   UNL     1       7.165  -3.679  -1.728  1.00  0.00     0.074 A 
ATOM     74  C   UNL     1       8.304  -2.805  -1.549  1.00  0.00    -0.034 C 
ATOM     75  H   UNL     1       9.005  -1.647   0.098  1.00  0.00     0.065 H 
ATOM     76  C   UNL     1       3.799  -2.765   3.674  1.00  0.00    -0.036 A 
ATOM     77  H   UNL     1       5.403  -1.427   4.009  1.00  0.00     0.065 H 
ATOM     78  C   UNL     1       3.471  -3.652   2.562  1.00  0.00     0.049 A 
ATOM     79  H   UNL     1       4.609  -4.017   0.856  1.00  0.00     0.167 HD
ATOM     80  C   UNL     1       6.968  -4.465  -2.813  1.00  0.00     0.037 A 
ATOM     81  H   UNL     1       9.028  -2.635  -2.265  1.00  0.00     0.065 H 
ATOM     82  H   UNL     1       3.235  -2.643   4.530  1.00  0.00     0.065 H 
ATOM     83  C   UNL     1       2.355  -4.400   2.459  1.00  0.00     0.037 A 
ATOM     84  C   UNL     1       5.852  -5.358  -2.971  1.00  0.00     0.049 A 
ATOM     85  C   UNL     1       2.155  -5.262   1.241  1.00  0.00     0.074 A 
ATOM     86  C   UNL     1       5.585  -6.232  -4.011  1.00  0.00    -0.036 A 
ATOM     87  N   UNL     1       4.818  -5.496  -2.057  1.00  0.00    -0.354 N 
ATOM     88  N   UNL     1       2.926  -5.396   0.190  1.00  0.00    -0.248 NA
ATOM     89  C   UNL     1       0.932  -6.075   1.194  1.00  0.00    -0.034 C 
ATOM     90  C   UNL     1       4.367  -6.865  -3.747  1.00  0.00    -0.036 A 
ATOM     91  H   UNL     1       6.183  -6.388  -4.838  1.00  0.00     0.065 H 
ATOM     92  C   UNL     1       3.902  -6.427  -2.518  1.00  0.00     0.049 A 
ATOM     93  H   UNL     1       4.745  -5.005  -1.207  1.00  0.00     0.167 HD
ATOM     94  C   UNL     1       2.307  -6.339  -0.620  1.00  0.00     0.074 A 
ATOM     95  C   UNL     1       1.092  -6.740   0.058  1.00  0.00    -0.034 C 
ATOM     96  H   UNL     1       0.152  -6.118   1.869  1.00  0.00     0.065 H 
ATOM     97  H   UNL     1       3.894  -7.544  -4.364  1.00  0.00     0.065 H 
ATOM     98  C   UNL     1       2.711  -6.831  -1.816  1.00  0.00     0.037 A 
ATOM     99  H   UNL     1       0.435  -7.452  -0.297  1.00  0.00     0.065 H 
BRANCH  80 100
ATOM    100  C   UNL     1       7.981  -4.391  -3.919  1.00  0.00     0.064 A 
ATOM    101  C   UNL     1       9.283  -4.891  -3.761  1.00  0.00     0.173 A 
ATOM    102  C   UNL     1       7.637  -3.842  -5.164  1.00  0.00     0.173 A 
ATOM    103  F   UNL     1       9.667  -5.415  -2.588  1.00  0.00    -0.203 F 
ATOM    104  C   UNL     1      10.210  -4.816  -4.798  1.00  0.00     0.198 A 
ATOM    105  C   UNL     1       8.556  -3.799  -6.208  1.00  0.00     0.198 A 
ATOM    106  F   UNL     1       6.404  -3.356  -5.371  1.00  0.00    -0.203 F 
ATOM    107  F   UNL     1      11.463  -5.252  -4.605  1.00  0.00    -0.200 F 
ATOM    108  C   UNL     1       9.845  -4.277  -6.022  1.00  0.00     0.200 A 
ATOM    109  F   UNL     1       8.197  -3.291  -7.395  1.00  0.00    -0.200 F 
ATOM    110  F   UNL     1      10.736  -4.212  -7.020  1.00  0.00    -0.200 F 
ENDBRANCH  80 100
BRANCH  83 111
ATOM    111  C   UNL     1       1.345  -4.380   3.550  1.00  0.00     0.064 A 
ATOM    112  C   UNL     1       1.148  -5.502   4.368  1.00  0.00     0.173 A 
ATOM    113  C   UNL     1       0.554  -3.248   3.793  1.00  0.00     0.173 A 
ATOM    114  F   UNL     1       1.865  -6.616   4.159  1.00  0.00    -0.203 F 
ATOM    115  C   UNL     1       0.186  -5.499   5.375  1.00  0.00     0.198 A 
ATOM    116  C   UNL     1      -0.387  -3.236   4.821  1.00  0.00     0.198 A 
ATOM    117  F   UNL     1       0.703  -2.150   3.037  1.00  0.00    -0.203 F 
ATOM    118  F   UNL     1      -0.013  -6.601   6.112  1.00  0.00    -0.200 F 
ATOM    119  C   UNL     1      -0.577  -4.364   5.605  1.00  0.00     0.200 A 
ATOM    120  F   UNL     1      -1.111  -2.132   5.048  1.00  0.00    -0.200 F 
ATOM    121  F   UNL     1      -1.498  -4.359   6.577  1.00  0.00    -0.200 F 
ENDBRANCH  83 111
BRANCH  98 122
ATOM    122  C   UNL     1       1.869  -7.900  -2.449  1.00  0.00     0.064 A 
ATOM    123  C   UNL     1       0.632  -7.613  -3.043  1.00  0.00     0.173 A 
ATOM    124  C   UNL     1       2.346  -9.218  -2.525  1.00  0.00     0.173 A 
ATOM    125  F   UNL     1       0.128  -6.371  -2.983  1.00  0.00    -0.203 F 
ATOM    126  C   UNL     1      -0.103  -8.610  -3.678  1.00  0.00     0.198 A 
ATOM    127  C   UNL     1       1.621 -10.206  -3.185  1.00  0.00     0.198 A 
ATOM    128  F   UNL     1       3.527  -9.542  -1.976  1.00  0.00    -0.203 F 
ATOM    129  F   UNL     1      -1.299  -8.321  -4.210  1.00  0.00    -0.200 F 
ATOM    130  C   UNL     1       0.396  -9.902  -3.758  1.00  0.00     0.200 A 
ATOM    131  F   UNL     1       2.112 -11.450  -3.272  1.00  0.00    -0.200 F 
ATOM    132  F   UNL     1      -0.307 -10.855  -4.385  1.00  0.00    -0.200 F 
ENDBRANCH  98 122
ENDBRANCH  63  66
ENDBRANCH  53  56
ENDBRANCH  49  52
ENDBRANCH  46  49
ENDBRANCH  43  46
ENDBRANCH  40  43
ENDBRANCH   1  40
TORSDOF 18
