REMARK SMILES CCc1cccc2c3c([nH]c12)[C@](CC)(CC(=O)NCCCCCCNC(=O)c1ccc(-c2c4nc(c(-c5c(F)c(F)c(F)c(F)c5F)c5ccc([nH]5)c(-c5c(F)c(F)c(F)c(F)c5F)c5nc(c(-c6c(F)c(F)c(F)c(F)c6F)c6ccc2[nH]6)C=C5)C=C4)cc1)OCC3
REMARK SMILES IDX 21 1 20 4 19 7 18 10 16 11 17 12 15 14 12 17 3 18 4 19 11 20
REMARK SMILES IDX 5 21 7 23 10 24 6 25 8 27 9 28 93 31 92 32 91 35 2 38 1 41
REMARK SMILES IDX 13 45 14 48 22 52 23 55 24 58 25 61 26 62 27 64 28 65 29 66
REMARK SMILES IDX 90 67 30 68 89 70 31 72 32 75 33 76 83 77 34 78 88 79 82 80
REMARK SMILES IDX 84 81 35 82 87 83 81 85 80 87 36 89 68 92 48 93 67 94 49 95
REMARK SMILES IDX 52 96 66 97 85 98 50 99 51 101 65 103 86 104 53 107 37 109
REMARK SMILES IDX 38 110 46 111 39 112 40 113 44 114 47 115 41 116 42 117
REMARK SMILES IDX 45 118 43 119 69 120 70 121 78 122 71 123 72 124 76 125
REMARK SMILES IDX 79 126 73 127 74 128 77 129 75 130 54 131 55 132 63 133
REMARK SMILES IDX 56 134 57 135 61 136 64 137 58 138 59 139 62 140 60 141
REMARK H PARENT 21 2 21 3 20 5 20 6 19 8 19 9 18 13 15 15 15 16 4 22 5 26
REMARK H PARENT 10 29 6 30 93 33 93 34 92 36 92 37 2 39 2 40 1 42 1 43 1 44
REMARK H PARENT 13 46 13 47 14 49 14 50 14 51 22 53 22 54 23 56 23 57 24 59
REMARK H PARENT 24 60 25 63 29 69 90 71 30 73 89 74 88 84 82 86 84 88 87 90
REMARK H PARENT 81 91 49 100 52 102 85 105 50 106 86 108
REMARK Flexibility Score: inf
ROOT
ATOM      1  C   UNL     1      -0.819 -10.717   0.933  1.00  0.00    -0.052 C 
ATOM      2  H   UNL     1      -1.420 -10.065   1.531  1.00  0.00     0.027 H 
ATOM      3  H   UNL     1       0.231 -10.556   1.061  1.00  0.00     0.027 H 
ENDROOT
BRANCH   1   4
ATOM      4  C   UNL     1      -1.127 -10.429  -0.548  1.00  0.00    -0.036 C 
ATOM      5  H   UNL     1      -0.322  -9.843  -0.942  1.00  0.00     0.028 H 
ATOM      6  H   UNL     1      -1.238 -11.388  -1.010  1.00  0.00     0.028 H 
BRANCH   4   7
ATOM      7  C   UNL     1      -2.437  -9.679  -0.834  1.00  0.00     0.017 C 
ATOM      8  H   UNL     1      -2.345  -9.201  -1.787  1.00  0.00     0.049 H 
ATOM      9  H   UNL     1      -3.215 -10.412  -0.800  1.00  0.00     0.049 H 
BRANCH   7  10
ATOM     10  N   UNL     1      -2.792  -8.663   0.148  1.00  0.00    -0.356 N 
ATOM     11  C   UNL     1      -2.682  -7.300   0.142  1.00  0.00     0.223 C 
ATOM     12  O   UNL     1      -3.004  -6.694   1.165  1.00  0.00    -0.275 OA
ATOM     13  H   UNL     1      -3.188  -9.027   0.973  1.00  0.00     0.163 HD
BRANCH  11  14
ATOM     14  C   UNL     1      -2.248  -6.565  -1.103  1.00  0.00     0.061 C 
ATOM     15  H   UNL     1      -2.567  -7.151  -1.938  1.00  0.00     0.040 H 
ATOM     16  H   UNL     1      -2.692  -5.598  -0.992  1.00  0.00     0.040 H 
BRANCH  14  17
ATOM     17  C   UNL     1      -0.746  -6.255  -1.317  1.00  0.00     0.117 C 
ATOM     18  C   UNL     1       0.901  -1.798   0.516  1.00  0.00    -0.024 A 
ATOM     19  C   UNL     1       1.698  -1.503   1.648  1.00  0.00    -0.057 A 
ATOM     20  C   UNL     1       0.539  -3.155   0.362  1.00  0.00     0.049 A 
ATOM     21  C   UNL     1       2.102  -2.473   2.562  1.00  0.00    -0.061 A 
ATOM     22  H   UNL     1       1.992  -0.526   1.804  1.00  0.00     0.063 H 
ATOM     23  C   UNL     1       0.976  -4.140   1.246  1.00  0.00     0.003 A 
ATOM     24  N   UNL     1      -0.221  -3.801  -0.608  1.00  0.00    -0.356 N 
ATOM     25  C   UNL     1       1.751  -3.800   2.366  1.00  0.00    -0.053 A 
ATOM     26  H   UNL     1       2.664  -2.204   3.385  1.00  0.00     0.062 H 
ATOM     27  C   UNL     1       0.574  -5.377   0.710  1.00  0.00    -0.014 A 
ATOM     28  C   UNL     1      -0.193  -5.166  -0.415  1.00  0.00     0.052 A 
ATOM     29  H   UNL     1      -0.712  -3.347  -1.331  1.00  0.00     0.166 HD
ATOM     30  H   UNL     1       2.054  -4.527   3.033  1.00  0.00     0.063 H 
ATOM     31  C   UNL     1       1.001  -6.707   1.150  1.00  0.00    -0.002 C 
ATOM     32  C   UNL     1       0.428  -7.771   0.236  1.00  0.00     0.052 C 
ATOM     33  H   UNL     1       0.656  -6.877   2.148  1.00  0.00     0.034 H 
ATOM     34  H   UNL     1       2.069  -6.759   1.117  1.00  0.00     0.034 H 
ATOM     35  O   UNL     1       0.119  -7.401  -1.119  1.00  0.00    -0.368 OA
ATOM     36  H   UNL     1       1.138  -8.570   0.194  1.00  0.00     0.057 H 
ATOM     37  H   UNL     1      -0.520  -8.014   0.670  1.00  0.00     0.057 H 
BRANCH  18  38
ATOM     38  C   UNL     1       0.502  -0.742  -0.486  1.00  0.00    -0.029 C 
ATOM     39  H   UNL     1       0.926  -1.012  -1.430  1.00  0.00     0.031 H 
ATOM     40  H   UNL     1      -0.567  -0.723  -0.470  1.00  0.00     0.031 H 
BRANCH  38  41
ATOM     41  C   UNL     1       0.939   0.685  -0.172  1.00  0.00    -0.061 C 
ATOM     42  H   UNL     1       0.602   1.340  -0.948  1.00  0.00     0.023 H 
ATOM     43  H   UNL     1       2.007   0.726  -0.110  1.00  0.00     0.023 H 
ATOM     44  H   UNL     1       0.516   0.991   0.762  1.00  0.00     0.023 H 
ENDBRANCH  38  41
ENDBRANCH  18  38
BRANCH  17  45
ATOM     45  C   UNL     1      -0.536  -5.861  -2.817  1.00  0.00    -0.020 C 
ATOM     46  H   UNL     1       0.511  -5.703  -2.972  1.00  0.00     0.030 H 
ATOM     47  H   UNL     1      -1.133  -4.987  -2.977  1.00  0.00     0.030 H 
BRANCH  45  48
ATOM     48  C   UNL     1      -1.016  -6.893  -3.844  1.00  0.00    -0.062 C 
ATOM     49  H   UNL     1      -0.453  -7.795  -3.733  1.00  0.00     0.023 H 
ATOM     50  H   UNL     1      -0.877  -6.504  -4.831  1.00  0.00     0.023 H 
ATOM     51  H   UNL     1      -2.054  -7.098  -3.685  1.00  0.00     0.023 H 
ENDBRANCH  45  48
ENDBRANCH  17  45
ENDBRANCH  14  17
ENDBRANCH  11  14
ENDBRANCH   7  10
ENDBRANCH   4   7
ENDBRANCH   1   4
BRANCH   1  52
ATOM     52  C   UNL     1      -1.091 -12.147   1.371  1.00  0.00    -0.052 C 
ATOM     53  H   UNL     1      -2.123 -12.364   1.184  1.00  0.00     0.027 H 
ATOM     54  H   UNL     1      -0.836 -12.206   2.408  1.00  0.00     0.027 H 
BRANCH  52  55
ATOM     55  C   UNL     1      -0.244 -13.195   0.651  1.00  0.00    -0.036 C 
ATOM     56  H   UNL     1      -0.478 -13.152  -0.392  1.00  0.00     0.028 H 
ATOM     57  H   UNL     1      -0.484 -14.135   1.101  1.00  0.00     0.028 H 
BRANCH  55  58
ATOM     58  C   UNL     1       1.272 -13.019   0.807  1.00  0.00     0.018 C 
ATOM     59  H   UNL     1       1.507 -11.985   0.664  1.00  0.00     0.049 H 
ATOM     60  H   UNL     1       1.734 -13.650   0.077  1.00  0.00     0.049 H 
BRANCH  58  61
ATOM     61  N   UNL     1       1.782 -13.428   2.099  1.00  0.00    -0.352 N 
ATOM     62  C   UNL     1       2.013 -14.653   2.667  1.00  0.00     0.251 C 
ATOM     63  H   UNL     1       2.009 -12.673   2.689  1.00  0.00     0.163 HD
ATOM     64  O   UNL     1       2.576 -14.665   3.766  1.00  0.00    -0.269 OA
BRANCH  62  65
ATOM     65  C   UNL     1       1.552 -15.944   2.086  1.00  0.00     0.039 A 
ATOM     66  C   UNL     1       1.085 -16.114   0.786  1.00  0.00    -0.049 A 
ATOM     67  C   UNL     1       1.534 -17.054   2.951  1.00  0.00    -0.049 A 
ATOM     68  C   UNL     1       0.451 -17.287   0.416  1.00  0.00    -0.053 A 
ATOM     69  H   UNL     1       1.213 -15.360   0.093  1.00  0.00     0.063 H 
ATOM     70  C   UNL     1       0.970 -18.265   2.559  1.00  0.00    -0.053 A 
ATOM     71  H   UNL     1       1.947 -16.968   3.893  1.00  0.00     0.063 H 
ATOM     72  C   UNL     1       0.372 -18.359   1.310  1.00  0.00    -0.014 A 
ATOM     73  H   UNL     1       0.033 -17.371  -0.524  1.00  0.00     0.063 H 
ATOM     74  H   UNL     1       0.995 -19.081   3.190  1.00  0.00     0.063 H 
BRANCH  72  75
ATOM     75  C   UNL     1      -0.237 -19.584   0.798  1.00  0.00     0.031 A 
ATOM     76  C   UNL     1       0.353 -20.044  -0.488  1.00  0.00     0.074 A 
ATOM     77  C   UNL     1      -1.224 -20.273   1.405  1.00  0.00     0.049 A 
ATOM     78  N   UNL     1      -0.225 -20.082  -1.643  1.00  0.00    -0.248 NA
ATOM     79  C   UNL     1       1.792 -20.344  -0.530  1.00  0.00    -0.034 C 
ATOM     80  C   UNL     1      -1.730 -20.102   2.768  1.00  0.00    -0.036 A 
ATOM     81  N   UNL     1      -1.941 -21.342   0.941  1.00  0.00    -0.354 N 
ATOM     82  C   UNL     1       0.721 -20.590  -2.530  1.00  0.00     0.074 A 
ATOM     83  C   UNL     1       1.976 -20.599  -1.828  1.00  0.00    -0.034 C 
ATOM     84  H   UNL     1       2.479 -20.356   0.240  1.00  0.00     0.065 H 
ATOM     85  C   UNL     1      -2.490 -21.170   3.099  1.00  0.00    -0.036 A 
ATOM     86  H   UNL     1      -1.538 -19.293   3.379  1.00  0.00     0.065 H 
ATOM     87  C   UNL     1      -2.658 -22.009   1.925  1.00  0.00     0.049 A 
ATOM     88  H   UNL     1      -1.947 -21.615  -0.005  1.00  0.00     0.167 HD
ATOM     89  C   UNL     1       0.323 -21.199  -3.680  1.00  0.00     0.037 A 
ATOM     90  H   UNL     1       2.893 -20.777  -2.267  1.00  0.00     0.065 H 
ATOM     91  H   UNL     1      -2.886 -21.358   4.034  1.00  0.00     0.065 H 
ATOM     92  C   UNL     1      -3.317 -23.185   1.790  1.00  0.00     0.037 A 
ATOM     93  C   UNL     1      -1.040 -20.863  -3.996  1.00  0.00     0.049 A 
ATOM     94  C   UNL     1      -3.666 -23.346   0.361  1.00  0.00     0.074 A 
ATOM     95  C   UNL     1      -1.714 -19.820  -4.589  1.00  0.00    -0.036 A 
ATOM     96  N   UNL     1      -1.960 -21.607  -3.312  1.00  0.00    -0.354 N 
ATOM     97  N   UNL     1      -4.524 -22.587  -0.262  1.00  0.00    -0.248 NA
ATOM     98  C   UNL     1      -2.835 -24.188  -0.495  1.00  0.00    -0.034 C 
ATOM     99  C   UNL     1      -3.061 -19.892  -4.118  1.00  0.00    -0.036 A 
ATOM    100  H   UNL     1      -1.324 -19.124  -5.244  1.00  0.00     0.065 H 
ATOM    101  C   UNL     1      -3.180 -20.992  -3.274  1.00  0.00     0.049 A 
ATOM    102  H   UNL     1      -1.767 -22.479  -2.897  1.00  0.00     0.167 HD
ATOM    103  C   UNL     1      -4.049 -22.536  -1.554  1.00  0.00     0.074 A 
ATOM    104  C   UNL     1      -3.145 -23.670  -1.686  1.00  0.00    -0.034 C 
ATOM    105  H   UNL     1      -2.194 -24.959  -0.251  1.00  0.00     0.065 H 
ATOM    106  H   UNL     1      -3.820 -19.237  -4.363  1.00  0.00     0.065 H 
ATOM    107  C   UNL     1      -4.155 -21.394  -2.289  1.00  0.00     0.037 A 
ATOM    108  H   UNL     1      -2.789 -24.028  -2.586  1.00  0.00     0.065 H 
BRANCH  89 109
ATOM    109  C   UNL     1       0.942 -22.471  -4.225  1.00  0.00     0.064 A 
ATOM    110  C   UNL     1       0.457 -23.002  -5.441  1.00  0.00     0.173 A 
ATOM    111  C   UNL     1       1.726 -23.355  -3.453  1.00  0.00     0.173 A 
ATOM    112  F   UNL     1      -0.317 -22.263  -6.250  1.00  0.00    -0.203 F 
ATOM    113  C   UNL     1       0.677 -24.334  -5.809  1.00  0.00     0.198 A 
ATOM    114  C   UNL     1       1.983 -24.668  -3.847  1.00  0.00     0.198 A 
ATOM    115  F   UNL     1       2.178 -23.031  -2.236  1.00  0.00    -0.203 F 
ATOM    116  F   UNL     1       0.096 -24.826  -6.912  1.00  0.00    -0.200 F 
ATOM    117  C   UNL     1       1.434 -25.167  -5.008  1.00  0.00     0.200 A 
ATOM    118  F   UNL     1       2.698 -25.468  -3.042  1.00  0.00    -0.200 F 
ATOM    119  F   UNL     1       1.597 -26.458  -5.326  1.00  0.00    -0.200 F 
ENDBRANCH  89 109
BRANCH  92 120
ATOM    120  C   UNL     1      -3.413 -24.312   2.748  1.00  0.00     0.064 A 
ATOM    121  C   UNL     1      -4.313 -25.369   2.520  1.00  0.00     0.173 A 
ATOM    122  C   UNL     1      -2.411 -24.540   3.710  1.00  0.00     0.173 A 
ATOM    123  F   UNL     1      -5.284 -25.243   1.603  1.00  0.00    -0.203 F 
ATOM    124  C   UNL     1      -4.173 -26.603   3.161  1.00  0.00     0.198 A 
ATOM    125  C   UNL     1      -2.278 -25.771   4.355  1.00  0.00     0.198 A 
ATOM    126  F   UNL     1      -1.478 -23.612   3.966  1.00  0.00    -0.203 F 
ATOM    127  F   UNL     1      -4.995 -27.615   2.848  1.00  0.00    -0.200 F 
ATOM    128  C   UNL     1      -3.143 -26.809   4.063  1.00  0.00     0.200 A 
ATOM    129  F   UNL     1      -1.260 -25.968   5.204  1.00  0.00    -0.200 F 
ATOM    130  F   UNL     1      -2.956 -28.017   4.613  1.00  0.00    -0.200 F 
ENDBRANCH  92 120
BRANCH 107 131
ATOM    131  C   UNL     1      -5.240 -20.435  -1.924  1.00  0.00     0.064 A 
ATOM    132  C   UNL     1      -5.277 -19.692  -0.734  1.00  0.00     0.173 A 
ATOM    133  C   UNL     1      -6.250 -20.207  -2.868  1.00  0.00     0.173 A 
ATOM    134  F   UNL     1      -4.306 -19.807   0.182  1.00  0.00    -0.203 F 
ATOM    135  C   UNL     1      -6.303 -18.780  -0.492  1.00  0.00     0.198 A 
ATOM    136  C   UNL     1      -7.252 -19.272  -2.639  1.00  0.00     0.198 A 
ATOM    137  F   UNL     1      -6.239 -20.868  -4.036  1.00  0.00    -0.203 F 
ATOM    138  F   UNL     1      -6.330 -18.087   0.656  1.00  0.00    -0.200 F 
ATOM    139  C   UNL     1      -7.284 -18.565  -1.448  1.00  0.00     0.200 A 
ATOM    140  F   UNL     1      -8.173 -19.039  -3.584  1.00  0.00    -0.200 F 
ATOM    141  F   UNL     1      -8.248 -17.659  -1.233  1.00  0.00    -0.200 F 
ENDBRANCH 107 131
ENDBRANCH  72  75
ENDBRANCH  62  65
ENDBRANCH  58  61
ENDBRANCH  55  58
ENDBRANCH  52  55
ENDBRANCH   1  52
TORSDOF 18
