REMARK SMILES Cc1c(C)c2c(c(C)c1O)CC[C@@](C)(C(=O)NCCCCCCNC(=O)c1ccc(-c3c4nc(c(-c5c(F)c(F)c(F)c(F)c5F)c5ccc([nH]5)c(-c5c(F)c(F)c(F)c(F)c5F)c5nc(c(-c6c(F)c(F)c(F)c(F)c6F)c6ccc3[nH]6)C=C5)C=C4)cc1)O2
REMARK SMILES IDX 21 1 20 4 19 7 18 10 17 13 15 14 16 15 13 17 2 18 3 19 9 20
REMARK SMILES IDX 5 21 7 22 6 23 90 24 11 25 12 26 1 31 4 35 10 39 8 41 14 45
REMARK SMILES IDX 22 49 23 52 24 55 25 56 26 58 27 59 28 60 89 61 29 62 88 64
REMARK SMILES IDX 30 66 31 69 32 70 82 71 33 72 87 73 81 74 83 75 34 76 86 77
REMARK SMILES IDX 80 79 79 81 35 83 67 86 47 87 66 88 48 89 51 90 65 91 84 92
REMARK SMILES IDX 49 93 50 95 64 97 85 98 52 101 36 103 37 104 45 105 38 106
REMARK SMILES IDX 39 107 43 108 46 109 40 110 41 111 44 112 42 113 68 114
REMARK SMILES IDX 69 115 77 116 70 117 71 118 75 119 78 120 72 121 73 122
REMARK SMILES IDX 76 123 74 124 53 125 54 126 62 127 55 128 56 129 60 130
REMARK SMILES IDX 63 131 57 132 58 133 61 134 59 135
REMARK H PARENT 21 2 21 3 20 5 20 6 19 8 19 9 18 11 18 12 17 16 11 27 11 28
REMARK H PARENT 12 29 12 30 1 32 1 33 1 34 4 36 4 37 4 38 10 40 8 42 8 43 8 44
REMARK H PARENT 14 46 14 47 14 48 22 50 22 51 23 53 23 54 24 57 28 63 89 65
REMARK H PARENT 29 67 88 68 87 78 81 80 83 82 86 84 80 85 48 94 51 96 84 99
REMARK H PARENT 49 100 85 102
REMARK Flexibility Score: inf
ROOT
ATOM      1  C   UNL     1       0.132 -12.063   0.713  1.00  0.00    -0.052 C 
ATOM      2  H   UNL     1       0.282 -11.505   1.614  1.00  0.00     0.027 H 
ATOM      3  H   UNL     1       0.600 -13.025   0.727  1.00  0.00     0.027 H 
ENDROOT
BRANCH   1   4
ATOM      4  C   UNL     1       0.778 -11.287  -0.440  1.00  0.00    -0.052 C 
ATOM      5  H   UNL     1       1.792 -11.075  -0.172  1.00  0.00     0.027 H 
ATOM      6  H   UNL     1       0.692 -11.907  -1.308  1.00  0.00     0.027 H 
BRANCH   4   7
ATOM      7  C   UNL     1       0.090  -9.964  -0.784  1.00  0.00    -0.036 C 
ATOM      8  H   UNL     1       0.639  -9.492  -1.572  1.00  0.00     0.028 H 
ATOM      9  H   UNL     1      -0.914 -10.198  -1.071  1.00  0.00     0.028 H 
BRANCH   7  10
ATOM     10  C   UNL     1       0.005  -8.995   0.393  1.00  0.00     0.017 C 
ATOM     11  H   UNL     1      -0.695  -8.222   0.157  1.00  0.00     0.049 H 
ATOM     12  H   UNL     1      -0.310  -9.542   1.257  1.00  0.00     0.049 H 
BRANCH  10  13
ATOM     13  N   UNL     1       1.296  -8.394   0.678  1.00  0.00    -0.353 N 
ATOM     14  C   UNL     1       1.724  -7.094   0.604  1.00  0.00     0.263 C 
ATOM     15  O   UNL     1       2.910  -6.889   0.877  1.00  0.00    -0.270 OA
ATOM     16  H   UNL     1       1.985  -9.032   0.975  1.00  0.00     0.163 HD
BRANCH  14  17
ATOM     17  C   UNL     1       0.740  -5.954   0.223  1.00  0.00     0.184 C 
ATOM     18  C   UNL     1       0.550  -1.196  -0.442  1.00  0.00    -0.002 A 
ATOM     19  C   UNL     1       1.234  -2.339   0.041  1.00  0.00    -0.002 A 
ATOM     20  C   UNL     1      -0.613  -1.376  -1.217  1.00  0.00     0.122 A 
ATOM     21  C   UNL     1       0.772  -3.619  -0.316  1.00  0.00     0.127 A 
ATOM     22  C   UNL     1      -1.068  -2.649  -1.590  1.00  0.00    -0.002 A 
ATOM     23  C   UNL     1      -0.343  -3.778  -1.163  1.00  0.00     0.001 A 
ATOM     24  O   UNL     1       1.454  -4.696   0.213  1.00  0.00    -0.477 OA
ATOM     25  C   UNL     1      -0.792  -5.154  -1.571  1.00  0.00    -0.019 C 
ATOM     26  C   UNL     1       0.253  -6.183  -1.211  1.00  0.00     0.000 C 
ATOM     27  H   UNL     1      -0.954  -5.172  -2.629  1.00  0.00     0.032 H 
ATOM     28  H   UNL     1      -1.699  -5.388  -1.054  1.00  0.00     0.032 H 
ATOM     29  H   UNL     1       1.081  -6.098  -1.884  1.00  0.00     0.032 H 
ATOM     30  H   UNL     1      -0.175  -7.160  -1.285  1.00  0.00     0.032 H 
BRANCH  18  31
ATOM     31  C   UNL     1       1.030   0.186  -0.076  1.00  0.00    -0.036 C 
ATOM     32  H   UNL     1       1.922   0.110   0.510  1.00  0.00     0.028 H 
ATOM     33  H   UNL     1       0.274   0.688   0.489  1.00  0.00     0.028 H 
ATOM     34  H   UNL     1       1.236   0.740  -0.969  1.00  0.00     0.028 H 
ENDBRANCH  18  31
BRANCH  19  35
ATOM     35  C   UNL     1       2.445  -2.191   0.931  1.00  0.00    -0.036 C 
ATOM     36  H   UNL     1       2.645  -1.153   1.092  1.00  0.00     0.028 H 
ATOM     37  H   UNL     1       3.291  -2.649   0.462  1.00  0.00     0.028 H 
ATOM     38  H   UNL     1       2.257  -2.668   1.871  1.00  0.00     0.028 H 
ENDBRANCH  19  35
BRANCH  20  39
ATOM     39  O   UNL     1      -1.362  -0.309  -1.642  1.00  0.00    -0.507 OA
ATOM     40  H   UNL     1      -1.102   0.563  -1.420  1.00  0.00     0.293 HD
ENDBRANCH  20  39
BRANCH  22  41
ATOM     41  C   UNL     1      -2.317  -2.822  -2.419  1.00  0.00    -0.036 C 
ATOM     42  H   UNL     1      -2.488  -3.864  -2.593  1.00  0.00     0.028 H 
ATOM     43  H   UNL     1      -2.195  -2.319  -3.356  1.00  0.00     0.028 H 
ATOM     44  H   UNL     1      -3.152  -2.406  -1.897  1.00  0.00     0.028 H 
ENDBRANCH  22  41
BRANCH  17  45
ATOM     45  C   UNL     1      -0.307  -5.857   1.354  1.00  0.00    -0.016 C 
ATOM     46  H   UNL     1      -0.865  -6.768   1.403  1.00  0.00     0.028 H 
ATOM     47  H   UNL     1      -0.972  -5.042   1.156  1.00  0.00     0.028 H 
ATOM     48  H   UNL     1       0.190  -5.692   2.287  1.00  0.00     0.028 H 
ENDBRANCH  17  45
ENDBRANCH  14  17
ENDBRANCH  10  13
ENDBRANCH   7  10
ENDBRANCH   4   7
ENDBRANCH   1   4
BRANCH   1  49
ATOM     49  C   UNL     1      -1.369 -12.318   0.556  1.00  0.00    -0.036 C 
ATOM     50  H   UNL     1      -1.871 -11.373   0.550  1.00  0.00     0.028 H 
ATOM     51  H   UNL     1      -1.663 -12.938   1.377  1.00  0.00     0.028 H 
BRANCH  49  52
ATOM     52  C   UNL     1      -1.746 -13.068  -0.715  1.00  0.00     0.018 C 
ATOM     53  H   UNL     1      -1.402 -12.510  -1.561  1.00  0.00     0.049 H 
ATOM     54  H   UNL     1      -2.811 -13.177  -0.733  1.00  0.00     0.049 H 
BRANCH  52  55
ATOM     55  N   UNL     1      -1.156 -14.396  -0.756  1.00  0.00    -0.352 N 
ATOM     56  C   UNL     1      -1.773 -15.616  -0.843  1.00  0.00     0.251 C 
ATOM     57  H   UNL     1      -0.172 -14.422  -0.717  1.00  0.00     0.163 HD
ATOM     58  O   UNL     1      -1.140 -16.651  -0.651  1.00  0.00    -0.269 OA
BRANCH  56  59
ATOM     59  C   UNL     1      -3.215 -15.681  -1.152  1.00  0.00     0.039 A 
ATOM     60  C   UNL     1      -4.031 -16.526  -0.399  1.00  0.00    -0.049 A 
ATOM     61  C   UNL     1      -3.756 -14.905  -2.183  1.00  0.00    -0.049 A 
ATOM     62  C   UNL     1      -5.404 -16.555  -0.646  1.00  0.00    -0.053 A 
ATOM     63  H   UNL     1      -3.623 -17.125   0.335  1.00  0.00     0.063 H 
ATOM     64  C   UNL     1      -5.132 -14.875  -2.374  1.00  0.00    -0.053 A 
ATOM     65  H   UNL     1      -3.135 -14.358  -2.799  1.00  0.00     0.063 H 
ATOM     66  C   UNL     1      -5.967 -15.708  -1.615  1.00  0.00    -0.014 A 
ATOM     67  H   UNL     1      -6.008 -17.200  -0.114  1.00  0.00     0.063 H 
ATOM     68  H   UNL     1      -5.540 -14.238  -3.075  1.00  0.00     0.063 H 
BRANCH  66  69
ATOM     69  C   UNL     1      -7.429 -15.699  -1.863  1.00  0.00     0.031 A 
ATOM     70  C   UNL     1      -7.971 -16.159  -3.185  1.00  0.00     0.074 A 
ATOM     71  C   UNL     1      -8.263 -15.239  -0.911  1.00  0.00     0.049 A 
ATOM     72  N   UNL     1      -9.211 -16.202  -3.601  1.00  0.00    -0.248 NA
ATOM     73  C   UNL     1      -6.987 -16.608  -4.182  1.00  0.00    -0.034 C 
ATOM     74  C   UNL     1      -7.849 -14.733   0.397  1.00  0.00    -0.036 A 
ATOM     75  N   UNL     1      -9.630 -15.124  -0.898  1.00  0.00    -0.354 N 
ATOM     76  C   UNL     1      -9.153 -16.679  -4.903  1.00  0.00     0.074 A 
ATOM     77  C   UNL     1      -7.755 -16.844  -5.234  1.00  0.00    -0.034 C 
ATOM     78  H   UNL     1      -5.964 -16.711  -4.087  1.00  0.00     0.065 H 
ATOM     79  C   UNL     1      -8.941 -14.395   1.101  1.00  0.00    -0.036 A 
ATOM     80  H   UNL     1      -6.875 -14.648   0.726  1.00  0.00     0.065 H 
ATOM     81  C   UNL     1     -10.127 -14.624   0.280  1.00  0.00     0.049 A 
ATOM     82  H   UNL     1     -10.200 -15.376  -1.660  1.00  0.00     0.167 HD
ATOM     83  C   UNL     1     -10.177 -16.983  -5.736  1.00  0.00     0.037 A 
ATOM     84  H   UNL     1      -7.403 -17.111  -6.167  1.00  0.00     0.065 H 
ATOM     85  H   UNL     1      -8.942 -14.032   2.067  1.00  0.00     0.065 H 
ATOM     86  C   UNL     1     -11.397 -14.378   0.656  1.00  0.00     0.037 A 
ATOM     87  C   UNL     1     -11.566 -16.827  -5.394  1.00  0.00     0.049 A 
ATOM     88  C   UNL     1     -12.518 -14.688  -0.298  1.00  0.00     0.074 A 
ATOM     89  C   UNL     1     -12.680 -17.150  -6.148  1.00  0.00    -0.036 A 
ATOM     90  N   UNL     1     -12.031 -16.297  -4.199  1.00  0.00    -0.354 N 
ATOM     91  N   UNL     1     -12.458 -15.199  -1.504  1.00  0.00    -0.248 NA
ATOM     92  C   UNL     1     -13.882 -14.390   0.161  1.00  0.00    -0.034 C 
ATOM     93  C   UNL     1     -13.817 -16.760  -5.435  1.00  0.00    -0.036 A 
ATOM     94  H   UNL     1     -12.672 -17.601  -7.077  1.00  0.00     0.065 H 
ATOM     95  C   UNL     1     -13.416 -16.251  -4.209  1.00  0.00     0.049 A 
ATOM     96  H   UNL     1     -11.462 -15.997  -3.454  1.00  0.00     0.167 HD
ATOM     97  C   UNL     1     -13.771 -15.302  -1.942  1.00  0.00     0.074 A 
ATOM     98  C   UNL     1     -14.608 -14.816  -0.864  1.00  0.00    -0.034 C 
ATOM     99  H   UNL     1     -14.192 -13.963   1.047  1.00  0.00     0.065 H 
ATOM    100  H   UNL     1     -14.791 -16.837  -5.766  1.00  0.00     0.065 H 
ATOM    101  C   UNL     1     -14.238 -15.758  -3.131  1.00  0.00     0.037 A 
ATOM    102  H   UNL     1     -15.640 -14.802  -0.891  1.00  0.00     0.065 H 
BRANCH  83 103
ATOM    103  C   UNL     1      -9.829 -17.516  -7.097  1.00  0.00     0.064 A 
ATOM    104  C   UNL     1      -9.244 -18.781  -7.264  1.00  0.00     0.173 A 
ATOM    105  C   UNL     1     -10.110 -16.768  -8.250  1.00  0.00     0.173 A 
ATOM    106  F   UNL     1      -8.943 -19.533  -6.194  1.00  0.00    -0.203 F 
ATOM    107  C   UNL     1      -8.924 -19.262  -8.531  1.00  0.00     0.198 A 
ATOM    108  C   UNL     1      -9.821 -17.267  -9.517  1.00  0.00     0.198 A 
ATOM    109  F   UNL     1     -10.673 -15.554  -8.149  1.00  0.00    -0.203 F 
ATOM    110  F   UNL     1      -8.314 -20.449  -8.660  1.00  0.00    -0.200 F 
ATOM    111  C   UNL     1      -9.220 -18.509  -9.656  1.00  0.00     0.200 A 
ATOM    112  F   UNL     1     -10.122 -16.545 -10.605  1.00  0.00    -0.200 F 
ATOM    113  F   UNL     1      -8.919 -18.977 -10.875  1.00  0.00    -0.200 F 
ENDBRANCH  83 103
BRANCH  86 114
ATOM    114  C   UNL     1     -11.662 -13.853   2.021  1.00  0.00     0.064 A 
ATOM    115  C   UNL     1     -12.243 -14.668   3.001  1.00  0.00     0.173 A 
ATOM    116  C   UNL     1     -11.284 -12.554   2.391  1.00  0.00     0.173 A 
ATOM    117  F   UNL     1     -12.638 -15.912   2.690  1.00  0.00    -0.203 F 
ATOM    118  C   UNL     1     -12.432 -14.206   4.302  1.00  0.00     0.198 A 
ATOM    119  C   UNL     1     -11.449 -12.102   3.699  1.00  0.00     0.198 A 
ATOM    120  F   UNL     1     -10.718 -11.737   1.491  1.00  0.00    -0.203 F 
ATOM    121  F   UNL     1     -13.006 -15.000   5.216  1.00  0.00    -0.200 F 
ATOM    122  C   UNL     1     -12.024 -12.928   4.653  1.00  0.00     0.200 A 
ATOM    123  F   UNL     1     -11.036 -10.873   4.037  1.00  0.00    -0.200 F 
ATOM    124  F   UNL     1     -12.183 -12.493   5.910  1.00  0.00    -0.200 F 
ENDBRANCH  86 114
BRANCH 101 125
ATOM    125  C   UNL     1     -15.725 -15.761  -3.341  1.00  0.00     0.064 A 
ATOM    126  C   UNL     1     -16.441 -14.570  -3.530  1.00  0.00     0.173 A 
ATOM    127  C   UNL     1     -16.428 -16.973  -3.441  1.00  0.00     0.173 A 
ATOM    128  F   UNL     1     -15.819 -13.386  -3.433  1.00  0.00    -0.203 F 
ATOM    129  C   UNL     1     -17.808 -14.592  -3.799  1.00  0.00     0.198 A 
ATOM    130  C   UNL     1     -17.786 -16.991  -3.742  1.00  0.00     0.198 A 
ATOM    131  F   UNL     1     -15.788 -18.141  -3.277  1.00  0.00    -0.203 F 
ATOM    132  F   UNL     1     -18.478 -13.440  -3.943  1.00  0.00    -0.200 F 
ATOM    133  C   UNL     1     -18.476 -15.801  -3.917  1.00  0.00     0.200 A 
ATOM    134  F   UNL     1     -18.426 -18.162  -3.875  1.00  0.00    -0.200 F 
ATOM    135  F   UNL     1     -19.786 -15.820  -4.199  1.00  0.00    -0.200 F 
ENDBRANCH 101 125
ENDBRANCH  66  69
ENDBRANCH  56  59
ENDBRANCH  52  55
ENDBRANCH  49  52
ENDBRANCH   1  49
TORSDOF 18
