REMARK SMILES O=C1O[C@@H](c2ccc(O)c(O)c2)[C@H](C(=O)NCCCCCCNC(=O)c2ccc(-c3c4nc(c(-c5c(F)c(F)c(F)c(F)c5F)c5ccc([nH]5)c(-c5c(F)c(F)c(F)c(F)c5F)c5nc(c(-c6c(F)c(F)c(F)c(F)c6F)c6ccc3[nH]6)C=C5)C=C4)cc2)/C1=C\c1ccc(O)c(O)c1
REMARK SMILES IDX 19 1 18 4 17 7 16 10 14 11 15 12 13 14 1 15 2 16 3 17 89 18
REMARK SMILES IDX 4 19 90 20 5 24 6 25 12 26 7 27 10 29 8 31 11 33 9 35 91 37
REMARK SMILES IDX 92 38 98 39 93 40 96 42 94 44 97 46 95 48 20 50 21 53 22 56
REMARK SMILES IDX 23 59 24 60 25 62 26 63 27 64 88 65 28 66 87 68 29 70 30 73
REMARK SMILES IDX 31 74 81 75 32 76 86 77 80 78 82 79 33 80 85 81 79 83 78 85
REMARK SMILES IDX 34 87 66 90 46 91 65 92 47 93 50 94 64 95 83 96 48 97 49 99
REMARK SMILES IDX 63 101 84 102 51 105 35 107 36 108 44 109 37 110 38 111
REMARK SMILES IDX 42 112 45 113 39 114 40 115 43 116 41 117 67 118 68 119
REMARK SMILES IDX 76 120 69 121 70 122 74 123 77 124 71 125 72 126 75 127
REMARK SMILES IDX 73 128 52 129 53 130 61 131 54 132 55 133 59 134 62 135
REMARK SMILES IDX 56 136 57 137 60 138 58 139
REMARK H PARENT 19 2 19 3 18 5 18 6 17 8 17 9 16 13 4 21 13 22 90 23 6 28
REMARK H PARENT 12 30 7 32 11 34 9 36 92 41 98 43 93 45 97 47 95 49 20 51
REMARK H PARENT 20 52 21 54 21 55 22 57 22 58 23 61 27 67 88 69 28 71 87 72
REMARK H PARENT 86 82 80 84 82 86 85 88 79 89 47 98 50 100 83 103 48 104
REMARK H PARENT 84 106
REMARK Flexibility Score: inf
ROOT
ATOM      1  C   UNL     1       5.684   1.832   3.099  1.00  0.00    -0.052 C 
ATOM      2  H   UNL     1       4.917   2.283   3.693  1.00  0.00     0.027 H 
ATOM      3  H   UNL     1       6.571   2.425   3.024  1.00  0.00     0.027 H 
ENDROOT
BRANCH   1   4
ATOM      4  C   UNL     1       5.153   1.681   1.673  1.00  0.00    -0.036 C 
ATOM      5  H   UNL     1       4.795   2.635   1.348  1.00  0.00     0.028 H 
ATOM      6  H   UNL     1       5.966   1.316   1.082  1.00  0.00     0.028 H 
BRANCH   4   7
ATOM      7  C   UNL     1       4.022   0.673   1.525  1.00  0.00     0.017 C 
ATOM      8  H   UNL     1       3.826   0.535   0.483  1.00  0.00     0.049 H 
ATOM      9  H   UNL     1       4.341  -0.230   2.002  1.00  0.00     0.049 H 
BRANCH   7  10
ATOM     10  N   UNL     1       2.794   1.083   2.171  1.00  0.00    -0.355 N 
ATOM     11  C   UNL     1       1.512   1.127   1.699  1.00  0.00     0.231 C 
ATOM     12  O   UNL     1       0.633   1.381   2.523  1.00  0.00    -0.274 OA
ATOM     13  H   UNL     1       2.899   1.379   3.104  1.00  0.00     0.163 HD
BRANCH  11  14
ATOM     14  C   UNL     1       1.225   0.963   0.201  1.00  0.00     0.111 C 
ATOM     15  O   UNL     1      -1.854  -0.821  -0.130  1.00  0.00    -0.247 OA
ATOM     16  C   UNL     1      -0.701  -0.427  -0.138  1.00  0.00     0.335 C 
ATOM     17  O   UNL     1       0.396  -1.216  -0.242  1.00  0.00    -0.453 OA
ATOM     18  C   UNL     1      -0.245   0.972  -0.058  1.00  0.00     0.054 C 
ATOM     19  C   UNL     1       1.591  -0.421  -0.328  1.00  0.00     0.143 C 
ATOM     20  C   UNL     1      -1.118   1.975  -0.232  1.00  0.00    -0.043 C 
ATOM     21  H   UNL     1       2.385  -0.817   0.270  1.00  0.00     0.081 H 
ATOM     22  H   UNL     1       1.781   1.756  -0.255  1.00  0.00     0.050 H 
ATOM     23  H   UNL     1      -2.104   1.730  -0.411  1.00  0.00     0.063 H 
BRANCH  19  24
ATOM     24  C   UNL     1       2.183  -0.440  -1.742  1.00  0.00    -0.002 A 
ATOM     25  C   UNL     1       3.221   0.444  -2.118  1.00  0.00    -0.051 A 
ATOM     26  C   UNL     1       1.778  -1.403  -2.680  1.00  0.00    -0.009 A 
ATOM     27  C   UNL     1       3.850   0.358  -3.365  1.00  0.00    -0.016 A 
ATOM     28  H   UNL     1       3.525   1.172  -1.453  1.00  0.00     0.063 H 
ATOM     29  C   UNL     1       2.391  -1.467  -3.927  1.00  0.00     0.157 A 
ATOM     30  H   UNL     1       1.023  -2.066  -2.443  1.00  0.00     0.067 H 
ATOM     31  C   UNL     1       3.428  -0.604  -4.266  1.00  0.00     0.157 A 
ATOM     32  H   UNL     1       4.618   1.003  -3.610  1.00  0.00     0.066 H 
BRANCH  29  33
ATOM     33  O   UNL     1       1.972  -2.405  -4.826  1.00  0.00    -0.504 OA
ATOM     34  H   UNL     1       2.376  -2.459  -5.670  1.00  0.00     0.293 HD
ENDBRANCH  29  33
BRANCH  31  35
ATOM     35  O   UNL     1       4.004  -0.744  -5.496  1.00  0.00    -0.504 OA
ATOM     36  H   UNL     1       4.704  -0.177  -5.753  1.00  0.00     0.293 HD
ENDBRANCH  31  35
ENDBRANCH  19  24
BRANCH  20  37
ATOM     37  C   UNL     1      -0.765   3.392  -0.183  1.00  0.00    -0.021 A 
ATOM     38  C   UNL     1       0.097   3.956  -1.138  1.00  0.00    -0.051 A 
ATOM     39  C   UNL     1      -1.326   4.203   0.809  1.00  0.00    -0.009 A 
ATOM     40  C   UNL     1       0.421   5.315  -1.089  1.00  0.00    -0.016 A 
ATOM     41  H   UNL     1       0.494   3.362  -1.882  1.00  0.00     0.063 H 
ATOM     42  C   UNL     1      -1.006   5.553   0.845  1.00  0.00     0.157 A 
ATOM     43  H   UNL     1      -1.971   3.802   1.507  1.00  0.00     0.067 H 
ATOM     44  C   UNL     1      -0.135   6.106  -0.091  1.00  0.00     0.157 A 
ATOM     45  H   UNL     1       1.064   5.724  -1.784  1.00  0.00     0.066 H 
BRANCH  42  46
ATOM     46  O   UNL     1      -1.559   6.344   1.810  1.00  0.00    -0.504 OA
ATOM     47  H   UNL     1      -1.351   7.257   1.845  1.00  0.00     0.293 HD
ENDBRANCH  42  46
BRANCH  44  48
ATOM     48  O   UNL     1       0.140   7.441   0.009  1.00  0.00    -0.504 OA
ATOM     49  H   UNL     1       0.722   7.847  -0.604  1.00  0.00     0.293 HD
ENDBRANCH  44  48
ENDBRANCH  20  37
ENDBRANCH  11  14
ENDBRANCH   7  10
ENDBRANCH   4   7
ENDBRANCH   1   4
BRANCH   1  50
ATOM     50  C   UNL     1       6.103   0.524   3.780  1.00  0.00    -0.052 C 
ATOM     51  H   UNL     1       5.223  -0.062   3.939  1.00  0.00     0.027 H 
ATOM     52  H   UNL     1       6.599   0.809   4.684  1.00  0.00     0.027 H 
BRANCH  50  53
ATOM     53  C   UNL     1       7.105  -0.330   3.000  1.00  0.00    -0.036 C 
ATOM     54  H   UNL     1       6.637  -0.645   2.091  1.00  0.00     0.028 H 
ATOM     55  H   UNL     1       7.372  -1.144   3.640  1.00  0.00     0.028 H 
BRANCH  53  56
ATOM     56  C   UNL     1       8.405   0.380   2.643  1.00  0.00     0.018 C 
ATOM     57  H   UNL     1       8.175   1.242   2.052  1.00  0.00     0.049 H 
ATOM     58  H   UNL     1       9.019  -0.310   2.103  1.00  0.00     0.049 H 
BRANCH  56  59
ATOM     59  N   UNL     1       9.141   0.804   3.822  1.00  0.00    -0.352 N 
ATOM     60  C   UNL     1      10.445   0.555   4.166  1.00  0.00     0.251 C 
ATOM     61  H   UNL     1       8.631   1.347   4.466  1.00  0.00     0.163 HD
ATOM     62  O   UNL     1      10.854   0.825   5.290  1.00  0.00    -0.269 OA
BRANCH  60  63
ATOM     63  C   UNL     1      11.356  -0.059   3.178  1.00  0.00     0.039 A 
ATOM     64  C   UNL     1      12.192  -1.102   3.582  1.00  0.00    -0.049 A 
ATOM     65  C   UNL     1      11.384   0.396   1.857  1.00  0.00    -0.049 A 
ATOM     66  C   UNL     1      13.018  -1.727   2.647  1.00  0.00    -0.053 A 
ATOM     67  H   UNL     1      12.198  -1.409   4.568  1.00  0.00     0.063 H 
ATOM     68  C   UNL     1      12.146  -0.280   0.910  1.00  0.00    -0.053 A 
ATOM     69  H   UNL     1      10.841   1.230   1.584  1.00  0.00     0.063 H 
ATOM     70  C   UNL     1      12.978  -1.342   1.296  1.00  0.00    -0.014 A 
ATOM     71  H   UNL     1      13.660  -2.476   2.948  1.00  0.00     0.063 H 
ATOM     72  H   UNL     1      12.101   0.001  -0.082  1.00  0.00     0.063 H 
BRANCH  70  73
ATOM     73  C   UNL     1      13.811  -2.023   0.273  1.00  0.00     0.031 A 
ATOM     74  C   UNL     1      14.865  -1.251  -0.470  1.00  0.00     0.074 A 
ATOM     75  C   UNL     1      13.574  -3.313  -0.034  1.00  0.00     0.049 A 
ATOM     76  N   UNL     1      15.631  -1.634  -1.460  1.00  0.00    -0.248 NA
ATOM     77  C   UNL     1      15.066   0.150  -0.066  1.00  0.00    -0.034 C 
ATOM     78  C   UNL     1      12.554  -4.157   0.591  1.00  0.00    -0.036 A 
ATOM     79  N   UNL     1      14.166  -4.137  -0.958  1.00  0.00    -0.354 N 
ATOM     80  C   UNL     1      16.389  -0.522  -1.803  1.00  0.00     0.074 A 
ATOM     81  C   UNL     1      15.950   0.567  -0.959  1.00  0.00    -0.034 C 
ATOM     82  H   UNL     1      14.630   0.671   0.712  1.00  0.00     0.065 H 
ATOM     83  C   UNL     1      12.607  -5.384   0.048  1.00  0.00    -0.036 A 
ATOM     84  H   UNL     1      11.899  -3.858   1.330  1.00  0.00     0.065 H 
ATOM     85  C   UNL     1      13.630  -5.401  -0.993  1.00  0.00     0.049 A 
ATOM     86  H   UNL     1      14.906  -3.849  -1.541  1.00  0.00     0.167 HD
ATOM     87  C   UNL     1      17.381  -0.426  -2.721  1.00  0.00     0.037 A 
ATOM     88  H   UNL     1      16.281   1.540  -1.042  1.00  0.00     0.065 H 
ATOM     89  H   UNL     1      12.018  -6.186   0.322  1.00  0.00     0.065 H 
ATOM     90  C   UNL     1      13.924  -6.450  -1.785  1.00  0.00     0.037 A 
ATOM     91  C   UNL     1      17.828  -1.519  -3.543  1.00  0.00     0.049 A 
ATOM     92  C   UNL     1      15.012  -6.309  -2.816  1.00  0.00     0.074 A 
ATOM     93  C   UNL     1      18.857  -1.538  -4.468  1.00  0.00    -0.036 A 
ATOM     94  N   UNL     1      17.269  -2.789  -3.541  1.00  0.00    -0.354 N 
ATOM     95  N   UNL     1      15.764  -5.271  -3.090  1.00  0.00    -0.248 NA
ATOM     96  C   UNL     1      15.298  -7.489  -3.643  1.00  0.00    -0.034 C 
ATOM     97  C   UNL     1      18.883  -2.801  -5.067  1.00  0.00    -0.036 A 
ATOM     98  H   UNL     1      19.495  -0.755  -4.679  1.00  0.00     0.065 H 
ATOM     99  C   UNL     1      17.915  -3.591  -4.468  1.00  0.00     0.049 A 
ATOM    100  H   UNL     1      16.523  -3.078  -2.966  1.00  0.00     0.167 HD
ATOM    101  C   UNL     1      16.634  -5.682  -4.091  1.00  0.00     0.074 A 
ATOM    102  C   UNL     1      16.324  -7.069  -4.369  1.00  0.00    -0.034 C 
ATOM    103  H   UNL     1      14.824  -8.406  -3.655  1.00  0.00     0.065 H 
ATOM    104  H   UNL     1      19.516  -3.095  -5.827  1.00  0.00     0.065 H 
ATOM    105  C   UNL     1      17.605  -4.976  -4.722  1.00  0.00     0.037 A 
ATOM    106  H   UNL     1      16.836  -7.655  -5.046  1.00  0.00     0.065 H 
BRANCH  87 107
ATOM    107  C   UNL     1      18.048   0.910  -2.886  1.00  0.00     0.064 A 
ATOM    108  C   UNL     1      18.858   1.461  -1.881  1.00  0.00     0.173 A 
ATOM    109  C   UNL     1      17.904   1.635  -4.080  1.00  0.00     0.173 A 
ATOM    110  F   UNL     1      19.020   0.817  -0.715  1.00  0.00    -0.203 F 
ATOM    111  C   UNL     1      19.469   2.701  -2.050  1.00  0.00     0.198 A 
ATOM    112  C   UNL     1      18.547   2.857  -4.260  1.00  0.00     0.198 A 
ATOM    113  F   UNL     1      17.146   1.154  -5.076  1.00  0.00    -0.203 F 
ATOM    114  F   UNL     1      20.190   3.232  -1.053  1.00  0.00    -0.200 F 
ATOM    115  C   UNL     1      19.320   3.393  -3.242  1.00  0.00     0.200 A 
ATOM    116  F   UNL     1      18.413   3.518  -5.418  1.00  0.00    -0.200 F 
ATOM    117  F   UNL     1      19.915   4.583  -3.407  1.00  0.00    -0.200 F 
ENDBRANCH  87 107
BRANCH  90 118
ATOM    118  C   UNL     1      13.189  -7.734  -1.625  1.00  0.00     0.064 A 
ATOM    119  C   UNL     1      13.839  -8.882  -1.150  1.00  0.00     0.173 A 
ATOM    120  C   UNL     1      11.830  -7.845  -1.955  1.00  0.00     0.173 A 
ATOM    121  F   UNL     1      15.142  -8.832  -0.840  1.00  0.00    -0.203 F 
ATOM    122  C   UNL     1      13.166 -10.097  -1.038  1.00  0.00     0.198 A 
ATOM    123  C   UNL     1      11.150  -9.052  -1.811  1.00  0.00     0.198 A 
ATOM    124  F   UNL     1      11.159  -6.775  -2.408  1.00  0.00    -0.203 F 
ATOM    125  F   UNL     1      13.826 -11.191  -0.634  1.00  0.00    -0.200 F 
ATOM    126  C   UNL     1      11.821 -10.180  -1.363  1.00  0.00     0.200 A 
ATOM    127  F   UNL     1       9.846  -9.123  -2.111  1.00  0.00    -0.200 F 
ATOM    128  F   UNL     1      11.173 -11.348  -1.254  1.00  0.00    -0.200 F 
ENDBRANCH  90 118
BRANCH 105 129
ATOM    129  C   UNL     1      18.440  -5.701  -5.738  1.00  0.00     0.064 A 
ATOM    130  C   UNL     1      17.920  -6.102  -6.978  1.00  0.00     0.173 A 
ATOM    131  C   UNL     1      19.797  -5.956  -5.483  1.00  0.00     0.173 A 
ATOM    132  F   UNL     1      16.626  -5.894  -7.266  1.00  0.00    -0.203 F 
ATOM    133  C   UNL     1      18.720  -6.754  -7.912  1.00  0.00     0.198 A 
ATOM    134  C   UNL     1      20.602  -6.576  -6.434  1.00  0.00     0.198 A 
ATOM    135  F   UNL     1      20.347  -5.586  -4.317  1.00  0.00    -0.203 F 
ATOM    136  F   UNL     1      18.188  -7.173  -9.069  1.00  0.00    -0.200 F 
ATOM    137  C   UNL     1      20.061  -6.982  -7.644  1.00  0.00     0.200 A 
ATOM    138  F   UNL     1      21.902  -6.779  -6.179  1.00  0.00    -0.200 F 
ATOM    139  F   UNL     1      20.832  -7.599  -8.550  1.00  0.00    -0.200 F 
ENDBRANCH 105 129
ENDBRANCH  70  73
ENDBRANCH  60  63
ENDBRANCH  56  59
ENDBRANCH  53  56
ENDBRANCH  50  53
ENDBRANCH   1  50
TORSDOF 19
