REMARK SMILES CC1CC[NH+]([C@H](c2ccc(F)cc2)c2ccc([C@@H](C)C(=O)NCCCCCCNC(=O)c3ccc(-c4c5nc(c(-c6c(F)c(F)c(F)c(F)c6F)c6ccc([nH]6)c(-c6c(F)c(F)c(F)c(F)c6F)c6nc(c(-c7c(F)c(F)c(F)c(F)c7F)c7ccc4[nH]7)C=C6)C=C5)cc3)cc2-c2ccc(C(F)(F)F)cc2)CC1
REMARK SMILES IDX 24 1 23 4 22 7 20 8 21 9 18 11 17 13 14 14 15 15 96 16 16 17
REMARK SMILES IDX 95 19 6 22 5 24 2 25 3 26 108 27 4 29 107 32 1 40 7 44 8 45
REMARK SMILES IDX 13 46 9 47 12 49 10 51 11 54 97 55 98 56 106 57 99 58 105 60
REMARK SMILES IDX 100 62 101 65 102 66 103 67 104 68 19 69 25 73 26 76 27 79
REMARK SMILES IDX 28 82 29 85 30 86 31 88 32 89 33 90 94 91 34 92 93 94 35 96
REMARK SMILES IDX 36 99 37 100 87 101 38 102 92 103 86 104 88 105 39 106
REMARK SMILES IDX 91 107 85 109 84 111 40 113 72 116 52 117 71 118 53 119
REMARK SMILES IDX 56 120 70 121 89 122 54 123 55 125 69 127 90 128 57 131
REMARK SMILES IDX 41 133 42 134 50 135 43 136 44 137 48 138 51 139 45 140
REMARK SMILES IDX 46 141 49 142 47 143 73 144 74 145 82 146 75 147 76 148
REMARK SMILES IDX 80 149 83 150 77 151 78 152 81 153 79 154 58 155 59 156
REMARK SMILES IDX 67 157 60 158 61 159 65 160 68 161 62 162 63 163 66 164
REMARK SMILES IDX 64 165
REMARK H PARENT 24 2 24 3 23 5 23 6 22 10 18 12 15 18 16 20 95 21 6 23 2 28
REMARK H PARENT 3 30 3 31 108 33 108 34 4 35 4 36 107 37 107 38 5 39 1 41 1 42
REMARK H PARENT 1 43 8 48 13 50 9 52 12 53 98 59 106 61 99 63 105 64 19 70
REMARK H PARENT 19 71 19 72 25 74 25 75 26 77 26 78 27 80 27 81 28 83 28 84
REMARK H PARENT 29 87 33 93 94 95 34 97 93 98 92 108 86 110 88 112 91 114
REMARK H PARENT 85 115 53 124 56 126 89 129 54 130 90 132
REMARK Flexibility Score: inf
ROOT
ATOM      1  C   UNL     1       1.002   5.397  -3.789  1.00  0.00    -0.036 C 
ATOM      2  H   UNL     1       1.331   4.933  -2.883  1.00  0.00     0.028 H 
ATOM      3  H   UNL     1       0.543   4.705  -4.464  1.00  0.00     0.028 H 
ENDROOT
BRANCH   1   4
ATOM      4  C   UNL     1       2.228   5.973  -4.510  1.00  0.00     0.017 C 
ATOM      5  H   UNL     1       2.606   5.240  -5.192  1.00  0.00     0.049 H 
ATOM      6  H   UNL     1       1.925   6.859  -5.029  1.00  0.00     0.049 H 
BRANCH   4   7
ATOM      7  N   UNL     1       3.278   6.333  -3.578  1.00  0.00    -0.356 N 
ATOM      8  C   UNL     1       4.436   5.723  -3.205  1.00  0.00     0.227 C 
ATOM      9  O   UNL     1       5.077   6.287  -2.309  1.00  0.00    -0.274 OA
ATOM     10  H   UNL     1       3.122   7.192  -3.123  1.00  0.00     0.163 HD
BRANCH   8  11
ATOM     11  C   UNL     1       4.979   4.419  -3.823  1.00  0.00     0.060 C 
ATOM     12  H   UNL     1       5.959   4.289  -3.412  1.00  0.00     0.045 H 
BRANCH  11  13
ATOM     13  C   UNL     1       4.223   3.183  -3.370  1.00  0.00    -0.035 A 
ATOM     14  C   UNL     1       2.623   1.100  -2.220  1.00  0.00     0.022 A 
ATOM     15  C   UNL     1       2.175   1.913  -3.272  1.00  0.00    -0.052 A 
ATOM     16  C   UNL     1       3.986   1.255  -1.842  1.00  0.00    -0.009 A 
ATOM     17  C   UNL     1       2.988   2.851  -3.895  1.00  0.00    -0.058 A 
ATOM     18  H   UNL     1       1.200   1.810  -3.596  1.00  0.00     0.063 H 
ATOM     19  C   UNL     1       4.728   2.347  -2.366  1.00  0.00    -0.050 A 
ATOM     20  H   UNL     1       2.666   3.307  -4.763  1.00  0.00     0.063 H 
ATOM     21  H   UNL     1       5.673   2.531  -1.994  1.00  0.00     0.063 H 
BRANCH  14  22
ATOM     22  C   UNL     1       1.679   0.044  -1.574  1.00  0.00     0.139 C 
ATOM     23  H   UNL     1       2.104  -0.854  -1.973  1.00  0.00     0.107 H 
BRANCH  22  24
ATOM     24  N   UNL     1       0.247   0.006  -2.026  1.00  0.00    -0.325 N 
ATOM     25  C   UNL     1      -1.917   1.106  -3.663  1.00  0.00    -0.034 C 
ATOM     26  C   UNL     1      -1.308  -0.242  -4.039  1.00  0.00    -0.001 C 
ATOM     27  C   UNL     1      -1.978   1.184  -2.146  1.00  0.00    -0.001 C 
ATOM     28  H   UNL     1      -1.313   1.897  -4.056  1.00  0.00     0.030 H 
ATOM     29  C   UNL     1       0.067  -0.477  -3.399  1.00  0.00     0.078 C 
ATOM     30  H   UNL     1      -1.200  -0.283  -5.103  1.00  0.00     0.033 H 
ATOM     31  H   UNL     1      -1.965  -1.004  -3.675  1.00  0.00     0.033 H 
ATOM     32  C   UNL     1      -0.573   1.126  -1.565  1.00  0.00     0.078 C 
ATOM     33  H   UNL     1      -2.550   0.361  -1.772  1.00  0.00     0.033 H 
ATOM     34  H   UNL     1      -2.438   2.107  -1.861  1.00  0.00     0.033 H 
ATOM     35  H   UNL     1       0.796   0.010  -4.012  1.00  0.00     0.092 H 
ATOM     36  H   UNL     1       0.170  -1.540  -3.338  1.00  0.00     0.092 H 
ATOM     37  H   UNL     1      -0.069   2.034  -1.825  1.00  0.00     0.092 H 
ATOM     38  H   UNL     1      -0.693   0.992  -0.510  1.00  0.00     0.092 H 
ATOM     39  H   UNL     1      -0.196  -0.749  -1.502  1.00  0.00     0.348 HD
BRANCH  25  40
ATOM     40  C   UNL     1      -3.307   1.266  -4.256  1.00  0.00    -0.062 C 
ATOM     41  H   UNL     1      -3.249   1.209  -5.323  1.00  0.00     0.023 H 
ATOM     42  H   UNL     1      -3.709   2.216  -3.971  1.00  0.00     0.023 H 
ATOM     43  H   UNL     1      -3.943   0.487  -3.892  1.00  0.00     0.023 H 
ENDBRANCH  25  40
ENDBRANCH  22  24
BRANCH  22  44
ATOM     44  C   UNL     1       1.751   0.017  -0.033  1.00  0.00     0.014 A 
ATOM     45  C   UNL     1       1.589   1.183   0.743  1.00  0.00    -0.050 A 
ATOM     46  C   UNL     1       1.983  -1.201   0.633  1.00  0.00    -0.050 A 
ATOM     47  C   UNL     1       1.635   1.127   2.137  1.00  0.00    -0.026 A 
ATOM     48  H   UNL     1       1.435   2.090   0.275  1.00  0.00     0.063 H 
ATOM     49  C   UNL     1       2.070  -1.248   2.026  1.00  0.00    -0.026 A 
ATOM     50  H   UNL     1       2.090  -2.070   0.086  1.00  0.00     0.063 H 
ATOM     51  C   UNL     1       1.885  -0.087   2.764  1.00  0.00     0.123 A 
ATOM     52  H   UNL     1       1.485   1.980   2.697  1.00  0.00     0.065 H 
ATOM     53  H   UNL     1       2.271  -2.140   2.504  1.00  0.00     0.065 H 
ATOM     54  F   UNL     1       1.948  -0.137   4.101  1.00  0.00    -0.207 F 
ENDBRANCH  22  44
ENDBRANCH  14  22
BRANCH  16  55
ATOM     55  C   UNL     1       4.707   0.300  -0.976  1.00  0.00    -0.018 A 
ATOM     56  C   UNL     1       5.298   0.703   0.230  1.00  0.00    -0.054 A 
ATOM     57  C   UNL     1       4.862  -1.039  -1.373  1.00  0.00    -0.054 A 
ATOM     58  C   UNL     1       5.990  -0.212   1.031  1.00  0.00    -0.049 A 
ATOM     59  H   UNL     1       5.222   1.687   0.531  1.00  0.00     0.063 H 
ATOM     60  C   UNL     1       5.540  -1.959  -0.569  1.00  0.00    -0.049 A 
ATOM     61  H   UNL     1       4.468  -1.348  -2.276  1.00  0.00     0.063 H 
ATOM     62  C   UNL     1       6.104  -1.556   0.647  1.00  0.00     0.056 A 
ATOM     63  H   UNL     1       6.421   0.106   1.913  1.00  0.00     0.063 H 
ATOM     64  H   UNL     1       5.625  -2.941  -0.874  1.00  0.00     0.063 H 
BRANCH  62  65
ATOM     65  C   UNL     1       6.842  -2.537   1.524  1.00  0.00     0.416 C 
ATOM     66  F   UNL     1       8.186  -2.318   1.533  1.00  0.00    -0.166 F 
ATOM     67  F   UNL     1       6.444  -2.482   2.825  1.00  0.00    -0.166 F 
ATOM     68  F   UNL     1       6.678  -3.835   1.141  1.00  0.00    -0.166 F 
ENDBRANCH  62  65
ENDBRANCH  16  55
ENDBRANCH  11  13
BRANCH  11  69
ATOM     69  C   UNL     1       5.247   4.508  -5.324  1.00  0.00    -0.049 C 
ATOM     70  H   UNL     1       4.321   4.641  -5.844  1.00  0.00     0.024 H 
ATOM     71  H   UNL     1       5.716   3.606  -5.657  1.00  0.00     0.024 H 
ATOM     72  H   UNL     1       5.890   5.339  -5.523  1.00  0.00     0.024 H 
ENDBRANCH  11  69
ENDBRANCH   8  11
ENDBRANCH   4   7
ENDBRANCH   1   4
BRANCH   1  73
ATOM     73  C   UNL     1      -0.059   6.441  -3.436  1.00  0.00    -0.052 C 
ATOM     74  H   UNL     1       0.398   7.186  -2.819  1.00  0.00     0.027 H 
ATOM     75  H   UNL     1      -0.850   5.915  -2.944  1.00  0.00     0.027 H 
BRANCH  73  76
ATOM     76  C   UNL     1      -0.692   7.144  -4.644  1.00  0.00    -0.052 C 
ATOM     77  H   UNL     1       0.076   7.689  -5.150  1.00  0.00     0.027 H 
ATOM     78  H   UNL     1      -1.470   7.766  -4.252  1.00  0.00     0.027 H 
BRANCH  76  79
ATOM     79  C   UNL     1      -1.362   6.213  -5.660  1.00  0.00    -0.036 C 
ATOM     80  H   UNL     1      -0.635   5.504  -5.995  1.00  0.00     0.028 H 
ATOM     81  H   UNL     1      -1.729   6.834  -6.451  1.00  0.00     0.028 H 
BRANCH  79  82
ATOM     82  C   UNL     1      -2.560   5.448  -5.108  1.00  0.00     0.018 C 
ATOM     83  H   UNL     1      -2.252   4.893  -4.246  1.00  0.00     0.049 H 
ATOM     84  H   UNL     1      -2.922   4.791  -5.872  1.00  0.00     0.049 H 
BRANCH  82  85
ATOM     85  N   UNL     1      -3.640   6.352  -4.729  1.00  0.00    -0.352 N 
ATOM     86  C   UNL     1      -4.907   6.457  -5.253  1.00  0.00     0.251 C 
ATOM     87  H   UNL     1      -3.433   6.974  -3.996  1.00  0.00     0.163 HD
ATOM     88  O   UNL     1      -5.607   7.432  -5.019  1.00  0.00    -0.269 OA
BRANCH  86  89
ATOM     89  C   UNL     1      -5.419   5.361  -6.098  1.00  0.00     0.039 A 
ATOM     90  C   UNL     1      -6.029   5.634  -7.323  1.00  0.00    -0.049 A 
ATOM     91  C   UNL     1      -5.273   4.047  -5.661  1.00  0.00    -0.049 A 
ATOM     92  C   UNL     1      -6.414   4.573  -8.150  1.00  0.00    -0.053 A 
ATOM     93  H   UNL     1      -6.193   6.609  -7.617  1.00  0.00     0.063 H 
ATOM     94  C   UNL     1      -5.577   2.998  -6.517  1.00  0.00    -0.053 A 
ATOM     95  H   UNL     1      -4.939   3.853  -4.704  1.00  0.00     0.063 H 
ATOM     96  C   UNL     1      -6.147   3.246  -7.773  1.00  0.00    -0.014 A 
ATOM     97  H   UNL     1      -6.897   4.766  -9.041  1.00  0.00     0.063 H 
ATOM     98  H   UNL     1      -5.381   2.027  -6.226  1.00  0.00     0.063 H 
BRANCH  96  99
ATOM     99  C   UNL     1      -6.435   2.084  -8.653  1.00  0.00     0.031 A 
ATOM    100  C   UNL     1      -7.352   0.993  -8.173  1.00  0.00     0.074 A 
ATOM    101  C   UNL     1      -5.772   1.943  -9.818  1.00  0.00     0.049 A 
ATOM    102  N   UNL     1      -7.590  -0.182  -8.699  1.00  0.00    -0.248 NA
ATOM    103  C   UNL     1      -8.066   1.238  -6.909  1.00  0.00    -0.034 C 
ATOM    104  C   UNL     1      -4.819   2.905 -10.369  1.00  0.00    -0.036 A 
ATOM    105  N   UNL     1      -5.781   0.921 -10.736  1.00  0.00    -0.354 N 
ATOM    106  C   UNL     1      -8.454  -0.820  -7.820  1.00  0.00     0.074 A 
ATOM    107  C   UNL     1      -8.654   0.070  -6.698  1.00  0.00    -0.034 C 
ATOM    108  H   UNL     1      -8.099   2.096  -6.336  1.00  0.00     0.065 H 
ATOM    109  C   UNL     1      -4.350   2.440 -11.537  1.00  0.00    -0.036 A 
ATOM    110  H   UNL     1      -4.549   3.800  -9.930  1.00  0.00     0.065 H 
ATOM    111  C   UNL     1      -4.927   1.123 -11.793  1.00  0.00     0.049 A 
ATOM    112  H   UNL     1      -6.346   0.120 -10.645  1.00  0.00     0.167 HD
ATOM    113  C   UNL     1      -9.049  -2.028  -7.952  1.00  0.00     0.037 A 
ATOM    114  H   UNL     1      -9.184  -0.173  -5.846  1.00  0.00     0.065 H 
ATOM    115  H   UNL     1      -3.688   2.934 -12.156  1.00  0.00     0.065 H 
ATOM    116  C   UNL     1      -4.626   0.331 -12.841  1.00  0.00     0.037 A 
ATOM    117  C   UNL     1      -8.877  -2.890  -9.090  1.00  0.00     0.049 A 
ATOM    118  C   UNL     1      -5.289  -1.014 -12.963  1.00  0.00     0.074 A 
ATOM    119  C   UNL     1      -9.498  -4.097  -9.354  1.00  0.00    -0.036 A 
ATOM    120  N   UNL     1      -8.021  -2.636 -10.152  1.00  0.00    -0.354 N 
ATOM    121  N   UNL     1      -6.154  -1.581 -12.158  1.00  0.00    -0.248 NA
ATOM    122  C   UNL     1      -4.937  -1.831 -14.134  1.00  0.00    -0.034 C 
ATOM    123  C   UNL     1      -8.973  -4.604 -10.544  1.00  0.00    -0.036 A 
ATOM    124  H   UNL     1     -10.223  -4.545  -8.772  1.00  0.00     0.065 H 
ATOM    125  C   UNL     1      -8.075  -3.682 -11.058  1.00  0.00     0.049 A 
ATOM    126  H   UNL     1      -7.460  -1.833 -10.248  1.00  0.00     0.167 HD
ATOM    127  C   UNL     1      -6.470  -2.804 -12.734  1.00  0.00     0.074 A 
ATOM    128  C   UNL     1      -5.706  -2.899 -13.960  1.00  0.00    -0.034 C 
ATOM    129  H   UNL     1      -4.267  -1.628 -14.892  1.00  0.00     0.065 H 
ATOM    130  H   UNL     1      -9.214  -5.513 -10.970  1.00  0.00     0.065 H 
ATOM    131  C   UNL     1      -7.320  -3.758 -12.284  1.00  0.00     0.037 A 
ATOM    132  H   UNL     1      -5.754  -3.695 -14.615  1.00  0.00     0.065 H 
BRANCH 113 133
ATOM    133  C   UNL     1      -9.955  -2.493  -6.847  1.00  0.00     0.064 A 
ATOM    134  C   UNL     1      -9.618  -3.616  -6.076  1.00  0.00     0.173 A 
ATOM    135  C   UNL     1     -11.188  -1.872  -6.596  1.00  0.00     0.173 A 
ATOM    136  F   UNL     1      -8.455  -4.253  -6.279  1.00  0.00    -0.203 F 
ATOM    137  C   UNL     1     -10.487  -4.106  -5.104  1.00  0.00     0.198 A 
ATOM    138  C   UNL     1     -12.038  -2.343  -5.599  1.00  0.00     0.198 A 
ATOM    139  F   UNL     1     -11.555  -0.790  -7.299  1.00  0.00    -0.203 F 
ATOM    140  F   UNL     1     -10.159  -5.202  -4.406  1.00  0.00    -0.200 F 
ATOM    141  C   UNL     1     -11.693  -3.465  -4.862  1.00  0.00     0.200 A 
ATOM    142  F   UNL     1     -13.190  -1.706  -5.349  1.00  0.00    -0.200 F 
ATOM    143  F   UNL     1     -12.521  -3.929  -3.916  1.00  0.00    -0.200 F 
ENDBRANCH 113 133
BRANCH 116 144
ATOM    144  C   UNL     1      -3.669   0.817 -13.869  1.00  0.00     0.064 A 
ATOM    145  C   UNL     1      -2.304   0.978 -13.585  1.00  0.00     0.173 A 
ATOM    146  C   UNL     1      -4.117   1.188 -15.145  1.00  0.00     0.173 A 
ATOM    147  F   UNL     1      -1.826   0.645 -12.377  1.00  0.00    -0.203 F 
ATOM    148  C   UNL     1      -1.431   1.519 -14.527  1.00  0.00     0.198 A 
ATOM    149  C   UNL     1      -3.237   1.704 -16.095  1.00  0.00     0.198 A 
ATOM    150  F   UNL     1      -5.408   1.036 -15.470  1.00  0.00    -0.203 F 
ATOM    151  F   UNL     1      -0.142   1.706 -14.213  1.00  0.00    -0.200 F 
ATOM    152  C   UNL     1      -1.898   1.879 -15.782  1.00  0.00     0.200 A 
ATOM    153  F   UNL     1      -3.688   2.031 -17.313  1.00  0.00    -0.200 F 
ATOM    154  F   UNL     1      -1.058   2.398 -16.688  1.00  0.00    -0.200 F 
ENDBRANCH 116 144
BRANCH 131 155
ATOM    155  C   UNL     1      -7.513  -4.990 -13.119  1.00  0.00     0.064 A 
ATOM    156  C   UNL     1      -8.744  -5.226 -13.753  1.00  0.00     0.173 A 
ATOM    157  C   UNL     1      -6.542  -5.999 -13.171  1.00  0.00     0.173 A 
ATOM    158  F   UNL     1      -9.709  -4.294 -13.722  1.00  0.00    -0.203 F 
ATOM    159  C   UNL     1      -9.008  -6.442 -14.374  1.00  0.00     0.198 A 
ATOM    160  C   UNL     1      -6.800  -7.204 -13.819  1.00  0.00     0.198 A 
ATOM    161  F   UNL     1      -5.347  -5.816 -12.590  1.00  0.00    -0.203 F 
ATOM    162  F   UNL     1     -10.211  -6.667 -14.921  1.00  0.00    -0.200 F 
ATOM    163  C   UNL     1      -8.037  -7.431 -14.405  1.00  0.00     0.200 A 
ATOM    164  F   UNL     1      -5.854  -8.153 -13.864  1.00  0.00    -0.200 F 
ATOM    165  F   UNL     1      -8.295  -8.607 -14.994  1.00  0.00    -0.200 F 
ENDBRANCH 131 155
ENDBRANCH  96  99
ENDBRANCH  86  89
ENDBRANCH  82  85
ENDBRANCH  79  82
ENDBRANCH  76  79
ENDBRANCH  73  76
ENDBRANCH   1  73
TORSDOF 21
