REMARK SMILES COc1ccc2c(c1)c(CC(=O)NCCCCCCNC(=O)c1ccc(-c3c4nc(c(-c5c(F)c(F)c(F)c(F)c5F)c5ccc([nH]5)c(-c5c(F)c(F)c(F)c(F)c5F)c5nc(c(-c6c(F)c(F)c(F)c(F)c6F)c6ccc3[nH]6)C=C5)C=C4)cc1)c(C)n2Cc1ccn(C(F)F)c(=O)c1
REMARK SMILES IDX 15 1 14 4 13 7 11 8 12 9 10 11 9 14 3 15 4 16 8 17 5 18 7 20
REMARK SMILES IDX 6 22 88 24 86 25 2 26 1 27 89 31 90 34 91 35 99 36 92 37
REMARK SMILES IDX 97 39 93 41 98 43 94 44 95 45 96 46 87 48 16 52 17 55 18 58
REMARK SMILES IDX 19 61 20 64 21 65 22 67 23 68 24 69 85 70 25 71 84 73 26 75
REMARK SMILES IDX 27 78 28 79 78 80 29 81 83 82 77 83 79 84 30 85 82 86 76 88
REMARK SMILES IDX 75 90 31 92 63 95 43 96 62 97 44 98 47 99 61 100 80 101
REMARK SMILES IDX 45 102 46 104 60 106 81 107 48 110 32 112 33 113 41 114
REMARK SMILES IDX 34 115 35 116 39 117 42 118 36 119 37 120 40 121 38 122
REMARK SMILES IDX 64 123 65 124 73 125 66 126 67 127 71 128 74 129 68 130
REMARK SMILES IDX 69 131 72 132 70 133 49 134 50 135 58 136 51 137 52 138
REMARK SMILES IDX 56 139 59 140 53 141 54 142 57 143 55 144
REMARK H PARENT 15 2 15 3 14 5 14 6 13 10 10 12 10 13 4 19 8 21 5 23 1 28 1 29
REMARK H PARENT 1 30 89 32 89 33 91 38 99 40 92 42 94 47 87 49 87 50 87 51
REMARK H PARENT 16 53 16 54 17 56 17 57 18 59 18 60 19 62 19 63 20 66 24 72
REMARK H PARENT 85 74 25 76 84 77 83 87 77 89 79 91 82 93 76 94 44 103 47 105
REMARK H PARENT 80 108 45 109 81 111
REMARK Flexibility Score: inf
ROOT
ATOM      1  C   UNL     1       0.735   6.792   3.401  1.00  0.00    -0.036 C 
ATOM      2  H   UNL     1       0.976   5.840   2.975  1.00  0.00     0.028 H 
ATOM      3  H   UNL     1       1.470   7.118   4.106  1.00  0.00     0.028 H 
ENDROOT
BRANCH   1   4
ATOM      4  C   UNL     1      -0.588   6.662   4.156  1.00  0.00     0.017 C 
ATOM      5  H   UNL     1      -0.439   6.044   5.016  1.00  0.00     0.049 H 
ATOM      6  H   UNL     1      -0.908   7.642   4.444  1.00  0.00     0.049 H 
BRANCH   4   7
ATOM      7  N   UNL     1      -1.617   6.072   3.324  1.00  0.00    -0.356 N 
ATOM      8  C   UNL     1      -2.183   4.831   3.391  1.00  0.00     0.224 C 
ATOM      9  O   UNL     1      -3.004   4.522   2.523  1.00  0.00    -0.275 OA
ATOM     10  H   UNL     1      -1.959   6.651   2.604  1.00  0.00     0.163 HD
BRANCH   8  11
ATOM     11  C   UNL     1      -1.881   3.900   4.556  1.00  0.00     0.054 C 
ATOM     12  H   UNL     1      -2.153   4.397   5.463  1.00  0.00     0.042 H 
ATOM     13  H   UNL     1      -2.444   3.005   4.393  1.00  0.00     0.042 H 
BRANCH  11  14
ATOM     14  C   UNL     1      -0.440   3.498   4.651  1.00  0.00    -0.010 A 
ATOM     15  C   UNL     1       0.997   1.761   1.575  1.00  0.00     0.119 A 
ATOM     16  C   UNL     1       2.298   1.656   2.054  1.00  0.00    -0.018 A 
ATOM     17  C   UNL     1       0.020   2.395   2.341  1.00  0.00    -0.010 A 
ATOM     18  C   UNL     1       2.647   2.165   3.317  1.00  0.00    -0.034 A 
ATOM     19  H   UNL     1       3.018   1.198   1.474  1.00  0.00     0.066 H 
ATOM     20  C   UNL     1       0.334   2.874   3.631  1.00  0.00     0.007 A 
ATOM     21  H   UNL     1      -0.934   2.514   1.965  1.00  0.00     0.067 H 
ATOM     22  C   UNL     1       1.645   2.764   4.103  1.00  0.00     0.049 A 
ATOM     23  H   UNL     1       3.618   2.101   3.660  1.00  0.00     0.065 H 
ATOM     24  N   UNL     1       1.672   3.345   5.366  1.00  0.00    -0.340 N 
ATOM     25  C   UNL     1       0.372   3.600   5.773  1.00  0.00     0.020 A 
BRANCH  15  26
ATOM     26  O   UNL     1       0.597   1.341   0.335  1.00  0.00    -0.497 OA
BRANCH  26  27
ATOM     27  C   UNL     1       1.060   0.043  -0.026  1.00  0.00     0.078 C 
ATOM     28  H   UNL     1       0.703  -0.203  -1.004  1.00  0.00     0.067 H 
ATOM     29  H   UNL     1       0.694  -0.674   0.678  1.00  0.00     0.067 H 
ATOM     30  H   UNL     1       2.129   0.033  -0.024  1.00  0.00     0.067 H 
ENDBRANCH  26  27
ENDBRANCH  15  26
BRANCH  24  31
ATOM     31  C   UNL     1       2.887   3.561   6.165  1.00  0.00     0.048 C 
ATOM     32  H   UNL     1       3.672   2.965   5.748  1.00  0.00     0.055 H 
ATOM     33  H   UNL     1       2.643   3.288   7.170  1.00  0.00     0.055 H 
BRANCH  31  34
ATOM     34  C   UNL     1       3.361   5.005   6.212  1.00  0.00    -0.021 A 
ATOM     35  C   UNL     1       2.676   5.951   7.072  1.00  0.00    -0.040 A 
ATOM     36  C   UNL     1       4.462   5.430   5.564  1.00  0.00     0.009 A 
ATOM     37  C   UNL     1       3.051   7.234   7.133  1.00  0.00     0.013 A 
ATOM     38  H   UNL     1       1.884   5.628   7.648  1.00  0.00     0.064 H 
ATOM     39  C   UNL     1       4.946   6.843   5.679  1.00  0.00     0.255 A 
ATOM     40  H   UNL     1       4.985   4.765   4.972  1.00  0.00     0.068 H 
ATOM     41  N   UNL     1       4.142   7.695   6.425  1.00  0.00    -0.258 N 
ATOM     42  H   UNL     1       2.514   7.891   7.720  1.00  0.00     0.082 H 
ATOM     43  O   UNL     1       5.988   7.150   5.123  1.00  0.00    -0.269 OA
BRANCH  41  44
ATOM     44  C   UNL     1       4.585   9.055   6.620  1.00  0.00     0.321 C 
ATOM     45  F   UNL     1       5.513   9.118   7.605  1.00  0.00    -0.185 F 
ATOM     46  F   UNL     1       5.128   9.594   5.505  1.00  0.00    -0.185 F 
ATOM     47  H   UNL     1       3.711   9.612   6.882  1.00  0.00     0.131 H 
ENDBRANCH  41  44
ENDBRANCH  31  34
ENDBRANCH  24  31
BRANCH  25  48
ATOM     48  C   UNL     1      -0.043   3.971   7.156  1.00  0.00    -0.024 C 
ATOM     49  H   UNL     1      -1.104   4.109   7.184  1.00  0.00     0.030 H 
ATOM     50  H   UNL     1       0.443   4.880   7.442  1.00  0.00     0.030 H 
ATOM     51  H   UNL     1       0.233   3.190   7.833  1.00  0.00     0.030 H 
ENDBRANCH  25  48
ENDBRANCH  11  14
ENDBRANCH   8  11
ENDBRANCH   4   7
ENDBRANCH   1   4
BRANCH   1  52
ATOM     52  C   UNL     1       0.697   7.833   2.274  1.00  0.00    -0.052 C 
ATOM     53  H   UNL     1      -0.067   7.546   1.582  1.00  0.00     0.027 H 
ATOM     54  H   UNL     1       1.676   7.845   1.843  1.00  0.00     0.027 H 
BRANCH  52  55
ATOM     55  C   UNL     1       0.411   9.269   2.733  1.00  0.00    -0.052 C 
ATOM     56  H   UNL     1      -0.562   9.289   3.178  1.00  0.00     0.027 H 
ATOM     57  H   UNL     1       0.488   9.885   1.861  1.00  0.00     0.027 H 
BRANCH  55  58
ATOM     58  C   UNL     1       1.412   9.831   3.749  1.00  0.00    -0.036 C 
ATOM     59  H   UNL     1       1.337   9.260   4.650  1.00  0.00     0.028 H 
ATOM     60  H   UNL     1       1.163  10.861   3.901  1.00  0.00     0.028 H 
BRANCH  58  61
ATOM     61  C   UNL     1       2.858   9.785   3.264  1.00  0.00     0.018 C 
ATOM     62  H   UNL     1       3.111   8.766   3.054  1.00  0.00     0.049 H 
ATOM     63  H   UNL     1       3.461  10.204   4.043  1.00  0.00     0.049 H 
BRANCH  61  64
ATOM     64  N   UNL     1       3.101  10.569   2.075  1.00  0.00    -0.352 N 
ATOM     65  C   UNL     1       3.546  11.838   1.839  1.00  0.00     0.251 C 
ATOM     66  H   UNL     1       2.899  10.076   1.247  1.00  0.00     0.163 HD
ATOM     67  O   UNL     1       3.809  12.116   0.666  1.00  0.00    -0.269 OA
BRANCH  65  68
ATOM     68  C   UNL     1       3.626  12.918   2.859  1.00  0.00     0.039 A 
ATOM     69  C   UNL     1       3.486  12.760   4.238  1.00  0.00    -0.049 A 
ATOM     70  C   UNL     1       3.765  14.220   2.343  1.00  0.00    -0.049 A 
ATOM     71  C   UNL     1       3.315  13.869   5.057  1.00  0.00    -0.053 A 
ATOM     72  H   UNL     1       3.510  11.815   4.652  1.00  0.00     0.063 H 
ATOM     73  C   UNL     1       3.629  15.331   3.159  1.00  0.00    -0.053 A 
ATOM     74  H   UNL     1       3.971  14.349   1.340  1.00  0.00     0.063 H 
ATOM     75  C   UNL     1       3.321  15.148   4.502  1.00  0.00    -0.014 A 
ATOM     76  H   UNL     1       3.184  13.746   6.074  1.00  0.00     0.063 H 
ATOM     77  H   UNL     1       3.755  16.281   2.776  1.00  0.00     0.063 H 
BRANCH  75  78
ATOM     78  C   UNL     1       3.070  16.283   5.381  1.00  0.00     0.031 A 
ATOM     79  C   UNL     1       4.052  16.438   6.493  1.00  0.00     0.074 A 
ATOM     80  C   UNL     1       2.086  17.172   5.131  1.00  0.00     0.049 A 
ATOM     81  N   UNL     1       3.821  16.474   7.766  1.00  0.00    -0.248 NA
ATOM     82  C   UNL     1       5.485  16.428   6.149  1.00  0.00    -0.034 C 
ATOM     83  C   UNL     1       1.212  17.256   3.957  1.00  0.00    -0.036 A 
ATOM     84  N   UNL     1       1.717  18.267   5.851  1.00  0.00    -0.354 N 
ATOM     85  C   UNL     1       5.060  16.655   8.380  1.00  0.00     0.074 A 
ATOM     86  C   UNL     1       6.055  16.494   7.353  1.00  0.00    -0.034 C 
ATOM     87  H   UNL     1       5.930  16.383   5.220  1.00  0.00     0.065 H 
ATOM     88  C   UNL     1       0.607  18.465   3.931  1.00  0.00    -0.036 A 
ATOM     89  H   UNL     1       1.080  16.509   3.258  1.00  0.00     0.065 H 
ATOM     90  C   UNL     1       0.940  19.181   5.149  1.00  0.00     0.049 A 
ATOM     91  H   UNL     1       1.980  18.401   6.790  1.00  0.00     0.167 HD
ATOM     92  C   UNL     1       5.168  17.113   9.657  1.00  0.00     0.037 A 
ATOM     93  H   UNL     1       7.071  16.437   7.524  1.00  0.00     0.065 H 
ATOM     94  H   UNL     1       0.007  18.821   3.170  1.00  0.00     0.065 H 
ATOM     95  C   UNL     1       0.661  20.456   5.523  1.00  0.00     0.037 A 
ATOM     96  C   UNL     1       3.942  16.945  10.385  1.00  0.00     0.049 A 
ATOM     97  C   UNL     1       0.918  20.555   6.982  1.00  0.00     0.074 A 
ATOM     98  C   UNL     1       3.208  15.849  10.792  1.00  0.00    -0.036 A 
ATOM     99  N   UNL     1       3.102  18.023  10.500  1.00  0.00    -0.354 N 
ATOM    100  N   UNL     1       0.189  19.955   7.883  1.00  0.00    -0.248 NA
ATOM    101  C   UNL     1       2.266  20.914   7.401  1.00  0.00    -0.034 C 
ATOM    102  C   UNL     1       1.848  16.245  10.644  1.00  0.00    -0.036 A 
ATOM    103  H   UNL     1       3.565  14.942  11.130  1.00  0.00     0.065 H 
ATOM    104  C   UNL     1       1.836  17.575  10.223  1.00  0.00     0.049 A 
ATOM    105  H   UNL     1       3.359  18.944  10.737  1.00  0.00     0.167 HD
ATOM    106  C   UNL     1       1.102  19.483   8.814  1.00  0.00     0.074 A 
ATOM    107  C   UNL     1       2.360  20.157   8.497  1.00  0.00    -0.034 C 
ATOM    108  H   UNL     1       2.947  21.563   6.976  1.00  0.00     0.065 H 
ATOM    109  H   UNL     1       1.020  15.654  10.816  1.00  0.00     0.065 H 
ATOM    110  C   UNL     1       0.834  18.377   9.566  1.00  0.00     0.037 A 
ATOM    111  H   UNL     1       3.222  20.058   9.056  1.00  0.00     0.065 H 
BRANCH  92 112
ATOM    112  C   UNL     1       6.273  18.012  10.145  1.00  0.00     0.064 A 
ATOM    113  C   UNL     1       6.397  18.279  11.524  1.00  0.00     0.173 A 
ATOM    114  C   UNL     1       7.012  18.857   9.290  1.00  0.00     0.173 A 
ATOM    115  F   UNL     1       5.718  17.553  12.424  1.00  0.00    -0.203 F 
ATOM    116  C   UNL     1       7.149  19.357  12.000  1.00  0.00     0.198 A 
ATOM    117  C   UNL     1       7.802  19.898   9.772  1.00  0.00     0.198 A 
ATOM    118  F   UNL     1       6.908  18.780   7.957  1.00  0.00    -0.203 F 
ATOM    119  F   UNL     1       7.142  19.647  13.308  1.00  0.00    -0.200 F 
ATOM    120  C   UNL     1       7.846  20.168  11.123  1.00  0.00     0.200 A 
ATOM    121  F   UNL     1       8.451  20.688   8.905  1.00  0.00    -0.200 F 
ATOM    122  F   UNL     1       8.517  21.237  11.572  1.00  0.00    -0.200 F 
ENDBRANCH  92 112
BRANCH  95 123
ATOM    123  C   UNL     1       0.526  21.654   4.657  1.00  0.00     0.064 A 
ATOM    124  C   UNL     1      -0.064  22.837   5.131  1.00  0.00     0.173 A 
ATOM    125  C   UNL     1       1.219  21.751   3.433  1.00  0.00     0.173 A 
ATOM    126  F   UNL     1      -0.697  22.848   6.313  1.00  0.00    -0.203 F 
ATOM    127  C   UNL     1       0.046  24.046   4.431  1.00  0.00     0.198 A 
ATOM    128  C   UNL     1       1.323  22.955   2.734  1.00  0.00     0.198 A 
ATOM    129  F   UNL     1       1.891  20.701   2.939  1.00  0.00    -0.203 F 
ATOM    130  F   UNL     1      -0.482  25.167   4.944  1.00  0.00    -0.200 F 
ATOM    131  C   UNL     1       0.747  24.105   3.238  1.00  0.00     0.200 A 
ATOM    132  F   UNL     1       2.039  23.005   1.601  1.00  0.00    -0.200 F 
ATOM    133  F   UNL     1       0.902  25.272   2.598  1.00  0.00    -0.200 F 
ENDBRANCH  95 123
BRANCH 110 134
ATOM    134  C   UNL     1      -0.552  17.801   9.512  1.00  0.00     0.064 A 
ATOM    135  C   UNL     1      -1.119  17.239   8.354  1.00  0.00     0.173 A 
ATOM    136  C   UNL     1      -1.249  17.636  10.716  1.00  0.00     0.173 A 
ATOM    137  F   UNL     1      -0.468  17.263   7.186  1.00  0.00    -0.203 F 
ATOM    138  C   UNL     1      -2.340  16.567   8.400  1.00  0.00     0.198 A 
ATOM    139  C   UNL     1      -2.450  16.933  10.765  1.00  0.00     0.198 A 
ATOM    140  F   UNL     1      -0.727  18.099  11.863  1.00  0.00    -0.203 F 
ATOM    141  F   UNL     1      -2.855  16.031   7.283  1.00  0.00    -0.200 F 
ATOM    142  C   UNL     1      -2.998  16.405   9.607  1.00  0.00     0.200 A 
ATOM    143  F   UNL     1      -3.053  16.730  11.944  1.00  0.00    -0.200 F 
ATOM    144  F   UNL     1      -4.141  15.707   9.663  1.00  0.00    -0.200 F 
ENDBRANCH 110 134
ENDBRANCH  75  78
ENDBRANCH  65  68
ENDBRANCH  61  64
ENDBRANCH  58  61
ENDBRANCH  55  58
ENDBRANCH  52  55
ENDBRANCH   1  52
TORSDOF 20
