REMARK SMILES CCSc1cccc(-c2ccc([C@@H](C)C(=O)NCCCCCCNC(=O)c3ccc(-c4c5nc(c(-c6c(F)c(F)c(F)c(F)c6F)c6ccc([nH]6)c(-c6c(F)c(F)c(F)c(F)c6F)c6nc(c(-c7c(F)c(F)c(F)c(F)c7F)c7ccc4[nH]7)C=C6)C=C5)cc3)cc2)c1
REMARK SMILES IDX 19 1 18 4 17 7 15 8 16 9 13 11 12 13 9 14 10 15 91 16 11 17
REMARK SMILES IDX 90 19 8 23 4 24 5 25 92 26 6 27 7 30 3 33 2 34 1 37 14 41
REMARK SMILES IDX 20 45 21 48 22 51 23 54 24 57 25 58 26 60 27 61 28 62 89 63
REMARK SMILES IDX 29 64 88 66 30 68 31 71 32 72 82 73 33 74 87 75 81 76 83 77
REMARK SMILES IDX 34 78 86 79 80 81 79 83 35 85 67 88 47 89 66 90 48 91 51 92
REMARK SMILES IDX 65 93 84 94 49 95 50 97 64 99 85 100 52 103 36 105 37 106
REMARK SMILES IDX 45 107 38 108 39 109 43 110 46 111 40 112 41 113 44 114
REMARK SMILES IDX 42 115 68 116 69 117 77 118 70 119 71 120 75 121 78 122
REMARK SMILES IDX 72 123 73 124 76 125 74 126 53 127 54 128 62 129 55 130
REMARK SMILES IDX 56 131 60 132 63 133 57 134 58 135 61 136 59 137
REMARK H PARENT 19 2 19 3 18 5 18 6 17 10 13 12 10 18 91 20 11 21 90 22 5 28
REMARK H PARENT 92 29 6 31 7 32 2 35 2 36 1 38 1 39 1 40 14 42 14 43 14 44
REMARK H PARENT 20 46 20 47 21 49 21 50 22 52 22 53 23 55 23 56 24 59 28 65
REMARK H PARENT 89 67 29 69 88 70 87 80 81 82 83 84 86 86 80 87 48 96 51 98
REMARK H PARENT 84 101 49 102 85 104
REMARK Flexibility Score: inf
ROOT
ATOM      1  C   UNL     1       8.200   4.123  -0.201  1.00  0.00    -0.036 C 
ATOM      2  H   UNL     1       7.207   4.054   0.192  1.00  0.00     0.028 H 
ATOM      3  H   UNL     1       8.707   3.181  -0.205  1.00  0.00     0.028 H 
ENDROOT
BRANCH   1   4
ATOM      4  C   UNL     1       9.009   5.059   0.699  1.00  0.00     0.017 C 
ATOM      5  H   UNL     1       9.443   4.487   1.492  1.00  0.00     0.049 H 
ATOM      6  H   UNL     1       9.766   5.523   0.101  1.00  0.00     0.049 H 
BRANCH   4   7
ATOM      7  N   UNL     1       8.185   6.102   1.269  1.00  0.00    -0.356 N 
ATOM      8  C   UNL     1       7.636   6.242   2.507  1.00  0.00     0.227 C 
ATOM      9  O   UNL     1       6.890   7.215   2.670  1.00  0.00    -0.274 OA
ATOM     10  H   UNL     1       7.985   6.843   0.652  1.00  0.00     0.163 HD
BRANCH   8  11
ATOM     11  C   UNL     1       7.910   5.283   3.674  1.00  0.00     0.060 C 
ATOM     12  H   UNL     1       7.459   5.735   4.533  1.00  0.00     0.045 H 
BRANCH  11  13
ATOM     13  C   UNL     1       7.173   3.957   3.560  1.00  0.00    -0.036 A 
ATOM     14  C   UNL     1       5.654   1.544   3.280  1.00  0.00    -0.018 A 
ATOM     15  C   UNL     1       6.966   1.654   2.794  1.00  0.00    -0.054 A 
ATOM     16  C   UNL     1       5.133   2.668   3.941  1.00  0.00    -0.054 A 
ATOM     17  C   UNL     1       7.721   2.823   2.957  1.00  0.00    -0.058 A 
ATOM     18  H   UNL     1       7.387   0.850   2.301  1.00  0.00     0.063 H 
ATOM     19  C   UNL     1       5.867   3.857   4.059  1.00  0.00    -0.058 A 
ATOM     20  H   UNL     1       4.187   2.619   4.348  1.00  0.00     0.063 H 
ATOM     21  H   UNL     1       8.698   2.846   2.626  1.00  0.00     0.063 H 
ATOM     22  H   UNL     1       5.439   4.673   4.524  1.00  0.00     0.063 H 
BRANCH  14  23
ATOM     23  C   UNL     1       4.861   0.303   3.096  1.00  0.00    -0.017 A 
ATOM     24  C   UNL     1       2.705  -0.826   2.765  1.00  0.00     0.008 A 
ATOM     25  C   UNL     1       3.346  -2.062   2.719  1.00  0.00    -0.049 A 
ATOM     26  C   UNL     1       3.460   0.341   2.949  1.00  0.00    -0.041 A 
ATOM     27  C   UNL     1       4.729  -2.131   2.858  1.00  0.00    -0.061 A 
ATOM     28  H   UNL     1       2.797  -2.925   2.581  1.00  0.00     0.063 H 
ATOM     29  H   UNL     1       2.977   1.252   2.978  1.00  0.00     0.064 H 
ATOM     30  C   UNL     1       5.473  -0.963   3.053  1.00  0.00    -0.054 A 
ATOM     31  H   UNL     1       5.207  -3.045   2.818  1.00  0.00     0.062 H 
ATOM     32  H   UNL     1       6.496  -1.031   3.167  1.00  0.00     0.063 H 
BRANCH  24  33
ATOM     33  S   UNL     1       0.928  -0.711   2.657  1.00  0.00    -0.126 SA
BRANCH  33  34
ATOM     34  C   UNL     1       0.678  -1.121   0.898  1.00  0.00    -0.005 C 
ATOM     35  H   UNL     1       1.238  -2.003   0.665  1.00  0.00     0.038 H 
ATOM     36  H   UNL     1      -0.368  -1.277   0.738  1.00  0.00     0.038 H 
BRANCH  34  37
ATOM     37  C   UNL     1       1.134   0.006  -0.012  1.00  0.00    -0.056 C 
ATOM     38  H   UNL     1       0.972  -0.272  -1.032  1.00  0.00     0.024 H 
ATOM     39  H   UNL     1       2.176   0.192   0.145  1.00  0.00     0.024 H 
ATOM     40  H   UNL     1       0.576   0.891   0.210  1.00  0.00     0.024 H 
ENDBRANCH  34  37
ENDBRANCH  33  34
ENDBRANCH  24  33
ENDBRANCH  14  23
ENDBRANCH  11  13
BRANCH  11  41
ATOM     41  C   UNL     1       9.382   5.202   4.082  1.00  0.00    -0.049 C 
ATOM     42  H   UNL     1       9.948   4.759   3.290  1.00  0.00     0.024 H 
ATOM     43  H   UNL     1       9.475   4.604   4.965  1.00  0.00     0.024 H 
ATOM     44  H   UNL     1       9.752   6.187   4.278  1.00  0.00     0.024 H 
ENDBRANCH  11  41
ENDBRANCH   8  11
ENDBRANCH   4   7
ENDBRANCH   1   4
BRANCH   1  45
ATOM     45  C   UNL     1       8.111   4.586  -1.659  1.00  0.00    -0.052 C 
ATOM     46  H   UNL     1       7.686   5.568  -1.670  1.00  0.00     0.027 H 
ATOM     47  H   UNL     1       7.514   3.856  -2.166  1.00  0.00     0.027 H 
BRANCH  45  48
ATOM     48  C   UNL     1       9.447   4.639  -2.412  1.00  0.00    -0.052 C 
ATOM     49  H   UNL     1      10.045   5.406  -1.966  1.00  0.00     0.027 H 
ATOM     50  H   UNL     1       9.199   4.824  -3.436  1.00  0.00     0.027 H 
BRANCH  48  51
ATOM     51  C   UNL     1      10.263   3.342  -2.406  1.00  0.00    -0.036 C 
ATOM     52  H   UNL     1      10.505   3.106  -1.391  1.00  0.00     0.028 H 
ATOM     53  H   UNL     1      11.124   3.527  -3.015  1.00  0.00     0.028 H 
BRANCH  51  54
ATOM     54  C   UNL     1       9.557   2.135  -3.019  1.00  0.00     0.018 C 
ATOM     55  H   UNL     1       8.638   1.970  -2.496  1.00  0.00     0.049 H 
ATOM     56  H   UNL     1      10.209   1.291  -2.931  1.00  0.00     0.049 H 
BRANCH  54  57
ATOM     57  N   UNL     1       9.265   2.333  -4.429  1.00  0.00    -0.352 N 
ATOM     58  C   UNL     1       9.671   1.611  -5.524  1.00  0.00     0.251 C 
ATOM     59  H   UNL     1       8.687   3.104  -4.631  1.00  0.00     0.163 HD
ATOM     60  O   UNL     1       9.501   2.060  -6.653  1.00  0.00    -0.269 OA
BRANCH  58  61
ATOM     61  C   UNL     1      10.324   0.295  -5.353  1.00  0.00     0.039 A 
ATOM     62  C   UNL     1      11.437  -0.012  -6.142  1.00  0.00    -0.049 A 
ATOM     63  C   UNL     1       9.820  -0.651  -4.457  1.00  0.00    -0.049 A 
ATOM     64  C   UNL     1      12.077  -1.244  -5.993  1.00  0.00    -0.053 A 
ATOM     65  H   UNL     1      11.785   0.671  -6.834  1.00  0.00     0.063 H 
ATOM     66  C   UNL     1      10.494  -1.855  -4.264  1.00  0.00    -0.053 A 
ATOM     67  H   UNL     1       8.949  -0.458  -3.938  1.00  0.00     0.063 H 
ATOM     68  C   UNL     1      11.627  -2.165  -5.032  1.00  0.00    -0.014 A 
ATOM     69  H   UNL     1      12.884  -1.480  -6.591  1.00  0.00     0.063 H 
ATOM     70  H   UNL     1      10.158  -2.523  -3.553  1.00  0.00     0.063 H 
BRANCH  68  71
ATOM     71  C   UNL     1      12.335  -3.451  -4.814  1.00  0.00     0.031 A 
ATOM     72  C   UNL     1      11.657  -4.755  -5.129  1.00  0.00     0.074 A 
ATOM     73  C   UNL     1      13.567  -3.446  -4.269  1.00  0.00     0.049 A 
ATOM     74  N   UNL     1      12.087  -5.978  -4.943  1.00  0.00    -0.248 NA
ATOM     75  C   UNL     1      10.305  -4.675  -5.704  1.00  0.00    -0.034 C 
ATOM     76  C   UNL     1      14.309  -2.248  -3.873  1.00  0.00    -0.036 A 
ATOM     77  N   UNL     1      14.406  -4.481  -3.940  1.00  0.00    -0.354 N 
ATOM     78  C   UNL     1      11.056  -6.809  -5.362  1.00  0.00     0.074 A 
ATOM     79  C   UNL     1       9.962  -5.954  -5.770  1.00  0.00    -0.034 C 
ATOM     80  H   UNL     1       9.765  -3.841  -5.983  1.00  0.00     0.065 H 
ATOM     81  C   UNL     1      15.498  -2.615  -3.369  1.00  0.00    -0.036 A 
ATOM     82  H   UNL     1      13.973  -1.277  -3.967  1.00  0.00     0.065 H 
ATOM     83  C   UNL     1      15.589  -4.072  -3.375  1.00  0.00     0.049 A 
ATOM     84  H   UNL     1      14.182  -5.427  -4.095  1.00  0.00     0.167 HD
ATOM     85  C   UNL     1      11.033  -8.162  -5.419  1.00  0.00     0.037 A 
ATOM     86  H   UNL     1       9.037  -6.295  -6.072  1.00  0.00     0.065 H 
ATOM     87  H   UNL     1      16.230  -1.970  -3.031  1.00  0.00     0.065 H 
ATOM     88  C   UNL     1      16.628  -4.791  -2.909  1.00  0.00     0.037 A 
ATOM     89  C   UNL     1      12.135  -9.009  -5.043  1.00  0.00     0.049 A 
ATOM     90  C   UNL     1      16.581  -6.292  -2.998  1.00  0.00     0.074 A 
ATOM     91  C   UNL     1      12.235 -10.387  -5.134  1.00  0.00    -0.036 A 
ATOM     92  N   UNL     1      13.329  -8.557  -4.503  1.00  0.00    -0.354 N 
ATOM     93  N   UNL     1      15.630  -7.064  -3.464  1.00  0.00    -0.248 NA
ATOM     94  C   UNL     1      17.758  -7.021  -2.503  1.00  0.00    -0.034 C 
ATOM     95  C   UNL     1      13.473 -10.772  -4.609  1.00  0.00    -0.036 A 
ATOM     96  H   UNL     1      11.519 -11.021  -5.522  1.00  0.00     0.065 H 
ATOM     97  C   UNL     1      14.164  -9.631  -4.235  1.00  0.00     0.049 A 
ATOM     98  H   UNL     1      13.552  -7.613  -4.334  1.00  0.00     0.167 HD
ATOM     99  C   UNL     1      16.100  -8.364  -3.343  1.00  0.00     0.074 A 
ATOM    100  C   UNL     1      17.429  -8.277  -2.774  1.00  0.00    -0.034 C 
ATOM    101  H   UNL     1      18.614  -6.653  -2.062  1.00  0.00     0.065 H 
ATOM    102  H   UNL     1      13.815 -11.741  -4.518  1.00  0.00     0.065 H 
ATOM    103  C   UNL     1      15.486  -9.526  -3.673  1.00  0.00     0.037 A 
ATOM    104  H   UNL     1      18.042  -9.088  -2.600  1.00  0.00     0.065 H 
BRANCH  85 105
ATOM    105  C   UNL     1       9.775  -8.818  -5.911  1.00  0.00     0.064 A 
ATOM    106  C   UNL     1       9.392  -8.754  -7.259  1.00  0.00     0.173 A 
ATOM    107  C   UNL     1       8.969  -9.558  -5.033  1.00  0.00     0.173 A 
ATOM    108  F   UNL     1      10.123  -8.050  -8.136  1.00  0.00    -0.203 F 
ATOM    109  C   UNL     1       8.234  -9.386  -7.705  1.00  0.00     0.198 A 
ATOM    110  C   UNL     1       7.827 -10.212  -5.489  1.00  0.00     0.198 A 
ATOM    111  F   UNL     1       9.293  -9.656  -3.735  1.00  0.00    -0.203 F 
ATOM    112  F   UNL     1       7.864  -9.275  -8.988  1.00  0.00    -0.200 F 
ATOM    113  C   UNL     1       7.457 -10.121  -6.822  1.00  0.00     0.200 A 
ATOM    114  F   UNL     1       7.083 -10.932  -4.636  1.00  0.00    -0.200 F 
ATOM    115  F   UNL     1       6.348 -10.736  -7.255  1.00  0.00    -0.200 F 
ENDBRANCH  85 105
BRANCH  88 116
ATOM    116  C   UNL     1      17.810  -4.098  -2.335  1.00  0.00     0.064 A 
ATOM    117  C   UNL     1      19.037  -4.089  -3.013  1.00  0.00     0.173 A 
ATOM    118  C   UNL     1      17.739  -3.433  -1.103  1.00  0.00     0.173 A 
ATOM    119  F   UNL     1      19.158  -4.729  -4.185  1.00  0.00    -0.203 F 
ATOM    120  C   UNL     1      20.154  -3.458  -2.469  1.00  0.00     0.198 A 
ATOM    121  C   UNL     1      18.849  -2.779  -0.573  1.00  0.00     0.198 A 
ATOM    122  F   UNL     1      16.586  -3.408  -0.418  1.00  0.00    -0.203 F 
ATOM    123  F   UNL     1      21.326  -3.502  -3.117  1.00  0.00    -0.200 F 
ATOM    124  C   UNL     1      20.058  -2.799  -1.253  1.00  0.00     0.200 A 
ATOM    125  F   UNL     1      18.749  -2.132   0.596  1.00  0.00    -0.200 F 
ATOM    126  F   UNL     1      21.131  -2.189  -0.733  1.00  0.00    -0.200 F 
ENDBRANCH  88 116
BRANCH 103 127
ATOM    127  C   UNL     1      16.255 -10.795  -3.452  1.00  0.00     0.064 A 
ATOM    128  C   UNL     1      16.477 -11.305  -2.165  1.00  0.00     0.173 A 
ATOM    129  C   UNL     1      16.742 -11.529  -4.545  1.00  0.00     0.173 A 
ATOM    130  F   UNL     1      16.044 -10.632  -1.088  1.00  0.00    -0.203 F 
ATOM    131  C   UNL     1      17.180 -12.492  -1.978  1.00  0.00     0.198 A 
ATOM    132  C   UNL     1      17.421 -12.729  -4.355  1.00  0.00     0.198 A 
ATOM    133  F   UNL     1      16.550 -11.086  -5.796  1.00  0.00    -0.203 F 
ATOM    134  F   UNL     1      17.420 -12.938  -0.737  1.00  0.00    -0.200 F 
ATOM    135  C   UNL     1      17.645 -13.206  -3.073  1.00  0.00     0.200 A 
ATOM    136  F   UNL     1      17.858 -13.424  -5.414  1.00  0.00    -0.200 F 
ATOM    137  F   UNL     1      18.317 -14.352  -2.891  1.00  0.00    -0.200 F 
ENDBRANCH 103 127
ENDBRANCH  68  71
ENDBRANCH  58  61
ENDBRANCH  54  57
ENDBRANCH  51  54
ENDBRANCH  48  51
ENDBRANCH  45  48
ENDBRANCH   1  45
TORSDOF 19
