REMARK SMILES C[C@@H](C(=O)NCCCCCCNC(=O)c1ccc(-c2c3nc(c(-c4c(F)c(F)c(F)c(F)c4F)c4ccc([nH]4)c(-c4c(F)c(F)c(F)c(F)c4F)c4nc(c(-c5c(F)c(F)c(F)c(F)c5F)c5ccc2[nH]5)C=C4)C=C3)cc1)c1ccc(C[C@H]2CCCC2=O)cc1-c1ccccc1
REMARK SMILES IDX 8 1 7 4 6 7 5 10 3 11 4 12 2 14 1 16 78 20 79 21 90 22 80 23
REMARK SMILES IDX 89 25 81 26 91 29 92 30 96 31 93 32 95 34 94 36 82 40 83 43
REMARK SMILES IDX 84 44 87 45 85 47 86 50 88 51 9 56 10 59 11 62 12 65 13 66
REMARK SMILES IDX 14 68 15 69 16 70 77 71 17 72 76 74 18 76 19 79 20 80 70 81
REMARK SMILES IDX 21 82 75 83 69 84 71 85 22 86 74 87 68 89 67 91 23 93 55 96
REMARK SMILES IDX 35 97 54 98 36 99 39 100 53 101 72 102 37 103 38 105 52 107
REMARK SMILES IDX 73 108 40 111 24 113 25 114 33 115 26 116 27 117 31 118
REMARK SMILES IDX 34 119 28 120 29 121 32 122 30 123 56 124 57 125 65 126
REMARK SMILES IDX 58 127 59 128 63 129 66 130 60 131 61 132 64 133 62 134
REMARK SMILES IDX 41 135 42 136 50 137 43 138 44 139 48 140 51 141 45 142
REMARK SMILES IDX 46 143 49 144 47 145
REMARK H PARENT 8 2 8 3 7 5 7 6 6 8 6 9 5 13 2 15 1 17 1 18 1 19 79 24 80 27
REMARK H PARENT 89 28 92 33 96 35 93 37 95 38 94 39 82 41 82 42 83 46 84 48
REMARK H PARENT 84 49 85 52 85 53 86 54 86 55 9 57 9 58 10 60 10 61 11 63
REMARK H PARENT 11 64 12 67 16 73 77 75 17 77 76 78 75 88 69 90 71 92 74 94
REMARK H PARENT 68 95 36 104 39 106 72 109 37 110 73 112
REMARK Flexibility Score: inf
ROOT
ATOM      1  C   UNL     1       5.085   2.802   0.113  1.00  0.00    -0.052 C 
ATOM      2  H   UNL     1       4.338   3.567   0.155  1.00  0.00     0.027 H 
ATOM      3  H   UNL     1       5.703   2.859  -0.758  1.00  0.00     0.027 H 
ENDROOT
BRANCH   1   4
ATOM      4  C   UNL     1       4.373   1.445   0.045  1.00  0.00    -0.036 C 
ATOM      5  H   UNL     1       3.712   1.455  -0.796  1.00  0.00     0.028 H 
ATOM      6  H   UNL     1       5.140   0.703  -0.035  1.00  0.00     0.028 H 
BRANCH   4   7
ATOM      7  C   UNL     1       3.557   1.094   1.291  1.00  0.00     0.017 C 
ATOM      8  H   UNL     1       3.094   0.140   1.151  1.00  0.00     0.049 H 
ATOM      9  H   UNL     1       4.212   1.068   2.136  1.00  0.00     0.049 H 
BRANCH   7  10
ATOM     10  N   UNL     1       2.534   2.087   1.527  1.00  0.00    -0.356 N 
ATOM     11  C   UNL     1       1.191   2.058   1.290  1.00  0.00     0.227 C 
ATOM     12  O   UNL     1       0.610   3.126   1.486  1.00  0.00    -0.274 OA
ATOM     13  H   UNL     1       2.861   2.926   1.926  1.00  0.00     0.163 HD
BRANCH  11  14
ATOM     14  C   UNL     1       0.511   0.741   0.851  1.00  0.00     0.061 C 
ATOM     15  H   UNL     1       0.925   0.033   1.540  1.00  0.00     0.045 H 
BRANCH  14  16
ATOM     16  C   UNL     1       0.858   0.364  -0.590  1.00  0.00    -0.049 C 
ATOM     17  H   UNL     1       1.918   0.412  -0.726  1.00  0.00     0.024 H 
ATOM     18  H   UNL     1       0.381   1.047  -1.261  1.00  0.00     0.024 H 
ATOM     19  H   UNL     1       0.517  -0.630  -0.790  1.00  0.00     0.024 H 
ENDBRANCH  14  16
BRANCH  14  20
ATOM     20  C   UNL     1      -1.014   0.666   1.030  1.00  0.00    -0.028 A 
ATOM     21  C   UNL     1      -1.805   1.812   0.820  1.00  0.00    -0.057 A 
ATOM     22  C   UNL     1      -1.680  -0.563   1.286  1.00  0.00    -0.014 A 
ATOM     23  C   UNL     1      -3.191   1.787   0.949  1.00  0.00    -0.059 A 
ATOM     24  H   UNL     1      -1.343   2.698   0.562  1.00  0.00     0.063 H 
ATOM     25  C   UNL     1      -3.087  -0.559   1.436  1.00  0.00    -0.051 A 
ATOM     26  C   UNL     1      -3.847   0.608   1.290  1.00  0.00    -0.047 A 
ATOM     27  H   UNL     1      -3.735   2.649   0.791  1.00  0.00     0.063 H 
ATOM     28  H   UNL     1      -3.568  -1.444   1.661  1.00  0.00     0.063 H 
BRANCH  22  29
ATOM     29  C   UNL     1      -0.993  -1.872   1.280  1.00  0.00    -0.018 A 
ATOM     30  C   UNL     1      -1.230  -2.774   0.224  1.00  0.00    -0.054 A 
ATOM     31  C   UNL     1      -0.085  -2.252   2.278  1.00  0.00    -0.054 A 
ATOM     32  C   UNL     1      -0.557  -3.995   0.149  1.00  0.00    -0.062 A 
ATOM     33  H   UNL     1      -1.914  -2.527  -0.508  1.00  0.00     0.063 H 
ATOM     34  C   UNL     1       0.601  -3.469   2.196  1.00  0.00    -0.062 A 
ATOM     35  H   UNL     1       0.080  -1.627   3.082  1.00  0.00     0.063 H 
ATOM     36  C   UNL     1       0.368  -4.337   1.131  1.00  0.00    -0.062 A 
ATOM     37  H   UNL     1      -0.745  -4.642  -0.633  1.00  0.00     0.062 H 
ATOM     38  H   UNL     1       1.283  -3.724   2.928  1.00  0.00     0.062 H 
ATOM     39  H   UNL     1       0.879  -5.231   1.070  1.00  0.00     0.062 H 
ENDBRANCH  22  29
BRANCH  26  40
ATOM     40  C   UNL     1      -5.345   0.598   1.462  1.00  0.00    -0.018 C 
ATOM     41  H   UNL     1      -5.673  -0.419   1.408  1.00  0.00     0.032 H 
ATOM     42  H   UNL     1      -5.727   1.227   0.684  1.00  0.00     0.032 H 
BRANCH  40  43
ATOM     43  C   UNL     1      -5.880   1.193   2.769  1.00  0.00     0.022 C 
ATOM     44  C   UNL     1      -5.356   0.560   4.061  1.00  0.00    -0.043 C 
ATOM     45  C   UNL     1      -5.505   2.646   2.954  1.00  0.00     0.136 C 
ATOM     46  H   UNL     1      -6.928   1.016   2.644  1.00  0.00     0.039 H 
ATOM     47  C   UNL     1      -4.221   1.453   4.548  1.00  0.00    -0.046 C 
ATOM     48  H   UNL     1      -4.993  -0.427   3.868  1.00  0.00     0.027 H 
ATOM     49  H   UNL     1      -6.130   0.481   4.796  1.00  0.00     0.027 H 
ATOM     50  C   UNL     1      -4.600   2.869   4.136  1.00  0.00     0.006 C 
ATOM     51  O   UNL     1      -5.909   3.549   2.229  1.00  0.00    -0.299 OA
ATOM     52  H   UNL     1      -3.298   1.166   4.089  1.00  0.00     0.027 H 
ATOM     53  H   UNL     1      -4.085   1.374   5.606  1.00  0.00     0.027 H 
ATOM     54  H   UNL     1      -3.735   3.433   3.858  1.00  0.00     0.035 H 
ATOM     55  H   UNL     1      -5.064   3.427   4.923  1.00  0.00     0.035 H 
ENDBRANCH  40  43
ENDBRANCH  26  40
ENDBRANCH  14  20
ENDBRANCH  11  14
ENDBRANCH   7  10
ENDBRANCH   4   7
ENDBRANCH   1   4
BRANCH   1  56
ATOM     56  C   UNL     1       6.019   2.986   1.312  1.00  0.00    -0.052 C 
ATOM     57  H   UNL     1       5.422   3.007   2.199  1.00  0.00     0.027 H 
ATOM     58  H   UNL     1       6.553   3.897   1.142  1.00  0.00     0.027 H 
BRANCH  56  59
ATOM     59  C   UNL     1       7.072   1.890   1.473  1.00  0.00    -0.036 C 
ATOM     60  H   UNL     1       6.568   0.966   1.663  1.00  0.00     0.028 H 
ATOM     61  H   UNL     1       7.707   2.192   2.280  1.00  0.00     0.028 H 
BRANCH  59  62
ATOM     62  C   UNL     1       7.972   1.701   0.258  1.00  0.00     0.018 C 
ATOM     63  H   UNL     1       7.360   1.509  -0.599  1.00  0.00     0.049 H 
ATOM     64  H   UNL     1       8.628   0.879   0.458  1.00  0.00     0.049 H 
BRANCH  62  65
ATOM     65  N   UNL     1       8.791   2.873  -0.003  1.00  0.00    -0.352 N 
ATOM     66  C   UNL     1      10.152   2.959  -0.142  1.00  0.00     0.251 C 
ATOM     67  H   UNL     1       8.300   3.722  -0.093  1.00  0.00     0.163 HD
ATOM     68  O   UNL     1      10.710   4.055  -0.157  1.00  0.00    -0.269 OA
BRANCH  66  69
ATOM     69  C   UNL     1      10.953   1.723  -0.251  1.00  0.00     0.039 A 
ATOM     70  C   UNL     1      12.120   1.603   0.506  1.00  0.00    -0.049 A 
ATOM     71  C   UNL     1      10.546   0.683  -1.091  1.00  0.00    -0.049 A 
ATOM     72  C   UNL     1      12.849   0.414   0.464  1.00  0.00    -0.053 A 
ATOM     73  H   UNL     1      12.441   2.389   1.093  1.00  0.00     0.063 H 
ATOM     74  C   UNL     1      11.229  -0.529  -1.071  1.00  0.00    -0.053 A 
ATOM     75  H   UNL     1       9.742   0.813  -1.725  1.00  0.00     0.063 H 
ATOM     76  C   UNL     1      12.391  -0.674  -0.298  1.00  0.00    -0.014 A 
ATOM     77  H   UNL     1      13.730   0.334   0.996  1.00  0.00     0.063 H 
ATOM     78  H   UNL     1      10.880  -1.325  -1.628  1.00  0.00     0.063 H 
BRANCH  76  79
ATOM     79  C   UNL     1      13.116  -1.970  -0.299  1.00  0.00     0.031 A 
ATOM     80  C   UNL     1      13.726  -2.492  -1.570  1.00  0.00     0.074 A 
ATOM     81  C   UNL     1      13.173  -2.702   0.830  1.00  0.00     0.049 A 
ATOM     82  N   UNL     1      14.341  -3.627  -1.789  1.00  0.00    -0.248 NA
ATOM     83  C   UNL     1      13.608  -1.637  -2.762  1.00  0.00    -0.034 C 
ATOM     84  C   UNL     1      12.581  -2.324   2.114  1.00  0.00    -0.036 A 
ATOM     85  N   UNL     1      13.749  -3.924   1.078  1.00  0.00    -0.354 N 
ATOM     86  C   UNL     1      14.669  -3.626  -3.138  1.00  0.00     0.074 A 
ATOM     87  C   UNL     1      14.137  -2.405  -3.702  1.00  0.00    -0.034 C 
ATOM     88  H   UNL     1      13.214  -0.686  -2.844  1.00  0.00     0.065 H 
ATOM     89  C   UNL     1      12.844  -3.280   3.019  1.00  0.00    -0.036 A 
ATOM     90  H   UNL     1      12.047  -1.460   2.296  1.00  0.00     0.065 H 
ATOM     91  C   UNL     1      13.584  -4.359   2.371  1.00  0.00     0.049 A 
ATOM     92  H   UNL     1      14.234  -4.440   0.394  1.00  0.00     0.167 HD
ATOM     93  C   UNL     1      15.373  -4.548  -3.837  1.00  0.00     0.037 A 
ATOM     94  H   UNL     1      14.166  -2.165  -4.705  1.00  0.00     0.065 H 
ATOM     95  H   UNL     1      12.568  -3.257   4.013  1.00  0.00     0.065 H 
ATOM     96  C   UNL     1      13.976  -5.503   2.963  1.00  0.00     0.037 A 
ATOM     97  C   UNL     1      15.919  -5.751  -3.265  1.00  0.00     0.049 A 
ATOM     98  C   UNL     1      14.741  -6.519   2.157  1.00  0.00     0.074 A 
ATOM     99  C   UNL     1      16.694  -6.721  -3.876  1.00  0.00    -0.036 A 
ATOM    100  N   UNL     1      15.742  -6.151  -1.948  1.00  0.00    -0.354 N 
ATOM    101  N   UNL     1      15.107  -6.474   0.899  1.00  0.00    -0.248 NA
ATOM    102  C   UNL     1      15.154  -7.744   2.856  1.00  0.00    -0.034 C 
ATOM    103  C   UNL     1      16.939  -7.736  -2.945  1.00  0.00    -0.036 A 
ATOM    104  H   UNL     1      17.034  -6.699  -4.850  1.00  0.00     0.065 H 
ATOM    105  C   UNL     1      16.372  -7.368  -1.736  1.00  0.00     0.049 A 
ATOM    106  H   UNL     1      15.243  -5.646  -1.266  1.00  0.00     0.167 HD
ATOM    107  C   UNL     1      15.821  -7.642   0.666  1.00  0.00     0.074 A 
ATOM    108  C   UNL     1      15.849  -8.370   1.918  1.00  0.00    -0.034 C 
ATOM    109  H   UNL     1      14.955  -8.039   3.825  1.00  0.00     0.065 H 
ATOM    110  H   UNL     1      17.454  -8.611  -3.128  1.00  0.00     0.065 H 
ATOM    111  C   UNL     1      16.402  -8.073  -0.480  1.00  0.00     0.037 A 
ATOM    112  H   UNL     1      16.347  -9.262   2.061  1.00  0.00     0.065 H 
BRANCH  93 113
ATOM    113  C   UNL     1      15.597  -4.295  -5.300  1.00  0.00     0.064 A 
ATOM    114  C   UNL     1      16.438  -3.265  -5.750  1.00  0.00     0.173 A 
ATOM    115  C   UNL     1      15.004  -5.123  -6.265  1.00  0.00     0.173 A 
ATOM    116  F   UNL     1      17.022  -2.437  -4.871  1.00  0.00    -0.203 F 
ATOM    117  C   UNL     1      16.654  -3.058  -7.110  1.00  0.00     0.198 A 
ATOM    118  C   UNL     1      15.249  -4.934  -7.622  1.00  0.00     0.198 A 
ATOM    119  F   UNL     1      14.195  -6.127  -5.891  1.00  0.00    -0.203 F 
ATOM    120  F   UNL     1      17.423  -2.038  -7.516  1.00  0.00    -0.200 F 
ATOM    121  C   UNL     1      16.068  -3.898  -8.044  1.00  0.00     0.200 A 
ATOM    122  F   UNL     1      14.694  -5.757  -8.523  1.00  0.00    -0.200 F 
ATOM    123  F   UNL     1      16.288  -3.705  -9.352  1.00  0.00    -0.200 F 
ENDBRANCH  93 113
BRANCH  96 124
ATOM    124  C   UNL     1      13.667  -5.747   4.397  1.00  0.00     0.064 A 
ATOM    125  C   UNL     1      14.688  -5.802   5.357  1.00  0.00     0.173 A 
ATOM    126  C   UNL     1      12.350  -5.951   4.836  1.00  0.00     0.173 A 
ATOM    127  F   UNL     1      15.966  -5.633   4.985  1.00  0.00    -0.203 F 
ATOM    128  C   UNL     1      14.408  -6.081   6.693  1.00  0.00     0.198 A 
ATOM    129  C   UNL     1      12.068  -6.196   6.178  1.00  0.00     0.198 A 
ATOM    130  F   UNL     1      11.335  -5.903   3.961  1.00  0.00    -0.203 F 
ATOM    131  F   UNL     1      15.409  -6.185   7.577  1.00  0.00    -0.200 F 
ATOM    132  C   UNL     1      13.097  -6.273   7.103  1.00  0.00     0.200 A 
ATOM    133  F   UNL     1      10.798  -6.364   6.573  1.00  0.00    -0.200 F 
ATOM    134  F   UNL     1      12.828  -6.541   8.388  1.00  0.00    -0.200 F 
ENDBRANCH  96 124
BRANCH 111 135
ATOM    135  C   UNL     1      17.159  -9.370  -0.426  1.00  0.00     0.064 A 
ATOM    136  C   UNL     1      16.506 -10.603  -0.283  1.00  0.00     0.173 A 
ATOM    137  C   UNL     1      18.556  -9.379  -0.563  1.00  0.00     0.173 A 
ATOM    138  F   UNL     1      15.174 -10.649  -0.134  1.00  0.00    -0.203 F 
ATOM    139  C   UNL     1      17.227 -11.794  -0.249  1.00  0.00     0.198 A 
ATOM    140  C   UNL     1      19.269 -10.574  -0.565  1.00  0.00     0.198 A 
ATOM    141  F   UNL     1      19.229  -8.228  -0.712  1.00  0.00    -0.203 F 
ATOM    142  F   UNL     1      16.587 -12.956  -0.057  1.00  0.00    -0.200 F 
ATOM    143  C   UNL     1      18.606 -11.780  -0.399  1.00  0.00     0.200 A 
ATOM    144  F   UNL     1      20.599 -10.558  -0.727  1.00  0.00    -0.200 F 
ATOM    145  F   UNL     1      19.296 -12.928  -0.376  1.00  0.00    -0.200 F 
ENDBRANCH 111 135
ENDBRANCH  76  79
ENDBRANCH  66  69
ENDBRANCH  62  65
ENDBRANCH  59  62
ENDBRANCH  56  59
ENDBRANCH   1  56
TORSDOF 18
