REMARK SMILES C[C@H](C(=O)NCCCCCCNC(=O)c1ccc(-c2c3nc(c(-c4c(F)c(F)c(F)c(F)c4F)c4ccc([nH]4)c(-c4c(F)c(F)c(F)c(F)c4F)c4nc(c(-c5c(F)c(F)c(F)c(F)c5F)c5ccc2[nH]5)C=C4)C=C3)cc1)c1ccc2c(c1)[nH]c1ccc(Cl)cc12
REMARK SMILES IDX 9 1 8 2 7 3 6 4 5 5 3 6 4 7 2 9 1 10 78 11 79 12 83 13 80 14
REMARK SMILES IDX 82 15 81 16 84 17 91 18 85 19 90 21 86 22 88 23 87 24 89 25
REMARK SMILES IDX 10 26 11 27 12 28 13 29 14 31 15 32 16 33 77 34 17 35 76 36
REMARK SMILES IDX 18 37 19 38 20 39 70 40 21 41 75 42 69 43 71 44 22 45 74 46
REMARK SMILES IDX 68 47 67 48 23 50 55 51 35 52 54 53 36 54 39 55 53 56 72 57
REMARK SMILES IDX 37 58 38 59 52 61 73 62 40 63 24 64 25 65 33 66 26 67 27 68
REMARK SMILES IDX 31 69 34 70 28 71 29 72 32 73 30 74 56 75 57 76 65 77 58 78
REMARK SMILES IDX 59 79 63 80 66 81 60 82 61 83 64 84 62 85 41 86 42 87 50 88
REMARK SMILES IDX 43 89 44 90 48 91 51 92 45 93 46 94 49 95 47 96
REMARK H PARENT 5 8 84 20 12 30 71 49 39 60
REMARK Flexibility Score: inf
ROOT
ATOM      1  C   UNL     1       1.244   4.682   1.465  1.00  0.00     0.002 C 
ENDROOT
BRANCH   1   2
ATOM      2  C   UNL     1       0.040   3.739   1.560  1.00  0.00     0.002 C 
BRANCH   2   3
ATOM      3  C   UNL     1      -0.441   3.160   0.224  1.00  0.00     0.021 C 
BRANCH   3   4
ATOM      4  C   UNL     1       0.637   2.408  -0.553  1.00  0.00     0.116 C 
BRANCH   4   5
ATOM      5  N   UNL     1       1.039   1.211   0.154  1.00  0.00    -0.356 N 
ATOM      6  C   UNL     1       0.843  -0.100  -0.162  1.00  0.00     0.227 C 
ATOM      7  O   UNL     1       1.149  -0.942   0.686  1.00  0.00    -0.274 OA
ATOM      8  H   UNL     1       1.529   1.368   0.993  1.00  0.00     0.163 HD
BRANCH   6   9
ATOM      9  C   UNL     1       0.284  -0.486  -1.534  1.00  0.00     0.105 C 
ATOM     10  C   UNL     1       1.140  -1.637  -2.086  1.00  0.00     0.023 C 
BRANCH   9  11
ATOM     11  C   UNL     1      -1.201  -0.818  -1.450  1.00  0.00    -0.034 A 
ATOM     12  C   UNL     1      -2.167   0.146  -1.780  1.00  0.00     0.005 A 
ATOM     13  C   UNL     1      -1.622  -2.075  -0.993  1.00  0.00     0.031 A 
ATOM     14  C   UNL     1      -3.543  -0.128  -1.683  1.00  0.00     0.011 A 
ATOM     15  C   UNL     1      -2.993  -2.321  -0.877  1.00  0.00     0.047 A 
ATOM     16  C   UNL     1      -3.968  -1.389  -1.218  1.00  0.00     0.007 A 
ATOM     17  N   UNL     1      -3.638  -3.438  -0.411  1.00  0.00    -0.355 N 
ATOM     18  C   UNL     1      -5.243  -1.995  -0.957  1.00  0.00     0.009 A 
ATOM     19  C   UNL     1      -4.997  -3.244  -0.386  1.00  0.00     0.047 A 
ATOM     20  H   UNL     1      -3.188  -4.268  -0.132  1.00  0.00     0.167 HD
ATOM     21  C   UNL     1      -6.584  -1.587  -1.118  1.00  0.00     0.031 A 
ATOM     22  C   UNL     1      -6.007  -4.079   0.102  1.00  0.00     0.028 A 
ATOM     23  C   UNL     1      -7.607  -2.425  -0.657  1.00  0.00     0.041 A 
ATOM     24  C   UNL     1      -7.325  -3.639  -0.036  1.00  0.00     0.022 A 
ATOM     25  Cl  UNL     1      -9.249  -1.942  -0.854  1.00  0.00    -0.084 Cl
ENDBRANCH   9  11
ENDBRANCH   6   9
ENDBRANCH   4   5
ENDBRANCH   3   4
ENDBRANCH   2   3
ENDBRANCH   1   2
BRANCH   1  26
ATOM     26  C   UNL     1       1.084   5.835   0.473  1.00  0.00     0.021 C 
BRANCH  26  27
ATOM     27  C   UNL     1      -0.125   6.724   0.732  1.00  0.00     0.116 C 
BRANCH  27  28
ATOM     28  N   UNL     1      -0.032   7.419   2.006  1.00  0.00    -0.352 N 
ATOM     29  C   UNL     1      -0.149   8.760   2.271  1.00  0.00     0.251 C 
ATOM     30  H   UNL     1       0.139   6.846   2.788  1.00  0.00     0.163 HD
ATOM     31  O   UNL     1       0.148   9.204   3.373  1.00  0.00    -0.269 OA
BRANCH  29  32
ATOM     32  C   UNL     1      -0.620   9.675   1.210  1.00  0.00     0.039 A 
ATOM     33  C   UNL     1       0.036  10.895   1.028  1.00  0.00     0.014 A 
ATOM     34  C   UNL     1      -1.709   9.334   0.403  1.00  0.00     0.014 A 
ATOM     35  C   UNL     1      -0.373  11.754   0.006  1.00  0.00     0.010 A 
ATOM     36  C   UNL     1      -2.059  10.150  -0.668  1.00  0.00     0.010 A 
ATOM     37  C   UNL     1      -1.408  11.376  -0.866  1.00  0.00    -0.014 A 
BRANCH  37  38
ATOM     38  C   UNL     1      -1.846  12.265  -1.972  1.00  0.00     0.031 A 
ATOM     39  C   UNL     1      -3.242  12.823  -1.978  1.00  0.00     0.074 A 
ATOM     40  C   UNL     1      -1.011  12.523  -2.996  1.00  0.00     0.049 A 
ATOM     41  N   UNL     1      -3.833  13.572  -2.874  1.00  0.00    -0.248 NA
ATOM     42  C   UNL     1      -4.099  12.464  -0.837  1.00  0.00     0.031 C 
ATOM     43  C   UNL     1       0.353  12.008  -3.125  1.00  0.00     0.029 A 
ATOM     44  N   UNL     1      -1.190  13.280  -4.126  1.00  0.00    -0.354 N 
ATOM     45  C   UNL     1      -5.131  13.755  -2.416  1.00  0.00     0.074 A 
ATOM     46  C   UNL     1      -5.261  12.987  -1.196  1.00  0.00     0.031 C 
ATOM     47  C   UNL     1       0.898  12.492  -4.252  1.00  0.00     0.029 A 
ATOM     48  C   UNL     1      -0.088  13.315  -4.945  1.00  0.00     0.049 A 
ATOM     49  H   UNL     1      -2.029  13.754  -4.330  1.00  0.00     0.167 HD
ATOM     50  C   UNL     1      -6.119  14.514  -2.949  1.00  0.00     0.037 A 
ATOM     51  C   UNL     1       0.102  13.940  -6.122  1.00  0.00     0.037 A 
ATOM     52  C   UNL     1      -5.977  15.291  -4.152  1.00  0.00     0.049 A 
ATOM     53  C   UNL     1      -1.015  14.764  -6.704  1.00  0.00     0.074 A 
ATOM     54  C   UNL     1      -6.893  16.142  -4.744  1.00  0.00     0.029 A 
ATOM     55  N   UNL     1      -4.843  15.304  -4.954  1.00  0.00    -0.354 N 
ATOM     56  N   UNL     1      -2.215  14.991  -6.227  1.00  0.00    -0.248 NA
ATOM     57  C   UNL     1      -0.745  15.428  -7.987  1.00  0.00     0.031 C 
ATOM     58  C   UNL     1      -6.338  16.621  -5.936  1.00  0.00     0.029 A 
ATOM     59  C   UNL     1      -5.049  16.125  -6.051  1.00  0.00     0.049 A 
ATOM     60  H   UNL     1      -4.016  14.803  -4.770  1.00  0.00     0.167 HD
ATOM     61  C   UNL     1      -2.829  15.851  -7.127  1.00  0.00     0.074 A 
ATOM     62  C   UNL     1      -1.865  16.111  -8.177  1.00  0.00     0.031 C 
ATOM     63  C   UNL     1      -4.076  16.383  -7.085  1.00  0.00     0.037 A 
BRANCH  50  64
ATOM     64  C   UNL     1      -7.443  14.523  -2.237  1.00  0.00     0.064 A 
ATOM     65  C   UNL     1      -7.596  15.086  -0.959  1.00  0.00     0.173 A 
ATOM     66  C   UNL     1      -8.579  13.961  -2.841  1.00  0.00     0.173 A 
ATOM     67  F   UNL     1      -6.543  15.628  -0.330  1.00  0.00    -0.203 F 
ATOM     68  C   UNL     1      -8.820  15.041  -0.295  1.00  0.00     0.198 A 
ATOM     69  C   UNL     1      -9.810  13.953  -2.190  1.00  0.00     0.198 A 
ATOM     70  F   UNL     1      -8.495  13.416  -4.064  1.00  0.00    -0.203 F 
ATOM     71  F   UNL     1      -8.920  15.519   0.953  1.00  0.00    -0.200 F 
ATOM     72  C   UNL     1      -9.926  14.480  -0.913  1.00  0.00     0.200 A 
ATOM     73  F   UNL     1     -10.882  13.425  -2.796  1.00  0.00    -0.200 F 
ATOM     74  F   UNL     1     -11.103  14.436  -0.273  1.00  0.00    -0.200 F 
ENDBRANCH  50  64
BRANCH  51  75
ATOM     75  C   UNL     1       1.419  13.846  -6.804  1.00  0.00     0.064 A 
ATOM     76  C   UNL     1       2.262  14.964  -6.889  1.00  0.00     0.173 A 
ATOM     77  C   UNL     1       1.868  12.646  -7.372  1.00  0.00     0.173 A 
ATOM     78  F   UNL     1       1.868  16.139  -6.378  1.00  0.00    -0.203 F 
ATOM     79  C   UNL     1       3.496  14.888  -7.531  1.00  0.00     0.198 A 
ATOM     80  C   UNL     1       3.115  12.563  -7.987  1.00  0.00     0.198 A 
ATOM     81  F   UNL     1       1.103  11.546  -7.312  1.00  0.00    -0.203 F 
ATOM     82  F   UNL     1       4.263  15.981  -7.633  1.00  0.00    -0.200 F 
ATOM     83  C   UNL     1       3.925  13.686  -8.073  1.00  0.00     0.200 A 
ATOM     84  F   UNL     1       3.534  11.396  -8.496  1.00  0.00    -0.200 F 
ATOM     85  F   UNL     1       5.117  13.611  -8.682  1.00  0.00    -0.200 F 
ENDBRANCH  51  75
BRANCH  63  86
ATOM     86  C   UNL     1      -4.455  17.344  -8.176  1.00  0.00     0.064 A 
ATOM     87  C   UNL     1      -4.666  16.923  -9.498  1.00  0.00     0.173 A 
ATOM     88  C   UNL     1      -4.647  18.703  -7.883  1.00  0.00     0.173 A 
ATOM     89  F   UNL     1      -4.482  15.638  -9.835  1.00  0.00    -0.203 F 
ATOM     90  C   UNL     1      -5.023  17.833 -10.490  1.00  0.00     0.198 A 
ATOM     91  C   UNL     1      -5.040  19.603  -8.870  1.00  0.00     0.198 A 
ATOM     92  F   UNL     1      -4.467  19.158  -6.634  1.00  0.00    -0.203 F 
ATOM     93  F   UNL     1      -5.164  17.418 -11.757  1.00  0.00    -0.200 F 
ATOM     94  C   UNL     1      -5.218  19.169 -10.174  1.00  0.00     0.200 A 
ATOM     95  F   UNL     1      -5.245  20.890  -8.558  1.00  0.00    -0.200 F 
ATOM     96  F   UNL     1      -5.571  20.041 -11.129  1.00  0.00    -0.200 F 
ENDBRANCH  63  86
ENDBRANCH  37  38
ENDBRANCH  29  32
ENDBRANCH  27  28
ENDBRANCH  26  27
ENDBRANCH   1  26
TORSDOF 14
