REMARK SMILES CC[NH2+][C@@](C)(C[C@@H](C)Sc1ccncc1)C(=O)NCCCCCCNC(=O)c1ccc(-c2c3nc(c(-c4c(F)c(F)c(F)c(F)c4F)c4ccc([nH]4)c(-c4c(F)c(F)c(F)c(F)c4F)c4nc(c(-c5c(F)c(F)c(F)c(F)c5F)c5ccc2[nH]5)C=C4)C=C3)cc1
REMARK SMILES IDX 20 1 19 2 18 3 16 4 17 5 4 7 5 8 3 9 2 12 1 13 6 14 7 15
REMARK SMILES IDX 8 16 9 17 10 18 11 19 15 20 12 21 14 22 13 23 21 24 22 25
REMARK SMILES IDX 23 26 24 27 25 28 26 29 27 31 28 32 29 33 90 34 30 35 89 36
REMARK SMILES IDX 31 37 32 38 33 39 83 40 34 41 88 42 82 43 84 44 35 45 87 46
REMARK SMILES IDX 81 47 80 48 36 50 68 51 48 52 67 53 49 54 52 55 66 56 85 57
REMARK SMILES IDX 50 58 51 59 65 61 86 62 53 63 37 64 38 65 46 66 39 67 40 68
REMARK SMILES IDX 44 69 47 70 41 71 42 72 45 73 43 74 69 75 70 76 78 77 71 78
REMARK SMILES IDX 72 79 76 80 79 81 73 82 74 83 77 84 75 85 54 86 55 87 63 88
REMARK SMILES IDX 56 89 57 90 61 91 64 92 58 93 59 94 62 95 60 96
REMARK H PARENT 18 6 3 10 3 11 25 30 84 49 52 60
REMARK Flexibility Score: inf
ROOT
ATOM      1  C   UNL     1      -1.691   3.861  -5.960  1.00  0.00     0.021 C 
ENDROOT
BRANCH   1   2
ATOM      2  C   UNL     1      -1.132   4.143  -4.568  1.00  0.00     0.116 C 
BRANCH   2   3
ATOM      3  N   UNL     1      -1.613   3.175  -3.607  1.00  0.00    -0.351 N 
ATOM      4  C   UNL     1      -1.023   2.158  -2.922  1.00  0.00     0.281 C 
ATOM      5  O   UNL     1      -1.812   1.461  -2.275  1.00  0.00    -0.268 OA
ATOM      6  H   UNL     1      -2.572   3.273  -3.405  1.00  0.00     0.163 HD
BRANCH   4   7
ATOM      7  C   UNL     1       0.527   1.906  -2.945  1.00  0.00     0.173 C 
ATOM      8  C   UNL     1       1.263   3.170  -2.434  1.00  0.00     0.090 C 
BRANCH   7   9
ATOM      9  N   UNL     1       0.912   0.757  -2.065  1.00  0.00    -0.334 N 
ATOM     10  H   UNL     1       0.417  -0.071  -2.397  1.00  0.00     0.347 HD
ATOM     11  H   UNL     1       1.927   0.686  -2.129  1.00  0.00     0.347 HD
BRANCH   9  12
ATOM     12  C   UNL     1       0.611   0.921  -0.637  1.00  0.00     0.257 C 
ATOM     13  C   UNL     1       1.141  -0.275   0.142  1.00  0.00     0.071 C 
ENDBRANCH   9  12
ENDBRANCH   7   9
BRANCH   7  14
ATOM     14  C   UNL     1       1.041   1.572  -4.379  1.00  0.00     0.093 C 
BRANCH  14  15
ATOM     15  C   UNL     1       0.626   0.241  -5.042  1.00  0.00     0.055 C 
ATOM     16  C   UNL     1      -0.867  -0.014  -5.211  1.00  0.00     0.020 C 
BRANCH  15  17
ATOM     17  S   UNL     1       1.499   0.029  -6.684  1.00  0.00    -0.123 SA
BRANCH  17  18
ATOM     18  C   UNL     1       0.874   1.358  -7.703  1.00  0.00     0.011 A 
ATOM     19  C   UNL     1       1.412   2.642  -7.618  1.00  0.00     0.035 A 
ATOM     20  C   UNL     1      -0.067   1.095  -8.698  1.00  0.00     0.035 A 
ATOM     21  C   UNL     1       0.946   3.618  -8.485  1.00  0.00     0.112 A 
ATOM     22  C   UNL     1      -0.464   2.136  -9.525  1.00  0.00     0.112 A 
ATOM     23  N   UNL     1       0.004   3.399  -9.425  1.00  0.00    -0.265 NA
ENDBRANCH  17  18
ENDBRANCH  15  17
ENDBRANCH  14  15
ENDBRANCH   7  14
ENDBRANCH   4   7
ENDBRANCH   2   3
ENDBRANCH   1   2
BRANCH   1  24
ATOM     24  C   UNL     1      -3.204   4.049  -6.080  1.00  0.00     0.002 C 
BRANCH  24  25
ATOM     25  C   UNL     1      -3.691   5.455  -5.719  1.00  0.00     0.002 C 
BRANCH  25  26
ATOM     26  C   UNL     1      -2.953   6.585  -6.441  1.00  0.00     0.021 C 
BRANCH  26  27
ATOM     27  C   UNL     1      -2.986   6.478  -7.960  1.00  0.00     0.116 C 
BRANCH  27  28
ATOM     28  N   UNL     1      -4.338   6.622  -8.475  1.00  0.00    -0.352 N 
ATOM     29  C   UNL     1      -4.818   7.543  -9.370  1.00  0.00     0.251 C 
ATOM     30  H   UNL     1      -4.996   5.973  -8.136  1.00  0.00     0.163 HD
ATOM     31  O   UNL     1      -6.027   7.686  -9.536  1.00  0.00    -0.269 OA
BRANCH  29  32
ATOM     32  C   UNL     1      -3.864   8.378 -10.125  1.00  0.00     0.039 A 
ATOM     33  C   UNL     1      -4.081   9.754 -10.209  1.00  0.00     0.014 A 
ATOM     34  C   UNL     1      -2.747   7.798 -10.733  1.00  0.00     0.014 A 
ATOM     35  C   UNL     1      -3.147  10.560 -10.861  1.00  0.00     0.010 A 
ATOM     36  C   UNL     1      -1.780   8.610 -11.314  1.00  0.00     0.010 A 
ATOM     37  C   UNL     1      -1.974   9.998 -11.393  1.00  0.00    -0.014 A 
BRANCH  37  38
ATOM     38  C   UNL     1      -0.944  10.835 -12.058  1.00  0.00     0.031 A 
ATOM     39  C   UNL     1      -0.638  10.618 -13.515  1.00  0.00     0.074 A 
ATOM     40  C   UNL     1      -0.236  11.729 -11.340  1.00  0.00     0.049 A 
ATOM     41  N   UNL     1       0.300  11.155 -14.254  1.00  0.00    -0.248 NA
ATOM     42  C   UNL     1      -1.480   9.646 -14.232  1.00  0.00     0.031 C 
ATOM     43  C   UNL     1      -0.419  12.007  -9.915  1.00  0.00     0.029 A 
ATOM     44  N   UNL     1       0.794  12.559 -11.709  1.00  0.00    -0.354 N 
ATOM     45  C   UNL     1       0.174  10.570 -15.507  1.00  0.00     0.074 A 
ATOM     46  C   UNL     1      -0.899   9.606 -15.422  1.00  0.00     0.031 C 
ATOM     47  C   UNL     1       0.459  12.949  -9.533  1.00  0.00     0.029 A 
ATOM     48  C   UNL     1       1.299  13.308 -10.673  1.00  0.00     0.049 A 
ATOM     49  H   UNL     1       1.139  12.613 -12.630  1.00  0.00     0.167 HD
ATOM     50  C   UNL     1       0.882  10.829 -16.631  1.00  0.00     0.037 A 
ATOM     51  C   UNL     1       2.335  14.168 -10.643  1.00  0.00     0.037 A 
ATOM     52  C   UNL     1       1.924  11.817 -16.720  1.00  0.00     0.049 A 
ATOM     53  C   UNL     1       3.112  14.422 -11.909  1.00  0.00     0.074 A 
ATOM     54  C   UNL     1       2.650  12.204 -17.833  1.00  0.00     0.029 A 
ATOM     55  N   UNL     1       2.388  12.573 -15.655  1.00  0.00    -0.354 N 
ATOM     56  N   UNL     1       2.936  13.917 -13.106  1.00  0.00    -0.248 NA
ATOM     57  C   UNL     1       4.232  15.371 -11.822  1.00  0.00     0.031 C 
ATOM     58  C   UNL     1       3.595  13.150 -17.429  1.00  0.00     0.029 A 
ATOM     59  C   UNL     1       3.412  13.404 -16.080  1.00  0.00     0.049 A 
ATOM     60  H   UNL     1       2.042  12.526 -14.734  1.00  0.00     0.167 HD
ATOM     61  C   UNL     1       3.888  14.519 -13.919  1.00  0.00     0.074 A 
ATOM     62  C   UNL     1       4.635  15.433 -13.082  1.00  0.00     0.031 C 
ATOM     63  C   UNL     1       4.122  14.333 -15.241  1.00  0.00     0.037 A 
BRANCH  50  64
ATOM     64  C   UNL     1       0.561  10.039 -17.866  1.00  0.00     0.064 A 
ATOM     65  C   UNL     1      -0.631  10.234 -18.579  1.00  0.00     0.173 A 
ATOM     66  C   UNL     1       1.499   9.135 -18.390  1.00  0.00     0.173 A 
ATOM     67  F   UNL     1      -1.564  11.080 -18.116  1.00  0.00    -0.203 F 
ATOM     68  C   UNL     1      -0.878   9.544 -19.763  1.00  0.00     0.198 A 
ATOM     69  C   UNL     1       1.261   8.470 -19.590  1.00  0.00     0.198 A 
ATOM     70  F   UNL     1       2.658   8.916 -17.750  1.00  0.00    -0.203 F 
ATOM     71  F   UNL     1      -2.038   9.723 -20.410  1.00  0.00    -0.200 F 
ATOM     72  C   UNL     1       0.072   8.672 -20.273  1.00  0.00     0.200 A 
ATOM     73  F   UNL     1       2.188   7.642 -20.090  1.00  0.00    -0.200 F 
ATOM     74  F   UNL     1      -0.158   8.027 -21.425  1.00  0.00    -0.200 F 
ENDBRANCH  50  64
BRANCH  51  75
ATOM     75  C   UNL     1       2.710  14.859  -9.379  1.00  0.00     0.064 A 
ATOM     76  C   UNL     1       2.596  16.252  -9.255  1.00  0.00     0.173 A 
ATOM     77  C   UNL     1       3.242  14.152  -8.289  1.00  0.00     0.173 A 
ATOM     78  F   UNL     1       2.112  16.976 -10.275  1.00  0.00    -0.203 F 
ATOM     79  C   UNL     1       3.039  16.914  -8.112  1.00  0.00     0.198 A 
ATOM     80  C   UNL     1       3.650  14.812  -7.132  1.00  0.00     0.198 A 
ATOM     81  F   UNL     1       3.368  12.819  -8.349  1.00  0.00    -0.203 F 
ATOM     82  F   UNL     1       2.986  18.252  -8.054  1.00  0.00    -0.200 F 
ATOM     83  C   UNL     1       3.564  16.194  -7.051  1.00  0.00     0.200 A 
ATOM     84  F   UNL     1       4.142  14.111  -6.102  1.00  0.00    -0.200 F 
ATOM     85  F   UNL     1       4.000  16.831  -5.956  1.00  0.00    -0.200 F 
ENDBRANCH  51  75
BRANCH  63  86
ATOM     86  C   UNL     1       5.180  15.179 -15.888  1.00  0.00     0.064 A 
ATOM     87  C   UNL     1       6.545  14.985 -15.632  1.00  0.00     0.173 A 
ATOM     88  C   UNL     1       4.820  16.158 -16.827  1.00  0.00     0.173 A 
ATOM     89  F   UNL     1       6.941  14.071 -14.733  1.00  0.00    -0.203 F 
ATOM     90  C   UNL     1       7.509  15.756 -16.277  1.00  0.00     0.198 A 
ATOM     91  C   UNL     1       5.787  16.902 -17.495  1.00  0.00     0.198 A 
ATOM     92  F   UNL     1       3.528  16.378 -17.114  1.00  0.00    -0.203 F 
ATOM     93  F   UNL     1       8.806  15.585 -15.983  1.00  0.00    -0.200 F 
ATOM     94  C   UNL     1       7.130  16.706 -17.214  1.00  0.00     0.200 A 
ATOM     95  F   UNL     1       5.419  17.806 -18.414  1.00  0.00    -0.200 F 
ATOM     96  F   UNL     1       8.061  17.435 -17.845  1.00  0.00    -0.200 F 
ENDBRANCH  63  86
ENDBRANCH  37  38
ENDBRANCH  29  32
ENDBRANCH  27  28
ENDBRANCH  26  27
ENDBRANCH  25  26
ENDBRANCH  24  25
ENDBRANCH   1  24
TORSDOF 19
