REMARK SMILES CSCC[C@H](C(=O)NCCCCCCNC(=O)c1ccc(-c2c3nc(c(-c4c(F)c(F)c(F)c(F)c4F)c4ccc([nH]4)c(-c4c(F)c(F)c(F)c(F)c4F)c4nc(c(-c5c(F)c(F)c(F)c(F)c5F)c5ccc2[nH]5)C=C4)C=C3)cc1)N1C(=O)/C(=C/c2cn(C)c3ccccc23)SC1=S
REMARK SMILES IDX 11 1 10 2 9 3 8 4 6 5 7 6 5 8 4 9 3 10 2 11 1 12 81 13 82 14
REMARK SMILES IDX 97 15 83 16 84 17 96 18 98 19 85 20 86 21 87 22 95 23 88 24
REMARK SMILES IDX 90 25 94 26 89 27 91 28 93 29 92 30 12 31 13 32 14 33 15 34
REMARK SMILES IDX 16 35 17 37 18 38 19 39 80 40 20 41 79 42 21 43 22 44 23 45
REMARK SMILES IDX 73 46 24 47 78 48 72 49 74 50 25 51 77 52 71 53 70 54 26 56
REMARK SMILES IDX 58 57 38 58 57 59 39 60 42 61 56 62 75 63 40 64 41 65 55 67
REMARK SMILES IDX 76 68 43 69 27 70 28 71 36 72 29 73 30 74 34 75 37 76 31 77
REMARK SMILES IDX 32 78 35 79 33 80 59 81 60 82 68 83 61 84 62 85 66 86 69 87
REMARK SMILES IDX 63 88 64 89 67 90 65 91 44 92 45 93 53 94 46 95 47 96 51 97
REMARK SMILES IDX 54 98 48 99 49 100 52 101 50 102
REMARK H PARENT 8 7 15 36 74 55 42 66
REMARK Flexibility Score: inf
ROOT
ATOM      1  C   UNL     1      -0.248   3.053  -7.381  1.00  0.00     0.002 C 
ENDROOT
BRANCH   1   2
ATOM      2  C   UNL     1       0.479   2.984  -6.041  1.00  0.00     0.021 C 
BRANCH   2   3
ATOM      3  C   UNL     1      -0.380   2.481  -4.875  1.00  0.00     0.116 C 
BRANCH   3   4
ATOM      4  N   UNL     1       0.368   1.612  -3.996  1.00  0.00    -0.354 N 
ATOM      5  C   UNL     1       0.157   1.518  -2.648  1.00  0.00     0.243 C 
ATOM      6  O   UNL     1      -0.206   0.390  -2.275  1.00  0.00    -0.273 OA
ATOM      7  H   UNL     1       1.074   1.052  -4.393  1.00  0.00     0.163 HD
BRANCH   5   8
ATOM      8  C   UNL     1       0.847   2.506  -1.603  1.00  0.00     0.182 C 
BRANCH   8   9
ATOM      9  C   UNL     1       2.259   1.753  -1.384  1.00  0.00     0.046 C 
BRANCH   9  10
ATOM     10  C   UNL     1       3.243   1.815  -0.200  1.00  0.00     0.072 C 
BRANCH  10  11
ATOM     11  S   UNL     1       2.830   1.828   1.577  1.00  0.00    -0.165 SA
ATOM     12  C   UNL     1       1.158   2.480   1.667  1.00  0.00     0.085 C 
ENDBRANCH  10  11
ENDBRANCH   9  10
ENDBRANCH   8   9
BRANCH   8  13
ATOM     13  N   UNL     1       0.586   4.277  -1.722  1.00  0.00    -0.280 N 
ATOM     14  C   UNL     1      -0.593   4.348  -1.156  1.00  0.00     0.266 C 
ATOM     15  C   UNL     1       1.891   5.698  -2.318  1.00  0.00     0.149 C 
ATOM     16  O   UNL     1      -1.459   3.610  -0.768  1.00  0.00    -0.268 OA
ATOM     17  C   UNL     1      -0.502   5.504  -1.875  1.00  0.00     0.081 C 
ATOM     18  S   UNL     1       1.337   7.061  -2.494  1.00  0.00    -0.054 SA
ATOM     19  S   UNL     1       3.778   5.831  -2.837  1.00  0.00    -0.052 S 
ATOM     20  C   UNL     1      -1.879   5.852  -2.100  1.00  0.00     0.031 C 
BRANCH  20  21
ATOM     21  C   UNL     1      -1.944   7.130  -2.673  1.00  0.00     0.001 A 
ATOM     22  C   UNL     1      -1.892   8.334  -1.938  1.00  0.00     0.094 A 
ATOM     23  C   UNL     1      -0.602   6.915  -3.015  1.00  0.00     0.007 A 
ATOM     24  N   UNL     1      -0.804   8.386  -1.015  1.00  0.00    -0.350 N 
ATOM     25  C   UNL     1      -0.162   7.153  -1.099  1.00  0.00     0.048 A 
ATOM     26  C   UNL     1       0.380   5.351  -3.746  1.00  0.00     0.011 A 
ATOM     27  C   UNL     1      -0.033   9.611  -0.827  1.00  0.00     0.149 C 
ATOM     28  C   UNL     1       1.191   5.948  -0.369  1.00  0.00     0.027 A 
ATOM     29  C   UNL     1       1.765   4.123  -3.067  1.00  0.00     0.001 A 
ATOM     30  C   UNL     1       2.245   4.475  -1.128  1.00  0.00     0.002 A 
ENDBRANCH  20  21
ENDBRANCH   8  13
ENDBRANCH   5   8
ENDBRANCH   3   4
ENDBRANCH   2   3
ENDBRANCH   1   2
BRANCH   1  31
ATOM     31  C   UNL     1      -1.681   3.596  -7.373  1.00  0.00     0.002 C 
BRANCH  31  32
ATOM     32  C   UNL     1      -1.869   5.075  -7.035  1.00  0.00     0.021 C 
BRANCH  32  33
ATOM     33  C   UNL     1      -1.041   6.042  -7.873  1.00  0.00     0.116 C 
BRANCH  33  34
ATOM     34  N   UNL     1      -1.238   5.812  -9.297  1.00  0.00    -0.352 N 
ATOM     35  C   UNL     1      -1.812   6.615 -10.248  1.00  0.00     0.251 C 
ATOM     36  H   UNL     1      -0.908   4.946  -9.628  1.00  0.00     0.163 HD
ATOM     37  O   UNL     1      -2.168   6.138 -11.320  1.00  0.00    -0.269 OA
BRANCH  35  38
ATOM     38  C   UNL     1      -1.998   8.055  -9.983  1.00  0.00     0.039 A 
ATOM     39  C   UNL     1      -3.164   8.681 -10.427  1.00  0.00     0.014 A 
ATOM     40  C   UNL     1      -1.006   8.794  -9.333  1.00  0.00     0.014 A 
ATOM     41  C   UNL     1      -3.357  10.039 -10.174  1.00  0.00     0.010 A 
ATOM     42  C   UNL     1      -1.238  10.124  -9.002  1.00  0.00     0.010 A 
ATOM     43  C   UNL     1      -2.411  10.763  -9.428  1.00  0.00    -0.014 A 
BRANCH  43  44
ATOM     44  C   UNL     1      -2.637  12.190  -9.088  1.00  0.00     0.031 A 
ATOM     45  C   UNL     1      -1.695  13.248  -9.593  1.00  0.00     0.074 A 
ATOM     46  C   UNL     1      -3.667  12.524  -8.287  1.00  0.00     0.049 A 
ATOM     47  N   UNL     1      -1.700  14.537  -9.363  1.00  0.00    -0.248 NA
ATOM     48  C   UNL     1      -0.588  12.798 -10.453  1.00  0.00     0.031 C 
ATOM     49  C   UNL     1      -4.623  11.580  -7.704  1.00  0.00     0.029 A 
ATOM     50  N   UNL     1      -4.081  13.745  -7.819  1.00  0.00    -0.354 N 
ATOM     51  C   UNL     1      -0.602  15.046 -10.044  1.00  0.00     0.074 A 
ATOM     52  C   UNL     1       0.085  13.923 -10.642  1.00  0.00     0.031 C 
ATOM     53  C   UNL     1      -5.529  12.260  -6.984  1.00  0.00     0.029 A 
ATOM     54  C   UNL     1      -5.187  13.678  -7.007  1.00  0.00     0.049 A 
ATOM     55  H   UNL     1      -3.628  14.590  -8.044  1.00  0.00     0.167 HD
ATOM     56  C   UNL     1      -0.219  16.338 -10.180  1.00  0.00     0.037 A 
ATOM     57  C   UNL     1      -5.840  14.649  -6.341  1.00  0.00     0.037 A 
ATOM     58  C   UNL     1      -0.912  17.451  -9.585  1.00  0.00     0.049 A 
ATOM     59  C   UNL     1      -5.359  16.071  -6.471  1.00  0.00     0.074 A 
ATOM     60  C   UNL     1      -0.626  18.801  -9.695  1.00  0.00     0.029 A 
ATOM     61  N   UNL     1      -2.023  17.343  -8.762  1.00  0.00    -0.354 N 
ATOM     62  N   UNL     1      -4.360  16.548  -7.173  1.00  0.00    -0.248 NA
ATOM     63  C   UNL     1      -6.103  17.091  -5.720  1.00  0.00     0.031 C 
ATOM     64  C   UNL     1      -1.518  19.503  -8.880  1.00  0.00     0.029 A 
ATOM     65  C   UNL     1      -2.413  18.601  -8.329  1.00  0.00     0.049 A 
ATOM     66  H   UNL     1      -2.469  16.499  -8.521  1.00  0.00     0.167 HD
ATOM     67  C   UNL     1      -4.378  17.923  -6.978  1.00  0.00     0.074 A 
ATOM     68  C   UNL     1      -5.501  18.205  -6.109  1.00  0.00     0.031 C 
ATOM     69  C   UNL     1      -3.541  18.868  -7.473  1.00  0.00     0.037 A 
BRANCH  56  70
ATOM     70  C   UNL     1       1.006  16.624 -11.001  1.00  0.00     0.064 A 
ATOM     71  C   UNL     1       1.026  16.424 -12.390  1.00  0.00     0.173 A 
ATOM     72  C   UNL     1       2.155  17.163 -10.402  1.00  0.00     0.173 A 
ATOM     73  F   UNL     1      -0.041  15.903 -13.014  1.00  0.00    -0.203 F 
ATOM     74  C   UNL     1       2.158  16.728 -13.143  1.00  0.00     0.198 A 
ATOM     75  C   UNL     1       3.271  17.501 -11.163  1.00  0.00     0.198 A 
ATOM     76  F   UNL     1       2.189  17.381  -9.079  1.00  0.00    -0.203 F 
ATOM     77  F   UNL     1       2.170  16.484 -14.461  1.00  0.00    -0.200 F 
ATOM     78  C   UNL     1       3.274  17.277 -12.531  1.00  0.00     0.200 A 
ATOM     79  F   UNL     1       4.341  18.049 -10.572  1.00  0.00    -0.200 F 
ATOM     80  F   UNL     1       4.356  17.586 -13.259  1.00  0.00    -0.200 F 
ENDBRANCH  56  70
BRANCH  57  81
ATOM     81  C   UNL     1      -7.013  14.319  -5.487  1.00  0.00     0.064 A 
ATOM     82  C   UNL     1      -8.292  14.808  -5.789  1.00  0.00     0.173 A 
ATOM     83  C   UNL     1      -6.874  13.542  -4.326  1.00  0.00     0.173 A 
ATOM     84  F   UNL     1      -8.477  15.570  -6.878  1.00  0.00    -0.203 F 
ATOM     85  C   UNL     1      -9.374  14.573  -4.942  1.00  0.00     0.198 A 
ATOM     86  C   UNL     1      -7.965  13.272  -3.503  1.00  0.00     0.198 A 
ATOM     87  F   UNL     1      -5.675  13.041  -3.991  1.00  0.00    -0.203 F 
ATOM     88  F   UNL     1     -10.566  15.118  -5.216  1.00  0.00    -0.200 F 
ATOM     89  C   UNL     1      -9.210  13.801  -3.802  1.00  0.00     0.200 A 
ATOM     90  F   UNL     1      -7.805  12.509  -2.413  1.00  0.00    -0.200 F 
ATOM     91  F   UNL     1     -10.248  13.580  -2.985  1.00  0.00    -0.200 F 
ENDBRANCH  57  81
BRANCH  69  92
ATOM     92  C   UNL     1      -3.835  20.302  -7.130  1.00  0.00     0.064 A 
ATOM     93  C   UNL     1      -3.695  20.799  -5.826  1.00  0.00     0.173 A 
ATOM     94  C   UNL     1      -4.230  21.202  -8.134  1.00  0.00     0.173 A 
ATOM     95  F   UNL     1      -3.332  19.981  -4.826  1.00  0.00    -0.203 F 
ATOM     96  C   UNL     1      -3.975  22.131  -5.533  1.00  0.00     0.198 A 
ATOM     97  C   UNL     1      -4.466  22.542  -7.845  1.00  0.00     0.198 A 
ATOM     98  F   UNL     1      -4.370  20.784  -9.401  1.00  0.00    -0.203 F 
ATOM     99  F   UNL     1      -3.897  22.567  -4.268  1.00  0.00    -0.200 F 
ATOM    100  C   UNL     1      -4.351  23.003  -6.543  1.00  0.00     0.200 A 
ATOM    101  F   UNL     1      -4.807  23.387  -8.828  1.00  0.00    -0.200 F 
ATOM    102  F   UNL     1      -4.609  24.288  -6.261  1.00  0.00    -0.200 F 
ENDBRANCH  69  92
ENDBRANCH  43  44
ENDBRANCH  35  38
ENDBRANCH  33  34
ENDBRANCH  32  33
ENDBRANCH  31  32
ENDBRANCH   1  31
TORSDOF 18
