REMARK SMILES CC(=O)Oc1ccc([C@H]2Nc3c(C(=O)NCCCCCCNC(=O)c4ccc(-c5c6nc(c(-c7c(F)c(F)c(F)c(F)c7F)c7ccc([nH]7)c(-c7c(F)c(F)c(F)c(F)c7F)c7nc(c(-c8c(F)c(F)c(F)c(F)c8F)c8ccc5[nH]8)C=C7)C=C6)cc4)ccc([N+](=O)[O-])c3[C@H]3C=CC[C@@H]32)cc1
REMARK SMILES IDX 18 1 17 2 16 3 15 4 13 5 14 6 12 8 9 9 10 10 99 11 11 12
REMARK SMILES IDX 95 14 98 15 94 16 96 17 97 18 88 19 90 20 89 21 8 22 5 23
REMARK SMILES IDX 6 24 101 25 7 26 100 27 4 28 2 29 1 30 3 31 91 32 92 33
REMARK SMILES IDX 93 34 19 35 20 36 21 37 22 38 23 39 24 41 25 42 26 43 87 44
REMARK SMILES IDX 27 45 86 46 28 47 29 48 30 49 80 50 31 51 85 52 79 53 81 54
REMARK SMILES IDX 32 55 84 56 78 57 77 58 33 60 65 61 45 62 64 63 46 64 49 65
REMARK SMILES IDX 63 66 82 67 47 68 48 69 62 71 83 72 50 73 34 74 35 75 43 76
REMARK SMILES IDX 36 77 37 78 41 79 44 80 38 81 39 82 42 83 40 84 66 85 67 86
REMARK SMILES IDX 75 87 68 88 69 89 73 90 76 91 70 92 71 93 74 94 72 95 51 96
REMARK SMILES IDX 52 97 60 98 53 99 54 100 58 101 61 102 55 103 56 104 59 105
REMARK SMILES IDX 57 106
REMARK H PARENT 15 7 10 13 22 40 81 59 49 70
REMARK Flexibility Score: inf
ROOT
ATOM      1  C   UNL     1       3.897  10.061  10.507  1.00  0.00     0.002 C 
ENDROOT
BRANCH   1   2
ATOM      2  C   UNL     1       2.591   9.277  10.644  1.00  0.00     0.021 C 
BRANCH   2   3
ATOM      3  C   UNL     1       1.483   9.692   9.681  1.00  0.00     0.116 C 
BRANCH   3   4
ATOM      4  N   UNL     1       1.755   9.325   8.293  1.00  0.00    -0.352 N 
ATOM      5  C   UNL     1       0.961   8.627   7.398  1.00  0.00     0.253 C 
ATOM      6  O   UNL     1       1.412   8.275   6.313  1.00  0.00    -0.269 OA
ATOM      7  H   UNL     1       2.629   9.615   7.944  1.00  0.00     0.163 HD
BRANCH   5   8
ATOM      8  C   UNL     1      -0.441   8.308   7.774  1.00  0.00     0.063 A 
ATOM      9  C   UNL     1      -1.105   4.764   6.470  1.00  0.00     0.114 C 
ATOM     10  N   UNL     1      -0.391   6.019   6.821  1.00  0.00    -0.377 N 
ATOM     11  C   UNL     1      -2.607   5.059   6.623  1.00  0.00     0.031 C 
ATOM     12  C   UNL     1      -0.994   7.016   7.621  1.00  0.00     0.058 A 
ATOM     13  H   UNL     1       0.525   6.159   6.487  1.00  0.00     0.161 HD
ATOM     14  C   UNL     1      -2.756   5.339   8.137  1.00  0.00     0.056 C 
ATOM     15  C   UNL     1      -3.712   4.071   6.262  1.00  0.00     0.034 C 
ATOM     16  C   UNL     1      -2.229   6.742   8.296  1.00  0.00     0.061 A 
ATOM     17  C   UNL     1      -4.167   4.939   8.398  1.00  0.00    -0.022 C 
ATOM     18  C   UNL     1      -4.679   4.230   7.388  1.00  0.00    -0.030 C 
ATOM     19  C   UNL     1      -1.203   9.353   8.331  1.00  0.00     0.023 A 
ATOM     20  C   UNL     1      -2.867   7.774   9.004  1.00  0.00     0.275 A 
ATOM     21  C   UNL     1      -2.404   9.088   8.971  1.00  0.00     0.087 A 
BRANCH   9  22
ATOM     22  C   UNL     1      -0.592   4.088   5.202  1.00  0.00    -0.025 A 
ATOM     23  C   UNL     1       0.291   2.333   3.166  1.00  0.00     0.130 A 
ATOM     24  C   UNL     1       1.151   2.680   4.204  1.00  0.00     0.047 A 
ATOM     25  C   UNL     1      -0.988   2.875   3.111  1.00  0.00     0.047 A 
ATOM     26  C   UNL     1       0.713   3.554   5.209  1.00  0.00     0.010 A 
ATOM     27  C   UNL     1      -1.409   3.773   4.104  1.00  0.00     0.010 A 
BRANCH  23  28
ATOM     28  O   UNL     1       0.755   1.345   2.272  1.00  0.00    -0.427 OA
BRANCH  28  29
ATOM     29  C   UNL     1       0.396   1.356   0.924  1.00  0.00     0.308 C 
ATOM     30  C   UNL     1       0.991   0.154   0.249  1.00  0.00     0.139 C 
ATOM     31  O   UNL     1      -0.284   2.197   0.352  1.00  0.00    -0.252 OA
ENDBRANCH  28  29
ENDBRANCH  23  28
ENDBRANCH   9  22
BRANCH  20  32
ATOM     32  N   UNL     1      -4.022   7.532   9.840  1.00  0.00     0.063 N 
ATOM     33  O   UNL     1      -5.104   7.993   9.457  1.00  0.00    -0.258 OA
ATOM     34  O   UNL     1      -3.821   6.927  10.902  1.00  0.00    -0.258 OA
ENDBRANCH  20  32
ENDBRANCH   5   8
ENDBRANCH   3   4
ENDBRANCH   2   3
ENDBRANCH   1   2
BRANCH   1  35
ATOM     35  C   UNL     1       3.797  11.568  10.772  1.00  0.00     0.002 C 
BRANCH  35  36
ATOM     36  C   UNL     1       3.223  11.971  12.133  1.00  0.00     0.021 C 
BRANCH  36  37
ATOM     37  C   UNL     1       3.940  11.384  13.346  1.00  0.00     0.116 C 
BRANCH  37  38
ATOM     38  N   UNL     1       5.328  11.808  13.438  1.00  0.00    -0.352 N 
ATOM     39  C   UNL     1       6.009  12.377  14.488  1.00  0.00     0.251 C 
ATOM     40  H   UNL     1       5.862  11.665  12.623  1.00  0.00     0.163 HD
ATOM     41  O   UNL     1       7.140  12.813  14.322  1.00  0.00    -0.269 OA
BRANCH  39  42
ATOM     42  C   UNL     1       5.366  12.491  15.817  1.00  0.00     0.039 A 
ATOM     43  C   UNL     1       5.499  13.687  16.527  1.00  0.00     0.014 A 
ATOM     44  C   UNL     1       4.649  11.427  16.369  1.00  0.00     0.014 A 
ATOM     45  C   UNL     1       4.856  13.839  17.758  1.00  0.00     0.010 A 
ATOM     46  C   UNL     1       3.947  11.606  17.559  1.00  0.00     0.010 A 
ATOM     47  C   UNL     1       4.041  12.814  18.267  1.00  0.00    -0.014 A 
BRANCH  47  48
ATOM     48  C   UNL     1       3.275  12.993  19.528  1.00  0.00     0.031 A 
ATOM     49  C   UNL     1       3.559  12.121  20.720  1.00  0.00     0.074 A 
ATOM     50  C   UNL     1       2.280  13.899  19.580  1.00  0.00     0.049 A 
ATOM     51  N   UNL     1       2.953  12.081  21.881  1.00  0.00    -0.248 NA
ATOM     52  C   UNL     1       4.652  11.147  20.582  1.00  0.00     0.031 C 
ATOM     53  C   UNL     1       1.878  14.776  18.479  1.00  0.00     0.029 A 
ATOM     54  N   UNL     1       1.416  14.227  20.596  1.00  0.00    -0.354 N 
ATOM     55  C   UNL     1       3.582  11.075  22.602  1.00  0.00     0.074 A 
ATOM     56  C   UNL     1       4.579  10.491  21.730  1.00  0.00     0.031 C 
ATOM     57  C   UNL     1       0.863  15.556  18.884  1.00  0.00     0.029 A 
ATOM     58  C   UNL     1       0.512  15.205  20.257  1.00  0.00     0.049 A 
ATOM     59  H   UNL     1       1.441  13.801  21.483  1.00  0.00     0.167 HD
ATOM     60  C   UNL     1       3.364  10.689  23.882  1.00  0.00     0.037 A 
ATOM     61  C   UNL     1      -0.495  15.749  20.968  1.00  0.00     0.037 A 
ATOM     62  C   UNL     1       2.382  11.283  24.752  1.00  0.00     0.049 A 
ATOM     63  C   UNL     1      -0.732  15.284  22.380  1.00  0.00     0.074 A 
ATOM     64  C   UNL     1       2.123  11.000  26.082  1.00  0.00     0.029 A 
ATOM     65  N   UNL     1       1.489  12.276  24.375  1.00  0.00    -0.354 N 
ATOM     66  N   UNL     1      -0.083  14.381  23.075  1.00  0.00    -0.248 NA
ATOM     67  C   UNL     1      -1.839  15.918  23.109  1.00  0.00     0.031 C 
ATOM     68  C   UNL     1       1.036  11.778  26.492  1.00  0.00     0.029 A 
ATOM     69  C   UNL     1       0.659  12.595  25.438  1.00  0.00     0.049 A 
ATOM     70  H   UNL     1       1.451  12.693  23.483  1.00  0.00     0.167 HD
ATOM     71  C   UNL     1      -0.680  14.363  24.329  1.00  0.00     0.074 A 
ATOM     72  C   UNL     1      -1.733  15.356  24.304  1.00  0.00     0.031 C 
ATOM     73  C   UNL     1      -0.381  13.592  25.404  1.00  0.00     0.037 A 
BRANCH  60  74
ATOM     74  C   UNL     1       4.203   9.565  24.424  1.00  0.00     0.064 A 
ATOM     75  C   UNL     1       5.579   9.717  24.658  1.00  0.00     0.173 A 
ATOM     76  C   UNL     1       3.617   8.333  24.751  1.00  0.00     0.173 A 
ATOM     77  F   UNL     1       6.192  10.872  24.355  1.00  0.00    -0.203 F 
ATOM     78  C   UNL     1       6.341   8.669  25.168  1.00  0.00     0.198 A 
ATOM     79  C   UNL     1       4.375   7.298  25.294  1.00  0.00     0.198 A 
ATOM     80  F   UNL     1       2.305   8.133  24.555  1.00  0.00    -0.203 F 
ATOM     81  F   UNL     1       7.662   8.822  25.332  1.00  0.00    -0.200 F 
ATOM     82  C   UNL     1       5.737   7.464  25.493  1.00  0.00     0.200 A 
ATOM     83  F   UNL     1       3.788   6.140  25.622  1.00  0.00    -0.200 F 
ATOM     84  F   UNL     1       6.470   6.459  25.993  1.00  0.00    -0.200 F 
ENDBRANCH  60  74
BRANCH  61  85
ATOM     85  C   UNL     1      -1.347  16.806  20.362  1.00  0.00     0.064 A 
ATOM     86  C   UNL     1      -1.309  18.125  20.840  1.00  0.00     0.173 A 
ATOM     87  C   UNL     1      -2.224  16.522  19.305  1.00  0.00     0.173 A 
ATOM     88  F   UNL     1      -0.502  18.443  21.862  1.00  0.00    -0.203 F 
ATOM     89  C   UNL     1      -2.133  19.110  20.300  1.00  0.00     0.198 A 
ATOM     90  C   UNL     1      -3.023  17.516  18.744  1.00  0.00     0.198 A 
ATOM     91  F   UNL     1      -2.296  15.279  18.807  1.00  0.00    -0.203 F 
ATOM     92  F   UNL     1      -2.114  20.349  20.811  1.00  0.00    -0.200 F 
ATOM     93  C   UNL     1      -2.985  18.807  19.249  1.00  0.00     0.200 A 
ATOM     94  F   UNL     1      -3.832  17.223  17.717  1.00  0.00    -0.200 F 
ATOM     95  F   UNL     1      -3.774  19.756  18.728  1.00  0.00    -0.200 F 
ENDBRANCH  61  85
BRANCH  73  96
ATOM     96  C   UNL     1      -1.175  13.819  26.660  1.00  0.00     0.064 A 
ATOM     97  C   UNL     1      -2.526  13.454  26.758  1.00  0.00     0.173 A 
ATOM     98  C   UNL     1      -0.562  14.374  27.794  1.00  0.00     0.173 A 
ATOM     99  F   UNL     1      -3.164  12.934  25.698  1.00  0.00    -0.203 F 
ATOM    100  C   UNL     1      -3.240  13.663  27.935  1.00  0.00     0.198 A 
ATOM    101  C   UNL     1      -1.269  14.547  28.980  1.00  0.00     0.198 A 
ATOM    102  F   UNL     1       0.730  14.733  27.757  1.00  0.00    -0.203 F 
ATOM    103  F   UNL     1      -4.543  13.356  27.989  1.00  0.00    -0.200 F 
ATOM    104  C   UNL     1      -2.609  14.200  29.047  1.00  0.00     0.200 A 
ATOM    105  F   UNL     1      -0.653  15.051  30.058  1.00  0.00    -0.200 F 
ATOM    106  F   UNL     1      -3.296  14.391  30.182  1.00  0.00    -0.200 F 
ENDBRANCH  73  96
ENDBRANCH  47  48
ENDBRANCH  39  42
ENDBRANCH  37  38
ENDBRANCH  36  37
ENDBRANCH  35  36
ENDBRANCH   1  35
TORSDOF 17
