REMARK SMILES O=C(NCCCCCCNC(=O)[C@]1(NC(=O)c2nc(C3CC3)n[nH]2)CCSC1)c1ccc(-c2c3nc(c(-c4c(F)c(F)c(F)c(F)c4F)c4ccc([nH]4)c(-c4c(F)c(F)c(F)c(F)c4F)c4nc(c(-c5c(F)c(F)c(F)c(F)c5F)c5ccc2[nH]5)C=C4)C=C3)cc1
REMARK SMILES IDX 7 1 6 2 5 3 4 4 3 5 1 6 2 7 29 9 30 10 91 11 31 12 90 13
REMARK SMILES IDX 32 14 33 15 34 16 84 17 35 18 89 19 83 20 85 21 36 22 88 23
REMARK SMILES IDX 82 24 81 25 37 27 69 28 49 29 68 30 50 31 53 32 67 33 86 34
REMARK SMILES IDX 51 35 52 36 66 38 87 39 54 40 38 41 39 42 47 43 40 44 41 45
REMARK SMILES IDX 45 46 48 47 42 48 43 49 46 50 44 51 70 52 71 53 79 54 72 55
REMARK SMILES IDX 73 56 77 57 80 58 74 59 75 60 78 61 76 62 55 63 56 64 64 65
REMARK SMILES IDX 57 66 58 67 62 68 65 69 59 70 60 71 63 72 61 73 8 74 9 75
REMARK SMILES IDX 10 76 11 77 12 79 13 80 25 81 28 82 26 83 27 84 14 85 15 86
REMARK SMILES IDX 16 88 17 89 18 90 24 91 19 92 23 93 20 95 21 96 22 97
REMARK H PARENT 3 8 85 26 53 37 10 78 14 87 24 94
REMARK Flexibility Score: inf
ROOT
ATOM      1  C   UNL     1       4.679  -4.315   0.761  1.00  0.00     0.002 C 
ENDROOT
BRANCH   1   2
ATOM      2  C   UNL     1       4.187  -3.325   1.820  1.00  0.00     0.002 C 
BRANCH   2   3
ATOM      3  C   UNL     1       4.665  -1.879   1.674  1.00  0.00     0.021 C 
BRANCH   3   4
ATOM      4  C   UNL     1       4.355  -1.209   0.339  1.00  0.00     0.116 C 
BRANCH   4   5
ATOM      5  N   UNL     1       2.933  -1.091   0.076  1.00  0.00    -0.352 N 
ATOM      6  O   UNL     1       0.990  -0.105  -0.482  1.00  0.00    -0.269 OA
ATOM      7  C   UNL     1       2.214  -0.036  -0.430  1.00  0.00     0.251 C 
ATOM      8  H   UNL     1       2.402  -1.891   0.293  1.00  0.00     0.163 HD
BRANCH   7   9
ATOM      9  C   UNL     1       2.892   1.200  -0.888  1.00  0.00     0.039 A 
ATOM     10  C   UNL     1       4.064   1.162  -1.649  1.00  0.00     0.014 A 
ATOM     11  C   UNL     1       2.300   2.433  -0.590  1.00  0.00     0.014 A 
ATOM     12  C   UNL     1       4.695   2.350  -2.019  1.00  0.00     0.010 A 
ATOM     13  C   UNL     1       2.901   3.623  -1.010  1.00  0.00     0.010 A 
ATOM     14  C   UNL     1       4.116   3.591  -1.710  1.00  0.00    -0.014 A 
BRANCH  14  15
ATOM     15  C   UNL     1       4.761   4.846  -2.169  1.00  0.00     0.031 A 
ATOM     16  C   UNL     1       5.378   5.800  -1.189  1.00  0.00     0.074 A 
ATOM     17  C   UNL     1       4.785   5.123  -3.486  1.00  0.00     0.049 A 
ATOM     18  N   UNL     1       5.962   6.951  -1.414  1.00  0.00    -0.248 NA
ATOM     19  C   UNL     1       5.330   5.417   0.229  1.00  0.00     0.031 C 
ATOM     20  C   UNL     1       4.204   4.282  -4.533  1.00  0.00     0.029 A 
ATOM     21  N   UNL     1       5.324   6.183  -4.169  1.00  0.00    -0.354 N 
ATOM     22  C   UNL     1       6.326   7.442  -0.168  1.00  0.00     0.074 A 
ATOM     23  C   UNL     1       5.893   6.468   0.812  1.00  0.00     0.031 C 
ATOM     24  C   UNL     1       4.443   4.842  -5.728  1.00  0.00     0.029 A 
ATOM     25  C   UNL     1       5.155   6.100  -5.529  1.00  0.00     0.049 A 
ATOM     26  H   UNL     1       5.786   6.932  -3.727  1.00  0.00     0.167 HD
ATOM     27  C   UNL     1       6.966   8.598   0.129  1.00  0.00     0.037 A 
ATOM     28  C   UNL     1       5.524   6.948  -6.507  1.00  0.00     0.037 A 
ATOM     29  C   UNL     1       7.417   9.557  -0.846  1.00  0.00     0.049 A 
ATOM     30  C   UNL     1       6.247   8.214  -6.153  1.00  0.00     0.074 A 
ATOM     31  C   UNL     1       8.101  10.743  -0.641  1.00  0.00     0.029 A 
ATOM     32  N   UNL     1       7.230   9.436  -2.215  1.00  0.00    -0.354 N 
ATOM     33  N   UNL     1       6.600   8.657  -4.972  1.00  0.00    -0.248 NA
ATOM     34  C   UNL     1       6.616   9.099  -7.265  1.00  0.00     0.031 C 
ATOM     35  C   UNL     1       8.307  11.352  -1.885  1.00  0.00     0.029 A 
ATOM     36  C   UNL     1       7.775  10.531  -2.866  1.00  0.00     0.049 A 
ATOM     37  H   UNL     1       6.776   8.683  -2.659  1.00  0.00     0.167 HD
ATOM     38  C   UNL     1       7.234   9.870  -5.195  1.00  0.00     0.074 A 
ATOM     39  C   UNL     1       7.235  10.085  -6.628  1.00  0.00     0.031 C 
ATOM     40  C   UNL     1       7.762  10.730  -4.292  1.00  0.00     0.037 A 
BRANCH  27  41
ATOM     41  C   UNL     1       7.204   8.902   1.577  1.00  0.00     0.064 A 
ATOM     42  C   UNL     1       8.215   8.259   2.304  1.00  0.00     0.173 A 
ATOM     43  C   UNL     1       6.435   9.874   2.233  1.00  0.00     0.173 A 
ATOM     44  F   UNL     1       8.967   7.313   1.723  1.00  0.00    -0.203 F 
ATOM     45  C   UNL     1       8.437   8.567   3.644  1.00  0.00     0.198 A 
ATOM     46  C   UNL     1       6.671  10.192   3.568  1.00  0.00     0.198 A 
ATOM     47  F   UNL     1       5.458  10.519   1.578  1.00  0.00    -0.203 F 
ATOM     48  F   UNL     1       9.387   7.917   4.331  1.00  0.00    -0.200 F 
ATOM     49  C   UNL     1       7.668   9.536   4.273  1.00  0.00     0.200 A 
ATOM     50  F   UNL     1       5.932  11.133   4.173  1.00  0.00    -0.200 F 
ATOM     51  F   UNL     1       7.885   9.832   5.562  1.00  0.00    -0.200 F 
ENDBRANCH  27  41
BRANCH  28  52
ATOM     52  C   UNL     1       5.217   6.604  -7.916  1.00  0.00     0.064 A 
ATOM     53  C   UNL     1       6.222   6.151  -8.778  1.00  0.00     0.173 A 
ATOM     54  C   UNL     1       3.906   6.670  -8.409  1.00  0.00     0.173 A 
ATOM     55  F   UNL     1       7.492   6.088  -8.352  1.00  0.00    -0.203 F 
ATOM     56  C   UNL     1       5.927   5.773 -10.086  1.00  0.00     0.198 A 
ATOM     57  C   UNL     1       3.609   6.273  -9.710  1.00  0.00     0.198 A 
ATOM     58  F   UNL     1       2.911   7.094  -7.616  1.00  0.00    -0.203 F 
ATOM     59  F   UNL     1       6.908   5.356 -10.898  1.00  0.00    -0.200 F 
ATOM     60  C   UNL     1       4.620   5.826 -10.548  1.00  0.00     0.200 A 
ATOM     61  F   UNL     1       2.344   6.313 -10.148  1.00  0.00    -0.200 F 
ATOM     62  F   UNL     1       4.334   5.445 -11.800  1.00  0.00    -0.200 F 
ENDBRANCH  28  52
BRANCH  40  63
ATOM     63  C   UNL     1       8.390  11.978  -4.828  1.00  0.00     0.064 A 
ATOM     64  C   UNL     1       7.606  13.066  -5.237  1.00  0.00     0.173 A 
ATOM     65  C   UNL     1       9.784  12.101  -4.902  1.00  0.00     0.173 A 
ATOM     66  F   UNL     1       6.268  12.986  -5.198  1.00  0.00    -0.203 F 
ATOM     67  C   UNL     1       8.198  14.231  -5.715  1.00  0.00     0.198 A 
ATOM     68  C   UNL     1      10.373  13.273  -5.366  1.00  0.00     0.198 A 
ATOM     69  F   UNL     1      10.573  11.085  -4.521  1.00  0.00    -0.203 F 
ATOM     70  F   UNL     1       7.432  15.250  -6.129  1.00  0.00    -0.200 F 
ATOM     71  C   UNL     1       9.581  14.336  -5.775  1.00  0.00     0.200 A 
ATOM     72  F   UNL     1      11.709  13.374  -5.421  1.00  0.00    -0.200 F 
ATOM     73  F   UNL     1      10.149  15.459  -6.234  1.00  0.00    -0.200 F 
ENDBRANCH  40  63
ENDBRANCH  14  15
ENDBRANCH   7   9
ENDBRANCH   4   5
ENDBRANCH   3   4
ENDBRANCH   2   3
ENDBRANCH   1   2
BRANCH   1  74
ATOM     74  C   UNL     1       6.198  -4.423   0.568  1.00  0.00     0.021 C 
BRANCH  74  75
ATOM     75  C   UNL     1       7.029  -4.613   1.838  1.00  0.00     0.116 C 
BRANCH  75  76
ATOM     76  N   UNL     1       6.637  -5.773   2.607  1.00  0.00    -0.354 N 
ATOM     77  C   UNL     1       7.196  -6.341   3.717  1.00  0.00     0.246 C 
ATOM     78  H   UNL     1       5.832  -6.231   2.275  1.00  0.00     0.163 HD
ATOM     79  O   UNL     1       6.623  -7.352   4.137  1.00  0.00    -0.272 OA
BRANCH  77  80
ATOM     80  C   UNL     1       8.602  -5.911   4.262  1.00  0.00     0.129 C 
ATOM     81  C   UNL     1       9.647  -6.651   3.378  1.00  0.00     0.050 C 
ATOM     82  C   UNL     1       8.825  -6.428   5.704  1.00  0.00     0.108 C 
ATOM     83  C   UNL     1       9.735  -8.098   3.830  1.00  0.00     0.072 C 
ATOM     84  S   UNL     1       9.801  -7.968   5.624  1.00  0.00    -0.159 SA
BRANCH  80  85
ATOM     85  N   UNL     1       8.912  -4.460   4.170  1.00  0.00    -0.334 N 
ATOM     86  C   UNL     1       8.285  -3.368   4.721  1.00  0.00     0.289 C 
ATOM     87  H   UNL     1       9.701  -4.244   3.621  1.00  0.00     0.165 HD
ATOM     88  O   UNL     1       8.825  -2.272   4.558  1.00  0.00    -0.266 OA
BRANCH  86  89
ATOM     89  C   UNL     1       6.975  -3.487   5.300  1.00  0.00     0.214 A 
ATOM     90  N   UNL     1       6.416  -4.537   5.865  1.00  0.00    -0.207 NA
ATOM     91  N   UNL     1       6.051  -2.487   5.231  1.00  0.00    -0.255 N 
ATOM     92  C   UNL     1       5.094  -4.176   5.954  1.00  0.00     0.154 A 
ATOM     93  N   UNL     1       4.822  -2.939   5.522  1.00  0.00    -0.158 NA
ATOM     94  H   UNL     1       6.258  -1.554   4.998  1.00  0.00     0.192 HD
BRANCH  92  95
ATOM     95  C   UNL     1       3.999  -5.116   6.418  1.00  0.00     0.060 C 
ATOM     96  C   UNL     1       4.352  -6.538   6.791  1.00  0.00     0.012 C 
ATOM     97  C   UNL     1       3.969  -5.565   7.858  1.00  0.00     0.012 C 
ENDBRANCH  92  95
ENDBRANCH  86  89
ENDBRANCH  80  85
ENDBRANCH  77  80
ENDBRANCH  75  76
ENDBRANCH  74  75
ENDBRANCH   1  74
TORSDOF 16
