REMARK SMILES CC(C)C(=O)Nc1ccc(C(=O)Nc2ccc(CC(=O)NCCCCCCNC(=O)c3ccc(-c4c5nc(c(-c6c(F)c(F)c(F)c(F)c6F)c6ccc([nH]6)c(-c6c(F)c(F)c(F)c(F)c6F)c6nc(c(-c7c(F)c(F)c(F)c(F)c7F)c7ccc4[nH]7)C=C6)C=C5)cc3)cc2)cc1
REMARK SMILES IDX 23 1 22 2 21 3 19 4 20 5 18 7 17 8 14 9 15 10 95 11 16 12
REMARK SMILES IDX 94 13 13 14 11 15 12 16 10 18 7 19 8 20 97 21 9 22 96 23
REMARK SMILES IDX 6 24 4 25 5 26 2 28 1 29 3 30 24 31 25 32 26 33 27 34 28 35
REMARK SMILES IDX 29 36 30 38 31 39 32 40 93 41 33 42 92 43 34 44 35 45 36 46
REMARK SMILES IDX 86 47 37 48 91 49 85 50 87 51 38 52 90 53 84 54 83 55 39 57
REMARK SMILES IDX 71 58 51 59 70 60 52 61 55 62 69 63 88 64 53 65 54 66 68 68
REMARK SMILES IDX 89 69 56 70 40 71 41 72 49 73 42 74 43 75 47 76 50 77 44 78
REMARK SMILES IDX 45 79 48 80 46 81 72 82 73 83 81 84 74 85 75 86 79 87 82 88
REMARK SMILES IDX 76 89 77 90 80 91 78 92 57 93 58 94 66 95 59 96 60 97 64 98
REMARK SMILES IDX 67 99 61 100 62 101 65 102 63 103
REMARK H PARENT 21 6 13 17 6 27 28 37 87 56 55 67
REMARK Flexibility Score: inf
ROOT
ATOM      1  C   UNL     1       3.415  -0.178  -6.939  1.00  0.00     0.021 C 
ENDROOT
BRANCH   1   2
ATOM      2  C   UNL     1       3.153  -1.509  -6.229  1.00  0.00     0.116 C 
BRANCH   2   3
ATOM      3  N   UNL     1       4.354  -1.998  -5.587  1.00  0.00    -0.356 N 
ATOM      4  C   UNL     1       4.756  -1.803  -4.297  1.00  0.00     0.224 C 
ATOM      5  O   UNL     1       5.874  -2.196  -3.960  1.00  0.00    -0.275 OA
ATOM      6  H   UNL     1       4.955  -2.537  -6.150  1.00  0.00     0.163 HD
BRANCH   4   7
ATOM      7  C   UNL     1       3.803  -1.171  -3.300  1.00  0.00     0.135 C 
BRANCH   7   8
ATOM      8  C   UNL     1       3.533   0.301  -3.519  1.00  0.00    -0.039 A 
ATOM      9  C   UNL     1       2.925   3.039  -3.637  1.00  0.00     0.041 A 
ATOM     10  C   UNL     1       4.230   2.625  -3.353  1.00  0.00     0.026 A 
ATOM     11  C   UNL     1       1.982   2.100  -4.058  1.00  0.00     0.026 A 
ATOM     12  C   UNL     1       4.529   1.258  -3.287  1.00  0.00     0.006 A 
ATOM     13  C   UNL     1       2.265   0.739  -3.933  1.00  0.00     0.006 A 
BRANCH   9  14
ATOM     14  N   UNL     1       2.560   4.358  -3.305  1.00  0.00    -0.322 N 
ATOM     15  C   UNL     1       1.452   4.837  -2.606  1.00  0.00     0.255 C 
ATOM     16  O   UNL     1       1.256   6.054  -2.582  1.00  0.00    -0.269 OA
ATOM     17  H   UNL     1       3.186   5.051  -3.615  1.00  0.00     0.170 HD
BRANCH  15  18
ATOM     18  C   UNL     1       0.558   3.961  -1.772  1.00  0.00     0.040 A 
ATOM     19  C   UNL     1      -1.043   2.322  -0.121  1.00  0.00     0.041 A 
ATOM     20  C   UNL     1      -1.417   3.644  -0.354  1.00  0.00     0.027 A 
ATOM     21  C   UNL     1       0.009   1.809  -0.836  1.00  0.00     0.027 A 
ATOM     22  C   UNL     1      -0.632   4.454  -1.209  1.00  0.00     0.016 A 
ATOM     23  C   UNL     1       0.895   2.655  -1.463  1.00  0.00     0.016 A 
BRANCH  19  24
ATOM     24  N   UNL     1      -1.668   1.507   0.826  1.00  0.00    -0.326 N 
ATOM     25  C   UNL     1      -1.139   0.460   1.547  1.00  0.00     0.226 C 
ATOM     26  O   UNL     1      -1.937  -0.340   2.052  1.00  0.00    -0.274 OA
ATOM     27  H   UNL     1      -2.615   1.709   1.002  1.00  0.00     0.169 HD
BRANCH  25  28
ATOM     28  C   UNL     1       0.382   0.290   1.843  1.00  0.00     0.072 C 
ATOM     29  C   UNL     1       1.218  -0.511   0.839  1.00  0.00     0.018 C 
ATOM     30  C   UNL     1       1.086   1.573   2.286  1.00  0.00     0.018 C 
ENDBRANCH  25  28
ENDBRANCH  19  24
ENDBRANCH  15  18
ENDBRANCH   9  14
ENDBRANCH   7   8
ENDBRANCH   4   7
ENDBRANCH   2   3
ENDBRANCH   1   2
BRANCH   1  31
ATOM     31  C   UNL     1       4.174  -0.337  -8.258  1.00  0.00     0.002 C 
BRANCH  31  32
ATOM     32  C   UNL     1       3.463  -1.211  -9.294  1.00  0.00     0.002 C 
BRANCH  32  33
ATOM     33  C   UNL     1       2.041  -0.762  -9.638  1.00  0.00     0.021 C 
BRANCH  33  34
ATOM     34  C   UNL     1       1.962   0.633 -10.250  1.00  0.00     0.116 C 
BRANCH  34  35
ATOM     35  N   UNL     1       2.668   0.699 -11.521  1.00  0.00    -0.352 N 
ATOM     36  C   UNL     1       2.197   1.047 -12.757  1.00  0.00     0.251 C 
ATOM     37  H   UNL     1       3.622   0.459 -11.486  1.00  0.00     0.163 HD
ATOM     38  O   UNL     1       2.868   0.813 -13.765  1.00  0.00    -0.269 OA
BRANCH  36  39
ATOM     39  C   UNL     1       0.877   1.693 -12.889  1.00  0.00     0.039 A 
ATOM     40  C   UNL     1       0.016   1.277 -13.907  1.00  0.00     0.014 A 
ATOM     41  C   UNL     1       0.497   2.719 -12.019  1.00  0.00     0.014 A 
ATOM     42  C   UNL     1      -1.249   1.855 -14.019  1.00  0.00     0.010 A 
ATOM     43  C   UNL     1      -0.791   3.240 -12.084  1.00  0.00     0.010 A 
ATOM     44  C   UNL     1      -1.675   2.818 -13.089  1.00  0.00    -0.014 A 
BRANCH  44  45
ATOM     45  C   UNL     1      -3.041   3.395 -13.153  1.00  0.00     0.031 A 
ATOM     46  C   UNL     1      -3.230   4.862 -13.417  1.00  0.00     0.074 A 
ATOM     47  C   UNL     1      -4.106   2.608 -12.907  1.00  0.00     0.049 A 
ATOM     48  N   UNL     1      -4.336   5.563 -13.444  1.00  0.00    -0.248 NA
ATOM     49  C   UNL     1      -2.013   5.654 -13.656  1.00  0.00     0.031 C 
ATOM     50  C   UNL     1      -4.046   1.180 -12.589  1.00  0.00     0.029 A 
ATOM     51  N   UNL     1      -5.446   2.899 -12.872  1.00  0.00    -0.354 N 
ATOM     52  C   UNL     1      -3.947   6.874 -13.685  1.00  0.00     0.074 A 
ATOM     53  C   UNL     1      -2.501   6.883 -13.745  1.00  0.00     0.031 C 
ATOM     54  C   UNL     1      -5.293   0.717 -12.411  1.00  0.00     0.029 A 
ATOM     55  C   UNL     1      -6.237   1.820 -12.561  1.00  0.00     0.049 A 
ATOM     56  H   UNL     1      -5.808   3.797 -13.053  1.00  0.00     0.167 HD
ATOM     57  C   UNL     1      -4.727   7.967 -13.861  1.00  0.00     0.037 A 
ATOM     58  C   UNL     1      -7.571   1.733 -12.402  1.00  0.00     0.037 A 
ATOM     59  C   UNL     1      -6.166   7.947 -13.826  1.00  0.00     0.049 A 
ATOM     60  C   UNL     1      -8.414   2.964 -12.601  1.00  0.00     0.074 A 
ATOM     61  C   UNL     1      -7.049   8.985 -14.064  1.00  0.00     0.029 A 
ATOM     62  N   UNL     1      -6.933   6.830 -13.528  1.00  0.00    -0.354 N 
ATOM     63  N   UNL     1      -8.040   4.183 -12.908  1.00  0.00    -0.248 NA
ATOM     64  C   UNL     1      -9.866   2.806 -12.438  1.00  0.00     0.031 C 
ATOM     65  C   UNL     1      -8.348   8.512 -13.853  1.00  0.00     0.029 A 
ATOM     66  C   UNL     1      -8.278   7.162 -13.546  1.00  0.00     0.049 A 
ATOM     67  H   UNL     1      -6.575   5.934 -13.332  1.00  0.00     0.167 HD
ATOM     68  C   UNL     1      -9.208   4.928 -13.005  1.00  0.00     0.074 A 
ATOM     69  C   UNL     1     -10.304   4.019 -12.740  1.00  0.00     0.031 C 
ATOM     70  C   UNL     1      -9.359   6.245 -13.288  1.00  0.00     0.037 A 
BRANCH  57  71
ATOM     71  C   UNL     1      -4.043   9.282 -14.107  1.00  0.00     0.064 A 
ATOM     72  C   UNL     1      -3.353   9.544 -15.301  1.00  0.00     0.173 A 
ATOM     73  C   UNL     1      -4.117  10.310 -13.155  1.00  0.00     0.173 A 
ATOM     74  F   UNL     1      -3.243   8.593 -16.241  1.00  0.00    -0.203 F 
ATOM     75  C   UNL     1      -2.741  10.776 -15.519  1.00  0.00     0.198 A 
ATOM     76  C   UNL     1      -3.532  11.551 -13.391  1.00  0.00     0.198 A 
ATOM     77  F   UNL     1      -4.769  10.115 -11.998  1.00  0.00    -0.203 F 
ATOM     78  F   UNL     1      -2.046  10.986 -16.646  1.00  0.00    -0.200 F 
ATOM     79  C   UNL     1      -2.837  11.780 -14.569  1.00  0.00     0.200 A 
ATOM     80  F   UNL     1      -3.640  12.526 -12.477  1.00  0.00    -0.200 F 
ATOM     81  F   UNL     1      -2.257  12.969 -14.786  1.00  0.00    -0.200 F 
ENDBRANCH  57  71
BRANCH  58  82
ATOM     82  C   UNL     1      -8.195   0.430 -12.050  1.00  0.00     0.064 A 
ATOM     83  C   UNL     1      -9.015  -0.247 -12.962  1.00  0.00     0.173 A 
ATOM     84  C   UNL     1      -7.995  -0.158 -10.793  1.00  0.00     0.173 A 
ATOM     85  F   UNL     1      -9.254   0.284 -14.171  1.00  0.00    -0.203 F 
ATOM     86  C   UNL     1      -9.632  -1.450 -12.622  1.00  0.00     0.198 A 
ATOM     87  C   UNL     1      -8.586  -1.377 -10.465  1.00  0.00     0.198 A 
ATOM     88  F   UNL     1      -7.213   0.445  -9.885  1.00  0.00    -0.203 F 
ATOM     89  F   UNL     1     -10.453  -2.049 -13.495  1.00  0.00    -0.200 F 
ATOM     90  C   UNL     1      -9.412  -2.016 -11.376  1.00  0.00     0.200 A 
ATOM     91  F   UNL     1      -8.356  -1.929  -9.265  1.00  0.00    -0.200 F 
ATOM     92  F   UNL     1     -10.003  -3.174 -11.050  1.00  0.00    -0.200 F 
ENDBRANCH  58  82
BRANCH  70  93
ATOM     93  C   UNL     1     -10.761   6.777 -13.366  1.00  0.00     0.064 A 
ATOM     94  C   UNL     1     -11.560   6.926 -12.222  1.00  0.00     0.173 A 
ATOM     95  C   UNL     1     -11.297   7.182 -14.598  1.00  0.00     0.173 A 
ATOM     96  F   UNL     1     -11.100   6.540 -11.022  1.00  0.00    -0.203 F 
ATOM     97  C   UNL     1     -12.853   7.434 -12.314  1.00  0.00     0.198 A 
ATOM     98  C   UNL     1     -12.578   7.722 -14.681  1.00  0.00     0.198 A 
ATOM     99  F   UNL     1     -10.573   7.069 -15.721  1.00  0.00    -0.203 F 
ATOM    100  F   UNL     1     -13.617   7.518 -11.215  1.00  0.00    -0.200 F 
ATOM    101  C   UNL     1     -13.357   7.839 -13.540  1.00  0.00     0.200 A 
ATOM    102  F   UNL     1     -13.057   8.128 -15.864  1.00  0.00    -0.200 F 
ATOM    103  F   UNL     1     -14.599   8.337 -13.625  1.00  0.00    -0.200 F 
ENDBRANCH  70  93
ENDBRANCH  44  45
ENDBRANCH  36  39
ENDBRANCH  34  35
ENDBRANCH  33  34
ENDBRANCH  32  33
ENDBRANCH  31  32
ENDBRANCH   1  31
TORSDOF 18
