REMARK SMILES O=C(NCCCCCCNC(=O)[C@H]1CCCN(c2cc(-c3ccccn3)nc(-c3ccccc3F)n2)C1)c1ccc(-c2c3nc(c(-c4c(F)c(F)c(F)c(F)c4F)c4ccc([nH]4)c(-c4c(F)c(F)c(F)c(F)c4F)c4nc(c(-c5c(F)c(F)c(F)c(F)c5F)c5ccc2[nH]5)C=C4)C=C3)cc1
REMARK SMILES IDX 6 1 5 2 4 3 3 4 1 5 2 6 38 8 39 9 100 10 40 11 99 12 41 13
REMARK SMILES IDX 42 14 43 15 93 16 44 17 98 18 92 19 94 20 45 21 97 22 91 23
REMARK SMILES IDX 90 24 46 26 78 27 58 28 77 29 59 30 62 31 76 32 95 33 60 34
REMARK SMILES IDX 61 35 75 37 96 38 63 39 47 40 48 41 56 42 49 43 50 44 54 45
REMARK SMILES IDX 57 46 51 47 52 48 55 49 53 50 79 51 80 52 88 53 81 54 82 55
REMARK SMILES IDX 86 56 89 57 83 58 84 59 87 60 85 61 64 62 65 63 73 64 66 65
REMARK SMILES IDX 67 66 71 67 74 68 68 69 69 70 72 71 70 72 7 73 8 74 9 75
REMARK SMILES IDX 10 76 11 77 12 79 13 80 14 81 37 82 15 83 17 84 16 85 18 86
REMARK SMILES IDX 19 87 36 88 20 89 28 90 27 91 21 92 22 93 26 94 23 95 25 96
REMARK SMILES IDX 24 97 29 98 30 99 34 100 31 101 33 102 35 103 32 104
REMARK H PARENT 3 7 94 25 62 36 10 78
REMARK Flexibility Score: inf
ROOT
ATOM      1  C   UNL     1       7.612  -7.362  -0.411  1.00  0.00     0.002 C 
ENDROOT
BRANCH   1   2
ATOM      2  C   UNL     1       7.005  -8.755  -0.234  1.00  0.00     0.021 C 
BRANCH   2   3
ATOM      3  C   UNL     1       5.536  -8.859  -0.624  1.00  0.00     0.116 C 
BRANCH   3   4
ATOM      4  N   UNL     1       5.322  -8.571  -2.032  1.00  0.00    -0.352 N 
ATOM      5  O   UNL     1       4.859  -9.038  -4.190  1.00  0.00    -0.269 OA
ATOM      6  C   UNL     1       4.788  -9.369  -3.009  1.00  0.00     0.251 C 
ATOM      7  H   UNL     1       5.601  -7.674  -2.326  1.00  0.00     0.163 HD
BRANCH   6   8
ATOM      8  C   UNL     1       4.142 -10.645  -2.642  1.00  0.00     0.039 A 
ATOM      9  C   UNL     1       3.237 -10.711  -1.577  1.00  0.00     0.014 A 
ATOM     10  C   UNL     1       4.436 -11.787  -3.389  1.00  0.00     0.014 A 
ATOM     11  C   UNL     1       2.720 -11.940  -1.184  1.00  0.00     0.010 A 
ATOM     12  C   UNL     1       3.855 -13.007  -3.041  1.00  0.00     0.010 A 
ATOM     13  C   UNL     1       3.012 -13.097  -1.922  1.00  0.00    -0.014 A 
BRANCH  13  14
ATOM     14  C   UNL     1       2.394 -14.395  -1.559  1.00  0.00     0.031 A 
ATOM     15  C   UNL     1       3.241 -15.546  -1.104  1.00  0.00     0.074 A 
ATOM     16  C   UNL     1       1.061 -14.540  -1.679  1.00  0.00     0.049 A 
ATOM     17  N   UNL     1       2.889 -16.779  -0.845  1.00  0.00    -0.248 NA
ATOM     18  C   UNL     1       4.676 -15.280  -0.924  1.00  0.00     0.031 C 
ATOM     19  C   UNL     1       0.138 -13.486  -2.101  1.00  0.00     0.029 A 
ATOM     20  N   UNL     1       0.253 -15.628  -1.469  1.00  0.00    -0.354 N 
ATOM     21  C   UNL     1       4.057 -17.442  -0.496  1.00  0.00     0.074 A 
ATOM     22  C   UNL     1       5.135 -16.482  -0.599  1.00  0.00     0.031 C 
ATOM     23  C   UNL     1      -1.111 -13.973  -2.104  1.00  0.00     0.029 A 
ATOM     24  C   UNL     1      -1.068 -15.389  -1.753  1.00  0.00     0.049 A 
ATOM     25  H   UNL     1       0.588 -16.495  -1.146  1.00  0.00     0.167 HD
ATOM     26  C   UNL     1       4.208 -18.735  -0.120  1.00  0.00     0.037 A 
ATOM     27  C   UNL     1      -2.126 -16.222  -1.764  1.00  0.00     0.037 A 
ATOM     28  C   UNL     1       3.122 -19.676  -0.013  1.00  0.00     0.049 A 
ATOM     29  C   UNL     1      -1.927 -17.665  -1.401  1.00  0.00     0.074 A 
ATOM     30  C   UNL     1       3.166 -20.995   0.400  1.00  0.00     0.029 A 
ATOM     31  N   UNL     1       1.800 -19.401  -0.334  1.00  0.00    -0.354 N 
ATOM     32  N   UNL     1      -0.824 -18.278  -1.048  1.00  0.00    -0.248 NA
ATOM     33  C   UNL     1      -3.111 -18.533  -1.440  1.00  0.00     0.031 C 
ATOM     34  C   UNL     1       1.887 -21.538   0.263  1.00  0.00     0.029 A 
ATOM     35  C   UNL     1       1.026 -20.537  -0.161  1.00  0.00     0.049 A 
ATOM     36  H   UNL     1       1.461 -18.528  -0.639  1.00  0.00     0.167 HD
ATOM     37  C   UNL     1      -1.181 -19.595  -0.797  1.00  0.00     0.074 A 
ATOM     38  C   UNL     1      -2.606 -19.693  -1.039  1.00  0.00     0.031 C 
ATOM     39  C   UNL     1      -0.395 -20.622  -0.394  1.00  0.00     0.037 A 
BRANCH  26  40
ATOM     40  C   UNL     1       5.596 -19.223   0.181  1.00  0.00     0.064 A 
ATOM     41  C   UNL     1       6.204 -20.183  -0.645  1.00  0.00     0.173 A 
ATOM     42  C   UNL     1       6.306 -18.793   1.312  1.00  0.00     0.173 A 
ATOM     43  F   UNL     1       5.567 -20.638  -1.735  1.00  0.00    -0.203 F 
ATOM     44  C   UNL     1       7.463 -20.697  -0.346  1.00  0.00     0.198 A 
ATOM     45  C   UNL     1       7.580 -19.284   1.589  1.00  0.00     0.198 A 
ATOM     46  F   UNL     1       5.777 -17.872   2.131  1.00  0.00    -0.203 F 
ATOM     47  F   UNL     1       8.006 -21.635  -1.133  1.00  0.00    -0.200 F 
ATOM     48  C   UNL     1       8.153 -20.241   0.766  1.00  0.00     0.200 A 
ATOM     49  F   UNL     1       8.257 -18.822   2.650  1.00  0.00    -0.200 F 
ATOM     50  F   UNL     1       9.373 -20.721   1.043  1.00  0.00    -0.200 F 
ENDBRANCH  26  40
BRANCH  27  51
ATOM     51  C   UNL     1      -3.459 -15.680  -2.129  1.00  0.00     0.064 A 
ATOM     52  C   UNL     1      -3.737 -15.248  -3.435  1.00  0.00     0.173 A 
ATOM     53  C   UNL     1      -4.447 -15.493  -1.154  1.00  0.00     0.173 A 
ATOM     54  F   UNL     1      -2.818 -15.396  -4.401  1.00  0.00    -0.203 F 
ATOM     55  C   UNL     1      -4.939 -14.616  -3.743  1.00  0.00     0.198 A 
ATOM     56  C   UNL     1      -5.660 -14.885  -1.469  1.00  0.00     0.198 A 
ATOM     57  F   UNL     1      -4.231 -15.902   0.105  1.00  0.00    -0.203 F 
ATOM     58  F   UNL     1      -5.157 -14.162  -4.984  1.00  0.00    -0.200 F 
ATOM     59  C   UNL     1      -5.900 -14.434  -2.759  1.00  0.00     0.200 A 
ATOM     60  F   UNL     1      -6.592 -14.725  -0.520  1.00  0.00    -0.200 F 
ATOM     61  F   UNL     1      -7.053 -13.820  -3.053  1.00  0.00    -0.200 F 
ENDBRANCH  27  51
BRANCH  39  62
ATOM     62  C   UNL     1      -1.044 -21.952  -0.144  1.00  0.00     0.064 A 
ATOM     63  C   UNL     1      -1.132 -22.455   1.165  1.00  0.00     0.173 A 
ATOM     64  C   UNL     1      -1.451 -22.782  -1.196  1.00  0.00     0.173 A 
ATOM     65  F   UNL     1      -0.748 -21.700   2.206  1.00  0.00    -0.203 F 
ATOM     66  C   UNL     1      -1.569 -23.753   1.405  1.00  0.00     0.198 A 
ATOM     67  C   UNL     1      -1.915 -24.072  -0.949  1.00  0.00     0.198 A 
ATOM     68  F   UNL     1      -1.398 -22.343  -2.462  1.00  0.00    -0.203 F 
ATOM     69  F   UNL     1      -1.590 -24.230   2.658  1.00  0.00    -0.200 F 
ATOM     70  C   UNL     1      -1.958 -24.562   0.349  1.00  0.00     0.200 A 
ATOM     71  F   UNL     1      -2.310 -24.847  -1.969  1.00  0.00    -0.200 F 
ATOM     72  F   UNL     1      -2.369 -25.816   0.580  1.00  0.00    -0.200 F 
ENDBRANCH  39  62
ENDBRANCH  13  14
ENDBRANCH   6   8
ENDBRANCH   3   4
ENDBRANCH   2   3
ENDBRANCH   1   2
BRANCH   1  73
ATOM     73  C   UNL     1       6.862  -6.232   0.303  1.00  0.00     0.002 C 
BRANCH  73  74
ATOM     74  C   UNL     1       6.621  -6.452   1.800  1.00  0.00     0.021 C 
BRANCH  74  75
ATOM     75  C   UNL     1       7.884  -6.738   2.605  1.00  0.00     0.116 C 
BRANCH  75  76
ATOM     76  N   UNL     1       8.803  -5.619   2.567  1.00  0.00    -0.356 N 
ATOM     77  C   UNL     1       9.299  -4.880   3.600  1.00  0.00     0.224 C 
ATOM     78  H   UNL     1       9.113  -5.355   1.671  1.00  0.00     0.163 HD
ATOM     79  O   UNL     1      10.033  -3.929   3.336  1.00  0.00    -0.275 OA
BRANCH  77  80
ATOM     80  C   UNL     1       8.960  -5.293   5.019  1.00  0.00     0.098 C 
ATOM     81  C   UNL     1       9.746  -6.559   5.406  1.00  0.00     0.017 C 
ATOM     82  C   UNL     1       9.292  -4.156   5.984  1.00  0.00     0.131 C 
ATOM     83  C   UNL     1       9.466  -6.949   6.857  1.00  0.00     0.022 C 
ATOM     84  N   UNL     1       9.095  -4.605   7.359  1.00  0.00    -0.356 N 
ATOM     85  C   UNL     1       9.789  -5.799   7.811  1.00  0.00     0.118 C 
BRANCH  84  86
ATOM     86  C   UNL     1       8.227  -3.914   8.170  1.00  0.00     0.133 A 
ATOM     87  C   UNL     1       8.631  -3.508   9.424  1.00  0.00     0.077 A 
ATOM     88  N   UNL     1       7.012  -3.604   7.694  1.00  0.00    -0.211 NA
ATOM     89  C   UNL     1       7.758  -2.729  10.157  1.00  0.00     0.095 A 
ATOM     90  C   UNL     1       6.207  -2.875   8.489  1.00  0.00     0.165 A 
ATOM     91  N   UNL     1       6.529  -2.415   9.705  1.00  0.00    -0.226 NA
BRANCH  89  92
ATOM     92  C   UNL     1       8.171  -2.135  11.436  1.00  0.00     0.089 A 
ATOM     93  C   UNL     1       9.282  -1.292  11.512  1.00  0.00     0.030 A 
ATOM     94  N   UNL     1       7.440  -2.465  12.531  1.00  0.00    -0.255 NA
ATOM     95  C   UNL     1       9.651  -0.763  12.745  1.00  0.00     0.004 A 
ATOM     96  C   UNL     1       7.814  -1.928  13.713  1.00  0.00     0.112 A 
ATOM     97  C   UNL     1       8.902  -1.085  13.869  1.00  0.00     0.020 A 
ENDBRANCH  89  92
BRANCH  90  98
ATOM     98  C   UNL     1       4.859  -2.597   8.006  1.00  0.00     0.055 A 
ATOM     99  C   UNL     1       3.959  -3.640   7.719  1.00  0.00     0.015 A 
ATOM    100  C   UNL     1       4.412  -1.284   7.832  1.00  0.00     0.134 A 
ATOM    101  C   UNL     1       2.654  -3.368   7.293  1.00  0.00     0.001 A 
ATOM    102  C   UNL     1       3.116  -1.005   7.397  1.00  0.00     0.040 A 
ATOM    103  F   UNL     1       5.237  -0.249   8.058  1.00  0.00    -0.206 F 
ATOM    104  C   UNL     1       2.232  -2.049   7.133  1.00  0.00     0.003 A 
ENDBRANCH  90  98
ENDBRANCH  84  86
ENDBRANCH  77  80
ENDBRANCH  75  76
ENDBRANCH  74  75
ENDBRANCH  73  74
ENDBRANCH   1  73
TORSDOF 16
