REMARK SMILES COCC[N@H+](C)[C@H](C)[C@@H](C)C(=O)NCCCCCCNC(=O)c1ccc(-c2c3nc(c(-c4c(F)c(F)c(F)c(F)c4F)c4ccc([nH]4)c(-c4c(F)c(F)c(F)c(F)c4F)c4nc(c(-c5c(F)c(F)c(F)c(F)c5F)c5ccc2[nH]5)C=C4)C=C3)cc1
REMARK SMILES IDX 15 1 14 2 13 3 11 4 12 5 9 7 10 8 7 9 8 10 5 11 6 12 4 14
REMARK SMILES IDX 3 15 2 16 1 17 16 18 17 19 18 20 19 21 20 22 21 23 22 25
REMARK SMILES IDX 23 26 24 27 85 28 25 29 84 30 26 31 27 32 28 33 78 34 29 35
REMARK SMILES IDX 83 36 77 37 79 38 30 39 82 40 76 41 75 42 31 44 63 45 43 46
REMARK SMILES IDX 62 47 44 48 47 49 61 50 80 51 45 52 46 53 60 55 81 56 48 57
REMARK SMILES IDX 32 58 33 59 41 60 34 61 35 62 39 63 42 64 36 65 37 66 40 67
REMARK SMILES IDX 38 68 64 69 65 70 73 71 66 72 67 73 71 74 74 75 68 76 69 77
REMARK SMILES IDX 72 78 70 79 49 80 50 81 58 82 51 83 52 84 56 85 59 86 53 87
REMARK SMILES IDX 54 88 57 89 55 90
REMARK H PARENT 13 6 5 13 20 24 79 43 47 54
REMARK Flexibility Score: inf
ROOT
ATOM      1  C   UNL     1       1.331   1.890   3.972  1.00  0.00     0.021 C 
ENDROOT
BRANCH   1   2
ATOM      2  C   UNL     1       1.941   0.959   2.926  1.00  0.00     0.116 C 
BRANCH   2   3
ATOM      3  N   UNL     1       1.105  -0.186   2.614  1.00  0.00    -0.356 N 
ATOM      4  C   UNL     1       0.776  -0.783   1.438  1.00  0.00     0.228 C 
ATOM      5  O   UNL     1       0.169  -1.857   1.513  1.00  0.00    -0.275 OA
ATOM      6  H   UNL     1       0.699  -0.610   3.404  1.00  0.00     0.163 HD
BRANCH   4   7
ATOM      7  C   UNL     1       1.119  -0.194   0.076  1.00  0.00     0.133 C 
ATOM      8  C   UNL     1       2.643  -0.175  -0.113  1.00  0.00     0.024 C 
BRANCH   7   9
ATOM      9  C   UNL     1       0.380   1.147  -0.217  1.00  0.00     0.193 C 
ATOM     10  C   UNL     1       0.945   1.841  -1.473  1.00  0.00     0.076 C 
BRANCH   9  11
ATOM     11  N   UNL     1      -1.099   1.110  -0.381  1.00  0.00    -0.333 N 
ATOM     12  C   UNL     1      -1.574   0.080  -1.309  1.00  0.00     0.333 C 
ATOM     13  H   UNL     1      -1.256   2.034  -0.782  1.00  0.00     0.348 HD
BRANCH  11  14
ATOM     14  C   UNL     1      -1.908   1.050   0.856  1.00  0.00     0.291 C 
BRANCH  14  15
ATOM     15  C   UNL     1      -1.708   2.183   1.873  1.00  0.00     0.221 C 
BRANCH  15  16
ATOM     16  O   UNL     1      -2.279   3.439   1.514  1.00  0.00    -0.379 OA
ATOM     17  C   UNL     1      -1.478   4.168   0.594  1.00  0.00     0.195 C 
ENDBRANCH  15  16
ENDBRANCH  14  15
ENDBRANCH  11  14
ENDBRANCH   9  11
ENDBRANCH   7   9
ENDBRANCH   4   7
ENDBRANCH   2   3
ENDBRANCH   1   2
BRANCH   1  18
ATOM     18  C   UNL     1       0.932   1.234   5.293  1.00  0.00     0.002 C 
BRANCH  18  19
ATOM     19  C   UNL     1       2.116   0.851   6.176  1.00  0.00     0.002 C 
BRANCH  19  20
ATOM     20  C   UNL     1       3.096   1.994   6.449  1.00  0.00     0.021 C 
BRANCH  20  21
ATOM     21  C   UNL     1       2.445   3.298   6.901  1.00  0.00     0.116 C 
BRANCH  21  22
ATOM     22  N   UNL     1       1.796   3.161   8.192  1.00  0.00    -0.352 N 
ATOM     23  C   UNL     1       2.009   3.901   9.328  1.00  0.00     0.251 C 
ATOM     24  H   UNL     1       1.120   2.449   8.262  1.00  0.00     0.163 HD
ATOM     25  O   UNL     1       1.557   3.546  10.408  1.00  0.00    -0.269 OA
BRANCH  23  26
ATOM     26  C   UNL     1       2.817   5.133   9.228  1.00  0.00     0.039 A 
ATOM     27  C   UNL     1       3.877   5.321  10.114  1.00  0.00     0.014 A 
ATOM     28  C   UNL     1       2.539   6.080   8.236  1.00  0.00     0.014 A 
ATOM     29  C   UNL     1       4.692   6.445   9.979  1.00  0.00     0.010 A 
ATOM     30  C   UNL     1       3.397   7.160   8.057  1.00  0.00     0.010 A 
ATOM     31  C   UNL     1       4.475   7.359   8.933  1.00  0.00    -0.014 A 
BRANCH  31  32
ATOM     32  C   UNL     1       5.358   8.539   8.754  1.00  0.00     0.031 A 
ATOM     33  C   UNL     1       4.799   9.925   8.912  1.00  0.00     0.074 A 
ATOM     34  C   UNL     1       6.647   8.363   8.406  1.00  0.00     0.049 A 
ATOM     35  N   UNL     1       5.393  11.081   8.752  1.00  0.00    -0.248 NA
ATOM     36  C   UNL     1       3.376  10.028   9.272  1.00  0.00     0.031 C 
ATOM     37  C   UNL     1       7.293   7.069   8.184  1.00  0.00     0.029 A 
ATOM     38  N   UNL     1       7.644   9.277   8.171  1.00  0.00    -0.354 N 
ATOM     39  C   UNL     1       4.418  12.042   8.984  1.00  0.00     0.074 A 
ATOM     40  C   UNL     1       3.179  11.337   9.232  1.00  0.00     0.031 C 
ATOM     41  C   UNL     1       8.583   7.270   7.872  1.00  0.00     0.029 A 
ATOM     42  C   UNL     1       8.845   8.706   7.831  1.00  0.00     0.049 A 
ATOM     43  H   UNL     1       7.510  10.250   8.240  1.00  0.00     0.167 HD
ATOM     44  C   UNL     1       4.549  13.390   9.014  1.00  0.00     0.037 A 
ATOM     45  C   UNL     1      10.023   9.277   7.514  1.00  0.00     0.037 A 
ATOM     46  C   UNL     1       5.787  14.085   8.781  1.00  0.00     0.049 A 
ATOM     47  C   UNL     1      10.135  10.779   7.528  1.00  0.00     0.074 A 
ATOM     48  C   UNL     1       6.037  15.445   8.837  1.00  0.00     0.029 A 
ATOM     49  N   UNL     1       6.985  13.473   8.441  1.00  0.00    -0.354 N 
ATOM     50  N   UNL     1       9.223  11.675   7.816  1.00  0.00    -0.248 NA
ATOM     51  C   UNL     1      11.444  11.347   7.178  1.00  0.00     0.031 C 
ATOM     52  C   UNL     1       7.370  15.660   8.475  1.00  0.00     0.029 A 
ATOM     53  C   UNL     1       7.970  14.430   8.256  1.00  0.00     0.049 A 
ATOM     54  H   UNL     1       7.115  12.501   8.345  1.00  0.00     0.167 HD
ATOM     55  C   UNL     1       9.854  12.909   7.715  1.00  0.00     0.074 A 
ATOM     56  C   UNL     1      11.231  12.643   7.354  1.00  0.00     0.031 C 
ATOM     57  C   UNL     1       9.339  14.149   7.904  1.00  0.00     0.037 A 
BRANCH  44  58
ATOM     58  C   UNL     1       3.318  14.201   9.308  1.00  0.00     0.064 A 
ATOM     59  C   UNL     1       2.707  14.182  10.571  1.00  0.00     0.173 A 
ATOM     60  C   UNL     1       2.761  15.032   8.324  1.00  0.00     0.173 A 
ATOM     61  F   UNL     1       3.191  13.397  11.545  1.00  0.00    -0.203 F 
ATOM     62  C   UNL     1       1.565  14.938  10.827  1.00  0.00     0.198 A 
ATOM     63  C   UNL     1       1.640  15.813   8.594  1.00  0.00     0.198 A 
ATOM     64  F   UNL     1       3.308  15.093   7.100  1.00  0.00    -0.203 F 
ATOM     65  F   UNL     1       0.967  14.860  12.024  1.00  0.00    -0.200 F 
ATOM     66  C   UNL     1       1.038  15.758   9.842  1.00  0.00     0.200 A 
ATOM     67  F   UNL     1       1.141  16.617   7.645  1.00  0.00    -0.200 F 
ATOM     68  F   UNL     1      -0.056  16.491  10.092  1.00  0.00    -0.200 F 
ENDBRANCH  44  58
BRANCH  45  69
ATOM     69  C   UNL     1      11.197   8.429   7.177  1.00  0.00     0.064 A 
ATOM     70  C   UNL     1      12.314   8.375   8.023  1.00  0.00     0.173 A 
ATOM     71  C   UNL     1      11.233   7.665   6.001  1.00  0.00     0.173 A 
ATOM     72  F   UNL     1      12.336   9.102   9.149  1.00  0.00    -0.203 F 
ATOM     73  C   UNL     1      13.431   7.610   7.693  1.00  0.00     0.198 A 
ATOM     74  C   UNL     1      12.338   6.876   5.688  1.00  0.00     0.198 A 
ATOM     75  F   UNL     1      10.188   7.676   5.160  1.00  0.00    -0.203 F 
ATOM     76  F   UNL     1      14.506   7.619   8.493  1.00  0.00    -0.200 F 
ATOM     77  C   UNL     1      13.440   6.857   6.529  1.00  0.00     0.200 A 
ATOM     78  F   UNL     1      12.334   6.136   4.571  1.00  0.00    -0.200 F 
ATOM     79  F   UNL     1      14.513   6.120   6.213  1.00  0.00    -0.200 F 
ENDBRANCH  45  69
BRANCH  57  80
ATOM     80  C   UNL     1      10.278  15.314   7.766  1.00  0.00     0.064 A 
ATOM     81  C   UNL     1      10.794  15.704   6.521  1.00  0.00     0.173 A 
ATOM     82  C   UNL     1      10.633  16.074   8.891  1.00  0.00     0.173 A 
ATOM     83  F   UNL     1      10.498  15.003   5.417  1.00  0.00    -0.203 F 
ATOM     84  C   UNL     1      11.655  16.794   6.414  1.00  0.00     0.198 A 
ATOM     85  C   UNL     1      11.465  17.184   8.774  1.00  0.00     0.198 A 
ATOM     86  F   UNL     1      10.161  15.749  10.104  1.00  0.00    -0.203 F 
ATOM     87  F   UNL     1      12.179  17.115   5.223  1.00  0.00    -0.200 F 
ATOM     88  C   UNL     1      11.982  17.537   7.538  1.00  0.00     0.200 A 
ATOM     89  F   UNL     1      11.766  17.911   9.859  1.00  0.00    -0.200 F 
ATOM     90  F   UNL     1      12.803  18.591   7.430  1.00  0.00    -0.200 F 
ENDBRANCH  57  80
ENDBRANCH  31  32
ENDBRANCH  23  26
ENDBRANCH  21  22
ENDBRANCH  20  21
ENDBRANCH  19  20
ENDBRANCH  18  19
ENDBRANCH   1  18
TORSDOF 18
