REMARK SMILES CC(C)C[C@H](CNC(=O)N[C@@H]1CCC[C@@H](C)[C@H]1C)C(=O)NCCCCCCNC(=O)c1ccc(-c2c3nc(c(-c4c(F)c(F)c(F)c(F)c4F)c4ccc([nH]4)c(-c4c(F)c(F)c(F)c(F)c4F)c4nc(c(-c5c(F)c(F)c(F)c(F)c5F)c5ccc2[nH]5)C=C4)C=C3)cc1
REMARK SMILES IDX 24 1 23 2 22 3 21 4 19 5 20 6 5 8 4 9 2 10 1 11 3 12 6 13
REMARK SMILES IDX 7 14 8 15 9 17 10 18 11 20 12 21 17 22 13 23 15 24 18 25
REMARK SMILES IDX 14 26 16 27 25 28 26 29 27 30 28 31 29 32 30 34 31 35 32 36
REMARK SMILES IDX 93 37 33 38 92 39 34 40 35 41 36 42 86 43 37 44 91 45 85 46
REMARK SMILES IDX 87 47 38 48 90 49 84 50 83 51 39 53 71 54 51 55 70 56 52 57
REMARK SMILES IDX 55 58 69 59 88 60 53 61 54 62 68 64 89 65 56 66 40 67 41 68
REMARK SMILES IDX 49 69 42 70 43 71 47 72 50 73 44 74 45 75 48 76 46 77 72 78
REMARK SMILES IDX 73 79 81 80 74 81 75 82 79 83 82 84 76 85 77 86 80 87 78 88
REMARK SMILES IDX 57 89 58 90 66 91 59 92 60 93 64 94 67 95 61 96 62 97 65 98
REMARK SMILES IDX 63 99
REMARK H PARENT 21 7 7 16 10 19 28 33 87 52 55 63
REMARK Flexibility Score: inf
ROOT
ATOM      1  C   UNL     1      -5.435   1.659   4.028  1.00  0.00     0.002 C 
ENDROOT
BRANCH   1   2
ATOM      2  C   UNL     1      -3.931   1.508   3.788  1.00  0.00     0.021 C 
BRANCH   2   3
ATOM      3  C   UNL     1      -3.491   0.048   3.701  1.00  0.00     0.116 C 
BRANCH   3   4
ATOM      4  N   UNL     1      -3.852  -0.496   2.409  1.00  0.00    -0.356 N 
ATOM      5  C   UNL     1      -3.072  -0.784   1.335  1.00  0.00     0.224 C 
ATOM      6  O   UNL     1      -3.632  -1.039   0.267  1.00  0.00    -0.275 OA
ATOM      7  H   UNL     1      -4.811  -0.686   2.291  1.00  0.00     0.163 HD
BRANCH   5   8
ATOM      8  C   UNL     1      -1.557  -0.839   1.452  1.00  0.00     0.098 C 
BRANCH   8   9
ATOM      9  C   UNL     1      -1.095  -1.939   2.434  1.00  0.00     0.018 C 
BRANCH   9  10
ATOM     10  C   UNL     1      -1.650  -3.349   2.127  1.00  0.00    -0.017 C 
ATOM     11  C   UNL     1      -1.067  -3.927   0.836  1.00  0.00     0.007 C 
ATOM     12  C   UNL     1      -1.346  -4.285   3.299  1.00  0.00     0.007 C 
ENDBRANCH   9  10
ENDBRANCH   8   9
BRANCH   8  13
ATOM     13  C   UNL     1      -0.980   0.568   1.708  1.00  0.00     0.131 C 
BRANCH  13  14
ATOM     14  N   UNL     1       0.412   0.576   2.109  1.00  0.00    -0.337 N 
ATOM     15  C   UNL     1       1.523   0.146   1.496  1.00  0.00     0.315 C 
ATOM     16  H   UNL     1       0.571   0.970   2.998  1.00  0.00     0.165 HD
ATOM     17  O   UNL     1       2.529  -0.042   2.180  1.00  0.00    -0.249 OA
ATOM     18  N   UNL     1       1.573  -0.105   0.181  1.00  0.00    -0.335 N 
ATOM     19  H   UNL     1       2.281  -0.737  -0.083  1.00  0.00     0.165 HD
BRANCH  18  20
ATOM     20  C   UNL     1       0.765   0.391  -0.931  1.00  0.00     0.087 C 
ATOM     21  C   UNL     1       0.883  -0.541  -2.141  1.00  0.00     0.025 C 
ATOM     22  C   UNL     1       1.137   1.861  -1.243  1.00  0.00     0.011 C 
ATOM     23  C   UNL     1       2.221  -0.421  -2.858  1.00  0.00     0.002 C 
ATOM     24  C   UNL     1       2.506   1.932  -1.962  1.00  0.00    -0.009 C 
ATOM     25  C   UNL     1      -0.004   2.555  -1.998  1.00  0.00     0.010 C 
ATOM     26  C   UNL     1       2.550   1.028  -3.203  1.00  0.00     0.004 C 
ATOM     27  C   UNL     1       2.916   3.360  -2.320  1.00  0.00     0.008 C 
ENDBRANCH  18  20
ENDBRANCH  13  14
ENDBRANCH   8  13
ENDBRANCH   5   8
ENDBRANCH   3   4
ENDBRANCH   2   3
ENDBRANCH   1   2
BRANCH   1  28
ATOM     28  C   UNL     1      -5.942   0.930   5.277  1.00  0.00     0.002 C 
BRANCH  28  29
ATOM     29  C   UNL     1      -5.161   1.249   6.555  1.00  0.00     0.021 C 
BRANCH  29  30
ATOM     30  C   UNL     1      -5.137   2.731   6.905  1.00  0.00     0.116 C 
BRANCH  30  31
ATOM     31  N   UNL     1      -6.479   3.244   7.121  1.00  0.00    -0.352 N 
ATOM     32  C   UNL     1      -6.992   3.877   8.222  1.00  0.00     0.251 C 
ATOM     33  H   UNL     1      -7.106   3.119   6.373  1.00  0.00     0.163 HD
ATOM     34  O   UNL     1      -8.202   4.016   8.351  1.00  0.00    -0.269 OA
BRANCH  32  35
ATOM     35  C   UNL     1      -6.071   4.388   9.255  1.00  0.00     0.039 A 
ATOM     36  C   UNL     1      -6.394   4.197  10.599  1.00  0.00     0.014 A 
ATOM     37  C   UNL     1      -4.904   5.069   8.895  1.00  0.00     0.014 A 
ATOM     38  C   UNL     1      -5.527   4.664  11.586  1.00  0.00     0.010 A 
ATOM     39  C   UNL     1      -4.002   5.461   9.877  1.00  0.00     0.010 A 
ATOM     40  C   UNL     1      -4.314   5.281  11.232  1.00  0.00    -0.014 A 
BRANCH  40  41
ATOM     41  C   UNL     1      -3.381   5.776  12.272  1.00  0.00     0.031 A 
ATOM     42  C   UNL     1      -3.092   7.248  12.382  1.00  0.00     0.074 A 
ATOM     43  C   UNL     1      -2.768   4.899  13.090  1.00  0.00     0.049 A 
ATOM     44  N   UNL     1      -2.277   7.875  13.192  1.00  0.00    -0.248 NA
ATOM     45  C   UNL     1      -3.794   8.133  11.438  1.00  0.00     0.031 C 
ATOM     46  C   UNL     1      -2.934   3.446  13.048  1.00  0.00     0.029 A 
ATOM     47  N   UNL     1      -1.878   5.103  14.114  1.00  0.00    -0.354 N 
ATOM     48  C   UNL     1      -2.370   9.219  12.855  1.00  0.00     0.074 A 
ATOM     49  C   UNL     1      -3.261   9.312  11.720  1.00  0.00     0.031 C 
ATOM     50  C   UNL     1      -2.188   2.891  14.017  1.00  0.00     0.029 A 
ATOM     51  C   UNL     1      -1.465   3.944  14.723  1.00  0.00     0.049 A 
ATOM     52  H   UNL     1      -1.565   5.996  14.387  1.00  0.00     0.167 HD
ATOM     53  C   UNL     1      -1.791  10.284  13.459  1.00  0.00     0.037 A 
ATOM     54  C   UNL     1      -0.595   3.755  15.733  1.00  0.00     0.037 A 
ATOM     55  C   UNL     1      -0.912  10.187  14.594  1.00  0.00     0.049 A 
ATOM     56  C   UNL     1       0.050   4.956  16.373  1.00  0.00     0.074 A 
ATOM     57  C   UNL     1      -0.288  11.205  15.294  1.00  0.00     0.029 A 
ATOM     58  N   UNL     1      -0.533   8.996  15.198  1.00  0.00    -0.354 N 
ATOM     59  N   UNL     1      -0.090   6.227  16.083  1.00  0.00    -0.248 NA
ATOM     60  C   UNL     1       0.965   4.695  17.492  1.00  0.00     0.031 C 
ATOM     61  C   UNL     1       0.502  10.628  16.294  1.00  0.00     0.029 A 
ATOM     62  C   UNL     1       0.324   9.254  16.255  1.00  0.00     0.049 A 
ATOM     63  H   UNL     1      -0.830   8.101  14.916  1.00  0.00     0.167 HD
ATOM     64  C   UNL     1       0.686   6.917  17.005  1.00  0.00     0.074 A 
ATOM     65  C   UNL     1       1.281   5.923  17.874  1.00  0.00     0.031 C 
ATOM     66  C   UNL     1       0.891   8.252  17.122  1.00  0.00     0.037 A 
BRANCH  53  67
ATOM     67  C   UNL     1      -2.104  11.647  12.910  1.00  0.00     0.064 A 
ATOM     68  C   UNL     1      -3.385  12.209  13.033  1.00  0.00     0.173 A 
ATOM     69  C   UNL     1      -1.110  12.415  12.286  1.00  0.00     0.173 A 
ATOM     70  F   UNL     1      -4.376  11.512  13.608  1.00  0.00    -0.203 F 
ATOM     71  C   UNL     1      -3.665  13.475  12.526  1.00  0.00     0.198 A 
ATOM     72  C   UNL     1      -1.385  13.695  11.811  1.00  0.00     0.198 A 
ATOM     73  F   UNL     1       0.133  11.929  12.145  1.00  0.00    -0.203 F 
ATOM     74  F   UNL     1      -4.909  13.968  12.608  1.00  0.00    -0.200 F 
ATOM     75  C   UNL     1      -2.663  14.220  11.923  1.00  0.00     0.200 A 
ATOM     76  F   UNL     1      -0.412  14.420  11.241  1.00  0.00    -0.200 F 
ATOM     77  F   UNL     1      -2.932  15.443  11.444  1.00  0.00    -0.200 F 
ENDBRANCH  53  67
BRANCH  54  78
ATOM     78  C   UNL     1      -0.294   2.381  16.216  1.00  0.00     0.064 A 
ATOM     79  C   UNL     1      -0.676   1.965  17.499  1.00  0.00     0.173 A 
ATOM     80  C   UNL     1       0.408   1.466  15.418  1.00  0.00     0.173 A 
ATOM     81  F   UNL     1      -1.335   2.808  18.308  1.00  0.00    -0.203 F 
ATOM     82  C   UNL     1      -0.334   0.702  17.980  1.00  0.00     0.198 A 
ATOM     83  C   UNL     1       0.719   0.192  15.886  1.00  0.00     0.198 A 
ATOM     84  F   UNL     1       0.788   1.809  14.178  1.00  0.00    -0.203 F 
ATOM     85  F   UNL     1      -0.655   0.356  19.233  1.00  0.00    -0.200 F 
ATOM     86  C   UNL     1       0.361  -0.184  17.171  1.00  0.00     0.200 A 
ATOM     87  F   UNL     1       1.375  -0.669  15.094  1.00  0.00    -0.200 F 
ATOM     88  F   UNL     1       0.693  -1.397  17.634  1.00  0.00    -0.200 F 
ENDBRANCH  54  78
BRANCH  66  89
ATOM     89  C   UNL     1       1.748   8.718  18.264  1.00  0.00     0.064 A 
ATOM     90  C   UNL     1       3.130   8.482  18.301  1.00  0.00     0.173 A 
ATOM     91  C   UNL     1       1.176   9.434  19.328  1.00  0.00     0.173 A 
ATOM     92  F   UNL     1       3.723   7.791  17.316  1.00  0.00    -0.203 F 
ATOM     93  C   UNL     1       3.901   8.911  19.378  1.00  0.00     0.198 A 
ATOM     94  C   UNL     1       1.956   9.893  20.385  1.00  0.00     0.198 A 
ATOM     95  F   UNL     1      -0.140   9.696  19.338  1.00  0.00    -0.203 F 
ATOM     96  F   UNL     1       5.208   8.619  19.421  1.00  0.00    -0.200 F 
ATOM     97  C   UNL     1       3.315   9.621  20.415  1.00  0.00     0.200 A 
ATOM     98  F   UNL     1       1.391  10.594  21.378  1.00  0.00    -0.200 F 
ATOM     99  F   UNL     1       4.060  10.037  21.449  1.00  0.00    -0.200 F 
ENDBRANCH  66  89
ENDBRANCH  40  41
ENDBRANCH  32  35
ENDBRANCH  30  31
ENDBRANCH  29  30
ENDBRANCH  28  29
ENDBRANCH   1  28
TORSDOF 18
