REMARK SMILES COc1ccc(-n2c(=S)[nH]cc(CC(=O)NCCCCCCNC(=O)c3ccc(-c4c5nc(c(-c6c(F)c(F)c(F)c(F)c6F)c6ccc([nH]6)c(-c6c(F)c(F)c(F)c(F)c6F)c6nc(c(-c7c(F)c(F)c(F)c(F)c7F)c7ccc4[nH]7)C=C6)C=C5)cc3)c2=O)cc1Cl
REMARK SMILES IDX 19 1 18 2 17 3 16 4 14 5 15 6 13 8 12 9 7 10 8 11 89 12 9 13
REMARK SMILES IDX 10 14 90 15 11 16 6 18 3 19 4 20 92 21 5 22 91 23 93 24 2 25
REMARK SMILES IDX 1 26 20 27 21 28 22 29 23 30 24 31 25 33 26 34 27 35 88 36
REMARK SMILES IDX 28 37 87 38 29 39 30 40 31 41 81 42 32 43 86 44 80 45 82 46
REMARK SMILES IDX 33 47 85 48 79 49 78 50 34 52 66 53 46 54 65 55 47 56 50 57
REMARK SMILES IDX 64 58 83 59 48 60 49 61 63 63 84 64 51 65 35 66 36 67 44 68
REMARK SMILES IDX 37 69 38 70 42 71 45 72 39 73 40 74 43 75 41 76 67 77 68 78
REMARK SMILES IDX 76 79 69 80 70 81 74 82 77 83 71 84 72 85 75 86 73 87 52 88
REMARK SMILES IDX 53 89 61 90 54 91 55 92 59 93 62 94 56 95 57 96 60 97 58 98
REMARK H PARENT 16 7 10 17 23 32 82 51 50 62
REMARK Flexibility Score: inf
ROOT
ATOM      1  C   UNL     1       4.701  -7.201   6.735  1.00  0.00     0.002 C 
ENDROOT
BRANCH   1   2
ATOM      2  C   UNL     1       3.606  -6.193   6.359  1.00  0.00     0.021 C 
BRANCH   2   3
ATOM      3  C   UNL     1       2.179  -6.730   6.502  1.00  0.00     0.116 C 
BRANCH   3   4
ATOM      4  N   UNL     1       1.843  -6.955   7.896  1.00  0.00    -0.356 N 
ATOM      5  C   UNL     1       1.073  -6.195   8.727  1.00  0.00     0.224 C 
ATOM      6  O   UNL     1       1.045  -6.473   9.927  1.00  0.00    -0.275 OA
ATOM      7  H   UNL     1       2.225  -7.769   8.298  1.00  0.00     0.163 HD
BRANCH   5   8
ATOM      8  C   UNL     1       0.273  -5.028   8.166  1.00  0.00     0.142 C 
BRANCH   8   9
ATOM      9  C   UNL     1       1.148  -3.865   7.792  1.00  0.00     0.043 A 
ATOM     10  N   UNL     1       1.812  -2.215   6.072  1.00  0.00    -0.253 N 
ATOM     11  C   UNL     1       2.843  -1.761   6.914  1.00  0.00     0.184 A 
ATOM     12  C   UNL     1       0.928  -3.236   6.456  1.00  0.00     0.262 A 
ATOM     13  S   UNL     1       3.927  -0.497   6.680  1.00  0.00    -0.040 S 
ATOM     14  N   UNL     1       2.947  -2.395   8.129  1.00  0.00    -0.338 N 
ATOM     15  O   UNL     1       0.025  -3.685   5.747  1.00  0.00    -0.269 OA
ATOM     16  C   UNL     1       2.136  -3.396   8.556  1.00  0.00     0.095 A 
ATOM     17  H   UNL     1       3.663  -2.100   8.735  1.00  0.00     0.168 HD
BRANCH  10  18
ATOM     18  C   UNL     1       1.585  -1.618   4.779  1.00  0.00     0.053 A 
ATOM     19  C   UNL     1       1.144  -0.299   2.321  1.00  0.00     0.137 A 
ATOM     20  C   UNL     1       0.102  -0.457   3.237  1.00  0.00     0.050 A 
ATOM     21  C   UNL     1       2.406  -0.823   2.622  1.00  0.00     0.085 A 
ATOM     22  C   UNL     1       0.315  -1.125   4.447  1.00  0.00     0.031 A 
ATOM     23  C   UNL     1       2.617  -1.491   3.837  1.00  0.00     0.051 A 
ATOM     24  Cl  UNL     1       3.772  -0.628   1.584  1.00  0.00    -0.080 Cl
BRANCH  19  25
ATOM     25  O   UNL     1       0.853   0.481   1.234  1.00  0.00    -0.495 OA
ATOM     26  C   UNL     1       1.003  -0.186  -0.016  1.00  0.00     0.278 C 
ENDBRANCH  19  25
ENDBRANCH  10  18
ENDBRANCH   8   9
ENDBRANCH   5   8
ENDBRANCH   3   4
ENDBRANCH   2   3
ENDBRANCH   1   2
BRANCH   1  27
ATOM     27  C   UNL     1       4.712  -8.495   5.913  1.00  0.00     0.002 C 
BRANCH  27  28
ATOM     28  C   UNL     1       4.761  -8.302   4.397  1.00  0.00     0.021 C 
BRANCH  28  29
ATOM     29  C   UNL     1       5.974  -7.530   3.891  1.00  0.00     0.116 C 
BRANCH  29  30
ATOM     30  N   UNL     1       7.217  -8.268   4.061  1.00  0.00    -0.352 N 
ATOM     31  C   UNL     1       8.189  -8.548   3.130  1.00  0.00     0.251 C 
ATOM     32  H   UNL     1       7.384  -8.615   4.967  1.00  0.00     0.163 HD
ATOM     33  O   UNL     1       9.107  -9.316   3.397  1.00  0.00    -0.269 OA
BRANCH  31  34
ATOM     34  C   UNL     1       8.099  -7.942   1.785  1.00  0.00     0.039 A 
ATOM     35  C   UNL     1       7.848  -6.576   1.638  1.00  0.00     0.014 A 
ATOM     36  C   UNL     1       8.233  -8.761   0.660  1.00  0.00     0.014 A 
ATOM     37  C   UNL     1       7.581  -6.057   0.376  1.00  0.00     0.010 A 
ATOM     38  C   UNL     1       8.035  -8.222  -0.613  1.00  0.00     0.010 A 
ATOM     39  C   UNL     1       7.666  -6.876  -0.762  1.00  0.00    -0.014 A 
BRANCH  39  40
ATOM     40  C   UNL     1       7.361  -6.311  -2.101  1.00  0.00     0.031 A 
ATOM     41  C   UNL     1       6.158  -6.777  -2.874  1.00  0.00     0.074 A 
ATOM     42  C   UNL     1       8.149  -5.341  -2.601  1.00  0.00     0.049 A 
ATOM     43  N   UNL     1       5.756  -6.424  -4.070  1.00  0.00    -0.248 NA
ATOM     44  C   UNL     1       5.291  -7.770  -2.221  1.00  0.00     0.031 C 
ATOM     45  C   UNL     1       9.326  -4.786  -1.932  1.00  0.00     0.029 A 
ATOM     46  N   UNL     1       8.071  -4.639  -3.776  1.00  0.00    -0.354 N 
ATOM     47  C   UNL     1       4.606  -7.161  -4.318  1.00  0.00     0.074 A 
ATOM     48  C   UNL     1       4.382  -7.998  -3.159  1.00  0.00     0.031 C 
ATOM     49  C   UNL     1       9.835  -3.800  -2.685  1.00  0.00     0.029 A 
ATOM     50  C   UNL     1       9.060  -3.697  -3.917  1.00  0.00     0.049 A 
ATOM     51  H   UNL     1       7.374  -4.795  -4.453  1.00  0.00     0.167 HD
ATOM     52  C   UNL     1       3.806  -7.133  -5.411  1.00  0.00     0.037 A 
ATOM     53  C   UNL     1       9.325  -2.855  -4.933  1.00  0.00     0.037 A 
ATOM     54  C   UNL     1       4.023  -6.286  -6.556  1.00  0.00     0.049 A 
ATOM     55  C   UNL     1       8.450  -2.881  -6.153  1.00  0.00     0.074 A 
ATOM     56  C   UNL     1       3.271  -6.191  -7.715  1.00  0.00     0.029 A 
ATOM     57  N   UNL     1       5.067  -5.382  -6.684  1.00  0.00    -0.354 N 
ATOM     58  N   UNL     1       7.383  -3.604  -6.389  1.00  0.00    -0.248 NA
ATOM     59  C   UNL     1       8.823  -1.981  -7.253  1.00  0.00     0.031 C 
ATOM     60  C   UNL     1       3.878  -5.254  -8.557  1.00  0.00     0.029 A 
ATOM     61  C   UNL     1       4.984  -4.733  -7.906  1.00  0.00     0.049 A 
ATOM     62  H   UNL     1       5.764  -5.224  -6.007  1.00  0.00     0.167 HD
ATOM     63  C   UNL     1       6.951  -3.242  -7.657  1.00  0.00     0.074 A 
ATOM     64  C   UNL     1       7.859  -2.218  -8.132  1.00  0.00     0.031 C 
ATOM     65  C   UNL     1       5.898  -3.719  -8.365  1.00  0.00     0.037 A 
BRANCH  52  66
ATOM     66  C   UNL     1       2.621  -8.052  -5.435  1.00  0.00     0.064 A 
ATOM     67  C   UNL     1       1.479  -7.797  -4.661  1.00  0.00     0.173 A 
ATOM     68  C   UNL     1       2.599  -9.163  -6.292  1.00  0.00     0.173 A 
ATOM     69  F   UNL     1       1.456  -6.756  -3.816  1.00  0.00    -0.203 F 
ATOM     70  C   UNL     1       0.364  -8.628  -4.736  1.00  0.00     0.198 A 
ATOM     71  C   UNL     1       1.473  -9.977  -6.382  1.00  0.00     0.198 A 
ATOM     72  F   UNL     1       3.663  -9.448  -7.057  1.00  0.00    -0.203 F 
ATOM     73  F   UNL     1      -0.705  -8.382  -3.965  1.00  0.00    -0.200 F 
ATOM     74  C   UNL     1       0.357  -9.711  -5.602  1.00  0.00     0.200 A 
ATOM     75  F   UNL     1       1.464 -11.017  -7.228  1.00  0.00    -0.200 F 
ATOM     76  F   UNL     1      -0.723 -10.500  -5.683  1.00  0.00    -0.200 F 
ENDBRANCH  52  66
BRANCH  53  77
ATOM     77  C   UNL     1      10.474  -1.922  -4.829  1.00  0.00     0.064 A 
ATOM     78  C   UNL     1      10.268  -0.545  -4.674  1.00  0.00     0.173 A 
ATOM     79  C   UNL     1      11.796  -2.389  -4.848  1.00  0.00     0.173 A 
ATOM     80  F   UNL     1       9.022  -0.050  -4.673  1.00  0.00    -0.203 F 
ATOM     81  C   UNL     1      11.344   0.331  -4.543  1.00  0.00     0.198 A 
ATOM     82  C   UNL     1      12.869  -1.516  -4.690  1.00  0.00     0.198 A 
ATOM     83  F   UNL     1      12.043  -3.699  -4.992  1.00  0.00    -0.203 F 
ATOM     84  F   UNL     1      11.122   1.647  -4.425  1.00  0.00    -0.200 F 
ATOM     85  C   UNL     1      12.642  -0.156  -4.542  1.00  0.00     0.200 A 
ATOM     86  F   UNL     1      14.121  -1.993  -4.674  1.00  0.00    -0.200 F 
ATOM     87  F   UNL     1      13.675   0.685  -4.400  1.00  0.00    -0.200 F 
ENDBRANCH  53  77
BRANCH  65  88
ATOM     88  C   UNL     1       5.662  -3.127  -9.722  1.00  0.00     0.064 A 
ATOM     89  C   UNL     1       6.488  -3.442 -10.811  1.00  0.00     0.173 A 
ATOM     90  C   UNL     1       4.576  -2.268  -9.944  1.00  0.00     0.173 A 
ATOM     91  F   UNL     1       7.547  -4.247 -10.644  1.00  0.00    -0.203 F 
ATOM     92  C   UNL     1       6.247  -2.899 -12.070  1.00  0.00     0.198 A 
ATOM     93  C   UNL     1       4.323  -1.748 -11.210  1.00  0.00     0.198 A 
ATOM     94  F   UNL     1       3.754  -1.942  -8.935  1.00  0.00    -0.203 F 
ATOM     95  F   UNL     1       7.072  -3.180 -13.088  1.00  0.00    -0.200 F 
ATOM     96  C   UNL     1       5.162  -2.058 -12.270  1.00  0.00     0.200 A 
ATOM     97  F   UNL     1       3.268  -0.944 -11.404  1.00  0.00    -0.200 F 
ATOM     98  F   UNL     1       4.928  -1.542 -13.484  1.00  0.00    -0.200 F 
ENDBRANCH  65  88
ENDBRANCH  39  40
ENDBRANCH  31  34
ENDBRANCH  29  30
ENDBRANCH  28  29
ENDBRANCH  27  28
ENDBRANCH   1  27
TORSDOF 16
