REMARK SMILES CC[C@@H](C)N(C)c1ccc(/C=C/C(=O)NCCCCCCNC(=O)c2ccc(-c3c4nc(c(-c5c(F)c(F)c(F)c(F)c5F)c5ccc([nH]5)c(-c5c(F)c(F)c(F)c(F)c5F)c5nc(c(-c6c(F)c(F)c(F)c(F)c6F)c6ccc3[nH]6)C=C5)C=C4)cc2)cc1F
REMARK SMILES IDX 17 1 16 2 15 3 13 4 14 5 12 7 11 8 10 9 7 10 8 11 89 12 9 13
REMARK SMILES IDX 88 14 90 15 5 16 6 17 3 18 4 19 2 20 1 21 18 22 19 23 20 24
REMARK SMILES IDX 21 25 22 26 23 27 24 29 25 30 26 31 87 32 27 33 86 34 28 35
REMARK SMILES IDX 29 36 30 37 80 38 31 39 85 40 79 41 81 42 32 43 84 44 78 45
REMARK SMILES IDX 77 46 33 48 65 49 45 50 64 51 46 52 49 53 63 54 82 55 47 56
REMARK SMILES IDX 48 57 62 59 83 60 50 61 34 62 35 63 43 64 36 65 37 66 41 67
REMARK SMILES IDX 44 68 38 69 39 70 42 71 40 72 66 73 67 74 75 75 68 76 69 77
REMARK SMILES IDX 73 78 76 79 70 80 71 81 74 82 72 83 51 84 52 85 60 86 53 87
REMARK SMILES IDX 54 88 58 89 61 90 55 91 56 92 59 93 57 94
REMARK H PARENT 15 6 22 28 81 47 49 58
REMARK Flexibility Score: inf
ROOT
ATOM      1  C   UNL     1      -8.047   4.014  -1.891  1.00  0.00     0.021 C 
ENDROOT
BRANCH   1   2
ATOM      2  C   UNL     1      -7.765   2.839  -2.828  1.00  0.00     0.116 C 
BRANCH   2   3
ATOM      3  N   UNL     1      -7.960   3.228  -4.213  1.00  0.00    -0.353 N 
ATOM      4  C   UNL     1      -7.078   3.308  -5.246  1.00  0.00     0.243 C 
ATOM      5  O   UNL     1      -7.479   3.580  -6.375  1.00  0.00    -0.270 OA
ATOM      6  H   UNL     1      -8.885   3.475  -4.444  1.00  0.00     0.163 HD
BRANCH   4   7
ATOM      7  C   UNL     1      -5.653   2.973  -5.039  1.00  0.00     0.072 C 
ATOM      8  C   UNL     1      -4.903   3.512  -4.066  1.00  0.00     0.014 C 
BRANCH   8   9
ATOM      9  C   UNL     1      -3.503   3.154  -3.811  1.00  0.00    -0.022 A 
ATOM     10  C   UNL     1      -0.780   2.539  -3.196  1.00  0.00     0.073 A 
ATOM     11  C   UNL     1      -1.244   2.591  -4.521  1.00  0.00     0.029 A 
ATOM     12  C   UNL     1      -1.724   2.821  -2.197  1.00  0.00     0.147 A 
ATOM     13  C   UNL     1      -2.581   2.897  -4.828  1.00  0.00     0.010 A 
ATOM     14  C   UNL     1      -3.057   3.118  -2.489  1.00  0.00     0.049 A 
ATOM     15  F   UNL     1      -1.361   2.881  -0.906  1.00  0.00    -0.205 F 
BRANCH  10  16
ATOM     16  N   UNL     1       0.557   2.264  -2.913  1.00  0.00    -0.370 N 
ATOM     17  C   UNL     1       1.562   3.007  -3.665  1.00  0.00     0.144 C 
BRANCH  16  18
ATOM     18  C   UNL     1       0.978   1.000  -2.266  1.00  0.00     0.078 C 
ATOM     19  C   UNL     1       0.465  -0.220  -3.035  1.00  0.00     0.031 C 
BRANCH  18  20
ATOM     20  C   UNL     1       0.613   0.962  -0.774  1.00  0.00     0.021 C 
ATOM     21  C   UNL     1       1.375  -0.097   0.013  1.00  0.00     0.006 C 
ENDBRANCH  18  20
ENDBRANCH  16  18
ENDBRANCH  10  16
ENDBRANCH   8   9
ENDBRANCH   4   7
ENDBRANCH   2   3
ENDBRANCH   1   2
BRANCH   1  22
ATOM     22  C   UNL     1      -9.541   4.309  -1.704  1.00  0.00     0.002 C 
BRANCH  22  23
ATOM     23  C   UNL     1     -10.352   3.174  -1.067  1.00  0.00     0.002 C 
BRANCH  23  24
ATOM     24  C   UNL     1      -9.828   2.678   0.284  1.00  0.00     0.021 C 
BRANCH  24  25
ATOM     25  C   UNL     1      -9.789   3.742   1.378  1.00  0.00     0.116 C 
BRANCH  25  26
ATOM     26  N   UNL     1     -11.120   4.216   1.721  1.00  0.00    -0.352 N 
ATOM     27  C   UNL     1     -11.744   4.261   2.942  1.00  0.00     0.251 C 
ATOM     28  H   UNL     1     -11.653   4.555   0.965  1.00  0.00     0.163 HD
ATOM     29  O   UNL     1     -12.946   4.491   3.013  1.00  0.00    -0.269 OA
BRANCH  27  30
ATOM     30  C   UNL     1     -10.969   4.020   4.178  1.00  0.00     0.039 A 
ATOM     31  C   UNL     1     -11.524   3.214   5.175  1.00  0.00     0.014 A 
ATOM     32  C   UNL     1      -9.717   4.612   4.369  1.00  0.00     0.014 A 
ATOM     33  C   UNL     1     -10.802   2.961   6.343  1.00  0.00     0.010 A 
ATOM     34  C   UNL     1      -8.970   4.305   5.503  1.00  0.00     0.010 A 
ATOM     35  C   UNL     1      -9.508   3.482   6.504  1.00  0.00    -0.014 A 
BRANCH  35  36
ATOM     36  C   UNL     1      -8.707   3.180   7.715  1.00  0.00     0.031 A 
ATOM     37  C   UNL     1      -8.341   4.276   8.675  1.00  0.00     0.074 A 
ATOM     38  C   UNL     1      -8.268   1.924   7.924  1.00  0.00     0.049 A 
ATOM     39  N   UNL     1      -7.606   4.217   9.757  1.00  0.00    -0.248 NA
ATOM     40  C   UNL     1      -8.848   5.623   8.366  1.00  0.00     0.031 C 
ATOM     41  C   UNL     1      -8.525   0.785   7.043  1.00  0.00     0.029 A 
ATOM     42  N   UNL     1      -7.511   1.396   8.940  1.00  0.00    -0.354 N 
ATOM     43  C   UNL     1      -7.558   5.513  10.251  1.00  0.00     0.074 A 
ATOM     44  C   UNL     1      -8.289   6.349   9.323  1.00  0.00     0.031 C 
ATOM     45  C   UNL     1      -7.961  -0.313   7.570  1.00  0.00     0.029 A 
ATOM     46  C   UNL     1      -7.272   0.051   8.805  1.00  0.00     0.049 A 
ATOM     47  H   UNL     1      -7.171   1.931   9.693  1.00  0.00     0.167 HD
ATOM     48  C   UNL     1      -6.978   5.960  11.390  1.00  0.00     0.037 A 
ATOM     49  C   UNL     1      -6.576  -0.795   9.589  1.00  0.00     0.037 A 
ATOM     50  C   UNL     1      -6.271   5.121  12.322  1.00  0.00     0.049 A 
ATOM     51  C   UNL     1      -5.933  -0.274  10.844  1.00  0.00     0.074 A 
ATOM     52  C   UNL     1      -5.689   5.471  13.527  1.00  0.00     0.029 A 
ATOM     53  N   UNL     1      -6.051   3.761  12.151  1.00  0.00    -0.354 N 
ATOM     54  N   UNL     1      -5.933   0.945  11.326  1.00  0.00    -0.248 NA
ATOM     55  C   UNL     1      -5.196  -1.244  11.665  1.00  0.00     0.031 C 
ATOM     56  C   UNL     1      -5.079   4.334  14.065  1.00  0.00     0.029 A 
ATOM     57  C   UNL     1      -5.325   3.263  13.221  1.00  0.00     0.049 A 
ATOM     58  H   UNL     1      -6.364   3.230  11.384  1.00  0.00     0.167 HD
ATOM     59  C   UNL     1      -5.217   0.887  12.513  1.00  0.00     0.074 A 
ATOM     60  C   UNL     1      -4.809  -0.492  12.687  1.00  0.00     0.031 C 
ATOM     61  C   UNL     1      -4.926   1.887  13.380  1.00  0.00     0.037 A 
BRANCH  48  62
ATOM     62  C   UNL     1      -7.096   7.423  11.705  1.00  0.00     0.064 A 
ATOM     63  C   UNL     1      -5.965   8.253  11.680  1.00  0.00     0.173 A 
ATOM     64  C   UNL     1      -8.320   7.994  12.086  1.00  0.00     0.173 A 
ATOM     65  F   UNL     1      -4.769   7.757  11.329  1.00  0.00    -0.203 F 
ATOM     66  C   UNL     1      -6.054   9.598  12.032  1.00  0.00     0.198 A 
ATOM     67  C   UNL     1      -8.412   9.345  12.408  1.00  0.00     0.198 A 
ATOM     68  F   UNL     1      -9.433   7.246  12.115  1.00  0.00    -0.203 F 
ATOM     69  F   UNL     1      -4.955  10.365  12.028  1.00  0.00    -0.200 F 
ATOM     70  C   UNL     1      -7.278  10.143  12.390  1.00  0.00     0.200 A 
ATOM     71  F   UNL     1      -9.599   9.877  12.729  1.00  0.00    -0.200 F 
ATOM     72  F   UNL     1      -7.365  11.441  12.714  1.00  0.00    -0.200 F 
ENDBRANCH  48  62
BRANCH  49  73
ATOM     73  C   UNL     1      -6.495  -2.231   9.219  1.00  0.00     0.064 A 
ATOM     74  C   UNL     1      -5.752  -2.660   8.110  1.00  0.00     0.173 A 
ATOM     75  C   UNL     1      -7.204  -3.198   9.944  1.00  0.00     0.173 A 
ATOM     76  F   UNL     1      -5.061  -1.771   7.380  1.00  0.00    -0.203 F 
ATOM     77  C   UNL     1      -5.740  -3.999   7.727  1.00  0.00     0.198 A 
ATOM     78  C   UNL     1      -7.172  -4.541   9.575  1.00  0.00     0.198 A 
ATOM     79  F   UNL     1      -7.914  -2.837  11.023  1.00  0.00    -0.203 F 
ATOM     80  F   UNL     1      -5.053  -4.377   6.640  1.00  0.00    -0.200 F 
ATOM     81  C   UNL     1      -6.448  -4.939   8.461  1.00  0.00     0.200 A 
ATOM     82  F   UNL     1      -7.840  -5.449  10.299  1.00  0.00    -0.200 F 
ATOM     83  F   UNL     1      -6.432  -6.228   8.095  1.00  0.00    -0.200 F 
ENDBRANCH  49  73
BRANCH  61  84
ATOM     84  C   UNL     1      -4.138   1.536  14.608  1.00  0.00     0.064 A 
ATOM     85  C   UNL     1      -4.744   1.566  15.873  1.00  0.00     0.173 A 
ATOM     86  C   UNL     1      -2.767   1.249  14.541  1.00  0.00     0.173 A 
ATOM     87  F   UNL     1      -6.051   1.843  15.990  1.00  0.00    -0.203 F 
ATOM     88  C   UNL     1      -4.002   1.337  17.028  1.00  0.00     0.198 A 
ATOM     89  C   UNL     1      -2.034   0.994  15.697  1.00  0.00     0.198 A 
ATOM     90  F   UNL     1      -2.145   1.197  13.353  1.00  0.00    -0.203 F 
ATOM     91  F   UNL     1      -4.594   1.405  18.228  1.00  0.00    -0.200 F 
ATOM     92  C   UNL     1      -2.649   1.048  16.939  1.00  0.00     0.200 A 
ATOM     93  F   UNL     1      -0.731   0.692  15.608  1.00  0.00    -0.200 F 
ATOM     94  F   UNL     1      -1.937   0.820  18.051  1.00  0.00    -0.200 F 
ENDBRANCH  61  84
ENDBRANCH  35  36
ENDBRANCH  27  30
ENDBRANCH  25  26
ENDBRANCH  24  25
ENDBRANCH  23  24
ENDBRANCH  22  23
ENDBRANCH   1  22
TORSDOF 17
