REMARK SMILES C[C@@H](Oc1ccccc1Cl)C(=O)N1CC[C@H](C(=O)NCCCCCCNC(=O)c2ccc(-c3c4nc(c(-c5c(F)c(F)c(F)c(F)c5F)c5ccc([nH]5)c(-c5c(F)c(F)c(F)c(F)c5F)c5nc(c(-c6c(F)c(F)c(F)c(F)c6F)c6ccc3[nH]6)C=C5)C=C4)cc2)[C@@H]1C
REMARK SMILES IDX 21 1 20 2 19 3 17 4 18 5 16 7 13 8 14 9 92 10 15 11 93 12
REMARK SMILES IDX 11 13 12 14 2 15 1 16 3 17 4 18 5 19 9 20 6 21 8 22 10 23
REMARK SMILES IDX 7 24 22 25 23 26 24 27 25 28 26 29 27 30 28 32 29 33 30 34
REMARK SMILES IDX 91 35 31 36 90 37 32 38 33 39 34 40 84 41 35 42 89 43 83 44
REMARK SMILES IDX 85 45 36 46 88 47 82 48 81 49 37 51 69 52 49 53 68 54 50 55
REMARK SMILES IDX 53 56 67 57 86 58 51 59 52 60 66 62 87 63 54 64 38 65 39 66
REMARK SMILES IDX 47 67 40 68 41 69 45 70 48 71 42 72 43 73 46 74 44 75 70 76
REMARK SMILES IDX 71 77 79 78 72 79 73 80 77 81 80 82 74 83 75 84 78 85 76 86
REMARK SMILES IDX 55 87 56 88 64 89 57 90 58 91 62 92 65 93 59 94 60 95 63 96
REMARK SMILES IDX 61 97
REMARK H PARENT 19 6 26 31 85 50 53 61
REMARK Flexibility Score: inf
ROOT
ATOM      1  C   UNL     1      -4.323   1.738   0.391  1.00  0.00     0.021 C 
ENDROOT
BRANCH   1   2
ATOM      2  C   UNL     1      -3.559   1.880   1.699  1.00  0.00     0.116 C 
BRANCH   2   3
ATOM      3  N   UNL     1      -4.037   1.022   2.756  1.00  0.00    -0.356 N 
ATOM      4  C   UNL     1      -3.528  -0.037   3.416  1.00  0.00     0.225 C 
ATOM      5  O   UNL     1      -4.127  -0.297   4.473  1.00  0.00    -0.275 OA
ATOM      6  H   UNL     1      -4.939   1.265   3.065  1.00  0.00     0.163 HD
BRANCH   4   7
ATOM      7  C   UNL     1      -2.452  -1.033   2.969  1.00  0.00     0.102 C 
ATOM      8  N   UNL     1      -1.665  -1.388   0.730  1.00  0.00    -0.336 N 
ATOM      9  C   UNL     1      -2.989  -1.982   0.842  1.00  0.00     0.121 C 
ATOM     10  C   UNL     1      -1.239  -0.856   2.035  1.00  0.00     0.094 C 
ATOM     11  C   UNL     1      -3.169  -2.229   2.328  1.00  0.00     0.037 C 
ATOM     12  C   UNL     1      -0.568   0.503   2.024  1.00  0.00     0.032 C 
BRANCH   8  13
ATOM     13  C   UNL     1      -0.937  -1.669  -0.411  1.00  0.00     0.263 C 
ATOM     14  O   UNL     1      -1.518  -2.065  -1.432  1.00  0.00    -0.271 OA
BRANCH  13  15
ATOM     15  C   UNL     1       0.598  -1.498  -0.469  1.00  0.00     0.259 C 
ATOM     16  C   UNL     1       0.974  -0.092  -0.927  1.00  0.00     0.064 C 
BRANCH  15  17
ATOM     17  O   UNL     1       1.255  -1.850   0.749  1.00  0.00    -0.479 OA
BRANCH  17  18
ATOM     18  C   UNL     1       2.534  -2.314   0.571  1.00  0.00     0.139 A 
ATOM     19  C   UNL     1       2.760  -3.546  -0.052  1.00  0.00     0.048 A 
ATOM     20  C   UNL     1       3.615  -1.597   1.098  1.00  0.00     0.083 A 
ATOM     21  C   UNL     1       4.064  -4.024  -0.204  1.00  0.00     0.004 A 
ATOM     22  C   UNL     1       4.917  -2.074   0.939  1.00  0.00     0.024 A 
ATOM     23  Cl  UNL     1       3.392  -0.112   1.948  1.00  0.00    -0.080 Cl
ATOM     24  C   UNL     1       5.142  -3.284   0.282  1.00  0.00     0.002 A 
ENDBRANCH  17  18
ENDBRANCH  15  17
ENDBRANCH  13  15
ENDBRANCH   8  13
ENDBRANCH   4   7
ENDBRANCH   2   3
ENDBRANCH   1   2
BRANCH   1  25
ATOM     25  C   UNL     1      -5.526   2.676   0.255  1.00  0.00     0.002 C 
BRANCH  25  26
ATOM     26  C   UNL     1      -5.213   4.178   0.317  1.00  0.00     0.002 C 
BRANCH  26  27
ATOM     27  C   UNL     1      -4.147   4.674  -0.664  1.00  0.00     0.021 C 
BRANCH  27  28
ATOM     28  C   UNL     1      -4.473   4.430  -2.135  1.00  0.00     0.116 C 
BRANCH  28  29
ATOM     29  N   UNL     1      -5.699   5.104  -2.537  1.00  0.00    -0.352 N 
ATOM     30  C   UNL     1      -5.889   6.097  -3.462  1.00  0.00     0.251 C 
ATOM     31  H   UNL     1      -6.514   4.801  -2.075  1.00  0.00     0.163 HD
ATOM     32  O   UNL     1      -6.952   6.718  -3.494  1.00  0.00    -0.269 OA
BRANCH  30  33
ATOM     33  C   UNL     1      -4.820   6.429  -4.423  1.00  0.00     0.039 A 
ATOM     34  C   UNL     1      -4.533   7.771  -4.686  1.00  0.00     0.014 A 
ATOM     35  C   UNL     1      -4.122   5.416  -5.087  1.00  0.00     0.014 A 
ATOM     36  C   UNL     1      -3.506   8.098  -5.573  1.00  0.00     0.010 A 
ATOM     37  C   UNL     1      -3.055   5.742  -5.918  1.00  0.00     0.010 A 
ATOM     38  C   UNL     1      -2.739   7.085  -6.172  1.00  0.00    -0.014 A 
BRANCH  38  39
ATOM     39  C   UNL     1      -1.602   7.406  -7.069  1.00  0.00     0.031 A 
ATOM     40  C   UNL     1      -1.654   7.018  -8.520  1.00  0.00     0.074 A 
ATOM     41  C   UNL     1      -0.495   7.978  -6.558  1.00  0.00     0.049 A 
ATOM     42  N   UNL     1      -0.731   7.131  -9.441  1.00  0.00    -0.248 NA
ATOM     43  C   UNL     1      -2.900   6.393  -8.992  1.00  0.00     0.031 C 
ATOM     44  C   UNL     1      -0.311   8.355  -5.156  1.00  0.00     0.029 A 
ATOM     45  N   UNL     1       0.690   8.325  -7.155  1.00  0.00    -0.354 N 
ATOM     46  C   UNL     1      -1.276   6.578 -10.592  1.00  0.00     0.074 A 
ATOM     47  C   UNL     1      -2.591   6.085 -10.243  1.00  0.00     0.031 C 
ATOM     48  C   UNL     1       0.909   8.895  -5.003  1.00  0.00     0.029 A 
ATOM     49  C   UNL     1       1.605   8.867  -6.285  1.00  0.00     0.049 A 
ATOM     50  H   UNL     1       0.868   8.199  -8.115  1.00  0.00     0.167 HD
ATOM     51  C   UNL     1      -0.736   6.508 -11.832  1.00  0.00     0.037 A 
ATOM     52  C   UNL     1       2.868   9.283  -6.499  1.00  0.00     0.037 A 
ATOM     53  C   UNL     1       0.562   7.023 -12.178  1.00  0.00     0.049 A 
ATOM     54  C   UNL     1       3.444   9.193  -7.886  1.00  0.00     0.074 A 
ATOM     55  C   UNL     1       1.173   7.063 -13.418  1.00  0.00     0.029 A 
ATOM     56  N   UNL     1       1.452   7.588 -11.275  1.00  0.00    -0.354 N 
ATOM     57  N   UNL     1       2.892   8.735  -8.983  1.00  0.00    -0.248 NA
ATOM     58  C   UNL     1       4.817   9.685  -8.065  1.00  0.00     0.031 C 
ATOM     59  C   UNL     1       2.452   7.608 -13.259  1.00  0.00     0.029 A 
ATOM     60  C   UNL     1       2.618   7.956 -11.928  1.00  0.00     0.049 A 
ATOM     61  H   UNL     1       1.281   7.708 -10.313  1.00  0.00     0.167 HD
ATOM     62  C   UNL     1       3.836   8.905  -9.985  1.00  0.00     0.074 A 
ATOM     63  C   UNL     1       4.991   9.525  -9.369  1.00  0.00     0.031 C 
ATOM     64  C   UNL     1       3.756   8.576 -11.298  1.00  0.00     0.037 A 
BRANCH  51  65
ATOM     65  C   UNL     1      -1.550   5.851 -12.909  1.00  0.00     0.064 A 
ATOM     66  C   UNL     1      -2.710   6.449 -13.425  1.00  0.00     0.173 A 
ATOM     67  C   UNL     1      -1.145   4.626 -13.461  1.00  0.00     0.173 A 
ATOM     68  F   UNL     1      -3.147   7.615 -12.925  1.00  0.00    -0.203 F 
ATOM     69  C   UNL     1      -3.449   5.833 -14.431  1.00  0.00     0.198 A 
ATOM     70  C   UNL     1      -1.870   4.027 -14.488  1.00  0.00     0.198 A 
ATOM     71  F   UNL     1      -0.041   4.013 -13.010  1.00  0.00    -0.203 F 
ATOM     72  F   UNL     1      -4.580   6.401 -14.873  1.00  0.00    -0.200 F 
ATOM     73  C   UNL     1      -3.025   4.627 -14.967  1.00  0.00     0.200 A 
ATOM     74  F   UNL     1      -1.451   2.868 -15.015  1.00  0.00    -0.200 F 
ATOM     75  F   UNL     1      -3.733   4.039 -15.941  1.00  0.00    -0.200 F 
ENDBRANCH  51  65
BRANCH  52  76
ATOM     76  C   UNL     1       3.665   9.841  -5.375  1.00  0.00     0.064 A 
ATOM     77  C   UNL     1       3.993  11.203  -5.332  1.00  0.00     0.173 A 
ATOM     78  C   UNL     1       4.116   9.027  -4.325  1.00  0.00     0.173 A 
ATOM     79  F   UNL     1       3.600  12.017  -6.324  1.00  0.00    -0.203 F 
ATOM     80  C   UNL     1       4.759  11.727  -4.293  1.00  0.00     0.198 A 
ATOM     81  C   UNL     1       4.858   9.558  -3.272  1.00  0.00     0.198 A 
ATOM     82  F   UNL     1       3.825   7.718  -4.316  1.00  0.00    -0.203 F 
ATOM     83  F   UNL     1       5.096  13.023  -4.301  1.00  0.00    -0.200 F 
ATOM     84  C   UNL     1       5.186  10.905  -3.261  1.00  0.00     0.200 A 
ATOM     85  F   UNL     1       5.256   8.764  -2.269  1.00  0.00    -0.200 F 
ATOM     86  F   UNL     1       5.920  11.410  -2.260  1.00  0.00    -0.200 F 
ENDBRANCH  52  76
BRANCH  64  87
ATOM     87  C   UNL     1       4.937   8.907 -12.162  1.00  0.00     0.064 A 
ATOM     88  C   UNL     1       6.140   8.193 -12.069  1.00  0.00     0.173 A 
ATOM     89  C   UNL     1       4.850   9.927 -13.122  1.00  0.00     0.173 A 
ATOM     90  F   UNL     1       6.278   7.219 -11.155  1.00  0.00    -0.203 F 
ATOM     91  C   UNL     1       7.222   8.504 -12.888  1.00  0.00     0.198 A 
ATOM     92  C   UNL     1       5.923  10.215 -13.961  1.00  0.00     0.198 A 
ATOM     93  F   UNL     1       3.720  10.636 -13.256  1.00  0.00    -0.203 F 
ATOM     94  F   UNL     1       8.378   7.840 -12.749  1.00  0.00    -0.200 F 
ATOM     95  C   UNL     1       7.110   9.508 -13.838  1.00  0.00     0.200 A 
ATOM     96  F   UNL     1       5.809  11.176 -14.887  1.00  0.00    -0.200 F 
ATOM     97  F   UNL     1       8.150   9.800 -14.631  1.00  0.00    -0.200 F 
ENDBRANCH  64  87
ENDBRANCH  38  39
ENDBRANCH  30  33
ENDBRANCH  28  29
ENDBRANCH  27  28
ENDBRANCH  26  27
ENDBRANCH  25  26
ENDBRANCH   1  25
TORSDOF 17
