REMARK SMILES Cc1ccsc1[C@@H]1[NH2+][C@@H](C(=O)NCCCCCCNC(=O)c2ccc(-c3c4nc(c(-c5c(F)c(F)c(F)c(F)c5F)c5ccc([nH]5)c(-c5c(F)c(F)c(F)c(F)c5F)c5nc(c(-c6c(F)c(F)c(F)c(F)c6F)c6ccc3[nH]6)C=C5)C=C4)cc2)CS1
REMARK SMILES IDX 16 1 15 2 14 3 13 4 12 5 10 6 11 7 9 9 7 10 8 11 86 12 85 15
REMARK SMILES IDX 6 16 1 17 2 18 3 19 4 20 5 21 17 22 18 23 19 24 20 25 21 27
REMARK SMILES IDX 22 28 23 29 84 30 24 31 83 32 25 33 26 34 27 35 77 36 28 37
REMARK SMILES IDX 82 38 76 39 78 40 29 41 81 42 75 43 74 44 30 46 62 47 42 48
REMARK SMILES IDX 61 49 43 50 46 51 60 52 79 53 44 54 45 55 59 57 80 58 47 59
REMARK SMILES IDX 31 60 32 61 40 62 33 63 34 64 38 65 41 66 35 67 36 68 39 69
REMARK SMILES IDX 37 70 63 71 64 72 72 73 65 74 66 75 70 76 73 77 67 78 68 79
REMARK SMILES IDX 71 80 69 81 48 82 49 83 57 84 50 85 51 86 55 87 58 88 52 89
REMARK SMILES IDX 53 90 56 91 54 92
REMARK H PARENT 12 8 8 13 8 14 19 26 78 45 46 56
REMARK Flexibility Score: inf
ROOT
ATOM      1  C   UNL     1       3.563  -0.213   6.278  1.00  0.00     0.002 C 
ENDROOT
BRANCH   1   2
ATOM      2  C   UNL     1       2.171  -0.453   5.685  1.00  0.00     0.002 C 
BRANCH   2   3
ATOM      3  C   UNL     1       2.047  -0.231   4.166  1.00  0.00     0.021 C 
BRANCH   3   4
ATOM      4  C   UNL     1       2.970  -1.106   3.310  1.00  0.00     0.116 C 
BRANCH   4   5
ATOM      5  N   UNL     1       2.700  -2.501   3.575  1.00  0.00    -0.351 N 
ATOM      6  C   UNL     1       2.331  -3.534   2.779  1.00  0.00     0.279 C 
ATOM      7  O   UNL     1       2.088  -4.588   3.374  1.00  0.00    -0.268 OA
ATOM      8  H   UNL     1       2.804  -2.750   4.522  1.00  0.00     0.163 HD
BRANCH   6   9
ATOM      9  C   UNL     1       2.322  -3.417   1.234  1.00  0.00     0.283 C 
ATOM     10  C   UNL     1       0.167  -3.175   0.105  1.00  0.00     0.284 C 
ATOM     11  N   UNL     1       1.308  -2.449   0.701  1.00  0.00    -0.320 N 
ATOM     12  S   UNL     1       0.285  -4.909   0.598  1.00  0.00    -0.087 SA
ATOM     13  H   UNL     1       0.972  -1.861   1.463  1.00  0.00     0.348 HD
ATOM     14  H   UNL     1       1.746  -1.873  -0.019  1.00  0.00     0.348 HD
ATOM     15  C   UNL     1       2.086  -4.810   0.647  1.00  0.00     0.151 C 
BRANCH  10  16
ATOM     16  C   UNL     1       0.040  -2.982  -1.412  1.00  0.00     0.075 A 
ATOM     17  C   UNL     1      -1.268  -0.756  -1.542  1.00  0.00     0.046 C 
ATOM     18  C   UNL     1      -0.647  -1.988  -2.114  1.00  0.00    -0.030 A 
ATOM     19  C   UNL     1      -0.768  -2.310  -3.512  1.00  0.00     0.015 A 
ATOM     20  C   UNL     1      -0.099  -3.457  -3.856  1.00  0.00     0.065 A 
ATOM     21  S   UNL     1       0.743  -4.103  -2.534  1.00  0.00    -0.141 S 
ENDBRANCH  10  16
ENDBRANCH   6   9
ENDBRANCH   4   5
ENDBRANCH   3   4
ENDBRANCH   2   3
ENDBRANCH   1   2
BRANCH   1  22
ATOM     22  C   UNL     1       4.140   1.179   6.021  1.00  0.00     0.021 C 
BRANCH  22  23
ATOM     23  C   UNL     1       3.275   2.329   6.524  1.00  0.00     0.116 C 
BRANCH  23  24
ATOM     24  N   UNL     1       3.162   2.350   7.974  1.00  0.00    -0.352 N 
ATOM     25  C   UNL     1       3.384   3.389   8.843  1.00  0.00     0.251 C 
ATOM     26  H   UNL     1       2.888   1.501   8.390  1.00  0.00     0.163 HD
ATOM     27  O   UNL     1       3.407   3.192  10.056  1.00  0.00    -0.269 OA
BRANCH  25  28
ATOM     28  C   UNL     1       3.625   4.749   8.315  1.00  0.00     0.039 A 
ATOM     29  C   UNL     1       4.679   5.502   8.839  1.00  0.00     0.014 A 
ATOM     30  C   UNL     1       2.824   5.274   7.298  1.00  0.00     0.014 A 
ATOM     31  C   UNL     1       4.971   6.755   8.296  1.00  0.00     0.010 A 
ATOM     32  C   UNL     1       3.164   6.487   6.706  1.00  0.00     0.010 A 
ATOM     33  C   UNL     1       4.240   7.241   7.199  1.00  0.00    -0.014 A 
BRANCH  33  34
ATOM     34  C   UNL     1       4.588   8.532   6.551  1.00  0.00     0.031 A 
ATOM     35  C   UNL     1       3.603   9.667   6.550  1.00  0.00     0.074 A 
ATOM     36  C   UNL     1       5.764   8.659   5.904  1.00  0.00     0.049 A 
ATOM     37  N   UNL     1       3.689  10.839   5.972  1.00  0.00    -0.248 NA
ATOM     38  C   UNL     1       2.341   9.447   7.273  1.00  0.00     0.031 C 
ATOM     39  C   UNL     1       6.786   7.617   5.795  1.00  0.00     0.029 A 
ATOM     40  N   UNL     1       6.292   9.715   5.203  1.00  0.00    -0.354 N 
ATOM     41  C   UNL     1       2.492  11.486   6.250  1.00  0.00     0.074 A 
ATOM     42  C   UNL     1       1.673  10.558   6.999  1.00  0.00     0.031 C 
ATOM     43  C   UNL     1       7.825   8.091   5.090  1.00  0.00     0.029 A 
ATOM     44  C   UNL     1       7.526   9.453   4.658  1.00  0.00     0.049 A 
ATOM     45  H   UNL     1       5.831  10.579   5.102  1.00  0.00     0.167 HD
ATOM     46  C   UNL     1       2.119  12.748   5.929  1.00  0.00     0.037 A 
ATOM     47  C   UNL     1       8.320  10.219   3.885  1.00  0.00     0.037 A 
ATOM     48  C   UNL     1       2.945  13.675   5.200  1.00  0.00     0.049 A 
ATOM     49  C   UNL     1       7.872  11.610   3.525  1.00  0.00     0.074 A 
ATOM     50  C   UNL     1       2.682  14.994   4.876  1.00  0.00     0.029 A 
ATOM     51  N   UNL     1       4.194  13.376   4.674  1.00  0.00    -0.354 N 
ATOM     52  N   UNL     1       6.768  12.236   3.853  1.00  0.00    -0.248 NA
ATOM     53  C   UNL     1       8.785  12.405   2.691  1.00  0.00     0.031 C 
ATOM     54  C   UNL     1       3.742  15.476   4.103  1.00  0.00     0.029 A 
ATOM     55  C   UNL     1       4.699  14.479   4.002  1.00  0.00     0.049 A 
ATOM     56  H   UNL     1       4.653  12.510   4.764  1.00  0.00     0.167 HD
ATOM     57  C   UNL     1       6.867  13.504   3.295  1.00  0.00     0.074 A 
ATOM     58  C   UNL     1       8.146  13.564   2.619  1.00  0.00     0.031 C 
ATOM     59  C   UNL     1       5.979  14.527   3.341  1.00  0.00     0.037 A 
BRANCH  46  60
ATOM     60  C   UNL     1       0.753  13.203   6.361  1.00  0.00     0.064 A 
ATOM     61  C   UNL     1       0.437  13.410   7.713  1.00  0.00     0.173 A 
ATOM     62  C   UNL     1      -0.239  13.477   5.407  1.00  0.00     0.173 A 
ATOM     63  F   UNL     1       1.345  13.153   8.666  1.00  0.00    -0.203 F 
ATOM     64  C   UNL     1      -0.831  13.843   8.095  1.00  0.00     0.198 A 
ATOM     65  C   UNL     1      -1.494  13.944   5.791  1.00  0.00     0.198 A 
ATOM     66  F   UNL     1       0.011  13.304   4.101  1.00  0.00    -0.203 F 
ATOM     67  F   UNL     1      -1.126  13.981   9.395  1.00  0.00    -0.200 F 
ATOM     68  C   UNL     1      -1.792  14.117   7.134  1.00  0.00     0.200 A 
ATOM     69  F   UNL     1      -2.416  14.224   4.859  1.00  0.00    -0.200 F 
ATOM     70  F   UNL     1      -3.007  14.544   7.502  1.00  0.00    -0.200 F 
ENDBRANCH  46  60
BRANCH  47  71
ATOM     71  C   UNL     1       9.627   9.692   3.410  1.00  0.00     0.064 A 
ATOM     72  C   UNL     1      10.835  10.234   3.871  1.00  0.00     0.173 A 
ATOM     73  C   UNL     1       9.698   8.646   2.477  1.00  0.00     0.173 A 
ATOM     74  F   UNL     1      10.821  11.249   4.748  1.00  0.00    -0.203 F 
ATOM     75  C   UNL     1      12.061   9.768   3.401  1.00  0.00     0.198 A 
ATOM     76  C   UNL     1      10.925   8.159   2.032  1.00  0.00     0.198 A 
ATOM     77  F   UNL     1       8.572   8.088   2.007  1.00  0.00    -0.203 F 
ATOM     78  F   UNL     1      13.198  10.341   3.820  1.00  0.00    -0.200 F 
ATOM     79  C   UNL     1      12.105   8.727   2.486  1.00  0.00     0.200 A 
ATOM     80  F   UNL     1      10.963   7.141   1.162  1.00  0.00    -0.200 F 
ATOM     81  F   UNL     1      13.284   8.276   2.037  1.00  0.00    -0.200 F 
ENDBRANCH  47  71
BRANCH  59  82
ATOM     82  C   UNL     1       6.373  15.817   2.678  1.00  0.00     0.064 A 
ATOM     83  C   UNL     1       6.452  15.939   1.283  1.00  0.00     0.173 A 
ATOM     84  C   UNL     1       6.630  16.960   3.452  1.00  0.00     0.173 A 
ATOM     85  F   UNL     1       6.231  14.874   0.498  1.00  0.00    -0.203 F 
ATOM     86  C   UNL     1       6.800  17.150   0.689  1.00  0.00     0.198 A 
ATOM     87  C   UNL     1       6.942  18.177   2.854  1.00  0.00     0.198 A 
ATOM     88  F   UNL     1       6.560  16.900   4.791  1.00  0.00    -0.203 F 
ATOM     89  F   UNL     1       6.919  17.230  -0.643  1.00  0.00    -0.200 F 
ATOM     90  C   UNL     1       7.035  18.270   1.474  1.00  0.00     0.200 A 
ATOM     91  F   UNL     1       7.151  19.261   3.614  1.00  0.00    -0.200 F 
ATOM     92  F   UNL     1       7.357  19.437   0.900  1.00  0.00    -0.200 F 
ENDBRANCH  59  82
ENDBRANCH  33  34
ENDBRANCH  25  28
ENDBRANCH  23  24
ENDBRANCH  22  23
ENDBRANCH   1  22
TORSDOF 14
