REMARK SMILES C/C=C/c1cncc(-c2ccc([C@@H](C)C(=O)NCCCCCCNC(=O)c3ccc(-c4c5nc(c(-c6c(F)c(F)c(F)c(F)c6F)c6ccc([nH]6)c(-c6c(F)c(F)c(F)c(F)c6F)c6nc(c(-c7c(F)c(F)c(F)c(F)c7F)c7ccc4[nH]7)C=C6)C=C5)cc3)cc2)c1
REMARK SMILES IDX 20 1 19 2 18 3 17 4 15 5 16 6 13 8 14 9 12 10 9 11 10 12
REMARK SMILES IDX 91 13 11 14 90 15 8 16 4 17 5 18 92 19 6 20 7 21 3 22 1 23
REMARK SMILES IDX 2 24 21 25 22 26 23 27 24 28 25 29 26 31 27 32 28 33 89 34
REMARK SMILES IDX 29 35 88 36 30 37 31 38 32 39 82 40 33 41 87 42 81 43 83 44
REMARK SMILES IDX 34 45 86 46 80 47 79 48 35 50 67 51 47 52 66 53 48 54 51 55
REMARK SMILES IDX 65 56 84 57 49 58 50 59 64 61 85 62 52 63 36 64 37 65 45 66
REMARK SMILES IDX 38 67 39 68 43 69 46 70 40 71 41 72 44 73 42 74 68 75 69 76
REMARK SMILES IDX 77 77 70 78 71 79 75 80 78 81 72 82 73 83 76 84 74 85 53 86
REMARK SMILES IDX 54 87 62 88 55 89 56 90 60 91 63 92 57 93 58 94 61 95 59 96
REMARK H PARENT 17 7 24 30 83 49 51 60
REMARK Flexibility Score: inf
ROOT
ATOM      1  C   UNL     1       1.546  -3.246  -9.146  1.00  0.00     0.002 C 
ENDROOT
BRANCH   1   2
ATOM      2  C   UNL     1       1.343  -4.461  -8.234  1.00  0.00     0.021 C 
BRANCH   2   3
ATOM      3  C   UNL     1       2.059  -5.724  -8.715  1.00  0.00     0.116 C 
BRANCH   3   4
ATOM      4  N   UNL     1       3.416  -5.796  -8.219  1.00  0.00    -0.356 N 
ATOM      5  C   UNL     1       3.967  -6.515  -7.202  1.00  0.00     0.227 C 
ATOM      6  O   UNL     1       5.157  -6.289  -6.949  1.00  0.00    -0.274 OA
ATOM      7  H   UNL     1       4.055  -5.223  -8.701  1.00  0.00     0.163 HD
BRANCH   5   8
ATOM      8  C   UNL     1       3.199  -7.572  -6.393  1.00  0.00     0.105 C 
ATOM      9  C   UNL     1       2.674  -8.734  -7.236  1.00  0.00     0.023 C 
BRANCH   8  10
ATOM     10  C   UNL     1       2.228  -6.971  -5.388  1.00  0.00    -0.036 A 
ATOM     11  C   UNL     1       0.532  -5.659  -3.500  1.00  0.00    -0.017 A 
ATOM     12  C   UNL     1       0.052  -6.085  -4.748  1.00  0.00     0.009 A 
ATOM     13  C   UNL     1       1.870  -5.951  -3.197  1.00  0.00     0.009 A 
ATOM     14  C   UNL     1       0.876  -6.750  -5.664  1.00  0.00     0.005 A 
ATOM     15  C   UNL     1       2.707  -6.579  -4.128  1.00  0.00     0.005 A 
BRANCH  11  16
ATOM     16  C   UNL     1      -0.330  -4.905  -2.570  1.00  0.00     0.001 A 
ATOM     17  C   UNL     1      -0.693  -3.070  -0.999  1.00  0.00    -0.007 A 
ATOM     18  C   UNL     1      -2.020  -3.477  -0.918  1.00  0.00     0.119 A 
ATOM     19  C   UNL     1       0.153  -3.812  -1.833  1.00  0.00     0.020 A 
ATOM     20  N   UNL     1      -2.538  -4.525  -1.597  1.00  0.00    -0.263 NA
ATOM     21  C   UNL     1      -1.683  -5.207  -2.397  1.00  0.00     0.119 A 
BRANCH  17  22
ATOM     22  C   UNL     1      -0.218  -1.936  -0.201  1.00  0.00     0.005 C 
ATOM     23  C   UNL     1       1.076   0.180   0.127  1.00  0.00     0.035 C 
ATOM     24  C   UNL     1       0.600  -0.985  -0.679  1.00  0.00    -0.030 C 
ENDBRANCH  17  22
ENDBRANCH  11  16
ENDBRANCH   8  10
ENDBRANCH   5   8
ENDBRANCH   3   4
ENDBRANCH   2   3
ENDBRANCH   1   2
BRANCH   1  25
ATOM     25  C   UNL     1       0.977  -3.389 -10.564  1.00  0.00     0.002 C 
BRANCH  25  26
ATOM     26  C   UNL     1      -0.505  -3.768 -10.647  1.00  0.00     0.021 C 
BRANCH  26  27
ATOM     27  C   UNL     1      -1.458  -2.781  -9.979  1.00  0.00     0.116 C 
BRANCH  27  28
ATOM     28  N   UNL     1      -1.429  -1.476 -10.622  1.00  0.00    -0.352 N 
ATOM     29  C   UNL     1      -2.442  -0.768 -11.218  1.00  0.00     0.251 C 
ATOM     30  H   UNL     1      -0.549  -1.035 -10.631  1.00  0.00     0.163 HD
ATOM     31  O   UNL     1      -2.184   0.220 -11.898  1.00  0.00    -0.269 OA
BRANCH  29  32
ATOM     32  C   UNL     1      -3.848  -1.195 -11.051  1.00  0.00     0.039 A 
ATOM     33  C   UNL     1      -4.695  -1.179 -12.163  1.00  0.00     0.014 A 
ATOM     34  C   UNL     1      -4.341  -1.571  -9.799  1.00  0.00     0.014 A 
ATOM     35  C   UNL     1      -6.023  -1.590 -12.030  1.00  0.00     0.010 A 
ATOM     36  C   UNL     1      -5.646  -2.042  -9.680  1.00  0.00     0.010 A 
ATOM     37  C   UNL     1      -6.501  -2.049 -10.792  1.00  0.00    -0.014 A 
BRANCH  37  38
ATOM     38  C   UNL     1      -7.896  -2.532 -10.637  1.00  0.00     0.031 A 
ATOM     39  C   UNL     1      -8.863  -1.779  -9.768  1.00  0.00     0.074 A 
ATOM     40  C   UNL     1      -8.272  -3.683 -11.225  1.00  0.00     0.049 A 
ATOM     41  N   UNL     1     -10.102  -2.071  -9.459  1.00  0.00    -0.248 NA
ATOM     42  C   UNL     1      -8.362  -0.547  -9.140  1.00  0.00     0.031 C 
ATOM     43  C   UNL     1      -7.414  -4.523 -12.061  1.00  0.00     0.029 A 
ATOM     44  N   UNL     1      -9.471  -4.348 -11.203  1.00  0.00    -0.354 N 
ATOM     45  C   UNL     1     -10.518  -1.075  -8.586  1.00  0.00     0.074 A 
ATOM     46  C   UNL     1      -9.387  -0.196  -8.378  1.00  0.00     0.031 C 
ATOM     47  C   UNL     1      -8.123  -5.576 -12.497  1.00  0.00     0.029 A 
ATOM     48  C   UNL     1      -9.472  -5.505 -11.943  1.00  0.00     0.049 A 
ATOM     49  H   UNL     1     -10.257  -4.027 -10.705  1.00  0.00     0.167 HD
ATOM     50  C   UNL     1     -11.739  -0.897  -8.026  1.00  0.00     0.037 A 
ATOM     51  C   UNL     1     -10.451  -6.405 -12.150  1.00  0.00     0.037 A 
ATOM     52  C   UNL     1     -12.869  -1.756  -8.260  1.00  0.00     0.049 A 
ATOM     53  C   UNL     1     -11.794  -6.192 -11.508  1.00  0.00     0.074 A 
ATOM     54  C   UNL     1     -14.169  -1.618  -7.806  1.00  0.00     0.029 A 
ATOM     55  N   UNL     1     -12.831  -2.921  -9.013  1.00  0.00    -0.354 N 
ATOM     56  N   UNL     1     -12.200  -5.207 -10.745  1.00  0.00    -0.248 NA
ATOM     57  C   UNL     1     -12.815  -7.218 -11.758  1.00  0.00     0.031 C 
ATOM     58  C   UNL     1     -14.906  -2.724  -8.245  1.00  0.00     0.029 A 
ATOM     59  C   UNL     1     -14.077  -3.528  -9.012  1.00  0.00     0.049 A 
ATOM     60  H   UNL     1     -12.035  -3.267  -9.479  1.00  0.00     0.167 HD
ATOM     61  C   UNL     1     -13.529  -5.476 -10.449  1.00  0.00     0.074 A 
ATOM     62  C   UNL     1     -13.863  -6.715 -11.121  1.00  0.00     0.031 C 
ATOM     63  C   UNL     1     -14.395  -4.759  -9.691  1.00  0.00     0.037 A 
BRANCH  50  64
ATOM     64  C   UNL     1     -11.906   0.270  -7.096  1.00  0.00     0.064 A 
ATOM     65  C   UNL     1     -11.890   1.594  -7.561  1.00  0.00     0.173 A 
ATOM     66  C   UNL     1     -12.094   0.061  -5.721  1.00  0.00     0.173 A 
ATOM     67  F   UNL     1     -11.703   1.849  -8.865  1.00  0.00    -0.203 F 
ATOM     68  C   UNL     1     -12.012   2.666  -6.680  1.00  0.00     0.198 A 
ATOM     69  C   UNL     1     -12.247   1.135  -4.847  1.00  0.00     0.198 A 
ATOM     70  F   UNL     1     -12.126  -1.184  -5.223  1.00  0.00    -0.203 F 
ATOM     71  F   UNL     1     -11.931   3.921  -7.141  1.00  0.00    -0.200 F 
ATOM     72  C   UNL     1     -12.195   2.435  -5.325  1.00  0.00     0.200 A 
ATOM     73  F   UNL     1     -12.437   0.911  -3.539  1.00  0.00    -0.200 F 
ATOM     74  F   UNL     1     -12.310   3.468  -4.478  1.00  0.00    -0.200 F 
ENDBRANCH  50  64
BRANCH  51  75
ATOM     75  C   UNL     1     -10.210  -7.564 -13.046  1.00  0.00     0.064 A 
ATOM     76  C   UNL     1     -10.813  -7.623 -14.310  1.00  0.00     0.173 A 
ATOM     77  C   UNL     1      -9.366  -8.620 -12.672  1.00  0.00     0.173 A 
ATOM     78  F   UNL     1     -11.643  -6.646 -14.701  1.00  0.00    -0.203 F 
ATOM     79  C   UNL     1     -10.589  -8.701 -15.164  1.00  0.00     0.198 A 
ATOM     80  C   UNL     1      -9.125  -9.685 -13.537  1.00  0.00     0.198 A 
ATOM     81  F   UNL     1      -8.763  -8.607 -11.475  1.00  0.00    -0.203 F 
ATOM     82  F   UNL     1     -11.203  -8.748 -16.354  1.00  0.00    -0.200 F 
ATOM     83  C   UNL     1      -9.740  -9.728 -14.779  1.00  0.00     0.200 A 
ATOM     84  F   UNL     1      -8.293 -10.669 -13.168  1.00  0.00    -0.200 F 
ATOM     85  F   UNL     1      -9.518 -10.759 -15.605  1.00  0.00    -0.200 F 
ENDBRANCH  51  75
BRANCH  63  86
ATOM     86  C   UNL     1     -15.798  -5.279  -9.576  1.00  0.00     0.064 A 
ATOM     87  C   UNL     1     -16.103  -6.410  -8.806  1.00  0.00     0.173 A 
ATOM     88  C   UNL     1     -16.855  -4.613 -10.216  1.00  0.00     0.173 A 
ATOM     89  F   UNL     1     -15.125  -7.091  -8.190  1.00  0.00    -0.203 F 
ATOM     90  C   UNL     1     -17.413  -6.870  -8.700  1.00  0.00     0.198 A 
ATOM     91  C   UNL     1     -18.167  -5.059 -10.085  1.00  0.00     0.198 A 
ATOM     92  F   UNL     1     -16.616  -3.523 -10.961  1.00  0.00    -0.203 F 
ATOM     93  F   UNL     1     -17.676  -7.980  -7.996  1.00  0.00    -0.200 F 
ATOM     94  C   UNL     1     -18.444  -6.191  -9.332  1.00  0.00     0.200 A 
ATOM     95  F   UNL     1     -19.163  -4.396 -10.687  1.00  0.00    -0.200 F 
ATOM     96  F   UNL     1     -19.705  -6.632  -9.224  1.00  0.00    -0.200 F 
ENDBRANCH  63  86
ENDBRANCH  37  38
ENDBRANCH  29  32
ENDBRANCH  27  28
ENDBRANCH  26  27
ENDBRANCH  25  26
ENDBRANCH   1  25
TORSDOF 16
