REMARK SMILES CC(C)N(CCCC(=O)NCCCCCCNC(=O)c1ccc(-c2c3nc(c(-c4c(F)c(F)c(F)c(F)c4F)c4ccc([nH]4)c(-c4c(F)c(F)c(F)c(F)c4F)c4nc(c(-c5c(F)c(F)c(F)c(F)c5F)c5ccc2[nH]5)C=C4)C=C3)cc1)C(=O)N[C@@H]1CCCC1(C)C
REMARK SMILES IDX 12 1 11 2 10 3 8 4 9 5 7 7 6 8 5 9 4 10 2 11 1 12 3 13 83 14
REMARK SMILES IDX 84 15 85 16 86 18 87 19 90 20 88 21 89 22 91 23 92 24 13 25
REMARK SMILES IDX 14 26 15 27 16 28 17 29 18 30 19 32 20 33 21 34 82 35 22 36
REMARK SMILES IDX 81 37 23 38 24 39 25 40 75 41 26 42 80 43 74 44 76 45 27 46
REMARK SMILES IDX 79 47 73 48 72 49 28 51 60 52 40 53 59 54 41 55 44 56 58 57
REMARK SMILES IDX 77 58 42 59 43 60 57 62 78 63 45 64 29 65 30 66 38 67 31 68
REMARK SMILES IDX 32 69 36 70 39 71 33 72 34 73 37 74 35 75 61 76 62 77 70 78
REMARK SMILES IDX 63 79 64 80 68 81 71 82 65 83 66 84 69 85 67 86 46 87 47 88
REMARK SMILES IDX 55 89 48 90 49 91 53 92 56 93 50 94 51 95 54 96 52 97
REMARK H PARENT 10 6 85 17 17 31 76 50 44 61
REMARK Flexibility Score: inf
ROOT
ATOM      1  C   UNL     1      -6.885  -0.002  -0.526  1.00  0.00     0.021 C 
ENDROOT
BRANCH   1   2
ATOM      2  C   UNL     1      -5.791  -1.123  -0.374  1.00  0.00     0.116 C 
BRANCH   2   3
ATOM      3  N   UNL     1      -4.454  -0.894  -1.076  1.00  0.00    -0.356 N 
ATOM      4  C   UNL     1      -3.130  -0.567  -0.869  1.00  0.00     0.220 C 
ATOM      5  O   UNL     1      -2.410  -0.825  -1.852  1.00  0.00    -0.275 OA
ATOM      6  H   UNL     1      -4.587  -1.033  -2.042  1.00  0.00     0.163 HD
BRANCH   4   7
ATOM      7  C   UNL     1      -2.414   0.097   0.353  1.00  0.00     0.102 C 
BRANCH   7   8
ATOM      8  C   UNL     1      -1.920   1.595   0.243  1.00  0.00     0.031 C 
BRANCH   8   9
ATOM      9  C   UNL     1      -2.514   2.742   1.156  1.00  0.00     0.122 C 
BRANCH   9  10
ATOM     10  N   UNL     1      -3.927   2.694   1.513  1.00  0.00    -0.322 N 
BRANCH  10  11
ATOM     11  C   UNL     1      -4.442   3.230   2.814  1.00  0.00     0.080 C 
ATOM     12  C   UNL     1      -5.851   2.728   3.225  1.00  0.00     0.031 C 
ATOM     13  C   UNL     1      -3.523   3.011   4.023  1.00  0.00     0.031 C 
ENDBRANCH  10  11
BRANCH  10  14
ATOM     14  C   UNL     1      -4.662   1.791   0.834  1.00  0.00     0.317 C 
ATOM     15  O   UNL     1      -5.118   0.832   1.445  1.00  0.00    -0.249 OA
ATOM     16  N   UNL     1      -4.697   1.853  -0.523  1.00  0.00    -0.335 N 
ATOM     17  H   UNL     1      -4.985   0.998  -0.919  1.00  0.00     0.165 HD
BRANCH  16  18
ATOM     18  C   UNL     1      -4.421   2.842  -1.536  1.00  0.00     0.089 C 
ATOM     19  C   UNL     1      -5.233   4.115  -1.362  1.00  0.00     0.025 C 
ATOM     20  C   UNL     1      -4.708   2.418  -3.027  1.00  0.00    -0.015 C 
ATOM     21  C   UNL     1      -5.181   4.781  -2.738  1.00  0.00     0.003 C 
ATOM     22  C   UNL     1      -4.492   3.790  -3.681  1.00  0.00     0.008 C 
ATOM     23  C   UNL     1      -3.733   1.386  -3.608  1.00  0.00     0.013 C 
ATOM     24  C   UNL     1      -6.135   1.936  -3.377  1.00  0.00     0.013 C 
ENDBRANCH  16  18
ENDBRANCH  10  14
ENDBRANCH   9  10
ENDBRANCH   8   9
ENDBRANCH   7   8
ENDBRANCH   4   7
ENDBRANCH   2   3
ENDBRANCH   1   2
BRANCH   1  25
ATOM     25  C   UNL     1      -8.288  -0.273  -1.065  1.00  0.00     0.002 C 
BRANCH  25  26
ATOM     26  C   UNL     1      -9.309  -0.732  -0.029  1.00  0.00     0.002 C 
BRANCH  26  27
ATOM     27  C   UNL     1      -9.592   0.235   1.137  1.00  0.00     0.021 C 
BRANCH  27  28
ATOM     28  C   UNL     1     -10.143   1.614   0.761  1.00  0.00     0.116 C 
BRANCH  28  29
ATOM     29  N   UNL     1     -11.416   1.525   0.055  1.00  0.00    -0.352 N 
ATOM     30  C   UNL     1     -12.690   1.639   0.533  1.00  0.00     0.251 C 
ATOM     31  H   UNL     1     -11.346   1.359  -0.913  1.00  0.00     0.163 HD
ATOM     32  O   UNL     1     -13.647   1.242  -0.156  1.00  0.00    -0.269 OA
BRANCH  30  33
ATOM     33  C   UNL     1     -12.960   2.230   1.856  1.00  0.00     0.039 A 
ATOM     34  C   UNL     1     -13.876   1.612   2.714  1.00  0.00     0.014 A 
ATOM     35  C   UNL     1     -12.357   3.434   2.230  1.00  0.00     0.014 A 
ATOM     36  C   UNL     1     -14.142   2.170   3.968  1.00  0.00     0.010 A 
ATOM     37  C   UNL     1     -12.572   3.953   3.505  1.00  0.00     0.010 A 
ATOM     38  C   UNL     1     -13.471   3.331   4.385  1.00  0.00    -0.014 A 
BRANCH  38  39
ATOM     39  C   UNL     1     -13.698   3.912   5.734  1.00  0.00     0.031 A 
ATOM     40  C   UNL     1     -14.305   5.280   5.879  1.00  0.00     0.074 A 
ATOM     41  C   UNL     1     -13.290   3.238   6.826  1.00  0.00     0.049 A 
ATOM     42  N   UNL     1     -14.511   5.988   6.962  1.00  0.00    -0.248 NA
ATOM     43  C   UNL     1     -14.705   5.957   4.636  1.00  0.00     0.031 C 
ATOM     44  C   UNL     1     -12.637   1.929   6.813  1.00  0.00     0.029 A 
ATOM     45  N   UNL     1     -13.347   3.569   8.158  1.00  0.00    -0.354 N 
ATOM     46  C   UNL     1     -15.051   7.192   6.530  1.00  0.00     0.074 A 
ATOM     47  C   UNL     1     -15.083   7.145   5.084  1.00  0.00     0.031 C 
ATOM     48  C   UNL     1     -12.363   1.562   8.075  1.00  0.00     0.029 A 
ATOM     49  C   UNL     1     -12.787   2.624   8.983  1.00  0.00     0.049 A 
ATOM     50  H   UNL     1     -13.750   4.403   8.489  1.00  0.00     0.167 HD
ATOM     51  C   UNL     1     -15.502   8.233   7.272  1.00  0.00     0.037 A 
ATOM     52  C   UNL     1     -12.623   2.619  10.319  1.00  0.00     0.037 A 
ATOM     53  C   UNL     1     -15.479   8.268   8.711  1.00  0.00     0.049 A 
ATOM     54  C   UNL     1     -13.131   3.785  11.124  1.00  0.00     0.074 A 
ATOM     55  C   UNL     1     -15.963   9.248   9.560  1.00  0.00     0.029 A 
ATOM     56  N   UNL     1     -14.934   7.277   9.515  1.00  0.00    -0.354 N 
ATOM     57  N   UNL     1     -13.709   4.886  10.711  1.00  0.00    -0.248 NA
ATOM     58  C   UNL     1     -12.974   3.701  12.583  1.00  0.00     0.031 C 
ATOM     59  C   UNL     1     -15.665   8.874  10.875  1.00  0.00     0.029 A 
ATOM     60  C   UNL     1     -15.047   7.633  10.850  1.00  0.00     0.049 A 
ATOM     61  H   UNL     1     -14.526   6.443   9.186  1.00  0.00     0.167 HD
ATOM     62  C   UNL     1     -14.006   5.616  11.854  1.00  0.00     0.074 A 
ATOM     63  C   UNL     1     -13.560   4.822  12.981  1.00  0.00     0.031 C 
ATOM     64  C   UNL     1     -14.595   6.832  11.961  1.00  0.00     0.037 A 
BRANCH  51  65
ATOM     65  C   UNL     1     -16.055   9.420   6.533  1.00  0.00     0.064 A 
ATOM     66  C   UNL     1     -17.250   9.341   5.800  1.00  0.00     0.173 A 
ATOM     67  C   UNL     1     -15.392  10.656   6.568  1.00  0.00     0.173 A 
ATOM     68  F   UNL     1     -17.922   8.182   5.726  1.00  0.00    -0.203 F 
ATOM     69  C   UNL     1     -17.735  10.440   5.095  1.00  0.00     0.198 A 
ATOM     70  C   UNL     1     -15.899  11.763   5.890  1.00  0.00     0.198 A 
ATOM     71  F   UNL     1     -14.251  10.794   7.259  1.00  0.00    -0.203 F 
ATOM     72  F   UNL     1     -18.843  10.320   4.350  1.00  0.00    -0.200 F 
ATOM     73  C   UNL     1     -17.062  11.651   5.145  1.00  0.00     0.200 A 
ATOM     74  F   UNL     1     -15.255  12.937   5.952  1.00  0.00    -0.200 F 
ATOM     75  F   UNL     1     -17.530  12.708   4.466  1.00  0.00    -0.200 F 
ENDBRANCH  51  65
BRANCH  52  76
ATOM     76  C   UNL     1     -11.963   1.461  10.976  1.00  0.00     0.064 A 
ATOM     77  C   UNL     1     -12.691   0.574  11.780  1.00  0.00     0.173 A 
ATOM     78  C   UNL     1     -10.594   1.207  10.799  1.00  0.00     0.173 A 
ATOM     79  F   UNL     1     -13.998   0.785  11.996  1.00  0.00    -0.203 F 
ATOM     80  C   UNL     1     -12.073  -0.513  12.396  1.00  0.00     0.198 A 
ATOM     81  C   UNL     1      -9.984   0.103  11.391  1.00  0.00     0.198 A 
ATOM     82  F   UNL     1      -9.853   2.022  10.034  1.00  0.00    -0.203 F 
ATOM     83  F   UNL     1     -12.785  -1.322  13.193  1.00  0.00    -0.200 F 
ATOM     84  C   UNL     1     -10.722  -0.752  12.195  1.00  0.00     0.200 A 
ATOM     85  F   UNL     1      -8.682  -0.133  11.181  1.00  0.00    -0.200 F 
ATOM     86  F   UNL     1     -10.131  -1.803  12.779  1.00  0.00    -0.200 F 
ENDBRANCH  52  76
BRANCH  64  87
ATOM     87  C   UNL     1     -14.816   7.370  13.346  1.00  0.00     0.064 A 
ATOM     88  C   UNL     1     -13.751   7.813  14.144  1.00  0.00     0.173 A 
ATOM     89  C   UNL     1     -16.116   7.480  13.865  1.00  0.00     0.173 A 
ATOM     90  F   UNL     1     -12.489   7.716  13.700  1.00  0.00    -0.203 F 
ATOM     91  C   UNL     1     -13.977   8.322  15.420  1.00  0.00     0.198 A 
ATOM     92  C   UNL     1     -16.340   8.019  15.128  1.00  0.00     0.198 A 
ATOM     93  F   UNL     1     -17.170   7.077  13.140  1.00  0.00    -0.203 F 
ATOM     94  F   UNL     1     -12.940   8.693  16.184  1.00  0.00    -0.200 F 
ATOM     95  C   UNL     1     -15.271   8.432  15.908  1.00  0.00     0.200 A 
ATOM     96  F   UNL     1     -17.592   8.139  15.591  1.00  0.00    -0.200 F 
ATOM     97  F   UNL     1     -15.486   8.930  17.133  1.00  0.00    -0.200 F 
ENDBRANCH  64  87
ENDBRANCH  38  39
ENDBRANCH  30  33
ENDBRANCH  28  29
ENDBRANCH  27  28
ENDBRANCH  26  27
ENDBRANCH  25  26
ENDBRANCH   1  25
TORSDOF 19
