REMARK SMILES C[C@@H](C(=O)NCCCCCCNC(=O)c1ccc(-c2c3nc(c(-c4c(F)c(F)c(F)c(F)c4F)c4ccc([nH]4)c(-c4c(F)c(F)c(F)c(F)c4F)c4nc(c(-c5c(F)c(F)c(F)c(F)c5F)c5ccc2[nH]5)C=C4)C=C3)cc1)c1ccc(C[C@H]2CCC[C@H]2O)cc1-c1ccc(O)cc1
REMARK SMILES IDX 7 1 6 2 5 3 3 4 4 5 2 7 1 8 78 9 79 10 90 11 80 12 89 13
REMARK SMILES IDX 81 14 91 15 92 16 97 17 93 18 96 19 94 20 95 21 82 23 83 24
REMARK SMILES IDX 84 25 87 26 85 27 86 28 88 29 8 31 9 32 10 33 11 34 12 35
REMARK SMILES IDX 13 36 14 38 15 39 16 40 77 41 17 42 76 43 18 44 19 45 20 46
REMARK SMILES IDX 70 47 21 48 75 49 69 50 71 51 22 52 74 53 68 54 67 55 23 57
REMARK SMILES IDX 55 58 35 59 54 60 36 61 39 62 53 63 72 64 37 65 38 66 52 68
REMARK SMILES IDX 73 69 40 70 24 71 25 72 33 73 26 74 27 75 31 76 34 77 28 78
REMARK SMILES IDX 29 79 32 80 30 81 56 82 57 83 65 84 58 85 59 86 63 87 66 88
REMARK SMILES IDX 60 89 61 90 64 91 62 92 41 93 42 94 50 95 43 96 44 97 48 98
REMARK SMILES IDX 51 99 45 100 46 101 49 102 47 103
REMARK H PARENT 5 6 95 22 88 30 12 37 71 56 39 67
REMARK Flexibility Score: inf
ROOT
ATOM      1  C   UNL     1       4.345  -1.433   0.304  1.00  0.00     0.021 C 
ENDROOT
BRANCH   1   2
ATOM      2  C   UNL     1       3.622  -1.315  -1.034  1.00  0.00     0.116 C 
BRANCH   2   3
ATOM      3  N   UNL     1       2.556  -2.281  -1.187  1.00  0.00    -0.356 N 
ATOM      4  C   UNL     1       1.386  -2.002  -1.840  1.00  0.00     0.227 C 
ATOM      5  O   UNL     1       1.125  -2.683  -2.833  1.00  0.00    -0.274 OA
ATOM      6  H   UNL     1       2.677  -3.180  -0.803  1.00  0.00     0.163 HD
BRANCH   4   7
ATOM      7  C   UNL     1       0.516  -0.827  -1.384  1.00  0.00     0.106 C 
ATOM      8  C   UNL     1       0.760  -0.278   0.033  1.00  0.00     0.023 C 
BRANCH   7   9
ATOM      9  C   UNL     1      -1.004  -1.049  -1.485  1.00  0.00    -0.028 A 
ATOM     10  C   UNL     1      -1.751   0.104  -1.812  1.00  0.00     0.005 A 
ATOM     11  C   UNL     1      -1.704  -2.232  -1.135  1.00  0.00    -0.014 A 
ATOM     12  C   UNL     1      -3.136   0.131  -1.704  1.00  0.00     0.004 A 
ATOM     13  C   UNL     1      -3.107  -2.155  -0.977  1.00  0.00     0.012 A 
ATOM     14  C   UNL     1      -3.823  -0.970  -1.205  1.00  0.00    -0.047 A 
BRANCH  11  15
ATOM     15  C   UNL     1      -1.087  -3.569  -1.034  1.00  0.00    -0.018 A 
ATOM     16  C   UNL     1      -1.281  -4.480  -2.093  1.00  0.00     0.012 A 
ATOM     17  C   UNL     1      -0.283  -3.971   0.042  1.00  0.00     0.012 A 
ATOM     18  C   UNL     1      -0.642  -5.721  -2.111  1.00  0.00     0.047 A 
ATOM     19  C   UNL     1       0.370  -5.213   0.021  1.00  0.00     0.047 A 
ATOM     20  C   UNL     1       0.198  -6.067  -1.065  1.00  0.00     0.115 A 
BRANCH  20  21
ATOM     21  O   UNL     1       0.854  -7.259  -1.151  1.00  0.00    -0.508 OA
ATOM     22  H   UNL     1       0.720  -7.816  -1.893  1.00  0.00     0.293 HD
ENDBRANCH  20  21
ENDBRANCH  11  15
BRANCH  14  23
ATOM     23  C   UNL     1      -5.298  -0.873  -0.907  1.00  0.00     0.041 C 
BRANCH  23  24
ATOM     24  C   UNL     1      -5.704  -0.307   0.468  1.00  0.00     0.022 C 
ATOM     25  C   UNL     1      -5.138  -1.047   1.691  1.00  0.00     0.007 C 
ATOM     26  C   UNL     1      -5.450   1.180   0.764  1.00  0.00     0.117 C 
ATOM     27  C   UNL     1      -5.039  -0.004   2.809  1.00  0.00     0.003 C 
ATOM     28  C   UNL     1      -5.696   1.261   2.267  1.00  0.00     0.032 C 
BRANCH  26  29
ATOM     29  O   UNL     1      -4.129   1.629   0.512  1.00  0.00    -0.393 OA
ATOM     30  H   UNL     1      -3.505   1.118   1.050  1.00  0.00     0.210 HD
ENDBRANCH  26  29
ENDBRANCH  23  24
ENDBRANCH  14  23
ENDBRANCH   7   9
ENDBRANCH   4   7
ENDBRANCH   2   3
ENDBRANCH   1   2
BRANCH   1  31
ATOM     31  C   UNL     1       5.019  -2.787   0.556  1.00  0.00     0.002 C 
BRANCH  31  32
ATOM     32  C   UNL     1       5.936  -3.289  -0.563  1.00  0.00     0.002 C 
BRANCH  32  33
ATOM     33  C   UNL     1       6.998  -2.296  -1.037  1.00  0.00     0.021 C 
BRANCH  33  34
ATOM     34  C   UNL     1       7.928  -1.790   0.055  1.00  0.00     0.116 C 
BRANCH  34  35
ATOM     35  N   UNL     1       8.759  -2.846   0.605  1.00  0.00    -0.352 N 
ATOM     36  C   UNL     1      10.123  -2.873   0.762  1.00  0.00     0.251 C 
ATOM     37  H   UNL     1       8.280  -3.652   0.905  1.00  0.00     0.163 HD
ATOM     38  O   UNL     1      10.695  -3.910   1.072  1.00  0.00    -0.269 OA
BRANCH  36  39
ATOM     39  C   UNL     1      10.903  -1.638   0.531  1.00  0.00     0.039 A 
ATOM     40  C   UNL     1      12.064  -1.705  -0.242  1.00  0.00     0.014 A 
ATOM     41  C   UNL     1      10.481  -0.418   1.068  1.00  0.00     0.014 A 
ATOM     42  C   UNL     1      12.776  -0.536  -0.520  1.00  0.00     0.010 A 
ATOM     43  C   UNL     1      11.145   0.754   0.724  1.00  0.00     0.010 A 
ATOM     44  C   UNL     1      12.305   0.706  -0.064  1.00  0.00    -0.014 A 
BRANCH  44  45
ATOM     45  C   UNL     1      13.023   1.967  -0.379  1.00  0.00     0.031 A 
ATOM     46  C   UNL     1      13.617   2.788   0.731  1.00  0.00     0.074 A 
ATOM     47  C   UNL     1      13.082   2.405  -1.651  1.00  0.00     0.049 A 
ATOM     48  N   UNL     1      14.206   3.956   0.677  1.00  0.00    -0.248 NA
ATOM     49  C   UNL     1      13.507   2.235   2.091  1.00  0.00     0.031 C 
ATOM     50  C   UNL     1      12.509   1.720  -2.810  1.00  0.00     0.029 A 
ATOM     51  N   UNL     1      13.643   3.541  -2.181  1.00  0.00    -0.354 N 
ATOM     52  C   UNL     1      14.520   4.281   1.990  1.00  0.00     0.074 A 
ATOM     53  C   UNL     1      14.003   3.219   2.825  1.00  0.00     0.031 C 
ATOM     54  C   UNL     1      12.764   2.437  -3.915  1.00  0.00     0.029 A 
ATOM     55  C   UNL     1      13.481   3.652  -3.540  1.00  0.00     0.049 A 
ATOM     56  H   UNL     1      14.116   4.212  -1.638  1.00  0.00     0.167 HD
ATOM     57  C   UNL     1      15.199   5.357   2.455  1.00  0.00     0.037 A 
ATOM     58  C   UNL     1      13.859   4.630  -4.386  1.00  0.00     0.037 A 
ATOM     59  C   UNL     1      15.730   6.400   1.616  1.00  0.00     0.049 A 
ATOM     60  C   UNL     1      14.598   5.824  -3.843  1.00  0.00     0.074 A 
ATOM     61  C   UNL     1      16.481   7.503   1.982  1.00  0.00     0.029 A 
ATOM     62  N   UNL     1      15.559   6.470   0.241  1.00  0.00    -0.354 N 
ATOM     63  N   UNL     1      14.947   6.090  -2.607  1.00  0.00    -0.248 NA
ATOM     64  C   UNL     1      15.002   6.850  -4.814  1.00  0.00     0.031 C 
ATOM     65  C   UNL     1      16.717   8.270   0.836  1.00  0.00     0.029 A 
ATOM     66  C   UNL     1      16.168   7.613  -0.254  1.00  0.00     0.049 A 
ATOM     67  H   UNL     1      15.076   5.807  -0.303  1.00  0.00     0.167 HD
ATOM     68  C   UNL     1      15.639   7.294  -2.656  1.00  0.00     0.074 A 
ATOM     69  C   UNL     1      15.670   7.699  -4.046  1.00  0.00     0.031 C 
ATOM     70  C   UNL     1      16.199   7.998  -1.642  1.00  0.00     0.037 A 
BRANCH  57  71
ATOM     71  C   UNL     1      15.403   5.460   3.940  1.00  0.00     0.064 A 
ATOM     72  C   UNL     1      16.233   4.568   4.636  1.00  0.00     0.173 A 
ATOM     73  C   UNL     1      14.778   6.480   4.674  1.00  0.00     0.173 A 
ATOM     74  F   UNL     1      16.846   3.567   3.985  1.00  0.00    -0.203 F 
ATOM     75  C   UNL     1      16.400   4.670   6.015  1.00  0.00     0.198 A 
ATOM     76  C   UNL     1      14.976   6.600   6.048  1.00  0.00     0.198 A 
ATOM     77  F   UNL     1      13.978   7.364   4.060  1.00  0.00    -0.203 F 
ATOM     78  F   UNL     1      17.150   3.769   6.665  1.00  0.00    -0.200 F 
ATOM     79  C   UNL     1      15.778   5.689   6.718  1.00  0.00     0.200 A 
ATOM     80  F   UNL     1      14.386   7.596   6.723  1.00  0.00    -0.200 F 
ATOM     81  F   UNL     1      15.944   5.789   8.044  1.00  0.00    -0.200 F 
ENDBRANCH  57  71
BRANCH  58  82
ATOM     82  C   UNL     1      13.563   4.510  -5.838  1.00  0.00     0.064 A 
ATOM     83  C   UNL     1      14.594   4.320  -6.769  1.00  0.00     0.173 A 
ATOM     84  C   UNL     1      12.250   4.585  -6.325  1.00  0.00     0.173 A 
ATOM     85  F   UNL     1      15.868   4.262  -6.354  1.00  0.00    -0.203 F 
ATOM     86  C   UNL     1      14.325   4.230  -8.133  1.00  0.00     0.198 A 
ATOM     87  C   UNL     1      11.979   4.464  -7.687  1.00  0.00     0.198 A 
ATOM     88  F   UNL     1      11.227   4.761  -5.476  1.00  0.00    -0.203 F 
ATOM     89  F   UNL     1      15.333   4.096  -9.005  1.00  0.00    -0.200 F 
ATOM     90  C   UNL     1      13.017   4.296  -8.590  1.00  0.00     0.200 A 
ATOM     91  F   UNL     1      10.713   4.512  -8.122  1.00  0.00    -0.200 F 
ATOM     92  F   UNL     1      12.758   4.204  -9.902  1.00  0.00    -0.200 F 
ENDBRANCH  58  82
BRANCH  70  93
ATOM     93  C   UNL     1      16.934   9.258  -1.999  1.00  0.00     0.064 A 
ATOM     94  C   UNL     1      16.262  10.411  -2.430  1.00  0.00     0.173 A 
ATOM     95  C   UNL     1      18.330   9.325  -1.862  1.00  0.00     0.173 A 
ATOM     96  F   UNL     1      14.930  10.396  -2.591  1.00  0.00    -0.203 F 
ATOM     97  C   UNL     1      16.962  11.576  -2.736  1.00  0.00     0.198 A 
ATOM     98  C   UNL     1      19.022  10.501  -2.136  1.00  0.00     0.198 A 
ATOM     99  F   UNL     1      19.021   8.253  -1.446  1.00  0.00    -0.203 F 
ATOM    100  F   UNL     1      16.303  12.650  -3.194  1.00  0.00    -0.200 F 
ATOM    101  C   UNL     1      18.339  11.622  -2.580  1.00  0.00     0.200 A 
ATOM    102  F   UNL     1      20.351  10.549  -1.969  1.00  0.00    -0.200 F 
ATOM    103  F   UNL     1      19.009  12.747  -2.865  1.00  0.00    -0.200 F 
ENDBRANCH  70  93
ENDBRANCH  44  45
ENDBRANCH  36  39
ENDBRANCH  34  35
ENDBRANCH  33  34
ENDBRANCH  32  33
ENDBRANCH  31  32
ENDBRANCH   1  31
TORSDOF 19
