REMARK SMILES N#CCCn1cc(C(=O)NCCCCCCNC(=O)c2ccc(-c3c4nc(c(-c5c(F)c(F)c(F)c(F)c5F)c5ccc([nH]5)c(-c5c(F)c(F)c(F)c(F)c5F)c5nc(c(-c6c(F)c(F)c(F)c(F)c6F)c6ccc3[nH]6)C=C5)C=C4)cc2)c(-c2cccc([N+](=O)[O-])c2)n1
REMARK SMILES IDX 13 1 12 2 11 3 10 4 8 5 9 6 7 8 5 9 6 10 93 11 83 12 4 13
REMARK SMILES IDX 3 14 2 15 1 16 84 17 85 18 92 19 86 20 88 21 87 22 89 23
REMARK SMILES IDX 90 24 91 25 14 26 15 27 16 28 17 29 18 30 19 32 20 33 21 34
REMARK SMILES IDX 82 35 22 36 81 37 23 38 24 39 25 40 75 41 26 42 80 43 74 44
REMARK SMILES IDX 76 45 27 46 79 47 73 48 72 49 28 51 60 52 40 53 59 54 41 55
REMARK SMILES IDX 44 56 58 57 77 58 42 59 43 60 57 62 78 63 45 64 29 65 30 66
REMARK SMILES IDX 38 67 31 68 32 69 36 70 39 71 33 72 34 73 37 74 35 75 61 76
REMARK SMILES IDX 62 77 70 78 63 79 64 80 68 81 71 82 65 83 66 84 69 85 67 86
REMARK SMILES IDX 46 87 47 88 55 89 48 90 49 91 53 92 56 93 50 94 51 95 54 96
REMARK SMILES IDX 52 97
REMARK H PARENT 10 7 17 31 76 50 44 61
REMARK Flexibility Score: inf
ROOT
ATOM      1  C   UNL     1      -0.321  -0.867  -7.109  1.00  0.00     0.002 C 
ENDROOT
BRANCH   1   2
ATOM      2  C   UNL     1       0.331  -0.889  -5.744  1.00  0.00     0.021 C 
BRANCH   2   3
ATOM      3  C   UNL     1       1.757  -0.452  -5.939  1.00  0.00     0.116 C 
BRANCH   3   4
ATOM      4  N   UNL     1       1.870   0.933  -6.263  1.00  0.00    -0.352 N 
ATOM      5  C   UNL     1       2.400   1.938  -5.503  1.00  0.00     0.255 C 
ATOM      6  O   UNL     1       2.379   3.062  -6.004  1.00  0.00    -0.269 OA
ATOM      7  H   UNL     1       1.522   1.199  -7.145  1.00  0.00     0.163 HD
BRANCH   5   8
ATOM      8  C   UNL     1       2.971   1.656  -4.175  1.00  0.00     0.085 A 
ATOM      9  N   UNL     1       3.820   0.744  -2.339  1.00  0.00    -0.270 N 
ATOM     10  C   UNL     1       3.135   0.479  -3.470  1.00  0.00     0.123 A 
ATOM     11  N   UNL     1       4.087   2.035  -2.179  1.00  0.00    -0.172 NA
ATOM     12  C   UNL     1       3.559   2.610  -3.278  1.00  0.00     0.105 A 
BRANCH   9  13
ATOM     13  C   UNL     1       4.217  -0.277  -1.392  1.00  0.00     0.159 C 
BRANCH  13  14
ATOM     14  C   UNL     1       3.685   0.017  -0.022  1.00  0.00     0.144 C 
BRANCH  14  15
ATOM     15  C   UNL     1       2.165   0.017  -0.022  1.00  0.00     0.064 C 
ATOM     16  N   UNL     1       0.904   0.017  -0.022  1.00  0.00    -0.198 NA
ENDBRANCH  14  15
ENDBRANCH  13  14
ENDBRANCH   9  13
BRANCH  12  17
ATOM     17  C   UNL     1       3.724   4.032  -3.511  1.00  0.00     0.010 A 
ATOM     18  C   UNL     1       2.625   4.856  -3.781  1.00  0.00     0.011 A 
ATOM     19  C   UNL     1       5.020   4.538  -3.595  1.00  0.00     0.096 A 
ATOM     20  C   UNL     1       2.829   6.157  -4.239  1.00  0.00     0.008 A 
ATOM     21  C   UNL     1       5.210   5.867  -3.970  1.00  0.00     0.270 A 
ATOM     22  C   UNL     1       4.118   6.688  -4.277  1.00  0.00     0.085 A 
BRANCH  21  23
ATOM     23  N   UNL     1       6.575   6.377  -4.107  1.00  0.00     0.062 N 
ATOM     24  O   UNL     1       6.717   7.558  -4.455  1.00  0.00    -0.258 OA
ATOM     25  O   UNL     1       7.510   5.596  -3.877  1.00  0.00    -0.258 OA
ENDBRANCH  21  23
ENDBRANCH  12  17
ENDBRANCH   5   8
ENDBRANCH   3   4
ENDBRANCH   2   3
ENDBRANCH   1   2
BRANCH   1  26
ATOM     26  C   UNL     1       0.465  -1.756  -8.087  1.00  0.00     0.002 C 
BRANCH  26  27
ATOM     27  C   UNL     1       0.535  -3.173  -7.587  1.00  0.00     0.021 C 
BRANCH  27  28
ATOM     28  C   UNL     1      -0.854  -3.652  -7.433  1.00  0.00     0.116 C 
BRANCH  28  29
ATOM     29  N   UNL     1      -1.555  -3.746  -8.697  1.00  0.00    -0.352 N 
ATOM     30  C   UNL     1      -2.076  -4.912  -9.203  1.00  0.00     0.251 C 
ATOM     31  H   UNL     1      -1.665  -2.924  -9.226  1.00  0.00     0.163 HD
ATOM     32  O   UNL     1      -2.549  -4.941 -10.333  1.00  0.00    -0.269 OA
BRANCH  30  33
ATOM     33  C   UNL     1      -2.179  -6.048  -8.191  1.00  0.00     0.039 A 
ATOM     34  C   UNL     1      -2.908  -7.128  -8.451  1.00  0.00     0.014 A 
ATOM     35  C   UNL     1      -2.376  -5.708  -6.811  1.00  0.00     0.014 A 
ATOM     36  C   UNL     1      -4.083  -7.345  -7.286  1.00  0.00     0.010 A 
ATOM     37  C   UNL     1      -3.107  -6.210  -5.683  1.00  0.00     0.010 A 
ATOM     38  C   UNL     1      -4.458  -6.324  -5.916  1.00  0.00    -0.014 A 
BRANCH  38  39
ATOM     39  C   UNL     1      -5.462  -5.706  -4.314  1.00  0.00     0.031 A 
ATOM     40  C   UNL     1      -4.365  -7.314  -3.749  1.00  0.00     0.074 A 
ATOM     41  C   UNL     1      -6.512  -4.221  -3.957  1.00  0.00     0.049 A 
ATOM     42  N   UNL     1      -4.614  -8.618  -4.102  1.00  0.00    -0.248 NA
ATOM     43  C   UNL     1      -2.588  -7.978  -3.539  1.00  0.00     0.031 C 
ATOM     44  C   UNL     1      -7.623  -2.663  -3.548  1.00  0.00     0.029 A 
ATOM     45  N   UNL     1      -7.640  -4.079  -2.553  1.00  0.00    -0.354 N 
ATOM     46  C   UNL     1      -3.969  -9.424  -3.054  1.00  0.00     0.074 A 
ATOM     47  C   UNL     1      -2.609  -9.194  -2.926  1.00  0.00     0.031 C 
ATOM     48  C   UNL     1      -8.060  -1.800  -2.391  1.00  0.00     0.029 A 
ATOM     49  C   UNL     1      -8.010  -2.803  -1.494  1.00  0.00     0.049 A 
ATOM     50  H   UNL     1      -8.139  -4.906  -2.364  1.00  0.00     0.167 HD
ATOM     51  C   UNL     1      -4.607  -9.515  -1.879  1.00  0.00     0.037 A 
ATOM     52  C   UNL     1      -8.237  -2.615  -0.116  1.00  0.00     0.037 A 
ATOM     53  C   UNL     1      -5.934  -9.151  -2.155  1.00  0.00     0.049 A 
ATOM     54  C   UNL     1      -7.946  -4.013   0.020  1.00  0.00     0.074 A 
ATOM     55  C   UNL     1      -6.749  -9.639  -3.153  1.00  0.00     0.029 A 
ATOM     56  N   UNL     1      -6.252  -7.850  -1.952  1.00  0.00    -0.354 N 
ATOM     57  N   UNL     1      -8.747  -4.938  -0.462  1.00  0.00    -0.248 NA
ATOM     58  C   UNL     1      -6.519  -4.271   0.101  1.00  0.00     0.031 C 
ATOM     59  C   UNL     1      -7.676  -8.648  -3.439  1.00  0.00     0.029 A 
ATOM     60  C   UNL     1      -7.394  -7.574  -2.629  1.00  0.00     0.049 A 
ATOM     61  H   UNL     1      -5.740  -7.211  -1.405  1.00  0.00     0.167 HD
ATOM     62  C   UNL     1      -7.881  -5.821  -1.092  1.00  0.00     0.074 A 
ATOM     63  C   UNL     1      -6.519  -5.410  -0.583  1.00  0.00     0.031 C 
ATOM     64  C   UNL     1      -8.177  -6.456  -2.299  1.00  0.00     0.037 A 
BRANCH  51  65
ATOM     65  C   UNL     1      -4.033  -9.603  -0.526  1.00  0.00     0.064 A 
ATOM     66  C   UNL     1      -4.820 -10.385   0.303  1.00  0.00     0.173 A 
ATOM     67  C   UNL     1      -2.956  -8.885   0.041  1.00  0.00     0.173 A 
ATOM     68  F   UNL     1      -5.751 -11.186  -0.238  1.00  0.00    -0.203 F 
ATOM     69  C   UNL     1      -4.661 -10.338   1.666  1.00  0.00     0.198 A 
ATOM     70  C   UNL     1      -2.728  -8.932   1.408  1.00  0.00     0.198 A 
ATOM     71  F   UNL     1      -2.120  -8.132  -0.691  1.00  0.00    -0.203 F 
ATOM     72  F   UNL     1      -5.592 -10.894   2.446  1.00  0.00    -0.200 F 
ATOM     73  C   UNL     1      -3.586  -9.659   2.216  1.00  0.00     0.200 A 
ATOM     74  F   UNL     1      -1.725  -8.224   1.948  1.00  0.00    -0.200 F 
ATOM     75  F   UNL     1      -3.369  -9.728   3.534  1.00  0.00    -0.200 F 
ENDBRANCH  51  65
BRANCH  52  76
ATOM     76  C   UNL     1      -7.715  -1.423   0.798  1.00  0.00     0.064 A 
ATOM     77  C   UNL     1      -8.306  -0.845   1.963  1.00  0.00     0.173 A 
ATOM     78  C   UNL     1      -6.428  -0.898   0.527  1.00  0.00     0.173 A 
ATOM     79  F   UNL     1      -9.489  -1.286   2.417  1.00  0.00    -0.203 F 
ATOM     80  C   UNL     1      -7.670   0.180   2.735  1.00  0.00     0.198 A 
ATOM     81  C   UNL     1      -5.761   0.048   1.336  1.00  0.00     0.198 A 
ATOM     82  F   UNL     1      -5.755  -1.363  -0.532  1.00  0.00    -0.203 F 
ATOM     83  F   UNL     1      -8.323   0.804   3.732  1.00  0.00    -0.200 F 
ATOM     84  C   UNL     1      -6.370   0.567   2.459  1.00  0.00     0.200 A 
ATOM     85  F   UNL     1      -4.521   0.443   1.012  1.00  0.00    -0.200 F 
ATOM     86  F   UNL     1      -5.705   1.401   3.275  1.00  0.00    -0.200 F 
ENDBRANCH  52  76
BRANCH  64  87
ATOM     87  C   UNL     1      -9.482  -6.267  -3.121  1.00  0.00     0.064 A 
ATOM     88  C   UNL     1      -9.817  -5.324  -4.144  1.00  0.00     0.173 A 
ATOM     89  C   UNL     1     -10.483  -7.174  -2.825  1.00  0.00     0.173 A 
ATOM     90  F   UNL     1      -8.925  -4.542  -4.757  1.00  0.00    -0.203 F 
ATOM     91  C   UNL     1     -11.123  -5.102  -4.556  1.00  0.00     0.198 A 
ATOM     92  C   UNL     1     -11.748  -7.076  -3.393  1.00  0.00     0.198 A 
ATOM     93  F   UNL     1     -10.209  -8.212  -2.025  1.00  0.00    -0.203 F 
ATOM     94  F   UNL     1     -11.448  -3.973  -5.208  1.00  0.00    -0.200 F 
ATOM     95  C   UNL     1     -12.077  -6.029  -4.238  1.00  0.00     0.200 A 
ATOM     96  F   UNL     1     -12.671  -7.985  -3.071  1.00  0.00    -0.200 F 
ATOM     97  F   UNL     1     -13.292  -5.945  -4.790  1.00  0.00    -0.200 F 
ENDBRANCH  64  87
ENDBRANCH  38  39
ENDBRANCH  30  33
ENDBRANCH  28  29
ENDBRANCH  27  28
ENDBRANCH  26  27
ENDBRANCH   1  26
TORSDOF 18
