REMARK SMILES COc1ccc([C@H]2[NH2+][C@@H](C(=O)NCCCCCCNC(=O)c3ccc(-c4c5nc(c(-c6c(F)c(F)c(F)c(F)c6F)c6ccc([nH]6)c(-c6c(F)c(F)c(F)c(F)c6F)c6nc(c(-c7c(F)c(F)c(F)c(F)c7F)c7ccc4[nH]7)C=C6)C=C5)cc3)CC3=c4ccccc4=N[C@@H]32)cc1Cn1cc([N+](=O)[O-])cn1
REMARK SMILES IDX 14 1 13 2 12 3 10 4 11 5 9 7 7 8 8 9 94 10 86 13 93 14 85 15
REMARK SMILES IDX 87 16 92 17 88 18 91 19 89 20 90 21 6 22 3 23 4 24 96 25
REMARK SMILES IDX 5 26 95 27 2 28 1 29 97 30 98 31 99 32 105 33 100 34 104 35
REMARK SMILES IDX 101 36 102 37 103 38 15 39 16 40 17 41 18 42 19 43 20 44
REMARK SMILES IDX 21 46 22 47 23 48 84 49 24 50 83 51 25 52 26 53 27 54 77 55
REMARK SMILES IDX 28 56 82 57 76 58 78 59 29 60 81 61 75 62 74 63 30 65 62 66
REMARK SMILES IDX 42 67 61 68 43 69 46 70 60 71 79 72 44 73 45 74 59 76 80 77
REMARK SMILES IDX 47 78 31 79 32 80 40 81 33 82 34 83 38 84 41 85 35 86 36 87
REMARK SMILES IDX 39 88 37 89 63 90 64 91 72 92 65 93 66 94 70 95 73 96 67 97
REMARK SMILES IDX 68 98 71 99 69 100 48 101 49 102 57 103 50 104 51 105 55 106
REMARK SMILES IDX 58 107 52 108 53 109 56 110 54 111
REMARK H PARENT 12 6 8 11 8 12 19 45 78 64 46 75
REMARK Flexibility Score: inf
ROOT
ATOM      1  C   UNL     1       2.314   8.433   0.929  1.00  0.00     0.021 C 
ENDROOT
BRANCH   1   2
ATOM      2  C   UNL     1       2.180   9.449  -0.202  1.00  0.00     0.116 C 
BRANCH   2   3
ATOM      3  N   UNL     1       3.150   9.265  -1.260  1.00  0.00    -0.351 N 
ATOM      4  C   UNL     1       2.953   8.890  -2.560  1.00  0.00     0.278 C 
ATOM      5  O   UNL     1       3.862   9.118  -3.363  1.00  0.00    -0.268 OA
ATOM      6  H   UNL     1       4.087   9.432  -1.007  1.00  0.00     0.163 HD
BRANCH   4   7
ATOM      7  C   UNL     1       1.622   8.223  -2.974  1.00  0.00     0.277 C 
ATOM      8  C   UNL     1       2.229   5.789  -2.776  1.00  0.00     0.243 C 
ATOM      9  N   UNL     1       1.385   6.915  -2.298  1.00  0.00    -0.327 N 
ATOM     10  C   UNL     1       2.240   5.700  -4.326  1.00  0.00     0.196 C 
ATOM     11  H   UNL     1       1.561   7.040  -1.301  1.00  0.00     0.347 HD
ATOM     12  H   UNL     1       0.422   6.657  -2.515  1.00  0.00     0.347 HD
ATOM     13  C   UNL     1       1.969   6.910  -5.142  1.00  0.00    -0.024 C 
ATOM     14  N   UNL     1       2.023   4.524  -5.222  1.00  0.00    -0.270 NA
ATOM     15  C   UNL     1       1.478   8.163  -4.511  1.00  0.00     0.109 C 
ATOM     16  C   UNL     1       2.455   6.618  -6.341  1.00  0.00     0.002 A 
ATOM     17  C   UNL     1       2.461   5.118  -6.320  1.00  0.00     0.066 A 
ATOM     18  C   UNL     1       2.956   7.379  -7.429  1.00  0.00     0.010 A 
ATOM     19  C   UNL     1       3.061   4.474  -7.508  1.00  0.00     0.028 A 
ATOM     20  C   UNL     1       3.599   6.716  -8.403  1.00  0.00     0.001 A 
ATOM     21  C   UNL     1       3.652   5.260  -8.429  1.00  0.00     0.002 A 
BRANCH   8  22
ATOM     22  C   UNL     1       3.680   5.936  -2.187  1.00  0.00     0.012 A 
ATOM     23  C   UNL     1       6.316   6.320  -1.195  1.00  0.00     0.123 A 
ATOM     24  C   UNL     1       5.273   5.908  -0.352  1.00  0.00     0.047 A 
ATOM     25  C   UNL     1       6.096   6.418  -2.557  1.00  0.00     0.016 A 
ATOM     26  C   UNL     1       3.973   5.678  -0.847  1.00  0.00     0.014 A 
ATOM     27  C   UNL     1       4.771   6.356  -2.987  1.00  0.00     0.019 A 
BRANCH  23  28
ATOM     28  O   UNL     1       7.519   6.621  -0.619  1.00  0.00    -0.496 OA
ATOM     29  C   UNL     1       7.872   7.997  -0.826  1.00  0.00     0.278 C 
ENDBRANCH  23  28
BRANCH  25  30
ATOM     30  C   UNL     1       7.163   6.460  -3.624  1.00  0.00     0.183 C 
BRANCH  30  31
ATOM     31  N   UNL     1       7.394   5.118  -4.174  1.00  0.00    -0.261 N 
ATOM     32  C   UNL     1       6.563   4.396  -4.993  1.00  0.00     0.194 A 
ATOM     33  N   UNL     1       8.550   4.469  -3.900  1.00  0.00    -0.174 NA
ATOM     34  C   UNL     1       7.173   3.171  -5.166  1.00  0.00     0.307 A 
ATOM     35  C   UNL     1       8.392   3.273  -4.477  1.00  0.00     0.220 A 
BRANCH  34  36
ATOM     36  N   UNL     1       6.673   2.046  -5.894  1.00  0.00     0.066 N 
ATOM     37  O   UNL     1       7.386   1.035  -5.915  1.00  0.00    -0.258 OA
ATOM     38  O   UNL     1       5.577   2.174  -6.455  1.00  0.00    -0.258 OA
ENDBRANCH  34  36
ENDBRANCH  30  31
ENDBRANCH  25  30
ENDBRANCH   8  22
ENDBRANCH   4   7
ENDBRANCH   2   3
ENDBRANCH   1   2
BRANCH   1  39
ATOM     39  C   UNL     1       3.666   8.448   1.649  1.00  0.00     0.002 C 
BRANCH  39  40
ATOM     40  C   UNL     1       4.036   9.769   2.322  1.00  0.00     0.002 C 
BRANCH  40  41
ATOM     41  C   UNL     1       2.968  10.336   3.254  1.00  0.00     0.021 C 
BRANCH  41  42
ATOM     42  C   UNL     1       2.515   9.376   4.347  1.00  0.00     0.116 C 
BRANCH  42  43
ATOM     43  N   UNL     1       3.585   9.065   5.281  1.00  0.00    -0.352 N 
ATOM     44  C   UNL     1       3.626   9.268   6.636  1.00  0.00     0.251 C 
ATOM     45  H   UNL     1       4.388   8.653   4.887  1.00  0.00     0.163 HD
ATOM     46  O   UNL     1       4.680   9.150   7.257  1.00  0.00    -0.269 OA
BRANCH  44  47
ATOM     47  C   UNL     1       2.391   9.658   7.344  1.00  0.00     0.039 A 
ATOM     48  C   UNL     1       2.426  10.736   8.229  1.00  0.00     0.014 A 
ATOM     49  C   UNL     1       1.193   8.978   7.101  1.00  0.00     0.014 A 
ATOM     50  C   UNL     1       1.242  11.176   8.822  1.00  0.00     0.010 A 
ATOM     51  C   UNL     1       0.004   9.471   7.625  1.00  0.00     0.010 A 
ATOM     52  C   UNL     1       0.016  10.573   8.493  1.00  0.00    -0.014 A 
BRANCH  52  53
ATOM     53  C   UNL     1      -1.263  11.089   9.043  1.00  0.00     0.031 A 
ATOM     54  C   UNL     1      -2.110  10.219   9.929  1.00  0.00     0.074 A 
ATOM     55  C   UNL     1      -1.690  12.318   8.692  1.00  0.00     0.049 A 
ATOM     56  N   UNL     1      -3.280  10.470  10.460  1.00  0.00    -0.248 NA
ATOM     57  C   UNL     1      -1.588   8.879  10.237  1.00  0.00     0.031 C 
ATOM     58  C   UNL     1      -0.982  13.234   7.795  1.00  0.00     0.029 A 
ATOM     59  N   UNL     1      -2.826  13.006   9.038  1.00  0.00    -0.354 N 
ATOM     60  C   UNL     1      -3.635   9.319  11.151  1.00  0.00     0.074 A 
ATOM     61  C   UNL     1      -2.588   8.348  10.925  1.00  0.00     0.031 C 
ATOM     62  C   UNL     1      -1.686  14.371   7.683  1.00  0.00     0.029 A 
ATOM     63  C   UNL     1      -2.914  14.250   8.463  1.00  0.00     0.049 A 
ATOM     64  H   UNL     1      -3.513  12.642   9.642  1.00  0.00     0.167 HD
ATOM     65  C   UNL     1      -4.725   9.102  11.925  1.00  0.00     0.037 A 
ATOM     66  C   UNL     1      -3.881  15.183   8.546  1.00  0.00     0.037 A 
ATOM     67  C   UNL     1      -5.754  10.080  12.163  1.00  0.00     0.049 A 
ATOM     68  C   UNL     1      -5.088  14.911   9.404  1.00  0.00     0.074 A 
ATOM     69  C   UNL     1      -6.864   9.981  12.983  1.00  0.00     0.029 A 
ATOM     70  N   UNL     1      -5.803  11.335  11.573  1.00  0.00    -0.354 N 
ATOM     71  N   UNL     1      -5.373  13.850  10.119  1.00  0.00    -0.248 NA
ATOM     72  C   UNL     1      -6.104  15.970   9.473  1.00  0.00     0.031 C 
ATOM     73  C   UNL     1      -7.617  11.151  12.843  1.00  0.00     0.029 A 
ATOM     74  C   UNL     1      -6.942  12.007  11.987  1.00  0.00     0.049 A 
ATOM     75  H   UNL     1      -5.129  11.694  10.952  1.00  0.00     0.167 HD
ATOM     76  C   UNL     1      -6.583  14.123  10.743  1.00  0.00     0.074 A 
ATOM     77  C   UNL     1      -6.968  15.459  10.338  1.00  0.00     0.031 C 
ATOM     78  C   UNL     1      -7.310  13.339  11.577  1.00  0.00     0.037 A 
BRANCH  65  79
ATOM     79  C   UNL     1      -4.864   7.753  12.573  1.00  0.00     0.064 A 
ATOM     80  C   UNL     1      -4.002   7.334  13.599  1.00  0.00     0.173 A 
ATOM     81  C   UNL     1      -5.899   6.886  12.194  1.00  0.00     0.173 A 
ATOM     82  F   UNL     1      -2.989   8.120  13.993  1.00  0.00    -0.203 F 
ATOM     83  C   UNL     1      -4.155   6.087  14.200  1.00  0.00     0.198 A 
ATOM     84  C   UNL     1      -6.070   5.654  12.820  1.00  0.00     0.198 A 
ATOM     85  F   UNL     1      -6.755   7.237  11.222  1.00  0.00    -0.203 F 
ATOM     86  F   UNL     1      -3.289   5.689  15.142  1.00  0.00    -0.200 F 
ATOM     87  C   UNL     1      -5.193   5.252  13.816  1.00  0.00     0.200 A 
ATOM     88  F   UNL     1      -7.084   4.855  12.459  1.00  0.00    -0.200 F 
ATOM     89  F   UNL     1      -5.346   4.057  14.403  1.00  0.00    -0.200 F 
ENDBRANCH  65  79
BRANCH  66  90
ATOM     90  C   UNL     1      -3.744  16.467   7.807  1.00  0.00     0.064 A 
ATOM     91  C   UNL     1      -3.575  17.680   8.490  1.00  0.00     0.173 A 
ATOM     92  C   UNL     1      -3.793  16.511   6.406  1.00  0.00     0.173 A 
ATOM     93  F   UNL     1      -3.541  17.694   9.831  1.00  0.00    -0.203 F 
ATOM     94  C   UNL     1      -3.486  18.889   7.802  1.00  0.00     0.198 A 
ATOM     95  C   UNL     1      -3.670  17.716   5.718  1.00  0.00     0.198 A 
ATOM     96  F   UNL     1      -3.946  15.379   5.703  1.00  0.00    -0.203 F 
ATOM     97  F   UNL     1      -3.378  20.038   8.483  1.00  0.00    -0.200 F 
ATOM     98  C   UNL     1      -3.528  18.905   6.416  1.00  0.00     0.200 A 
ATOM     99  F   UNL     1      -3.692  17.725   4.378  1.00  0.00    -0.200 F 
ATOM    100  F   UNL     1      -3.439  20.067   5.755  1.00  0.00    -0.200 F 
ENDBRANCH  66  90
BRANCH  78 101
ATOM    101  C   UNL     1      -8.579  13.917  12.135  1.00  0.00     0.064 A 
ATOM    102  C   UNL     1      -9.707  14.137  11.331  1.00  0.00     0.173 A 
ATOM    103  C   UNL     1      -8.680  14.219  13.502  1.00  0.00     0.173 A 
ATOM    104  F   UNL     1      -9.660  13.880  10.015  1.00  0.00    -0.203 F 
ATOM    105  C   UNL     1     -10.878  14.666  11.869  1.00  0.00     0.198 A 
ATOM    106  C   UNL     1      -9.863  14.713  14.043  1.00  0.00     0.198 A 
ATOM    107  F   UNL     1      -7.633  14.020  14.318  1.00  0.00    -0.203 F 
ATOM    108  F   UNL     1     -11.924  14.920  11.071  1.00  0.00    -0.200 F 
ATOM    109  C   UNL     1     -10.958  14.945  13.225  1.00  0.00     0.200 A 
ATOM    110  F   UNL     1      -9.943  14.966  15.357  1.00  0.00    -0.200 F 
ATOM    111  F   UNL     1     -12.088  15.445  13.742  1.00  0.00    -0.200 F 
ENDBRANCH  78 101
ENDBRANCH  52  53
ENDBRANCH  44  47
ENDBRANCH  42  43
ENDBRANCH  41  42
ENDBRANCH  40  41
ENDBRANCH  39  40
ENDBRANCH   1  39
TORSDOF 18
