REMARK SMILES Cc1cc(C(=O)N2C[C@@H](C(=O)NCCCCCCNC(=O)c3ccc(-c4c5nc(c(-c6c(F)c(F)c(F)c(F)c6F)c6ccc([nH]6)c(-c6c(F)c(F)c(F)c(F)c6F)c6nc(c(-c7c(F)c(F)c(F)c(F)c7F)c7ccc4[nH]7)C=C6)C=C5)cc3)[C@H](C3CC3)C2)sc1C
REMARK SMILES IDX 15 1 14 2 13 3 12 4 10 5 11 6 9 8 7 9 8 10 89 11 85 12 5 13
REMARK SMILES IDX 6 14 4 15 1 16 2 17 3 18 91 19 90 20 92 21 86 22 87 23 88 24
REMARK SMILES IDX 16 25 17 26 18 27 19 28 20 29 21 31 22 32 23 33 84 34 24 35
REMARK SMILES IDX 83 36 25 37 26 38 27 39 77 40 28 41 82 42 76 43 78 44 29 45
REMARK SMILES IDX 81 46 75 47 74 48 30 50 62 51 42 52 61 53 43 54 46 55 60 56
REMARK SMILES IDX 79 57 44 58 45 59 59 61 80 62 47 63 31 64 32 65 40 66 33 67
REMARK SMILES IDX 34 68 38 69 41 70 35 71 36 72 39 73 37 74 63 75 64 76 72 77
REMARK SMILES IDX 65 78 66 79 70 80 73 81 67 82 68 83 71 84 69 85 48 86 49 87
REMARK SMILES IDX 57 88 50 89 51 90 55 91 58 92 52 93 53 94 56 95 54 96
REMARK H PARENT 12 7 19 30 78 49 46 60
REMARK Flexibility Score: inf
ROOT
ATOM      1  C   UNL     1       7.815   4.256   0.573  1.00  0.00     0.002 C 
ENDROOT
BRANCH   1   2
ATOM      2  C   UNL     1       6.457   3.705   0.132  1.00  0.00     0.021 C 
BRANCH   2   3
ATOM      3  C   UNL     1       6.451   2.252  -0.325  1.00  0.00     0.116 C 
BRANCH   3   4
ATOM      4  N   UNL     1       6.759   1.307   0.729  1.00  0.00    -0.356 N 
ATOM      5  C   UNL     1       6.319   0.025   0.895  1.00  0.00     0.225 C 
ATOM      6  O   UNL     1       6.817  -0.642   1.804  1.00  0.00    -0.275 OA
ATOM      7  H   UNL     1       7.375   1.636   1.424  1.00  0.00     0.163 HD
BRANCH   5   8
ATOM      8  C   UNL     1       5.238  -0.538  -0.009  1.00  0.00     0.103 C 
ATOM      9  N   UNL     1       3.499  -2.066  -0.106  1.00  0.00    -0.337 N 
ATOM     10  C   UNL     1       4.157  -1.197   0.847  1.00  0.00     0.133 C 
ATOM     11  C   UNL     1       4.483  -2.637  -0.998  1.00  0.00     0.124 C 
ATOM     12  C   UNL     1       5.719  -1.708  -0.905  1.00  0.00     0.026 C 
BRANCH   9  13
ATOM     13  C   UNL     1       2.160  -2.368  -0.280  1.00  0.00     0.263 C 
ATOM     14  O   UNL     1       1.856  -3.469  -0.748  1.00  0.00    -0.268 OA
BRANCH  13  15
ATOM     15  C   UNL     1       1.133  -1.360  -0.029  1.00  0.00     0.093 A 
ATOM     16  C   UNL     1      -2.524  -0.449   0.115  1.00  0.00     0.045 C 
ATOM     17  C   UNL     1      -1.031  -0.422   0.090  1.00  0.00    -0.037 A 
ATOM     18  C   UNL     1      -0.224  -1.608   0.096  1.00  0.00     0.029 A 
ATOM     19  C   UNL     1      -0.239   0.711   0.016  1.00  0.00     0.005 A 
ATOM     20  S   UNL     1       1.416   0.322  -0.137  1.00  0.00    -0.135 S 
ATOM     21  C   UNL     1      -0.660   2.143  -0.005  1.00  0.00     0.056 C 
ENDBRANCH  13  15
ENDBRANCH   9  13
BRANCH  12  22
ATOM     22  C   UNL     1       6.216  -1.382  -2.298  1.00  0.00    -0.005 C 
ATOM     23  C   UNL     1       5.984  -0.076  -3.018  1.00  0.00     0.004 C 
ATOM     24  C   UNL     1       7.361  -0.431  -2.523  1.00  0.00     0.004 C 
ENDBRANCH  12  22
ENDBRANCH   5   8
ENDBRANCH   3   4
ENDBRANCH   2   3
ENDBRANCH   1   2
BRANCH   1  25
ATOM     25  C   UNL     1       8.973   4.082  -0.414  1.00  0.00     0.002 C 
BRANCH  25  26
ATOM     26  C   UNL     1       8.729   4.584  -1.839  1.00  0.00     0.021 C 
BRANCH  26  27
ATOM     27  C   UNL     1       8.249   6.026  -1.959  1.00  0.00     0.116 C 
BRANCH  27  28
ATOM     28  N   UNL     1       9.173   6.979  -1.370  1.00  0.00    -0.352 N 
ATOM     29  C   UNL     1       9.702   8.130  -1.898  1.00  0.00     0.251 C 
ATOM     30  H   UNL     1       9.464   6.767  -0.453  1.00  0.00     0.163 HD
ATOM     31  O   UNL     1      10.583   8.734  -1.296  1.00  0.00    -0.269 OA
BRANCH  29  32
ATOM     32  C   UNL     1       9.231   8.633  -3.207  1.00  0.00     0.039 A 
ATOM     33  C   UNL     1      10.177   9.092  -4.128  1.00  0.00     0.014 A 
ATOM     34  C   UNL     1       7.871   8.672  -3.524  1.00  0.00     0.014 A 
ATOM     35  C   UNL     1       9.764   9.535  -5.386  1.00  0.00     0.010 A 
ATOM     36  C   UNL     1       7.466   9.043  -4.804  1.00  0.00     0.010 A 
ATOM     37  C   UNL     1       8.408   9.483  -5.747  1.00  0.00    -0.014 A 
BRANCH  37  38
ATOM     38  C   UNL     1       7.958   9.890  -7.102  1.00  0.00     0.031 A 
ATOM     39  C   UNL     1       7.042  11.070  -7.272  1.00  0.00     0.074 A 
ATOM     40  C   UNL     1       8.325   9.161  -8.174  1.00  0.00     0.049 A 
ATOM     41  N   UNL     1       6.486  11.539  -8.362  1.00  0.00    -0.248 NA
ATOM     42  C   UNL     1       6.682  11.808  -6.052  1.00  0.00     0.031 C 
ATOM     43  C   UNL     1       9.177   7.972  -8.135  1.00  0.00     0.029 A 
ATOM     44  N   UNL     1       8.021   9.308  -9.505  1.00  0.00    -0.354 N 
ATOM     45  C   UNL     1       5.704  12.612  -7.956  1.00  0.00     0.074 A 
ATOM     46  C   UNL     1       5.812  12.693  -6.515  1.00  0.00     0.031 C 
ATOM     47  C   UNL     1       9.344   7.509  -9.384  1.00  0.00     0.029 A 
ATOM     48  C   UNL     1       8.579   8.342 -10.307  1.00  0.00     0.049 A 
ATOM     49  H   UNL     1       7.456  10.036  -9.851  1.00  0.00     0.167 HD
ATOM     50  C   UNL     1       4.982  13.468  -8.718  1.00  0.00     0.037 A 
ATOM     51  C   UNL     1       8.476   8.145 -11.635  1.00  0.00     0.037 A 
ATOM     52  C   UNL     1       4.893  13.396 -10.153  1.00  0.00     0.049 A 
ATOM     53  C   UNL     1       7.650   9.098 -12.456  1.00  0.00     0.074 A 
ATOM     54  C   UNL     1       4.234  14.248 -11.021  1.00  0.00     0.029 A 
ATOM     55  N   UNL     1       5.480  12.408 -10.932  1.00  0.00    -0.354 N 
ATOM     56  N   UNL     1       6.971  10.151 -12.070  1.00  0.00    -0.248 NA
ATOM     57  C   UNL     1       7.582   8.839 -13.901  1.00  0.00     0.031 C 
ATOM     58  C   UNL     1       4.375  13.746 -12.319  1.00  0.00     0.029 A 
ATOM     59  C   UNL     1       5.173  12.615 -12.268  1.00  0.00     0.049 A 
ATOM     60  H   UNL     1       6.032  11.670 -10.587  1.00  0.00     0.167 HD
ATOM     61  C   UNL     1       6.420  10.695 -13.223  1.00  0.00     0.074 A 
ATOM     62  C   UNL     1       6.859   9.866 -14.326  1.00  0.00     0.031 C 
ATOM     63  C   UNL     1       5.623  11.783 -13.356  1.00  0.00     0.037 A 
BRANCH  50  64
ATOM     64  C   UNL     1       4.225  14.558  -8.013  1.00  0.00     0.064 A 
ATOM     65  C   UNL     1       4.884  15.620  -7.374  1.00  0.00     0.173 A 
ATOM     66  C   UNL     1       2.822  14.561  -8.005  1.00  0.00     0.173 A 
ATOM     67  F   UNL     1       6.225  15.661  -7.342  1.00  0.00    -0.203 F 
ATOM     68  C   UNL     1       4.169  16.624  -6.727  1.00  0.00     0.198 A 
ATOM     69  C   UNL     1       2.109  15.585  -7.386  1.00  0.00     0.198 A 
ATOM     70  F   UNL     1       2.139  13.574  -8.606  1.00  0.00    -0.203 F 
ATOM     71  F   UNL     1       4.822  17.597  -6.077  1.00  0.00    -0.200 F 
ATOM     72  C   UNL     1       2.783  16.610  -6.740  1.00  0.00     0.200 A 
ATOM     73  F   UNL     1       0.769  15.577  -7.413  1.00  0.00    -0.200 F 
ATOM     74  F   UNL     1       2.095  17.581  -6.123  1.00  0.00    -0.200 F 
ENDBRANCH  50  64
BRANCH  51  75
ATOM     75  C   UNL     1       9.187   7.007 -12.275  1.00  0.00     0.064 A 
ATOM     76  C   UNL     1      10.262   7.229 -13.149  1.00  0.00     0.173 A 
ATOM     77  C   UNL     1       8.804   5.679 -12.038  1.00  0.00     0.173 A 
ATOM     78  F   UNL     1      10.653   8.482 -13.424  1.00  0.00    -0.203 F 
ATOM     79  C   UNL     1      10.910   6.167 -13.777  1.00  0.00     0.198 A 
ATOM     80  C   UNL     1       9.474   4.617 -12.643  1.00  0.00     0.198 A 
ATOM     81  F   UNL     1       7.786   5.411 -11.207  1.00  0.00    -0.203 F 
ATOM     82  F   UNL     1      11.901   6.411 -14.646  1.00  0.00    -0.200 F 
ATOM     83  C   UNL     1      10.520   4.862 -13.519  1.00  0.00     0.200 A 
ATOM     84  F   UNL     1       9.103   3.357 -12.378  1.00  0.00    -0.200 F 
ATOM     85  F   UNL     1      11.145   3.842 -14.121  1.00  0.00    -0.200 F 
ENDBRANCH  51  75
BRANCH  63  86
ATOM     86  C   UNL     1       5.202  12.163 -14.747  1.00  0.00     0.064 A 
ATOM     87  C   UNL     1       4.286  11.392 -15.478  1.00  0.00     0.173 A 
ATOM     88  C   UNL     1       5.693  13.336 -15.341  1.00  0.00     0.173 A 
ATOM     89  F   UNL     1       3.798  10.254 -14.962  1.00  0.00    -0.203 F 
ATOM     90  C   UNL     1       3.900  11.767 -16.763  1.00  0.00     0.198 A 
ATOM     91  C   UNL     1       5.279  13.726 -16.611  1.00  0.00     0.198 A 
ATOM     92  F   UNL     1       6.566  14.114 -14.682  1.00  0.00    -0.203 F 
ATOM     93  F   UNL     1       3.064  10.987 -17.463  1.00  0.00    -0.200 F 
ATOM     94  C   UNL     1       4.389  12.937 -17.325  1.00  0.00     0.200 A 
ATOM     95  F   UNL     1       5.740  14.865 -17.146  1.00  0.00    -0.200 F 
ATOM     96  F   UNL     1       4.010  13.300 -18.558  1.00  0.00    -0.200 F 
ENDBRANCH  63  86
ENDBRANCH  37  38
ENDBRANCH  29  32
ENDBRANCH  27  28
ENDBRANCH  26  27
ENDBRANCH  25  26
ENDBRANCH   1  25
TORSDOF 16
