REMARK SMILES COc1ccc(S(=O)(=O)N[C@@H](CO)C(=O)NCCCCCCNC(=O)c2ccc(-c3c4nc(c(-c5c(F)c(F)c(F)c(F)c5F)c5ccc([nH]5)c(-c5c(F)c(F)c(F)c(F)c5F)c5nc(c(-c6c(F)c(F)c(F)c(F)c6F)c6ccc3[nH]6)C=C5)C=C4)cc2)cc1C
REMARK SMILES IDX 18 1 17 2 16 3 14 4 15 5 11 7 10 8 7 10 8 11 9 12 6 13 3 14
REMARK SMILES IDX 4 15 90 16 5 17 89 18 91 19 2 20 1 21 12 22 13 23 19 25
REMARK SMILES IDX 20 26 21 27 22 28 23 29 24 30 25 32 26 33 27 34 88 35 28 36
REMARK SMILES IDX 87 37 29 38 30 39 31 40 81 41 32 42 86 43 80 44 82 45 33 46
REMARK SMILES IDX 85 47 79 48 78 49 34 51 66 52 46 53 65 54 47 55 50 56 64 57
REMARK SMILES IDX 83 58 48 59 49 60 63 62 84 63 51 64 35 65 36 66 44 67 37 68
REMARK SMILES IDX 38 69 42 70 45 71 39 72 40 73 43 74 41 75 67 76 68 77 76 78
REMARK SMILES IDX 69 79 70 80 74 81 77 82 71 83 72 84 75 85 73 86 52 87 53 88
REMARK SMILES IDX 61 89 54 90 55 91 59 92 62 93 56 94 57 95 60 96 58 97
REMARK H PARENT 16 6 10 9 13 24 23 31 82 50 50 61
REMARK Flexibility Score: inf
ROOT
ATOM      1  C   UNL     1       5.742   8.704  -5.010  1.00  0.00     0.021 C 
ENDROOT
BRANCH   1   2
ATOM      2  C   UNL     1       5.445   7.297  -5.528  1.00  0.00     0.116 C 
BRANCH   2   3
ATOM      3  N   UNL     1       6.087   6.261  -4.742  1.00  0.00    -0.355 N 
ATOM      4  C   UNL     1       5.641   5.004  -4.453  1.00  0.00     0.240 C 
ATOM      5  O   UNL     1       6.429   4.227  -3.904  1.00  0.00    -0.273 OA
ATOM      6  H   UNL     1       6.965   6.498  -4.364  1.00  0.00     0.163 HD
BRANCH   4   7
ATOM      7  C   UNL     1       4.193   4.575  -4.733  1.00  0.00     0.184 C 
BRANCH   7   8
ATOM      8  N   UNL     1       3.283   5.551  -4.098  1.00  0.00    -0.196 NA
ATOM      9  H   UNL     1       3.573   5.602  -3.122  1.00  0.00     0.142 HD
BRANCH   8  10
ATOM     10  S   UNL     1       1.632   5.412  -4.066  1.00  0.00     0.241 S 
ATOM     11  O   UNL     1       1.211   5.192  -5.431  1.00  0.00    -0.207 OA
ATOM     12  O   UNL     1       1.155   6.535  -3.290  1.00  0.00    -0.207 OA
BRANCH  10  13
ATOM     13  C   UNL     1       1.298   3.944  -3.134  1.00  0.00     0.083 A 
ATOM     14  C   UNL     1       0.854   1.482  -1.901  1.00  0.00     0.121 A 
ATOM     15  C   UNL     1      -0.131   2.056  -2.715  1.00  0.00     0.048 A 
ATOM     16  C   UNL     1       2.082   2.134  -1.709  1.00  0.00    -0.008 A 
ATOM     17  C   UNL     1       0.092   3.279  -3.347  1.00  0.00     0.025 A 
ATOM     18  C   UNL     1       2.264   3.404  -2.279  1.00  0.00     0.029 A 
ATOM     19  C   UNL     1       3.235   1.519  -0.969  1.00  0.00     0.048 C 
BRANCH  14  20
ATOM     20  O   UNL     1       0.563   0.227  -1.438  1.00  0.00    -0.496 OA
ATOM     21  C   UNL     1       0.689   0.079  -0.027  1.00  0.00     0.278 C 
ENDBRANCH  14  20
ENDBRANCH  10  13
ENDBRANCH   8  10
ENDBRANCH   7   8
BRANCH   7  22
ATOM     22  C   UNL     1       3.954   4.288  -6.220  1.00  0.00     0.186 C 
BRANCH  22  23
ATOM     23  O   UNL     1       3.530   5.421  -6.970  1.00  0.00    -0.394 OA
ATOM     24  H   UNL     1       2.676   5.734  -6.630  1.00  0.00     0.210 HD
ENDBRANCH  22  23
ENDBRANCH   7  22
ENDBRANCH   4   7
ENDBRANCH   2   3
ENDBRANCH   1   2
BRANCH   1  25
ATOM     25  C   UNL     1       7.203   9.161  -5.089  1.00  0.00     0.002 C 
BRANCH  25  26
ATOM     26  C   UNL     1       7.911   8.981  -6.439  1.00  0.00     0.002 C 
BRANCH  26  27
ATOM     27  C   UNL     1       7.147   9.459  -7.673  1.00  0.00     0.021 C 
BRANCH  27  28
ATOM     28  C   UNL     1       6.934  10.963  -7.751  1.00  0.00     0.116 C 
BRANCH  28  29
ATOM     29  N   UNL     1       7.950  11.658  -8.537  1.00  0.00    -0.352 N 
ATOM     30  C   UNL     1       8.010  12.989  -8.910  1.00  0.00     0.251 C 
ATOM     31  H   UNL     1       8.699  11.099  -8.846  1.00  0.00     0.163 HD
ATOM     32  O   UNL     1       8.933  13.407  -9.600  1.00  0.00    -0.269 OA
BRANCH  30  33
ATOM     33  C   UNL     1       7.036  13.936  -8.324  1.00  0.00     0.039 A 
ATOM     34  C   UNL     1       7.556  15.019  -7.606  1.00  0.00     0.014 A 
ATOM     35  C   UNL     1       5.694  13.586  -8.213  1.00  0.00     0.014 A 
ATOM     36  C   UNL     1       6.817  15.543  -6.554  1.00  0.00     0.010 A 
ATOM     37  C   UNL     1       5.003  14.025  -7.106  1.00  0.00     0.010 A 
ATOM     38  C   UNL     1       5.608  14.934  -6.231  1.00  0.00    -0.014 A 
BRANCH  38  39
ATOM     39  C   UNL     1       4.950  15.107  -4.946  1.00  0.00     0.031 A 
ATOM     40  C   UNL     1       3.789  16.005  -4.842  1.00  0.00     0.074 A 
ATOM     41  C   UNL     1       5.365  14.368  -3.894  1.00  0.00     0.049 A 
ATOM     42  N   UNL     1       3.337  16.490  -3.738  1.00  0.00    -0.248 NA
ATOM     43  C   UNL     1       3.087  16.498  -6.019  1.00  0.00     0.031 C 
ATOM     44  C   UNL     1       4.680  14.158  -2.622  1.00  0.00     0.029 A 
ATOM     45  N   UNL     1       6.635  13.797  -3.704  1.00  0.00    -0.354 N 
ATOM     46  C   UNL     1       2.148  17.130  -4.014  1.00  0.00     0.074 A 
ATOM     47  C   UNL     1       2.100  17.198  -5.453  1.00  0.00     0.031 C 
ATOM     48  C   UNL     1       5.582  13.781  -1.701  1.00  0.00     0.029 A 
ATOM     49  C   UNL     1       6.892  13.904  -2.318  1.00  0.00     0.049 A 
ATOM     50  H   UNL     1       7.223  13.406  -4.391  1.00  0.00     0.167 HD
ATOM     51  C   UNL     1       1.302  17.397  -2.976  1.00  0.00     0.037 A 
ATOM     52  C   UNL     1       7.900  14.691  -1.841  1.00  0.00     0.037 A 
ATOM     53  C   UNL     1       1.977  17.149  -1.698  1.00  0.00     0.049 A 
ATOM     54  C   UNL     1       7.429  15.773  -0.898  1.00  0.00     0.074 A 
ATOM     55  C   UNL     1       1.958  16.082  -0.815  1.00  0.00     0.029 A 
ATOM     56  N   UNL     1       3.067  17.938  -1.340  1.00  0.00    -0.354 N 
ATOM     57  N   UNL     1       6.215  16.248  -0.885  1.00  0.00    -0.248 NA
ATOM     58  C   UNL     1       8.299  16.422   0.078  1.00  0.00     0.031 C 
ATOM     59  C   UNL     1       3.091  16.196   0.033  1.00  0.00     0.029 A 
ATOM     60  C   UNL     1       3.779  17.348  -0.313  1.00  0.00     0.049 A 
ATOM     61  H   UNL     1       3.300  18.797  -1.761  1.00  0.00     0.167 HD
ATOM     62  C   UNL     1       6.131  17.254   0.042  1.00  0.00     0.074 A 
ATOM     63  C   UNL     1       7.454  17.307   0.635  1.00  0.00     0.031 C 
ATOM     64  C   UNL     1       4.981  17.970   0.226  1.00  0.00     0.037 A 
BRANCH  51  65
ATOM     65  C   UNL     1      -0.202  17.609  -3.093  1.00  0.00     0.064 A 
ATOM     66  C   UNL     1      -1.032  17.443  -1.957  1.00  0.00     0.173 A 
ATOM     67  C   UNL     1      -0.912  17.872  -4.281  1.00  0.00     0.173 A 
ATOM     68  F   UNL     1      -0.516  17.270  -0.733  1.00  0.00    -0.203 F 
ATOM     69  C   UNL     1      -2.431  17.441  -2.031  1.00  0.00     0.198 A 
ATOM     70  C   UNL     1      -2.309  17.849  -4.360  1.00  0.00     0.198 A 
ATOM     71  F   UNL     1      -0.304  18.207  -5.418  1.00  0.00    -0.203 F 
ATOM     72  F   UNL     1      -3.155  17.250  -0.919  1.00  0.00    -0.200 F 
ATOM     73  C   UNL     1      -3.070  17.619  -3.238  1.00  0.00     0.200 A 
ATOM     74  F   UNL     1      -2.906  18.052  -5.544  1.00  0.00    -0.200 F 
ATOM     75  F   UNL     1      -4.407  17.590  -3.318  1.00  0.00    -0.200 F 
ENDBRANCH  51  65
BRANCH  52  76
ATOM     76  C   UNL     1       9.027  14.845  -2.802  1.00  0.00     0.064 A 
ATOM     77  C   UNL     1       9.723  13.690  -3.212  1.00  0.00     0.173 A 
ATOM     78  C   UNL     1       9.165  15.995  -3.588  1.00  0.00     0.173 A 
ATOM     79  F   UNL     1       9.628  12.560  -2.492  1.00  0.00    -0.203 F 
ATOM     80  C   UNL     1      10.408  13.649  -4.424  1.00  0.00     0.198 A 
ATOM     81  C   UNL     1       9.872  15.956  -4.791  1.00  0.00     0.198 A 
ATOM     82  F   UNL     1       8.524  17.125  -3.258  1.00  0.00    -0.203 F 
ATOM     83  F   UNL     1      10.948  12.496  -4.847  1.00  0.00    -0.200 F 
ATOM     84  C   UNL     1      10.459  14.775  -5.226  1.00  0.00     0.200 A 
ATOM     85  F   UNL     1       9.898  17.037  -5.584  1.00  0.00    -0.200 F 
ATOM     86  F   UNL     1      11.030  14.713  -6.437  1.00  0.00    -0.200 F 
ENDBRANCH  52  76
BRANCH  64  87
ATOM     87  C   UNL     1       4.858  19.265   0.999  1.00  0.00     0.064 A 
ATOM     88  C   UNL     1       5.920  20.163   1.206  1.00  0.00     0.173 A 
ATOM     89  C   UNL     1       3.591  19.718   1.442  1.00  0.00     0.173 A 
ATOM     90  F   UNL     1       7.143  19.926   0.717  1.00  0.00    -0.203 F 
ATOM     91  C   UNL     1       5.744  21.380   1.872  1.00  0.00     0.198 A 
ATOM     92  C   UNL     1       3.408  20.961   2.047  1.00  0.00     0.198 A 
ATOM     93  F   UNL     1       2.483  18.981   1.274  1.00  0.00    -0.203 F 
ATOM     94  F   UNL     1       6.801  22.176   2.087  1.00  0.00    -0.200 F 
ATOM     95  C   UNL     1       4.488  21.784   2.282  1.00  0.00     0.200 A 
ATOM     96  F   UNL     1       2.173  21.364   2.381  1.00  0.00    -0.200 F 
ATOM     97  F   UNL     1       4.317  22.972   2.876  1.00  0.00    -0.200 F 
ENDBRANCH  64  87
ENDBRANCH  38  39
ENDBRANCH  30  33
ENDBRANCH  28  29
ENDBRANCH  27  28
ENDBRANCH  26  27
ENDBRANCH  25  26
ENDBRANCH   1  25
TORSDOF 19
