REMARK SMILES CC(=O)N1CCN(C(=O)c2ccc(=O)n(CCC(=O)NCCCCCCNC(=O)c3ccc(-c4c5nc(c(-c6c(F)c(F)c(F)c(F)c6F)c6ccc([nH]6)c(-c6c(F)c(F)c(F)c(F)c6F)c6nc(c(-c7c(F)c(F)c(F)c(F)c7F)c7ccc4[nH]7)C=C6)C=C5)cc3)n2)CC1
REMARK SMILES IDX 23 1 22 2 21 3 20 4 18 5 19 6 17 8 16 9 15 10 10 11 11 12
REMARK SMILES IDX 93 13 12 14 13 15 14 16 8 17 1 18 2 19 3 20 4 21 5 22 95 23
REMARK SMILES IDX 6 24 94 25 7 26 9 27 24 28 25 29 26 30 27 31 28 32 29 34
REMARK SMILES IDX 30 35 31 36 92 37 32 38 91 39 33 40 34 41 35 42 85 43 36 44
REMARK SMILES IDX 90 45 84 46 86 47 37 48 89 49 83 50 82 51 38 53 70 54 50 55
REMARK SMILES IDX 69 56 51 57 54 58 68 59 87 60 52 61 53 62 67 64 88 65 55 66
REMARK SMILES IDX 39 67 40 68 48 69 41 70 42 71 46 72 49 73 43 74 44 75 47 76
REMARK SMILES IDX 45 77 71 78 72 79 80 80 73 81 74 82 78 83 81 84 75 85 76 86
REMARK SMILES IDX 79 87 77 88 56 89 57 90 65 91 58 92 59 93 63 94 66 95 60 96
REMARK SMILES IDX 61 97 64 98 62 99
REMARK H PARENT 20 7 27 33 86 52 54 63
REMARK Flexibility Score: inf
ROOT
ATOM      1  C   UNL     1       6.248   3.218  10.100  1.00  0.00     0.002 C 
ENDROOT
BRANCH   1   2
ATOM      2  C   UNL     1       6.568   3.626   8.660  1.00  0.00     0.021 C 
BRANCH   2   3
ATOM      3  C   UNL     1       6.758   5.129   8.449  1.00  0.00     0.116 C 
BRANCH   3   4
ATOM      4  N   UNL     1       7.748   5.386   7.415  1.00  0.00    -0.356 N 
ATOM      5  C   UNL     1       7.634   5.779   6.121  1.00  0.00     0.221 C 
ATOM      6  O   UNL     1       8.665   5.889   5.454  1.00  0.00    -0.275 OA
ATOM      7  H   UNL     1       8.677   5.249   7.710  1.00  0.00     0.163 HD
BRANCH   5   8
ATOM      8  C   UNL     1       6.293   6.112   5.516  1.00  0.00     0.124 C 
BRANCH   8   9
ATOM      9  C   UNL     1       6.000   5.190   4.334  1.00  0.00     0.158 C 
BRANCH   9  10
ATOM     10  N   UNL     1       4.937   4.237   4.653  1.00  0.00    -0.229 N 
ATOM     11  C   UNL     1       2.697   3.812   4.627  1.00  0.00     0.149 A 
ATOM     12  C   UNL     1       2.842   2.584   5.426  1.00  0.00     0.042 A 
ATOM     13  N   UNL     1       3.658   4.610   4.285  1.00  0.00    -0.164 NA
ATOM     14  C   UNL     1       4.091   2.209   5.700  1.00  0.00     0.076 A 
ATOM     15  C   UNL     1       5.245   3.036   5.279  1.00  0.00     0.266 A 
ATOM     16  O   UNL     1       6.377   2.642   5.538  1.00  0.00    -0.268 OA
BRANCH  11  17
ATOM     17  C   UNL     1       1.296   4.092   4.121  1.00  0.00     0.274 C 
ATOM     18  C   UNL     1       0.478   0.229  -0.679  1.00  0.00     0.114 C 
ATOM     19  C   UNL     1      -0.415   1.339  -0.185  1.00  0.00     0.219 C 
ATOM     20  O   UNL     1      -1.638   1.232  -0.268  1.00  0.00    -0.275 OA
ATOM     21  N   UNL     1       0.200   2.445   0.373  1.00  0.00    -0.339 N 
ATOM     22  C   UNL     1      -0.613   3.520   0.946  1.00  0.00     0.141 C 
ATOM     23  C   UNL     1       1.625   2.575   0.665  1.00  0.00     0.141 C 
ATOM     24  C   UNL     1      -0.449   3.555   2.473  1.00  0.00     0.141 C 
ATOM     25  C   UNL     1       1.847   2.576   2.183  1.00  0.00     0.141 C 
ATOM     26  N   UNL     1       0.958   3.507   2.902  1.00  0.00    -0.334 N 
ATOM     27  O   UNL     1       0.544   4.733   4.843  1.00  0.00    -0.267 OA
ENDBRANCH  11  17
ENDBRANCH   9  10
ENDBRANCH   8   9
ENDBRANCH   5   8
ENDBRANCH   3   4
ENDBRANCH   2   3
ENDBRANCH   1   2
BRANCH   1  28
ATOM     28  C   UNL     1       4.971   3.803  10.707  1.00  0.00     0.002 C 
BRANCH  28  29
ATOM     29  C   UNL     1       3.673   3.572   9.930  1.00  0.00     0.021 C 
BRANCH  29  30
ATOM     30  C   UNL     1       3.378   2.132   9.512  1.00  0.00     0.116 C 
BRANCH  30  31
ATOM     31  N   UNL     1       3.303   1.204  10.625  1.00  0.00    -0.352 N 
ATOM     32  C   UNL     1       2.254   0.533  11.201  1.00  0.00     0.251 C 
ATOM     33  H   UNL     1       4.172   1.021  11.049  1.00  0.00     0.163 HD
ATOM     34  O   UNL     1       2.462  -0.126  12.218  1.00  0.00    -0.269 OA
BRANCH  32  35
ATOM     35  C   UNL     1       0.874   0.599  10.664  1.00  0.00     0.039 A 
ATOM     36  C   UNL     1       0.586   0.513   9.300  1.00  0.00     0.014 A 
ATOM     37  C   UNL     1      -0.182   0.670  11.583  1.00  0.00     0.014 A 
ATOM     38  C   UNL     1      -0.734   0.632   8.852  1.00  0.00     0.010 A 
ATOM     39  C   UNL     1      -1.507   0.734  11.139  1.00  0.00     0.010 A 
ATOM     40  C   UNL     1      -1.791   0.757   9.767  1.00  0.00    -0.014 A 
BRANCH  40  41
ATOM     41  C   UNL     1      -3.183   0.937   9.284  1.00  0.00     0.031 A 
ATOM     42  C   UNL     1      -3.871   2.267   9.430  1.00  0.00     0.074 A 
ATOM     43  C   UNL     1      -3.830  -0.083   8.689  1.00  0.00     0.049 A 
ATOM     44  N   UNL     1      -5.076   2.621   9.056  1.00  0.00    -0.248 NA
ATOM     45  C   UNL     1      -3.106   3.340  10.085  1.00  0.00     0.031 C 
ATOM     46  C   UNL     1      -3.290  -1.427   8.489  1.00  0.00     0.029 A 
ATOM     47  N   UNL     1      -5.081  -0.136   8.125  1.00  0.00    -0.354 N 
ATOM     48  C   UNL     1      -5.221   3.944   9.449  1.00  0.00     0.074 A 
ATOM     49  C   UNL     1      -3.986   4.332  10.097  1.00  0.00     0.031 C 
ATOM     50  C   UNL     1      -4.187  -2.161   7.808  1.00  0.00     0.029 A 
ATOM     51  C   UNL     1      -5.370  -1.345   7.545  1.00  0.00     0.049 A 
ATOM     52  H   UNL     1      -5.710   0.621   8.136  1.00  0.00     0.167 HD
ATOM     53  C   UNL     1      -6.282   4.767   9.280  1.00  0.00     0.037 A 
ATOM     54  C   UNL     1      -6.461  -1.748   6.870  1.00  0.00     0.037 A 
ATOM     55  C   UNL     1      -7.501   4.415   8.604  1.00  0.00     0.049 A 
ATOM     56  C   UNL     1      -7.618  -0.811   6.679  1.00  0.00     0.074 A 
ATOM     57  C   UNL     1      -8.615   5.201   8.364  1.00  0.00     0.029 A 
ATOM     58  N   UNL     1      -7.760   3.173   8.050  1.00  0.00    -0.354 N 
ATOM     59  N   UNL     1      -7.742   0.434   7.062  1.00  0.00    -0.248 NA
ATOM     60  C   UNL     1      -8.791  -1.344   5.969  1.00  0.00     0.031 C 
ATOM     61  C   UNL     1      -9.553   4.431   7.666  1.00  0.00     0.029 A 
ATOM     62  C   UNL     1      -9.017   3.169   7.469  1.00  0.00     0.049 A 
ATOM     63  H   UNL     1      -7.142   2.406   8.067  1.00  0.00     0.167 HD
ATOM     64  C   UNL     1      -9.000   0.837   6.640  1.00  0.00     0.074 A 
ATOM     65  C   UNL     1      -9.602  -0.294   5.964  1.00  0.00     0.031 C 
ATOM     66  C   UNL     1      -9.602   2.038   6.803  1.00  0.00     0.037 A 
BRANCH  53  67
ATOM     67  C   UNL     1      -6.169   6.148   9.840  1.00  0.00     0.064 A 
ATOM     68  C   UNL     1      -5.540   7.172   9.120  1.00  0.00     0.173 A 
ATOM     69  C   UNL     1      -6.722   6.456  11.091  1.00  0.00     0.173 A 
ATOM     70  F   UNL     1      -4.987   6.915   7.925  1.00  0.00    -0.203 F 
ATOM     71  C   UNL     1      -5.462   8.462   9.638  1.00  0.00     0.198 A 
ATOM     72  C   UNL     1      -6.649   7.748  11.602  1.00  0.00     0.198 A 
ATOM     73  F   UNL     1      -7.329   5.504  11.814  1.00  0.00    -0.203 F 
ATOM     74  F   UNL     1      -4.841   9.425   8.944  1.00  0.00    -0.200 F 
ATOM     75  C   UNL     1      -6.019   8.749  10.877  1.00  0.00     0.200 A 
ATOM     76  F   UNL     1      -7.184   8.026  12.799  1.00  0.00    -0.200 F 
ATOM     77  F   UNL     1      -5.941   9.991  11.374  1.00  0.00    -0.200 F 
ENDBRANCH  53  67
BRANCH  54  78
ATOM     78  C   UNL     1      -6.498  -3.109   6.290  1.00  0.00     0.064 A 
ATOM     79  C   UNL     1      -6.169  -3.316   4.944  1.00  0.00     0.173 A 
ATOM     80  C   UNL     1      -6.851  -4.220   7.064  1.00  0.00     0.173 A 
ATOM     81  F   UNL     1      -5.840  -2.273   4.168  1.00  0.00    -0.203 F 
ATOM     82  C   UNL     1      -6.193  -4.593   4.391  1.00  0.00     0.198 A 
ATOM     83  C   UNL     1      -6.869  -5.498   6.511  1.00  0.00     0.198 A 
ATOM     84  F   UNL     1      -7.180  -4.061   8.354  1.00  0.00    -0.203 F 
ATOM     85  F   UNL     1      -5.886  -4.767   3.098  1.00  0.00    -0.200 F 
ATOM     86  C   UNL     1      -6.541  -5.683   5.175  1.00  0.00     0.200 A 
ATOM     87  F   UNL     1      -7.207  -6.550   7.269  1.00  0.00    -0.200 F 
ATOM     88  F   UNL     1      -6.565  -6.912   4.642  1.00  0.00    -0.200 F 
ENDBRANCH  54  78
BRANCH  66  89
ATOM     89  C   UNL     1     -10.978   2.193   6.241  1.00  0.00     0.064 A 
ATOM     90  C   UNL     1     -12.104   1.799   6.976  1.00  0.00     0.173 A 
ATOM     91  C   UNL     1     -11.176   2.776   4.982  1.00  0.00     0.173 A 
ATOM     92  F   UNL     1     -11.957   1.226   8.180  1.00  0.00    -0.203 F 
ATOM     93  C   UNL     1     -13.386   1.979   6.465  1.00  0.00     0.198 A 
ATOM     94  C   UNL     1     -12.460   2.959   4.477  1.00  0.00     0.198 A 
ATOM     95  F   UNL     1     -10.125   3.163   4.245  1.00  0.00    -0.203 F 
ATOM     96  F   UNL     1     -14.451   1.582   7.176  1.00  0.00    -0.200 F 
ATOM     97  C   UNL     1     -13.563   2.561   5.218  1.00  0.00     0.200 A 
ATOM     98  F   UNL     1     -12.631   3.519   3.271  1.00  0.00    -0.200 F 
ATOM     99  F   UNL     1     -14.798   2.732   4.728  1.00  0.00    -0.200 F 
ENDBRANCH  66  89
ENDBRANCH  40  41
ENDBRANCH  32  35
ENDBRANCH  30  31
ENDBRANCH  29  30
ENDBRANCH  28  29
ENDBRANCH   1  28
TORSDOF 16
