REMARK SMILES CCCCC[C@@H]1C[C@H](CC(=O)NCCCCCCNC(=O)c2ccc(-c3c4nc(c(-c5c(F)c(F)c(F)c(F)c5F)c5ccc([nH]5)c(-c5c(F)c(F)c(F)c(F)c5F)c5nc(c(-c6c(F)c(F)c(F)c(F)c6F)c6ccc3[nH]6)C=C5)C=C4)cc2)C(=O)O1
REMARK SMILES IDX 14 1 13 2 12 3 10 4 11 5 9 7 8 8 6 9 7 10 87 11 85 12 86 13
REMARK SMILES IDX 5 14 4 15 3 16 2 17 1 18 15 19 16 20 17 21 18 22 19 23 20 24
REMARK SMILES IDX 21 26 22 27 23 28 84 29 24 30 83 31 25 32 26 33 27 34 77 35
REMARK SMILES IDX 28 36 82 37 76 38 78 39 29 40 81 41 75 42 74 43 30 45 62 46
REMARK SMILES IDX 42 47 61 48 43 49 46 50 60 51 79 52 44 53 45 54 59 56 80 57
REMARK SMILES IDX 47 58 31 59 32 60 40 61 33 62 34 63 38 64 41 65 35 66 36 67
REMARK SMILES IDX 39 68 37 69 63 70 64 71 72 72 65 73 66 74 70 75 73 76 67 77
REMARK SMILES IDX 68 78 71 79 69 80 48 81 49 82 57 83 50 84 51 85 55 86 58 87
REMARK SMILES IDX 52 88 53 89 56 90 54 91
REMARK H PARENT 12 6 19 25 78 44 46 55
REMARK Flexibility Score: inf
ROOT
ATOM      1  C   UNL     1      -2.004   0.750  -0.571  1.00  0.00     0.021 C 
ENDROOT
BRANCH   1   2
ATOM      2  C   UNL     1      -2.751   2.070  -0.734  1.00  0.00     0.116 C 
BRANCH   2   3
ATOM      3  N   UNL     1      -1.855   3.104  -1.231  1.00  0.00    -0.356 N 
ATOM      4  C   UNL     1      -1.693   3.609  -2.484  1.00  0.00     0.220 C 
ATOM      5  O   UNL     1      -0.743   4.365  -2.693  1.00  0.00    -0.275 OA
ATOM      6  H   UNL     1      -1.270   3.504  -0.548  1.00  0.00     0.163 HD
BRANCH   4   7
ATOM      7  C   UNL     1      -2.645   3.239  -3.600  1.00  0.00     0.115 C 
BRANCH   7   8
ATOM      8  C   UNL     1      -2.280   2.011  -4.444  1.00  0.00     0.112 C 
ATOM      9  C   UNL     1      -1.181  -0.141  -4.429  1.00  0.00     0.177 C 
ATOM     10  C   UNL     1      -0.941   1.341  -4.202  1.00  0.00     0.061 C 
ATOM     11  O   UNL     1      -2.608  -0.310  -4.299  1.00  0.00    -0.462 OA
ATOM     12  C   UNL     1      -3.249   0.886  -4.250  1.00  0.00     0.309 C 
ATOM     13  O   UNL     1      -4.460   1.001  -4.110  1.00  0.00    -0.252 OA
BRANCH   9  14
ATOM     14  C   UNL     1      -0.549  -1.131  -3.434  1.00  0.00     0.045 C 
BRANCH  14  15
ATOM     15  C   UNL     1       0.969  -1.232  -3.244  1.00  0.00     0.004 C 
BRANCH  15  16
ATOM     16  C   UNL     1       1.845   0.023  -3.181  1.00  0.00    -0.000 C 
BRANCH  16  17
ATOM     17  C   UNL     1       1.814   0.846  -1.891  1.00  0.00    -0.003 C 
ATOM     18  C   UNL     1       2.473   0.165  -0.699  1.00  0.00     0.004 C 
ENDBRANCH  16  17
ENDBRANCH  15  16
ENDBRANCH  14  15
ENDBRANCH   9  14
ENDBRANCH   7   8
ENDBRANCH   4   7
ENDBRANCH   2   3
ENDBRANCH   1   2
BRANCH   1  19
ATOM     19  C   UNL     1      -0.949   0.732   0.541  1.00  0.00     0.002 C 
BRANCH  19  20
ATOM     20  C   UNL     1      -1.410   0.122   1.863  1.00  0.00     0.002 C 
BRANCH  20  21
ATOM     21  C   UNL     1      -1.762  -1.368   1.799  1.00  0.00     0.021 C 
BRANCH  21  22
ATOM     22  C   UNL     1      -0.674  -2.279   1.234  1.00  0.00     0.116 C 
BRANCH  22  23
ATOM     23  N   UNL     1       0.502  -2.354   2.091  1.00  0.00    -0.352 N 
ATOM     24  C   UNL     1       0.957  -3.405   2.853  1.00  0.00     0.251 C 
ATOM     25  H   UNL     1       1.048  -1.536   2.130  1.00  0.00     0.163 HD
ATOM     26  O   UNL     1       1.862  -3.246   3.664  1.00  0.00    -0.269 OA
BRANCH  24  27
ATOM     27  C   UNL     1       0.323  -4.731   2.707  1.00  0.00     0.039 A 
ATOM     28  C   UNL     1      -0.120  -5.405   3.846  1.00  0.00     0.014 A 
ATOM     29  C   UNL     1       0.134  -5.286   1.439  1.00  0.00     0.014 A 
ATOM     30  C   UNL     1      -0.828  -6.601   3.706  1.00  0.00     0.010 A 
ATOM     31  C   UNL     1      -0.648  -6.428   1.297  1.00  0.00     0.010 A 
ATOM     32  C   UNL     1      -1.137  -7.099   2.428  1.00  0.00    -0.014 A 
BRANCH  32  33
ATOM     33  C   UNL     1      -1.976  -8.315   2.260  1.00  0.00     0.031 A 
ATOM     34  C   UNL     1      -1.413  -9.539   1.592  1.00  0.00     0.074 A 
ATOM     35  C   UNL     1      -3.264  -8.298   2.655  1.00  0.00     0.049 A 
ATOM     36  N   UNL     1      -1.994 -10.683   1.331  1.00  0.00    -0.248 NA
ATOM     37  C   UNL     1      -0.020  -9.457   1.128  1.00  0.00     0.031 C 
ATOM     38  C   UNL     1      -3.947  -7.154   3.260  1.00  0.00     0.029 A 
ATOM     39  N   UNL     1      -4.231  -9.272   2.604  1.00  0.00    -0.354 N 
ATOM     40  C   UNL     1      -1.044 -11.447   0.667  1.00  0.00     0.074 A 
ATOM     41  C   UNL     1       0.126 -10.613   0.501  1.00  0.00     0.031 C 
ATOM     42  C   UNL     1      -5.208  -7.503   3.560  1.00  0.00     0.029 A 
ATOM     43  C   UNL     1      -5.436  -8.880   3.134  1.00  0.00     0.049 A 
ATOM     44  H   UNL     1      -4.074 -10.167   2.224  1.00  0.00     0.167 HD
ATOM     45  C   UNL     1      -1.126 -12.736   0.260  1.00  0.00     0.037 A 
ATOM     46  C   UNL     1      -6.594  -9.556   3.263  1.00  0.00     0.037 A 
ATOM     47  C   UNL     1      -2.288 -13.567   0.439  1.00  0.00     0.049 A 
ATOM     48  C   UNL     1      -6.668 -10.983   2.789  1.00  0.00     0.074 A 
ATOM     49  C   UNL     1      -2.453 -14.902   0.117  1.00  0.00     0.029 A 
ATOM     50  N   UNL     1      -3.490 -13.136   0.983  1.00  0.00    -0.354 N 
ATOM     51  N   UNL     1      -5.735 -11.723   2.239  1.00  0.00    -0.248 NA
ATOM     52  C   UNL     1      -7.955 -11.671   2.961  1.00  0.00     0.031 C 
ATOM     53  C   UNL     1      -3.773 -15.263   0.411  1.00  0.00     0.029 A 
ATOM     54  C   UNL     1      -4.411 -14.171   0.978  1.00  0.00     0.049 A 
ATOM     55  H   UNL     1      -3.663 -12.228   1.323  1.00  0.00     0.167 HD
ATOM     56  C   UNL     1      -6.310 -12.969   2.029  1.00  0.00     0.074 A 
ATOM     57  C   UNL     1      -7.669 -12.889   2.524  1.00  0.00     0.031 C 
ATOM     58  C   UNL     1      -5.761 -14.080   1.477  1.00  0.00     0.037 A 
BRANCH  45  59
ATOM     59  C   UNL     1       0.078 -13.322  -0.423  1.00  0.00     0.064 A 
ATOM     60  C   UNL     1       1.285 -13.537   0.263  1.00  0.00     0.173 A 
ATOM     61  C   UNL     1       0.025 -13.684  -1.778  1.00  0.00     0.173 A 
ATOM     62  F   UNL     1       1.395 -13.201   1.557  1.00  0.00    -0.203 F 
ATOM     63  C   UNL     1       2.404 -14.046  -0.392  1.00  0.00     0.198 A 
ATOM     64  C   UNL     1       1.135 -14.228  -2.420  1.00  0.00     0.198 A 
ATOM     65  F   UNL     1      -1.103 -13.510  -2.482  1.00  0.00    -0.203 F 
ATOM     66  F   UNL     1       3.563 -14.175   0.269  1.00  0.00    -0.200 F 
ATOM     67  C   UNL     1       2.326 -14.397  -1.730  1.00  0.00     0.200 A 
ATOM     68  F   UNL     1       1.054 -14.582  -3.710  1.00  0.00    -0.200 F 
ATOM     69  F   UNL     1       3.403 -14.887  -2.359  1.00  0.00    -0.200 F 
ENDBRANCH  45  59
BRANCH  46  70
ATOM     70  C   UNL     1      -7.765  -8.904   3.906  1.00  0.00     0.064 A 
ATOM     71  C   UNL     1      -8.219  -9.323   5.165  1.00  0.00     0.173 A 
ATOM     72  C   UNL     1      -8.448  -7.848   3.286  1.00  0.00     0.173 A 
ATOM     73  F   UNL     1      -7.611 -10.343   5.790  1.00  0.00    -0.203 F 
ATOM     74  C   UNL     1      -9.321  -8.723   5.771  1.00  0.00     0.198 A 
ATOM     75  C   UNL     1      -9.532  -7.228   3.906  1.00  0.00     0.198 A 
ATOM     76  F   UNL     1      -8.052  -7.404   2.084  1.00  0.00    -0.203 F 
ATOM     77  F   UNL     1      -9.758  -9.172   6.955  1.00  0.00    -0.200 F 
ATOM     78  C   UNL     1      -9.972  -7.671   5.145  1.00  0.00     0.200 A 
ATOM     79  F   UNL     1     -10.148  -6.201   3.305  1.00  0.00    -0.200 F 
ATOM     80  F   UNL     1     -11.026  -7.088   5.732  1.00  0.00    -0.200 F 
ENDBRANCH  46  70
BRANCH  58  81
ATOM     81  C   UNL     1      -6.615 -15.314   1.412  1.00  0.00     0.064 A 
ATOM     82  C   UNL     1      -7.711 -15.410   0.541  1.00  0.00     0.173 A 
ATOM     83  C   UNL     1      -6.306 -16.432   2.203  1.00  0.00     0.173 A 
ATOM     84  F   UNL     1      -8.058 -14.366  -0.226  1.00  0.00    -0.203 F 
ATOM     85  C   UNL     1      -8.482 -16.569   0.486  1.00  0.00     0.198 A 
ATOM     86  C   UNL     1      -7.057 -17.601   2.119  1.00  0.00     0.198 A 
ATOM     87  F   UNL     1      -5.264 -16.396   3.047  1.00  0.00    -0.203 F 
ATOM     88  F   UNL     1      -9.555 -16.620  -0.315  1.00  0.00    -0.200 F 
ATOM     89  C   UNL     1      -8.149 -17.666   1.267  1.00  0.00     0.200 A 
ATOM     90  F   UNL     1      -6.724 -18.664   2.863  1.00  0.00    -0.200 F 
ATOM     91  F   UNL     1      -8.886 -18.783   1.205  1.00  0.00    -0.200 F 
ENDBRANCH  58  81
ENDBRANCH  32  33
ENDBRANCH  24  27
ENDBRANCH  22  23
ENDBRANCH  21  22
ENDBRANCH  20  21
ENDBRANCH  19  20
ENDBRANCH   1  19
TORSDOF 18
