REMARK SMILES O=C(NCCCCCCNC(=O)C1(C/C=C/c2ccccc2)CCCCC1)c1ccc(-c2c3nc(c(-c4c(F)c(F)c(F)c(F)c4F)c4ccc([nH]4)c(-c4c(F)c(F)c(F)c(F)c4F)c4nc(c(-c5c(F)c(F)c(F)c(F)c5F)c5ccc2[nH]5)C=C4)C=C3)cc1
REMARK SMILES IDX 7 1 6 2 5 3 4 4 3 5 1 6 2 7 28 9 29 10 90 11 30 12 89 13
REMARK SMILES IDX 31 14 32 15 33 16 83 17 34 18 88 19 82 20 84 21 35 22 87 23
REMARK SMILES IDX 81 24 80 25 36 27 68 28 48 29 67 30 49 31 52 32 66 33 85 34
REMARK SMILES IDX 50 35 51 36 65 38 86 39 53 40 37 41 38 42 46 43 39 44 40 45
REMARK SMILES IDX 44 46 47 47 41 48 42 49 45 50 43 51 69 52 70 53 78 54 71 55
REMARK SMILES IDX 72 56 76 57 79 58 73 59 74 60 77 61 75 62 54 63 55 64 63 65
REMARK SMILES IDX 56 66 57 67 61 68 64 69 58 70 59 71 62 72 60 73 8 74 9 75
REMARK SMILES IDX 10 76 11 77 12 79 13 80 23 81 27 82 24 83 26 84 25 85 14 86
REMARK SMILES IDX 15 87 16 88 17 89 18 90 22 91 19 92 21 93 20 94
REMARK H PARENT 3 8 84 26 52 37 10 78
REMARK Flexibility Score: inf
ROOT
ATOM      1  C   UNL     1       4.661   4.074  -1.640  1.00  0.00     0.002 C 
ENDROOT
BRANCH   1   2
ATOM      2  C   UNL     1       3.901   3.002  -2.434  1.00  0.00     0.002 C 
BRANCH   2   3
ATOM      3  C   UNL     1       4.369   1.565  -2.201  1.00  0.00     0.021 C 
BRANCH   3   4
ATOM      4  C   UNL     1       4.283   1.105  -0.753  1.00  0.00     0.116 C 
BRANCH   4   5
ATOM      5  N   UNL     1       2.907   0.970  -0.305  1.00  0.00    -0.352 N 
ATOM      6  O   UNL     1       1.066  -0.139   0.389  1.00  0.00    -0.269 OA
ATOM      7  C   UNL     1       2.285  -0.123   0.245  1.00  0.00     0.251 C 
ATOM      8  H   UNL     1       2.345   1.771  -0.410  1.00  0.00     0.163 HD
BRANCH   7   9
ATOM      9  C   UNL     1       3.092  -1.291   0.655  1.00  0.00     0.039 A 
ATOM     10  C   UNL     1       4.283  -1.114   1.363  1.00  0.00     0.014 A 
ATOM     11  C   UNL     1       2.640  -2.579   0.350  1.00  0.00     0.014 A 
ATOM     12  C   UNL     1       5.078  -2.212   1.662  1.00  0.00     0.010 A 
ATOM     13  C   UNL     1       3.399  -3.689   0.728  1.00  0.00     0.010 A 
ATOM     14  C   UNL     1       4.631  -3.513   1.375  1.00  0.00    -0.014 A 
BRANCH  14  15
ATOM     15  C   UNL     1       5.431  -4.665   1.859  1.00  0.00     0.031 A 
ATOM     16  C   UNL     1       6.106  -5.609   0.909  1.00  0.00     0.074 A 
ATOM     17  C   UNL     1       5.570  -4.821   3.191  1.00  0.00     0.049 A 
ATOM     18  N   UNL     1       6.875  -6.635   1.177  1.00  0.00    -0.248 NA
ATOM     19  C   UNL     1       5.890  -5.382  -0.528  1.00  0.00     0.031 C 
ATOM     20  C   UNL     1       4.936  -3.974   4.205  1.00  0.00     0.029 A 
ATOM     21  N   UNL     1       6.302  -5.721   3.921  1.00  0.00    -0.354 N 
ATOM     22  C   UNL     1       7.227  -7.180  -0.050  1.00  0.00     0.074 A 
ATOM     23  C   UNL     1       6.566  -6.389  -1.067  1.00  0.00     0.031 C 
ATOM     24  C   UNL     1       5.348  -4.359   5.421  1.00  0.00     0.029 A 
ATOM     25  C   UNL     1       6.223  -5.516   5.277  1.00  0.00     0.049 A 
ATOM     26  H   UNL     1       6.832  -6.443   3.514  1.00  0.00     0.167 HD
ATOM     27  C   UNL     1       8.035  -8.239  -0.299  1.00  0.00     0.037 A 
ATOM     28  C   UNL     1       6.783  -6.193   6.295  1.00  0.00     0.037 A 
ATOM     29  C   UNL     1       8.694  -9.016   0.721  1.00  0.00     0.049 A 
ATOM     30  C   UNL     1       7.665  -7.367   5.984  1.00  0.00     0.074 A 
ATOM     31  C   UNL     1       9.548 -10.096   0.569  1.00  0.00     0.029 A 
ATOM     32  N   UNL     1       8.571  -8.796   2.086  1.00  0.00    -0.354 N 
ATOM     33  N   UNL     1       8.012  -7.853   4.817  1.00  0.00    -0.248 NA
ATOM     34  C   UNL     1       8.229  -8.090   7.130  1.00  0.00     0.031 C 
ATOM     35  C   UNL     1       9.910 -10.552   1.841  1.00  0.00     0.029 A 
ATOM     36  C   UNL     1       9.320  -9.730   2.786  1.00  0.00     0.049 A 
ATOM     37  H   UNL     1       8.032  -8.082   2.496  1.00  0.00     0.167 HD
ATOM     38  C   UNL     1       8.840  -8.932   5.086  1.00  0.00     0.074 A 
ATOM     39  C   UNL     1       8.970  -9.008   6.527  1.00  0.00     0.031 C 
ATOM     40  C   UNL     1       9.430  -9.791   4.220  1.00  0.00     0.037 A 
BRANCH  27  41
ATOM     41  C   UNL     1       8.254  -8.634  -1.731  1.00  0.00     0.064 A 
ATOM     42  C   UNL     1       9.062  -7.871  -2.586  1.00  0.00     0.173 A 
ATOM     43  C   UNL     1       7.711  -9.826  -2.232  1.00  0.00     0.173 A 
ATOM     44  F   UNL     1       9.597  -6.717  -2.159  1.00  0.00    -0.203 F 
ATOM     45  C   UNL     1       9.310  -8.282  -3.894  1.00  0.00     0.198 A 
ATOM     46  C   UNL     1       7.979 -10.246  -3.533  1.00  0.00     0.198 A 
ATOM     47  F   UNL     1       6.935 -10.596  -1.454  1.00  0.00    -0.203 F 
ATOM     48  F   UNL     1      10.063  -7.522  -4.702  1.00  0.00    -0.200 F 
ATOM     49  C   UNL     1       8.776  -9.473  -4.363  1.00  0.00     0.200 A 
ATOM     50  F   UNL     1       7.473 -11.403  -3.981  1.00  0.00    -0.200 F 
ATOM     51  F   UNL     1       9.028  -9.874  -5.617  1.00  0.00    -0.200 F 
ENDBRANCH  27  41
BRANCH  28  52
ATOM     52  C   UNL     1       6.516  -5.780   7.696  1.00  0.00     0.064 A 
ATOM     53  C   UNL     1       7.531  -5.243   8.499  1.00  0.00     0.173 A 
ATOM     54  C   UNL     1       5.238  -5.913   8.260  1.00  0.00     0.173 A 
ATOM     55  F   UNL     1       8.773  -5.113   8.011  1.00  0.00    -0.203 F 
ATOM     56  C   UNL     1       7.282  -4.874   9.819  1.00  0.00     0.198 A 
ATOM     57  C   UNL     1       4.983  -5.513   9.569  1.00  0.00     0.198 A 
ATOM     58  F   UNL     1       4.231  -6.415   7.530  1.00  0.00    -0.203 F 
ATOM     59  F   UNL     1       8.281  -4.408  10.581  1.00  0.00    -0.200 F 
ATOM     60  C   UNL     1       6.008  -5.003  10.351  1.00  0.00     0.200 A 
ATOM     61  F   UNL     1       3.746  -5.623  10.072  1.00  0.00    -0.200 F 
ATOM     62  F   UNL     1       5.769  -4.643  11.619  1.00  0.00    -0.200 F 
ENDBRANCH  28  52
BRANCH  40  63
ATOM     63  C   UNL     1      10.276 -10.876   4.819  1.00  0.00     0.064 A 
ATOM     64  C   UNL     1       9.701 -11.956   5.505  1.00  0.00     0.173 A 
ATOM     65  C   UNL     1      11.673 -10.835   4.704  1.00  0.00     0.173 A 
ATOM     66  F   UNL     1       8.370 -12.028   5.657  1.00  0.00    -0.203 F 
ATOM     67  C   UNL     1      10.498 -12.940   6.084  1.00  0.00     0.198 A 
ATOM     68  C   UNL     1      12.465 -11.836   5.259  1.00  0.00     0.198 A 
ATOM     69  F   UNL     1      12.269  -9.824   4.054  1.00  0.00    -0.203 F 
ATOM     70  F   UNL     1       9.932 -13.931   6.784  1.00  0.00    -0.200 F 
ATOM     71  C   UNL     1      11.878 -12.881   5.956  1.00  0.00     0.200 A 
ATOM     72  F   UNL     1      13.797 -11.783   5.127  1.00  0.00    -0.200 F 
ATOM     73  F   UNL     1      12.644 -13.827   6.517  1.00  0.00    -0.200 F 
ENDBRANCH  40  63
ENDBRANCH  14  15
ENDBRANCH   7   9
ENDBRANCH   4   5
ENDBRANCH   3   4
ENDBRANCH   2   3
ENDBRANCH   1   2
BRANCH   1  74
ATOM     74  C   UNL     1       6.191   3.971  -1.696  1.00  0.00     0.021 C 
BRANCH  74  75
ATOM     75  C   UNL     1       6.756   4.023  -3.115  1.00  0.00     0.116 C 
BRANCH  75  76
ATOM     76  N   UNL     1       6.799   5.385  -3.598  1.00  0.00    -0.356 N 
ATOM     77  C   UNL     1       7.770   6.313  -3.749  1.00  0.00     0.226 C 
ATOM     78  H   UNL     1       5.915   5.713  -3.883  1.00  0.00     0.163 HD
ATOM     79  O   UNL     1       7.349   7.447  -4.025  1.00  0.00    -0.274 OA
BRANCH  77  80
ATOM     80  C   UNL     1       9.303   6.057  -3.709  1.00  0.00     0.053 C 
ATOM     81  C   UNL     1       9.882   7.265  -2.904  1.00  0.00     0.017 C 
ATOM     82  C   UNL     1       9.795   4.761  -3.029  1.00  0.00     0.017 C 
ATOM     83  C   UNL     1      11.380   7.197  -2.619  1.00  0.00     0.001 C 
ATOM     84  C   UNL     1      11.301   4.704  -2.767  1.00  0.00     0.001 C 
ATOM     85  C   UNL     1      11.767   5.891  -1.944  1.00  0.00     0.000 C 
BRANCH  80  86
ATOM     86  C   UNL     1       9.781   6.139  -5.194  1.00  0.00     0.044 C 
BRANCH  86  87
ATOM     87  C   UNL     1       9.193   5.075  -6.091  1.00  0.00    -0.025 C 
ATOM     88  C   UNL     1       8.337   5.338  -7.092  1.00  0.00     0.004 C 
BRANCH  88  89
ATOM     89  C   UNL     1       7.705   4.277  -7.882  1.00  0.00    -0.026 A 
ATOM     90  C   UNL     1       7.828   4.268  -9.274  1.00  0.00     0.008 A 
ATOM     91  C   UNL     1       6.927   3.293  -7.258  1.00  0.00     0.008 A 
ATOM     92  C   UNL     1       7.199   3.274 -10.030  1.00  0.00     0.001 A 
ATOM     93  C   UNL     1       6.295   2.304  -8.013  1.00  0.00     0.001 A 
ATOM     94  C   UNL     1       6.434   2.293  -9.399  1.00  0.00     0.000 A 
ENDBRANCH  88  89
ENDBRANCH  86  87
ENDBRANCH  80  86
ENDBRANCH  77  80
ENDBRANCH  75  76
ENDBRANCH  74  75
ENDBRANCH   1  74
TORSDOF 16
