REMARK SMILES COc1ccccc1CCNC(=O)[C@@H]1[C@@H](C(=O)NCCCCCCNC(=O)c2ccc(-c3c4nc(c(-c5c(F)c(F)c(F)c(F)c5F)c5ccc([nH]5)c(-c5c(F)c(F)c(F)c(F)c5F)c5nc(c(-c6c(F)c(F)c(F)c(F)c6F)c6ccc3[nH]6)C=C5)C=C4)cc2)[C@H]2C=C[C@@H]1CC2
REMARK SMILES IDX 20 1 19 2 18 3 16 4 17 5 15 7 14 8 94 9 91 10 93 11 95 12
REMARK SMILES IDX 92 13 96 14 12 15 11 16 13 18 10 19 9 20 8 21 3 22 4 23 5 24
REMARK SMILES IDX 7 25 6 26 2 27 1 28 21 29 22 30 23 31 24 32 25 33 26 34
REMARK SMILES IDX 27 36 28 37 29 38 90 39 30 40 89 41 31 42 32 43 33 44 83 45
REMARK SMILES IDX 34 46 88 47 82 48 84 49 35 50 87 51 81 52 80 53 36 55 68 56
REMARK SMILES IDX 48 57 67 58 49 59 52 60 66 61 85 62 50 63 51 64 65 66 86 67
REMARK SMILES IDX 53 68 37 69 38 70 46 71 39 72 40 73 44 74 47 75 41 76 42 77
REMARK SMILES IDX 45 78 43 79 69 80 70 81 78 82 71 83 72 84 76 85 79 86 73 87
REMARK SMILES IDX 74 88 77 89 75 90 54 91 55 92 63 93 56 94 57 95 61 96 64 97
REMARK SMILES IDX 58 98 59 99 62 100 60 101
REMARK H PARENT 18 6 11 17 25 35 84 54 52 65
REMARK Flexibility Score: inf
ROOT
ATOM      1  C   UNL     1       6.349   1.645  -3.715  1.00  0.00     0.021 C 
ENDROOT
BRANCH   1   2
ATOM      2  C   UNL     1       7.111   0.313  -3.646  1.00  0.00     0.116 C 
BRANCH   2   3
ATOM      3  N   UNL     1       8.034   0.327  -2.530  1.00  0.00    -0.356 N 
ATOM      4  C   UNL     1       8.169  -0.554  -1.507  1.00  0.00     0.224 C 
ATOM      5  O   UNL     1       8.587  -0.091  -0.444  1.00  0.00    -0.275 OA
ATOM      6  H   UNL     1       8.656   1.090  -2.510  1.00  0.00     0.163 HD
BRANCH   4   7
ATOM      7  C   UNL     1       7.903  -2.047  -1.723  1.00  0.00     0.098 C 
ATOM      8  C   UNL     1       7.313  -2.680  -0.423  1.00  0.00     0.098 C 
ATOM      9  C   UNL     1       8.342  -3.687   0.183  1.00  0.00     0.025 C 
ATOM     10  C   UNL     1       9.253  -2.760  -2.065  1.00  0.00     0.025 C 
ATOM     11  C   UNL     1       9.693  -3.000   0.289  1.00  0.00    -0.027 C 
ATOM     12  C   UNL     1       8.587  -4.858  -0.803  1.00  0.00     0.009 C 
ATOM     13  C   UNL     1      10.192  -2.574  -0.885  1.00  0.00    -0.027 C 
ATOM     14  C   UNL     1       8.998  -4.285  -2.182  1.00  0.00     0.009 C 
BRANCH   8  15
ATOM     15  C   UNL     1       6.019  -3.430  -0.720  1.00  0.00     0.224 C 
ATOM     16  N   UNL     1       5.041  -3.441   0.234  1.00  0.00    -0.355 N 
ATOM     17  H   UNL     1       4.766  -4.306   0.616  1.00  0.00     0.163 HD
ATOM     18  O   UNL     1       5.847  -4.099  -1.739  1.00  0.00    -0.275 OA
BRANCH  16  19
ATOM     19  C   UNL     1       4.388  -2.231   0.709  1.00  0.00     0.120 C 
BRANCH  19  20
ATOM     20  C   UNL     1       3.444  -1.649  -0.361  1.00  0.00     0.060 C 
BRANCH  20  21
ATOM     21  C   UNL     1       2.211  -2.499  -0.598  1.00  0.00    -0.004 A 
ATOM     22  C   UNL     1       0.974  -2.189  -0.018  1.00  0.00     0.122 A 
ATOM     23  C   UNL     1      -0.122  -3.047  -0.147  1.00  0.00     0.047 A 
ATOM     24  C   UNL     1      -0.009  -4.213  -0.901  1.00  0.00     0.004 A 
ATOM     25  C   UNL     1       2.292  -3.659  -1.388  1.00  0.00     0.007 A 
ATOM     26  C   UNL     1       1.196  -4.514  -1.530  1.00  0.00     0.001 A 
BRANCH  22  27
ATOM     27  O   UNL     1       0.809  -1.055   0.732  1.00  0.00    -0.496 OA
ATOM     28  C   UNL     1       0.445   0.045  -0.108  1.00  0.00     0.278 C 
ENDBRANCH  22  27
ENDBRANCH  20  21
ENDBRANCH  19  20
ENDBRANCH  16  19
ENDBRANCH   8  15
ENDBRANCH   4   7
ENDBRANCH   2   3
ENDBRANCH   1   2
BRANCH   1  29
ATOM     29  C   UNL     1       7.224   2.887  -3.951  1.00  0.00     0.002 C 
BRANCH  29  30
ATOM     30  C   UNL     1       8.021   2.884  -5.257  1.00  0.00     0.002 C 
BRANCH  30  31
ATOM     31  C   UNL     1       7.174   2.827  -6.530  1.00  0.00     0.021 C 
BRANCH  31  32
ATOM     32  C   UNL     1       6.165   3.963  -6.691  1.00  0.00     0.116 C 
BRANCH  32  33
ATOM     33  N   UNL     1       6.797   5.270  -6.758  1.00  0.00    -0.352 N 
ATOM     34  C   UNL     1       6.584   6.312  -7.626  1.00  0.00     0.251 C 
ATOM     35  H   UNL     1       7.486   5.434  -6.074  1.00  0.00     0.163 HD
ATOM     36  O   UNL     1       7.330   7.285  -7.602  1.00  0.00    -0.269 OA
BRANCH  34  37
ATOM     37  C   UNL     1       5.479   6.265  -8.612  1.00  0.00     0.039 A 
ATOM     38  C   UNL     1       5.725   6.741  -9.903  1.00  0.00     0.014 A 
ATOM     39  C   UNL     1       4.207   5.794  -8.277  1.00  0.00     0.014 A 
ATOM     40  C   UNL     1       4.716   6.694 -10.868  1.00  0.00     0.010 A 
ATOM     41  C   UNL     1       3.220   5.683  -9.258  1.00  0.00     0.010 A 
ATOM     42  C   UNL     1       3.464   6.134 -10.563  1.00  0.00    -0.014 A 
BRANCH  42  43
ATOM     43  C   UNL     1       2.428   6.000 -11.620  1.00  0.00     0.031 A 
ATOM     44  C   UNL     1       1.143   6.776 -11.548  1.00  0.00     0.074 A 
ATOM     45  C   UNL     1       2.641   5.149 -12.643  1.00  0.00     0.049 A 
ATOM     46  N   UNL     1       0.153   6.817 -12.406  1.00  0.00    -0.248 NA
ATOM     47  C   UNL     1       0.929   7.597 -10.348  1.00  0.00     0.031 C 
ATOM     48  C   UNL     1       3.814   4.286 -12.791  1.00  0.00     0.029 A 
ATOM     49  N   UNL     1       1.883   4.874 -13.753  1.00  0.00    -0.354 N 
ATOM     50  C   UNL     1      -0.797   7.662 -11.850  1.00  0.00     0.074 A 
ATOM     51  C   UNL     1      -0.293   8.068 -10.555  1.00  0.00     0.031 C 
ATOM     52  C   UNL     1       3.717   3.607 -13.945  1.00  0.00     0.029 A 
ATOM     53  C   UNL     1       2.466   3.968 -14.605  1.00  0.00     0.049 A 
ATOM     54  H   UNL     1       1.005   5.286 -13.923  1.00  0.00     0.167 HD
ATOM     55  C   UNL     1      -1.972   8.081 -12.380  1.00  0.00     0.037 A 
ATOM     56  C   UNL     1       2.047   3.491 -15.792  1.00  0.00     0.037 A 
ATOM     57  C   UNL     1      -2.466   7.690 -13.676  1.00  0.00     0.049 A 
ATOM     58  C   UNL     1       0.753   3.994 -16.371  1.00  0.00     0.074 A 
ATOM     59  C   UNL     1      -3.614   8.109 -14.327  1.00  0.00     0.029 A 
ATOM     60  N   UNL     1      -1.840   6.783 -14.519  1.00  0.00    -0.354 N 
ATOM     61  N   UNL     1      -0.095   4.861 -15.874  1.00  0.00    -0.248 NA
ATOM     62  C   UNL     1       0.368   3.462 -17.685  1.00  0.00     0.031 C 
ATOM     63  C   UNL     1      -3.704   7.424 -15.544  1.00  0.00     0.029 A 
ATOM     64  C   UNL     1      -2.588   6.614 -15.674  1.00  0.00     0.049 A 
ATOM     65  H   UNL     1      -0.989   6.327 -14.325  1.00  0.00     0.167 HD
ATOM     66  C   UNL     1      -1.102   4.994 -16.820  1.00  0.00     0.074 A 
ATOM     67  C   UNL     1      -0.744   4.139 -17.933  1.00  0.00     0.031 C 
ATOM     68  C   UNL     1      -2.225   5.753 -16.770  1.00  0.00     0.037 A 
BRANCH  55  69
ATOM     69  C   UNL     1      -2.806   9.023 -11.560  1.00  0.00     0.064 A 
ATOM     70  C   UNL     1      -2.410  10.351 -11.337  1.00  0.00     0.173 A 
ATOM     71  C   UNL     1      -4.035   8.608 -11.024  1.00  0.00     0.173 A 
ATOM     72  F   UNL     1      -1.239  10.796 -11.819  1.00  0.00    -0.203 F 
ATOM     73  C   UNL     1      -3.198  11.219 -10.586  1.00  0.00     0.198 A 
ATOM     74  C   UNL     1      -4.834   9.487 -10.297  1.00  0.00     0.198 A 
ATOM     75  F   UNL     1      -4.465   7.351 -11.211  1.00  0.00    -0.203 F 
ATOM     76  F   UNL     1      -2.775  12.469 -10.347  1.00  0.00    -0.200 F 
ATOM     77  C   UNL     1      -4.412  10.789 -10.073  1.00  0.00     0.200 A 
ATOM     78  F   UNL     1      -6.013   9.074  -9.813  1.00  0.00    -0.200 F 
ATOM     79  F   UNL     1      -5.173  11.627  -9.355  1.00  0.00    -0.200 F 
ENDBRANCH  55  69
BRANCH  56  80
ATOM     80  C   UNL     1       2.885   2.517 -16.536  1.00  0.00     0.064 A 
ATOM     81  C   UNL     1       3.543   2.888 -17.717  1.00  0.00     0.173 A 
ATOM     82  C   UNL     1       3.043   1.198 -16.086  1.00  0.00     0.173 A 
ATOM     83  F   UNL     1       3.405   4.133 -18.197  1.00  0.00    -0.203 F 
ATOM     84  C   UNL     1       4.312   1.971 -18.431  1.00  0.00     0.198 A 
ATOM     85  C   UNL     1       3.835   0.290 -16.786  1.00  0.00     0.198 A 
ATOM     86  F   UNL     1       2.439   0.796 -14.959  1.00  0.00    -0.203 F 
ATOM     87  F   UNL     1       4.893   2.340 -19.581  1.00  0.00    -0.200 F 
ATOM     88  C   UNL     1       4.462   0.675 -17.962  1.00  0.00     0.200 A 
ATOM     89  F   UNL     1       3.989  -0.957 -16.323  1.00  0.00    -0.200 F 
ATOM     90  F   UNL     1       5.204  -0.205 -18.647  1.00  0.00    -0.200 F 
ENDBRANCH  56  80
BRANCH  68  91
ATOM     91  C   UNL     1      -3.134   5.701 -17.964  1.00  0.00     0.064 A 
ATOM     92  C   UNL     1      -3.893   4.558 -18.260  1.00  0.00     0.173 A 
ATOM     93  C   UNL     1      -3.250   6.806 -18.821  1.00  0.00     0.173 A 
ATOM     94  F   UNL     1      -3.805   3.469 -17.481  1.00  0.00    -0.203 F 
ATOM     95  C   UNL     1      -4.702   4.510 -19.392  1.00  0.00     0.198 A 
ATOM     96  C   UNL     1      -4.085   6.765 -19.934  1.00  0.00     0.198 A 
ATOM     97  F   UNL     1      -2.552   7.926 -18.579  1.00  0.00    -0.203 F 
ATOM     98  F   UNL     1      -5.369   3.385 -19.689  1.00  0.00    -0.200 F 
ATOM     99  C   UNL     1      -4.801   5.614 -20.225  1.00  0.00     0.200 A 
ATOM    100  F   UNL     1      -4.189   7.837 -20.732  1.00  0.00    -0.200 F 
ATOM    101  F   UNL     1      -5.578   5.564 -21.316  1.00  0.00    -0.200 F 
ENDBRANCH  68  91
ENDBRANCH  42  43
ENDBRANCH  34  37
ENDBRANCH  32  33
ENDBRANCH  31  32
ENDBRANCH  30  31
ENDBRANCH  29  30
ENDBRANCH   1  29
TORSDOF 18
