REMARK SMILES Cc1ccc(NC(=O)N2CCCC[C@@H]2C(=O)NCCCCCCNC(=O)c2ccc(-c3c4nc(c(-c5c(F)c(F)c(F)c(F)c5F)c5ccc([nH]5)c(-c5c(F)c(F)c(F)c(F)c5F)c5nc(c(-c6c(F)c(F)c(F)c(F)c6F)c6ccc3[nH]6)C=C5)C=C4)cc2)cc1
REMARK SMILES IDX 20 1 19 2 18 3 17 4 15 5 16 6 14 8 9 9 10 10 11 11 13 12
REMARK SMILES IDX 12 13 7 14 6 15 8 17 5 18 1 19 2 20 3 21 91 22 4 23 90 24
REMARK SMILES IDX 21 25 22 26 23 27 24 28 25 29 26 31 27 32 28 33 89 34 29 35
REMARK SMILES IDX 88 36 30 37 31 38 32 39 82 40 33 41 87 42 81 43 83 44 34 45
REMARK SMILES IDX 86 46 80 47 79 48 35 50 67 51 47 52 66 53 48 54 51 55 65 56
REMARK SMILES IDX 84 57 49 58 50 59 64 61 85 62 52 63 36 64 37 65 45 66 38 67
REMARK SMILES IDX 39 68 43 69 46 70 40 71 41 72 44 73 42 74 68 75 69 76 77 77
REMARK SMILES IDX 70 78 71 79 75 80 78 81 72 82 73 83 76 84 74 85 53 86 54 87
REMARK SMILES IDX 62 88 55 89 56 90 60 91 63 92 57 93 58 94 61 95 59 96
REMARK H PARENT 17 7 6 16 24 30 83 49 51 60
REMARK Flexibility Score: inf
ROOT
ATOM      1  C   UNL     1      -5.428  -1.425   5.081  1.00  0.00     0.002 C 
ENDROOT
BRANCH   1   2
ATOM      2  C   UNL     1      -5.083  -2.511   4.052  1.00  0.00     0.021 C 
BRANCH   2   3
ATOM      3  C   UNL     1      -4.626  -1.991   2.687  1.00  0.00     0.116 C 
BRANCH   3   4
ATOM      4  N   UNL     1      -3.327  -1.361   2.792  1.00  0.00    -0.354 N 
ATOM      5  C   UNL     1      -2.146  -1.685   2.193  1.00  0.00     0.242 C 
ATOM      6  O   UNL     1      -1.124  -1.188   2.677  1.00  0.00    -0.273 OA
ATOM      7  H   UNL     1      -3.291  -0.577   3.387  1.00  0.00     0.163 HD
BRANCH   5   8
ATOM      8  C   UNL     1      -2.055  -2.761   1.080  1.00  0.00     0.176 C 
ATOM      9  N   UNL     1      -3.085  -2.660   0.008  1.00  0.00    -0.313 N 
ATOM     10  C   UNL     1      -3.351  -3.846  -0.802  1.00  0.00     0.122 C 
ATOM     11  C   UNL     1      -3.402  -5.145  -0.017  1.00  0.00     0.022 C 
ATOM     12  C   UNL     1      -2.057  -4.127   1.800  1.00  0.00     0.035 C 
ATOM     13  C   UNL     1      -2.155  -5.298   0.837  1.00  0.00     0.004 C 
BRANCH   9  14
ATOM     14  C   UNL     1      -3.558  -1.476  -0.534  1.00  0.00     0.322 C 
ATOM     15  N   UNL     1      -2.851  -0.323  -0.413  1.00  0.00    -0.308 N 
ATOM     16  H   UNL     1      -3.394   0.478  -0.231  1.00  0.00     0.171 HD
ATOM     17  O   UNL     1      -4.678  -1.416  -1.048  1.00  0.00    -0.248 OA
BRANCH  15  18
ATOM     18  C   UNL     1      -1.470  -0.089  -0.504  1.00  0.00     0.042 A 
ATOM     19  C   UNL     1       2.771   0.490  -0.143  1.00  0.00     0.044 C 
ATOM     20  C   UNL     1       1.297   0.353  -0.384  1.00  0.00    -0.051 A 
ATOM     21  C   UNL     1       0.790  -0.786  -1.016  1.00  0.00     0.005 A 
ATOM     22  C   UNL     1       0.405   1.312   0.108  1.00  0.00     0.005 A 
ATOM     23  C   UNL     1      -0.588  -0.990  -1.100  1.00  0.00     0.026 A 
ATOM     24  C   UNL     1      -0.974   1.102   0.029  1.00  0.00     0.026 A 
ENDBRANCH  15  18
ENDBRANCH   9  14
ENDBRANCH   5   8
ENDBRANCH   3   4
ENDBRANCH   2   3
ENDBRANCH   1   2
BRANCH   1  25
ATOM     25  C   UNL     1      -6.467  -0.379   4.646  1.00  0.00     0.002 C 
BRANCH  25  26
ATOM     26  C   UNL     1      -7.737  -0.921   3.984  1.00  0.00     0.021 C 
BRANCH  26  27
ATOM     27  C   UNL     1      -8.588  -1.803   4.889  1.00  0.00     0.116 C 
BRANCH  27  28
ATOM     28  N   UNL     1      -9.774  -1.148   5.425  1.00  0.00    -0.352 N 
ATOM     29  C   UNL     1     -10.650  -1.605   6.396  1.00  0.00     0.251 C 
ATOM     30  H   UNL     1      -9.981  -0.263   5.046  1.00  0.00     0.163 HD
ATOM     31  O   UNL     1     -11.628  -0.950   6.717  1.00  0.00    -0.269 OA
BRANCH  29  32
ATOM     32  C   UNL     1     -10.309  -2.846   7.130  1.00  0.00     0.039 A 
ATOM     33  C   UNL     1     -10.257  -2.785   8.527  1.00  0.00     0.014 A 
ATOM     34  C   UNL     1      -9.835  -3.966   6.451  1.00  0.00     0.014 A 
ATOM     35  C   UNL     1      -9.510  -3.733   9.220  1.00  0.00     0.010 A 
ATOM     36  C   UNL     1      -9.021  -4.857   7.125  1.00  0.00     0.010 A 
ATOM     37  C   UNL     1      -8.801  -4.694   8.497  1.00  0.00    -0.014 A 
BRANCH  37  38
ATOM     38  C   UNL     1      -7.711  -5.467   9.082  1.00  0.00     0.031 A 
ATOM     39  C   UNL     1      -7.902  -6.880   9.461  1.00  0.00     0.074 A 
ATOM     40  C   UNL     1      -6.499  -4.888   9.231  1.00  0.00     0.049 A 
ATOM     41  N   UNL     1      -7.234  -7.483  10.388  1.00  0.00    -0.248 NA
ATOM     42  C   UNL     1      -8.908  -7.724   8.834  1.00  0.00     0.031 C 
ATOM     43  C   UNL     1      -5.240  -5.544   9.570  1.00  0.00     0.029 A 
ATOM     44  N   UNL     1      -6.208  -3.514   9.299  1.00  0.00    -0.354 N 
ATOM     45  C   UNL     1      -7.511  -8.829  10.298  1.00  0.00     0.074 A 
ATOM     46  C   UNL     1      -8.616  -8.914   9.369  1.00  0.00     0.031 C 
ATOM     47  C   UNL     1      -4.407  -4.632  10.095  1.00  0.00     0.029 A 
ATOM     48  C   UNL     1      -5.156  -3.395  10.234  1.00  0.00     0.049 A 
ATOM     49  H   UNL     1      -6.646  -2.787   8.800  1.00  0.00     0.167 HD
ATOM     50  C   UNL     1      -6.677  -9.726  10.906  1.00  0.00     0.037 A 
ATOM     51  C   UNL     1      -5.308  -2.700  11.398  1.00  0.00     0.037 A 
ATOM     52  C   UNL     1      -5.628  -9.043  11.663  1.00  0.00     0.049 A 
ATOM     53  C   UNL     1      -5.069  -3.519  12.642  1.00  0.00     0.074 A 
ATOM     54  C   UNL     1      -4.306  -8.750  11.365  1.00  0.00     0.029 A 
ATOM     55  N   UNL     1      -5.954  -8.289  12.786  1.00  0.00    -0.354 N 
ATOM     56  N   UNL     1      -5.098  -4.821  12.668  1.00  0.00    -0.248 NA
ATOM     57  C   UNL     1      -4.835  -2.936  13.961  1.00  0.00     0.031 C 
ATOM     58  C   UNL     1      -3.850  -7.779  12.286  1.00  0.00     0.029 A 
ATOM     59  C   UNL     1      -4.888  -7.490  13.154  1.00  0.00     0.049 A 
ATOM     60  H   UNL     1      -6.821  -8.319  13.251  1.00  0.00     0.167 HD
ATOM     61  C   UNL     1      -4.933  -5.253  13.958  1.00  0.00     0.074 A 
ATOM     62  C   UNL     1      -4.749  -4.037  14.727  1.00  0.00     0.031 C 
ATOM     63  C   UNL     1      -4.980  -6.577  14.282  1.00  0.00     0.037 A 
BRANCH  50  64
ATOM     64  C   UNL     1      -6.605 -11.199  10.536  1.00  0.00     0.064 A 
ATOM     65  C   UNL     1      -5.392 -11.917  10.650  1.00  0.00     0.173 A 
ATOM     66  C   UNL     1      -7.667 -11.941   9.990  1.00  0.00     0.173 A 
ATOM     67  F   UNL     1      -4.332 -11.409  11.289  1.00  0.00    -0.203 F 
ATOM     68  C   UNL     1      -5.218 -13.196  10.112  1.00  0.00     0.198 A 
ATOM     69  C   UNL     1      -7.482 -13.199   9.402  1.00  0.00     0.198 A 
ATOM     70  F   UNL     1      -8.930 -11.507  10.065  1.00  0.00    -0.203 F 
ATOM     71  F   UNL     1      -4.034 -13.812  10.231  1.00  0.00    -0.200 F 
ATOM     72  C   UNL     1      -6.251 -13.818   9.444  1.00  0.00     0.200 A 
ATOM     73  F   UNL     1      -8.513 -13.806   8.795  1.00  0.00    -0.200 F 
ATOM     74  F   UNL     1      -6.071 -15.019   8.879  1.00  0.00    -0.200 F 
ENDBRANCH  50  64
BRANCH  51  75
ATOM     75  C   UNL     1      -6.286  -1.586  11.299  1.00  0.00     0.064 A 
ATOM     76  C   UNL     1      -6.007  -0.522  10.421  1.00  0.00     0.173 A 
ATOM     77  C   UNL     1      -7.602  -1.722  11.755  1.00  0.00     0.173 A 
ATOM     78  F   UNL     1      -4.760  -0.350   9.952  1.00  0.00    -0.203 F 
ATOM     79  C   UNL     1      -7.020   0.299   9.932  1.00  0.00     0.198 A 
ATOM     80  C   UNL     1      -8.613  -0.888  11.274  1.00  0.00     0.198 A 
ATOM     81  F   UNL     1      -7.935  -2.727  12.577  1.00  0.00    -0.203 F 
ATOM     82  F   UNL     1      -6.738   1.234   9.014  1.00  0.00    -0.200 F 
ATOM     83  C   UNL     1      -8.327   0.098  10.340  1.00  0.00     0.200 A 
ATOM     84  F   UNL     1      -9.883  -1.099  11.646  1.00  0.00    -0.200 F 
ATOM     85  F   UNL     1      -9.316   0.828   9.806  1.00  0.00    -0.200 F 
ENDBRANCH  51  75
BRANCH  63  86
ATOM     86  C   UNL     1      -5.011  -7.136  15.680  1.00  0.00     0.064 A 
ATOM     87  C   UNL     1      -5.622  -6.487  16.765  1.00  0.00     0.173 A 
ATOM     88  C   UNL     1      -4.534  -8.443  15.938  1.00  0.00     0.173 A 
ATOM     89  F   UNL     1      -6.213  -5.293  16.618  1.00  0.00    -0.203 F 
ATOM     90  C   UNL     1      -5.692  -7.074  18.032  1.00  0.00     0.198 A 
ATOM     91  C   UNL     1      -4.653  -9.047  17.188  1.00  0.00     0.198 A 
ATOM     92  F   UNL     1      -3.957  -9.178  14.975  1.00  0.00    -0.203 F 
ATOM     93  F   UNL     1      -6.248  -6.397  19.047  1.00  0.00    -0.200 F 
ATOM     94  C   UNL     1      -5.218  -8.356  18.240  1.00  0.00     0.200 A 
ATOM     95  F   UNL     1      -4.234 -10.309  17.362  1.00  0.00    -0.200 F 
ATOM     96  F   UNL     1      -5.325  -8.931  19.446  1.00  0.00    -0.200 F 
ENDBRANCH  63  86
ENDBRANCH  37  38
ENDBRANCH  29  32
ENDBRANCH  27  28
ENDBRANCH  26  27
ENDBRANCH  25  26
ENDBRANCH   1  25
TORSDOF 15
