REMARK SMILES C[C@H](NC(=O)c1ccc(C(C)(C)C)cc1)C(=O)N[C@@H](C(=O)NCCCCCCNC(=O)c1ccc(-c2c3nc(c(-c4c(F)c(F)c(F)c(F)c4F)c4ccc([nH]4)c(-c4c(F)c(F)c(F)c(F)c4F)c4nc(c(-c5c(F)c(F)c(F)c(F)c5F)c5ccc2[nH]5)C=C4)C=C3)cc1)[C@H](C)O
REMARK SMILES IDX 24 1 23 2 22 3 20 4 21 5 19 7 18 8 16 9 17 10 2 12 1 13 3 14
REMARK SMILES IDX 4 15 5 17 6 18 7 19 15 20 8 21 14 22 9 23 10 24 11 25 12 26
REMARK SMILES IDX 13 27 95 28 96 29 97 30 25 32 26 33 27 34 28 35 29 36 30 37
REMARK SMILES IDX 31 39 32 40 33 41 94 42 34 43 93 44 35 45 36 46 37 47 87 48
REMARK SMILES IDX 38 49 92 50 86 51 88 52 39 53 91 54 85 55 84 56 40 58 72 59
REMARK SMILES IDX 52 60 71 61 53 62 56 63 70 64 89 65 54 66 55 67 69 69 90 70
REMARK SMILES IDX 57 71 41 72 42 73 50 74 43 75 44 76 48 77 51 78 45 79 46 80
REMARK SMILES IDX 49 81 47 82 73 83 74 84 82 85 75 86 76 87 80 88 83 89 77 90
REMARK SMILES IDX 78 91 81 92 79 93 58 94 59 95 67 96 60 97 61 98 65 99 68 100
REMARK SMILES IDX 62 101 63 102 66 103 64 104
REMARK H PARENT 22 6 18 11 3 16 97 31 29 38 88 57 56 68
REMARK Flexibility Score: inf
ROOT
ATOM      1  C   UNL     1       1.865  -2.096  -5.647  1.00  0.00     0.021 C 
ENDROOT
BRANCH   1   2
ATOM      2  C   UNL     1       1.600  -3.454  -4.955  1.00  0.00     0.116 C 
BRANCH   2   3
ATOM      3  N   UNL     1       1.899  -3.368  -3.526  1.00  0.00    -0.354 N 
ATOM      4  C   UNL     1       1.219  -3.138  -2.364  1.00  0.00     0.245 C 
ATOM      5  O   UNL     1       1.990  -2.836  -1.435  1.00  0.00    -0.273 OA
ATOM      6  H   UNL     1       2.857  -3.519  -3.353  1.00  0.00     0.163 HD
BRANCH   4   7
ATOM      7  C   UNL     1      -0.527  -3.300  -2.048  1.00  0.00     0.200 C 
BRANCH   7   8
ATOM      8  N   UNL     1      -2.092  -1.964  -2.397  1.00  0.00    -0.340 N 
ATOM      9  C   UNL     1      -3.178  -1.431  -3.165  1.00  0.00     0.243 C 
ATOM     10  O   UNL     1      -3.707  -0.436  -2.635  1.00  0.00    -0.273 OA
ATOM     11  H   UNL     1      -2.075  -1.385  -1.601  1.00  0.00     0.164 HD
BRANCH   9  12
ATOM     12  C   UNL     1      -3.891  -2.010  -4.471  1.00  0.00     0.168 C 
ATOM     13  C   UNL     1      -5.166  -2.776  -4.115  1.00  0.00     0.041 C 
BRANCH  12  14
ATOM     14  N   UNL     1      -3.159  -2.764  -5.481  1.00  0.00    -0.341 N 
ATOM     15  C   UNL     1      -2.271  -3.708  -5.099  1.00  0.00     0.251 C 
ATOM     16  H   UNL     1      -3.312  -2.587  -6.438  1.00  0.00     0.164 HD
ATOM     17  O   UNL     1      -1.835  -4.622  -5.768  1.00  0.00    -0.269 OA
BRANCH  15  18
ATOM     18  C   UNL     1      -1.758  -3.366  -3.795  1.00  0.00     0.039 A 
ATOM     19  C   UNL     1      -0.622  -1.956  -3.736  1.00  0.00     0.014 A 
ATOM     20  C   UNL     1      -2.588  -3.902  -2.275  1.00  0.00     0.014 A 
ATOM     21  C   UNL     1      -0.227  -1.159  -2.163  1.00  0.00     0.005 A 
ATOM     22  C   UNL     1      -2.244  -3.023  -0.722  1.00  0.00     0.005 A 
ATOM     23  C   UNL     1      -0.985  -1.726  -0.629  1.00  0.00    -0.043 A 
BRANCH  23  24
ATOM     24  C   UNL     1      -0.744  -0.929   0.667  1.00  0.00    -0.013 C 
ATOM     25  C   UNL     1       0.517  -1.437   1.383  1.00  0.00     0.016 C 
ATOM     26  C   UNL     1      -0.533   0.568   0.367  1.00  0.00     0.016 C 
ATOM     27  C   UNL     1      -1.925  -1.046   1.646  1.00  0.00     0.016 C 
ENDBRANCH  23  24
ENDBRANCH  15  18
ENDBRANCH  12  14
ENDBRANCH   9  12
ENDBRANCH   7   8
BRANCH   7  28
ATOM     28  C   UNL     1      -0.258  -4.479  -0.636  1.00  0.00     0.143 C 
ATOM     29  C   UNL     1      -1.285  -5.166   0.297  1.00  0.00     0.041 C 
BRANCH  28  30
ATOM     30  O   UNL     1       0.780  -4.121   0.291  1.00  0.00    -0.391 OA
ATOM     31  H   UNL     1       0.439  -3.465   0.920  1.00  0.00     0.211 HD
ENDBRANCH  28  30
ENDBRANCH   7  28
ENDBRANCH   4   7
ENDBRANCH   2   3
ENDBRANCH   1   2
BRANCH   1  32
ATOM     32  C   UNL     1       3.165  -1.984  -6.447  1.00  0.00     0.002 C 
BRANCH  32  33
ATOM     33  C   UNL     1       3.215  -2.813  -7.734  1.00  0.00     0.002 C 
BRANCH  33  34
ATOM     34  C   UNL     1       2.085  -2.565  -8.742  1.00  0.00     0.021 C 
BRANCH  34  35
ATOM     35  C   UNL     1       1.939  -1.126  -9.237  1.00  0.00     0.116 C 
BRANCH  35  36
ATOM     36  N   UNL     1       3.125  -0.658  -9.937  1.00  0.00    -0.352 N 
ATOM     37  C   UNL     1       3.295  -0.312 -11.254  1.00  0.00     0.251 C 
ATOM     38  H   UNL     1       3.933  -0.578  -9.379  1.00  0.00     0.163 HD
ATOM     39  O   UNL     1       4.424  -0.134 -11.704  1.00  0.00    -0.269 OA
BRANCH  37  40
ATOM     40  C   UNL     1       2.127  -0.148 -12.145  1.00  0.00     0.039 A 
ATOM     41  C   UNL     1       2.164  -0.712 -13.426  1.00  0.00     0.014 A 
ATOM     42  C   UNL     1       1.027   0.616 -11.747  1.00  0.00     0.014 A 
ATOM     43  C   UNL     1       1.076  -0.553 -14.290  1.00  0.00     0.010 A 
ATOM     44  C   UNL     1      -0.075   0.733 -12.591  1.00  0.00     0.010 A 
ATOM     45  C   UNL     1      -0.059   0.156 -13.871  1.00  0.00    -0.014 A 
BRANCH  45  46
ATOM     46  C   UNL     1      -1.232   0.356 -14.758  1.00  0.00     0.031 A 
ATOM     47  C   UNL     1      -1.565   1.739 -15.241  1.00  0.00     0.074 A 
ATOM     48  C   UNL     1      -2.046  -0.677 -15.046  1.00  0.00     0.049 A 
ATOM     49  N   UNL     1      -2.639   2.171 -15.851  1.00  0.00    -0.248 NA
ATOM     50  C   UNL     1      -0.564   2.783 -14.973  1.00  0.00     0.031 C 
ATOM     51  C   UNL     1      -1.837  -2.062 -14.625  1.00  0.00     0.029 A 
ATOM     52  N   UNL     1      -3.232  -0.713 -15.737  1.00  0.00    -0.354 N 
ATOM     53  C   UNL     1      -2.460   3.539 -16.005  1.00  0.00     0.074 A 
ATOM     54  C   UNL     1      -1.186   3.871 -15.404  1.00  0.00     0.031 C 
ATOM     55  C   UNL     1      -2.862  -2.812 -15.063  1.00  0.00     0.029 A 
ATOM     56  C   UNL     1      -3.818  -1.955 -15.758  1.00  0.00     0.049 A 
ATOM     57  H   UNL     1      -3.625   0.076 -16.175  1.00  0.00     0.167 HD
ATOM     58  C   UNL     1      -3.282   4.435 -16.602  1.00  0.00     0.037 A 
ATOM     59  C   UNL     1      -5.004  -2.349 -16.260  1.00  0.00     0.037 A 
ATOM     60  C   UNL     1      -4.527   4.092 -17.235  1.00  0.00     0.049 A 
ATOM     61  C   UNL     1      -5.895  -1.337 -16.930  1.00  0.00     0.074 A 
ATOM     62  C   UNL     1      -5.410   4.917 -17.909  1.00  0.00     0.029 A 
ATOM     63  N   UNL     1      -5.059   2.812 -17.281  1.00  0.00    -0.354 N 
ATOM     64  N   UNL     1      -5.706  -0.051 -17.092  1.00  0.00    -0.248 NA
ATOM     65  C   UNL     1      -7.163  -1.831 -17.486  1.00  0.00     0.031 C 
ATOM     66  C   UNL     1      -6.491   4.141 -18.339  1.00  0.00     0.029 A 
ATOM     67  C   UNL     1      -6.262   2.826 -17.966  1.00  0.00     0.049 A 
ATOM     68  H   UNL     1      -4.644   2.012 -16.884  1.00  0.00     0.167 HD
ATOM     69  C   UNL     1      -6.808   0.412 -17.798  1.00  0.00     0.074 A 
ATOM     70  C   UNL     1      -7.665  -0.732 -18.032  1.00  0.00     0.031 C 
ATOM     71  C   UNL     1      -7.083   1.670 -18.216  1.00  0.00     0.037 A 
BRANCH  58  72
ATOM     72  C   UNL     1      -2.862   5.875 -16.593  1.00  0.00     0.064 A 
ATOM     73  C   UNL     1      -1.801   6.337 -17.386  1.00  0.00     0.173 A 
ATOM     74  C   UNL     1      -3.551   6.811 -15.807  1.00  0.00     0.173 A 
ATOM     75  F   UNL     1      -1.104   5.479 -18.146  1.00  0.00    -0.203 F 
ATOM     76  C   UNL     1      -1.427   7.678 -17.369  1.00  0.00     0.198 A 
ATOM     77  C   UNL     1      -3.191   8.156 -15.814  1.00  0.00     0.198 A 
ATOM     78  F   UNL     1      -4.577   6.421 -15.035  1.00  0.00    -0.203 F 
ATOM     79  F   UNL     1      -0.380   8.088 -18.099  1.00  0.00    -0.200 F 
ATOM     80  C   UNL     1      -2.125   8.587 -16.589  1.00  0.00     0.200 A 
ATOM     81  F   UNL     1      -3.875   9.035 -15.068  1.00  0.00    -0.200 F 
ATOM     82  F   UNL     1      -1.766   9.878 -16.578  1.00  0.00    -0.200 F 
ENDBRANCH  58  72
BRANCH  59  83
ATOM     83  C   UNL     1      -5.412  -3.774 -16.161  1.00  0.00     0.064 A 
ATOM     84  C   UNL     1      -5.433  -4.593 -17.299  1.00  0.00     0.173 A 
ATOM     85  C   UNL     1      -5.781  -4.347 -14.936  1.00  0.00     0.173 A 
ATOM     86  F   UNL     1      -5.109  -4.082 -18.496  1.00  0.00    -0.203 F 
ATOM     87  C   UNL     1      -5.821  -5.928 -17.217  1.00  0.00     0.198 A 
ATOM     88  C   UNL     1      -6.146  -5.689 -14.852  1.00  0.00     0.198 A 
ATOM     89  F   UNL     1      -5.774  -3.606 -13.818  1.00  0.00    -0.203 F 
ATOM     90  F   UNL     1      -5.868  -6.679 -18.326  1.00  0.00    -0.200 F 
ATOM     91  C   UNL     1      -6.172  -6.477 -15.993  1.00  0.00     0.200 A 
ATOM     92  F   UNL     1      -6.474  -6.219 -13.665  1.00  0.00    -0.200 F 
ATOM     93  F   UNL     1      -6.541  -7.763 -15.914  1.00  0.00    -0.200 F 
ENDBRANCH  59  83
BRANCH  71  94
ATOM     94  C   UNL     1      -8.329   1.876 -19.022  1.00  0.00     0.064 A 
ATOM     95  C   UNL     1      -9.595   1.911 -18.422  1.00  0.00     0.173 A 
ATOM     96  C   UNL     1      -8.243   2.121 -20.401  1.00  0.00     0.173 A 
ATOM     97  F   UNL     1      -9.727   1.669 -17.110  1.00  0.00    -0.203 F 
ATOM     98  C   UNL     1     -10.734   2.177 -19.178  1.00  0.00     0.198 A 
ATOM     99  C   UNL     1      -9.381   2.408 -21.149  1.00  0.00     0.198 A 
ATOM    100  F   UNL     1      -7.051   2.103 -21.017  1.00  0.00    -0.203 F 
ATOM    101  F   UNL     1     -11.939   2.183 -18.591  1.00  0.00    -0.200 F 
ATOM    102  C   UNL     1     -10.625   2.434 -20.537  1.00  0.00     0.200 A 
ATOM    103  F   UNL     1      -9.273   2.666 -22.459  1.00  0.00    -0.200 F 
ATOM    104  F   UNL     1     -11.721   2.705 -21.259  1.00  0.00    -0.200 F 
ENDBRANCH  71  94
ENDBRANCH  45  46
ENDBRANCH  37  40
ENDBRANCH  35  36
ENDBRANCH  34  35
ENDBRANCH  33  34
ENDBRANCH  32  33
ENDBRANCH   1  32
TORSDOF 20
