REMARK SMILES O=C(NCCCCCCNC(=O)c1cc(-c2cncnc2)cc(S(=O)(=O)N2CCCC2)c1)c1ccc(-c2c3nc(c(-c4c(F)c(F)c(F)c(F)c4F)c4ccc([nH]4)c(-c4c(F)c(F)c(F)c(F)c4F)c4nc(c(-c5c(F)c(F)c(F)c(F)c5F)c5ccc2[nH]5)C=C4)C=C3)cc1
REMARK SMILES IDX 6 1 5 2 4 3 3 4 1 5 2 6 33 8 34 9 95 10 35 11 94 12 36 13
REMARK SMILES IDX 37 14 38 15 88 16 39 17 93 18 87 19 89 20 40 21 92 22 86 23
REMARK SMILES IDX 85 24 41 26 73 27 53 28 72 29 54 30 57 31 71 32 90 33 55 34
REMARK SMILES IDX 56 35 70 37 91 38 58 39 42 40 43 41 51 42 44 43 45 44 49 45
REMARK SMILES IDX 52 46 46 47 47 48 50 49 48 50 74 51 75 52 83 53 76 54 77 55
REMARK SMILES IDX 81 56 84 57 78 58 79 59 82 60 80 61 59 62 60 63 68 64 61 65
REMARK SMILES IDX 62 66 66 67 69 68 63 69 64 70 67 71 65 72 7 73 8 74 9 75
REMARK SMILES IDX 10 76 11 77 12 79 13 80 14 81 32 82 15 83 23 84 22 85 16 86
REMARK SMILES IDX 17 87 21 88 18 89 20 90 19 91 24 92 25 93 26 94 27 95 28 96
REMARK SMILES IDX 31 97 29 98 30 99
REMARK H PARENT 3 7 89 25 57 36 10 78
REMARK Flexibility Score: inf
ROOT
ATOM      1  C   UNL     1       4.079  -2.653  -2.988  1.00  0.00     0.002 C 
ENDROOT
BRANCH   1   2
ATOM      2  C   UNL     1       4.590  -2.267  -1.601  1.00  0.00     0.021 C 
BRANCH   2   3
ATOM      3  C   UNL     1       4.322  -0.832  -1.165  1.00  0.00     0.116 C 
BRANCH   3   4
ATOM      4  N   UNL     1       2.911  -0.508  -1.058  1.00  0.00    -0.352 N 
ATOM      5  O   UNL     1       1.016   0.246  -0.095  1.00  0.00    -0.269 OA
ATOM      6  C   UNL     1       2.237   0.135  -0.046  1.00  0.00     0.251 C 
ATOM      7  H   UNL     1       2.356  -0.789  -1.821  1.00  0.00     0.163 HD
BRANCH   6   8
ATOM      8  C   UNL     1       2.975   0.658   1.127  1.00  0.00     0.039 A 
ATOM      9  C   UNL     1       4.173   1.360   0.976  1.00  0.00     0.014 A 
ATOM     10  C   UNL     1       2.451   0.441   2.405  1.00  0.00     0.014 A 
ATOM     11  C   UNL     1       4.919   1.706   2.100  1.00  0.00     0.010 A 
ATOM     12  C   UNL     1       3.161   0.865   3.533  1.00  0.00     0.010 A 
ATOM     13  C   UNL     1       4.421   1.465   3.391  1.00  0.00    -0.014 A 
BRANCH  13  14
ATOM     14  C   UNL     1       5.220   1.889   4.570  1.00  0.00     0.031 A 
ATOM     15  C   UNL     1       5.788   0.880   5.529  1.00  0.00     0.074 A 
ATOM     16  C   UNL     1       5.464   3.201   4.750  1.00  0.00     0.049 A 
ATOM     17  N   UNL     1       6.553   1.075   6.576  1.00  0.00    -0.248 NA
ATOM     18  C   UNL     1       5.451  -0.531   5.292  1.00  0.00     0.031 C 
ATOM     19  C   UNL     1       4.952   4.275   3.897  1.00  0.00     0.029 A 
ATOM     20  N   UNL     1       6.221   3.854   5.689  1.00  0.00    -0.354 N 
ATOM     21  C   UNL     1       6.768  -0.179   7.133  1.00  0.00     0.074 A 
ATOM     22  C   UNL     1       6.035  -1.129   6.322  1.00  0.00     0.031 C 
ATOM     23  C   UNL     1       5.455   5.446   4.315  1.00  0.00     0.029 A 
ATOM     24  C   UNL     1       6.279   5.212   5.496  1.00  0.00     0.049 A 
ATOM     25  H   UNL     1       6.678   3.394   6.430  1.00  0.00     0.167 HD
ATOM     26  C   UNL     1       7.514  -0.507   8.216  1.00  0.00     0.037 A 
ATOM     27  C   UNL     1       6.922   6.166   6.194  1.00  0.00     0.037 A 
ATOM     28  C   UNL     1       8.262   0.438   9.005  1.00  0.00     0.049 A 
ATOM     29  C   UNL     1       7.737   5.773   7.392  1.00  0.00     0.074 A 
ATOM     30  C   UNL     1       9.091   0.195  10.088  1.00  0.00     0.029 A 
ATOM     31  N   UNL     1       8.270   1.810   8.799  1.00  0.00    -0.354 N 
ATOM     32  N   UNL     1       7.969   4.579   7.879  1.00  0.00    -0.248 NA
ATOM     33  C   UNL     1       8.377   6.864   8.140  1.00  0.00     0.031 C 
ATOM     34  C   UNL     1       9.564   1.424  10.563  1.00  0.00     0.029 A 
ATOM     35  C   UNL     1       9.068   2.428   9.749  1.00  0.00     0.049 A 
ATOM     36  H   UNL     1       7.780   2.276   8.083  1.00  0.00     0.167 HD
ATOM     37  C   UNL     1       8.794   4.770   8.977  1.00  0.00     0.074 A 
ATOM     38  C   UNL     1       9.038   6.195   9.073  1.00  0.00     0.031 C 
ATOM     39  C   UNL     1       9.301   3.847   9.831  1.00  0.00     0.037 A 
BRANCH  26  40
ATOM     40  C   UNL     1       7.547  -1.951   8.628  1.00  0.00     0.064 A 
ATOM     41  C   UNL     1       8.243  -2.916   7.885  1.00  0.00     0.173 A 
ATOM     42  C   UNL     1       6.909  -2.366   9.807  1.00  0.00     0.173 A 
ATOM     43  F   UNL     1       8.860  -2.574   6.744  1.00  0.00    -0.203 F 
ATOM     44  C   UNL     1       8.278  -4.247   8.295  1.00  0.00     0.198 A 
ATOM     45  C   UNL     1       6.967  -3.692  10.227  1.00  0.00     0.198 A 
ATOM     46  F   UNL     1       6.234  -1.482  10.557  1.00  0.00    -0.203 F 
ATOM     47  F   UNL     1       8.913  -5.160   7.546  1.00  0.00    -0.200 F 
ATOM     48  C   UNL     1       7.646  -4.633   9.467  1.00  0.00     0.200 A 
ATOM     49  F   UNL     1       6.364  -4.061  11.365  1.00  0.00    -0.200 F 
ATOM     50  F   UNL     1       7.685  -5.913   9.861  1.00  0.00    -0.200 F 
ENDBRANCH  26  40
BRANCH  27  51
ATOM     51  C   UNL     1       6.834   7.583   5.758  1.00  0.00     0.064 A 
ATOM     52  C   UNL     1       7.946   8.236   5.210  1.00  0.00     0.173 A 
ATOM     53  C   UNL     1       5.636   8.304   5.861  1.00  0.00     0.173 A 
ATOM     54  F   UNL     1       9.118   7.591   5.110  1.00  0.00    -0.203 F 
ATOM     55  C   UNL     1       7.866   9.562   4.791  1.00  0.00     0.198 A 
ATOM     56  C   UNL     1       5.550   9.621   5.416  1.00  0.00     0.198 A 
ATOM     57  F   UNL     1       4.542   7.721   6.373  1.00  0.00    -0.203 F 
ATOM     58  F   UNL     1       8.953  10.174   4.303  1.00  0.00    -0.200 F 
ATOM     59  C   UNL     1       6.666  10.251   4.887  1.00  0.00     0.200 A 
ATOM     60  F   UNL     1       4.384  10.278   5.495  1.00  0.00    -0.200 F 
ATOM     61  F   UNL     1       6.587  11.523   4.474  1.00  0.00    -0.200 F 
ENDBRANCH  27  51
BRANCH  39  62
ATOM     62  C   UNL     1      10.192   4.353  10.926  1.00  0.00     0.064 A 
ATOM     63  C   UNL     1       9.677   5.058  12.024  1.00  0.00     0.173 A 
ATOM     64  C   UNL     1      11.574   4.118  10.884  1.00  0.00     0.173 A 
ATOM     65  F   UNL     1       8.365   5.324  12.100  1.00  0.00    -0.203 F 
ATOM     66  C   UNL     1      10.519   5.533  13.026  1.00  0.00     0.198 A 
ATOM     67  C   UNL     1      12.409   4.571  11.901  1.00  0.00     0.198 A 
ATOM     68  F   UNL     1      12.114   3.445   9.856  1.00  0.00    -0.203 F 
ATOM     69  F   UNL     1      10.012   6.249  14.040  1.00  0.00    -0.200 F 
ATOM     70  C   UNL     1      11.882   5.285  12.967  1.00  0.00     0.200 A 
ATOM     71  F   UNL     1      13.725   4.322  11.847  1.00  0.00    -0.200 F 
ATOM     72  F   UNL     1      12.691   5.744  13.932  1.00  0.00    -0.200 F 
ENDBRANCH  39  62
ENDBRANCH  13  14
ENDBRANCH   6   8
ENDBRANCH   3   4
ENDBRANCH   2   3
ENDBRANCH   1   2
BRANCH   1  73
ATOM     73  C   UNL     1       4.484  -1.731  -4.142  1.00  0.00     0.002 C 
BRANCH  73  74
ATOM     74  C   UNL     1       5.977  -1.406  -4.269  1.00  0.00     0.021 C 
BRANCH  74  75
ATOM     75  C   UNL     1       6.914  -2.606  -4.379  1.00  0.00     0.116 C 
BRANCH  75  76
ATOM     76  N   UNL     1       6.698  -3.369  -5.592  1.00  0.00    -0.352 N 
ATOM     77  C   UNL     1       7.601  -3.953  -6.441  1.00  0.00     0.251 C 
ATOM     78  H   UNL     1       5.754  -3.487  -5.845  1.00  0.00     0.163 HD
ATOM     79  O   UNL     1       7.209  -4.425  -7.505  1.00  0.00    -0.269 OA
BRANCH  77  80
ATOM     80  C   UNL     1       9.043  -4.042  -6.105  1.00  0.00     0.041 A 
ATOM     81  C   UNL     1       9.977  -3.888  -7.137  1.00  0.00     0.022 A 
ATOM     82  C   UNL     1       9.476  -4.399  -4.829  1.00  0.00     0.035 A 
ATOM     83  C   UNL     1      11.352  -4.067  -6.907  1.00  0.00    -0.013 A 
ATOM     84  C   UNL     1      10.834  -4.579  -4.578  1.00  0.00     0.084 A 
ATOM     85  C   UNL     1      11.768  -4.417  -5.611  1.00  0.00     0.030 A 
BRANCH  83  86
ATOM     86  C   UNL     1      12.308  -3.921  -8.006  1.00  0.00     0.018 A 
ATOM     87  C   UNL     1      13.177  -4.928  -8.393  1.00  0.00     0.123 A 
ATOM     88  C   UNL     1      12.402  -2.774  -8.778  1.00  0.00     0.123 A 
ATOM     89  N   UNL     1      14.041  -4.835  -9.428  1.00  0.00    -0.244 NA
ATOM     90  N   UNL     1      13.243  -2.620  -9.823  1.00  0.00    -0.244 NA
ATOM     91  C   UNL     1      14.024  -3.674 -10.097  1.00  0.00     0.221 A 
ENDBRANCH  83  86
BRANCH  84  92
ATOM     92  S   UNL     1      11.445  -5.063  -2.973  1.00  0.00     0.243 S 
ATOM     93  O   UNL     1      12.325  -6.191  -3.209  1.00  0.00    -0.207 OA
ATOM     94  O   UNL     1      11.909  -3.849  -2.343  1.00  0.00    -0.207 OA
BRANCH  92  95
ATOM     95  N   UNL     1      10.135  -5.631  -2.096  1.00  0.00    -0.198 NA
ATOM     96  C   UNL     1       9.478  -6.902  -2.425  1.00  0.00     0.102 C 
ATOM     97  C   UNL     1       9.213  -4.711  -1.416  1.00  0.00     0.102 C 
ATOM     98  C   UNL     1       7.991  -6.591  -2.329  1.00  0.00     0.018 C 
ATOM     99  C   UNL     1       7.909  -5.492  -1.282  1.00  0.00     0.018 C 
ENDBRANCH  92  95
ENDBRANCH  84  92
ENDBRANCH  77  80
ENDBRANCH  75  76
ENDBRANCH  74  75
ENDBRANCH  73  74
ENDBRANCH   1  73
TORSDOF 16
