REMARK SMILES C=CCN(CC(=O)NCCCCCCNC(=O)c1ccc(-c2c3nc(c(-c4c(F)c(F)c(F)c(F)c4F)c4ccc([nH]4)c(-c4c(F)c(F)c(F)c(F)c4F)c4nc(c(-c5c(F)c(F)c(F)c(F)c5F)c5ccc2[nH]5)C=C4)C=C3)cc1)C(=O)c1cn(C2C[NH2+]C2)nn1
REMARK SMILES IDX 10 1 9 2 8 3 6 4 7 5 5 7 4 8 3 9 2 10 1 11 81 12 82 13 83 14
REMARK SMILES IDX 84 15 91 16 85 17 90 18 86 19 87 20 89 21 88 22 11 25 12 26
REMARK SMILES IDX 13 27 14 28 15 29 16 30 17 32 18 33 19 34 80 35 20 36 79 37
REMARK SMILES IDX 21 38 22 39 23 40 73 41 24 42 78 43 72 44 74 45 25 46 77 47
REMARK SMILES IDX 71 48 70 49 26 51 58 52 38 53 57 54 39 55 42 56 56 57 75 58
REMARK SMILES IDX 40 59 41 60 55 62 76 63 43 64 27 65 28 66 36 67 29 68 30 69
REMARK SMILES IDX 34 70 37 71 31 72 32 73 35 74 33 75 59 76 60 77 68 78 61 79
REMARK SMILES IDX 62 80 66 81 69 82 63 83 64 84 67 85 65 86 44 87 45 88 53 89
REMARK SMILES IDX 46 90 47 91 51 92 54 93 48 94 49 95 52 96 50 97
REMARK H PARENT 8 6 88 23 88 24 15 31 74 50 42 61
REMARK Flexibility Score: inf
ROOT
ATOM      1  C   UNL     1      -4.270  -0.774  -0.086  1.00  0.00     0.021 C 
ENDROOT
BRANCH   1   2
ATOM      2  C   UNL     1      -4.284   0.343   0.957  1.00  0.00     0.116 C 
BRANCH   2   3
ATOM      3  N   UNL     1      -4.526  -0.128   2.302  1.00  0.00    -0.355 N 
ATOM      4  C   UNL     1      -3.674  -0.280   3.353  1.00  0.00     0.239 C 
ATOM      5  O   UNL     1      -4.189  -0.405   4.470  1.00  0.00    -0.273 OA
ATOM      6  H   UNL     1      -5.459  -0.381   2.488  1.00  0.00     0.163 HD
BRANCH   4   7
ATOM      7  C   UNL     1      -2.142  -0.175   3.223  1.00  0.00     0.220 C 
BRANCH   7   8
ATOM      8  N   UNL     1      -1.523  -0.776   2.036  1.00  0.00    -0.324 N 
BRANCH   8   9
ATOM      9  C   UNL     1      -0.911   0.110   1.055  1.00  0.00     0.147 C 
BRANCH   9  10
ATOM     10  C   UNL     1       0.574   0.165   1.236  1.00  0.00    -0.014 C 
ATOM     11  C   UNL     1       1.440  -0.079   0.242  1.00  0.00     0.006 C 
ENDBRANCH   9  10
ENDBRANCH   8   9
BRANCH   8  12
ATOM     12  C   UNL     1      -1.370  -2.161   1.858  1.00  0.00     0.276 C 
ATOM     13  O   UNL     1      -0.843  -2.634   0.853  1.00  0.00    -0.267 OA
BRANCH  12  14
ATOM     14  C   UNL     1      -1.894  -3.043   2.892  1.00  0.00     0.170 A 
ATOM     15  C   UNL     1      -3.214  -3.345   3.161  1.00  0.00     0.145 A 
ATOM     16  N   UNL     1      -1.095  -3.771   3.737  1.00  0.00    -0.125 NA
ATOM     17  N   UNL     1      -3.155  -4.218   4.212  1.00  0.00    -0.237 N 
ATOM     18  N   UNL     1      -1.877  -4.481   4.542  1.00  0.00    -0.066 NA
BRANCH  17  19
ATOM     19  C   UNL     1      -4.247  -4.804   4.932  1.00  0.00     0.218 C 
ATOM     20  C   UNL     1      -5.197  -3.745   5.538  1.00  0.00     0.294 C 
ATOM     21  C   UNL     1      -5.476  -5.181   4.077  1.00  0.00     0.294 C 
ATOM     22  N   UNL     1      -6.347  -4.570   5.105  1.00  0.00    -0.342 N 
ATOM     23  H   UNL     1      -7.131  -4.036   4.730  1.00  0.00     0.346 HD
ATOM     24  H   UNL     1      -6.862  -5.147   5.770  1.00  0.00     0.346 HD
ENDBRANCH  17  19
ENDBRANCH  12  14
ENDBRANCH   8  12
ENDBRANCH   7   8
ENDBRANCH   4   7
ENDBRANCH   2   3
ENDBRANCH   1   2
BRANCH   1  25
ATOM     25  C   UNL     1      -5.632  -1.425  -0.356  1.00  0.00     0.002 C 
BRANCH  25  26
ATOM     26  C   UNL     1      -6.770  -0.468  -0.729  1.00  0.00     0.002 C 
BRANCH  26  27
ATOM     27  C   UNL     1      -6.467   0.508  -1.867  1.00  0.00     0.021 C 
BRANCH  27  28
ATOM     28  C   UNL     1      -6.158  -0.148  -3.208  1.00  0.00     0.116 C 
BRANCH  28  29
ATOM     29  N   UNL     1      -7.327  -0.785  -3.795  1.00  0.00    -0.352 N 
ATOM     30  C   UNL     1      -7.882  -0.597  -5.037  1.00  0.00     0.251 C 
ATOM     31  H   UNL     1      -7.784  -1.443  -3.221  1.00  0.00     0.163 HD
ATOM     32  O   UNL     1      -8.972  -1.087  -5.316  1.00  0.00    -0.269 OA
BRANCH  30  33
ATOM     33  C   UNL     1      -7.169   0.226  -6.037  1.00  0.00     0.039 A 
ATOM     34  C   UNL     1      -7.868   1.221  -6.727  1.00  0.00     0.014 A 
ATOM     35  C   UNL     1      -5.810   0.019  -6.284  1.00  0.00     0.014 A 
ATOM     36  C   UNL     1      -7.185   2.059  -7.613  1.00  0.00     0.010 A 
ATOM     37  C   UNL     1      -5.120   0.895  -7.117  1.00  0.00     0.010 A 
ATOM     38  C   UNL     1      -5.799   1.925  -7.788  1.00  0.00    -0.014 A 
BRANCH  38  39
ATOM     39  C   UNL     1      -5.026   2.827  -8.679  1.00  0.00     0.031 A 
ATOM     40  C   UNL     1      -4.334   2.258  -9.886  1.00  0.00     0.074 A 
ATOM     41  C   UNL     1      -4.867   4.125  -8.357  1.00  0.00     0.049 A 
ATOM     42  N   UNL     1      -3.459   2.816 -10.682  1.00  0.00    -0.248 NA
ATOM     43  C   UNL     1      -4.649   0.860 -10.224  1.00  0.00     0.031 C 
ATOM     44  C   UNL     1      -5.469   4.793  -7.202  1.00  0.00     0.029 A 
ATOM     45  N   UNL     1      -4.123   5.111  -8.959  1.00  0.00    -0.354 N 
ATOM     46  C   UNL     1      -3.107   1.836 -11.601  1.00  0.00     0.074 A 
ATOM     47  C   UNL     1      -3.825   0.634 -11.236  1.00  0.00     0.031 C 
ATOM     48  C   UNL     1      -5.069   6.075  -7.178  1.00  0.00     0.029 A 
ATOM     49  C   UNL     1      -4.147   6.309  -8.286  1.00  0.00     0.049 A 
ATOM     50  H   UNL     1      -3.620   4.972  -9.794  1.00  0.00     0.167 HD
ATOM     51  C   UNL     1      -2.276   1.936 -12.665  1.00  0.00     0.037 A 
ATOM     52  C   UNL     1      -3.480   7.455  -8.522  1.00  0.00     0.037 A 
ATOM     53  C   UNL     1      -1.581   3.138 -13.039  1.00  0.00     0.049 A 
ATOM     54  C   UNL     1      -2.546   7.533  -9.701  1.00  0.00     0.074 A 
ATOM     55  C   UNL     1      -0.726   3.345 -14.107  1.00  0.00     0.029 A 
ATOM     56  N   UNL     1      -1.672   4.343 -12.359  1.00  0.00    -0.354 N 
ATOM     57  N   UNL     1      -2.239   6.607 -10.577  1.00  0.00    -0.248 NA
ATOM     58  C   UNL     1      -1.867   8.818  -9.929  1.00  0.00     0.031 C 
ATOM     59  C   UNL     1      -0.277   4.668 -14.058  1.00  0.00     0.029 A 
ATOM     60  C   UNL     1      -0.888   5.297 -12.985  1.00  0.00     0.049 A 
ATOM     61  H   UNL     1      -2.213   4.497 -11.551  1.00  0.00     0.167 HD
ATOM     62  C   UNL     1      -1.367   7.205 -11.477  1.00  0.00     0.074 A 
ATOM     63  C   UNL     1      -1.196   8.576 -11.046  1.00  0.00     0.031 C 
ATOM     64  C   UNL     1      -0.762   6.667 -12.562  1.00  0.00     0.037 A 
BRANCH  51  65
ATOM     65  C   UNL     1      -2.084   0.713 -13.514  1.00  0.00     0.064 A 
ATOM     66  C   UNL     1      -3.107   0.235 -14.346  1.00  0.00     0.173 A 
ATOM     67  C   UNL     1      -0.853   0.041 -13.533  1.00  0.00     0.173 A 
ATOM     68  F   UNL     1      -4.307   0.836 -14.354  1.00  0.00    -0.203 F 
ATOM     69  C   UNL     1      -2.913  -0.884 -15.150  1.00  0.00     0.198 A 
ATOM     70  C   UNL     1      -0.652  -1.061 -14.361  1.00  0.00     0.198 A 
ATOM     71  F   UNL     1       0.160   0.461 -12.761  1.00  0.00    -0.203 F 
ATOM     72  F   UNL     1      -3.918  -1.347 -15.905  1.00  0.00    -0.200 F 
ATOM     73  C   UNL     1      -1.683  -1.526 -15.164  1.00  0.00     0.200 A 
ATOM     74  F   UNL     1       0.540  -1.672 -14.383  1.00  0.00    -0.200 F 
ATOM     75  F   UNL     1      -1.494  -2.596 -15.947  1.00  0.00    -0.200 F 
ENDBRANCH  51  65
BRANCH  52  76
ATOM     76  C   UNL     1      -3.662   8.627  -7.625  1.00  0.00     0.064 A 
ATOM     77  C   UNL     1      -4.295   9.793  -8.081  1.00  0.00     0.173 A 
ATOM     78  C   UNL     1      -3.177   8.623  -6.309  1.00  0.00     0.173 A 
ATOM     79  F   UNL     1      -4.757   9.854  -9.339  1.00  0.00    -0.203 F 
ATOM     80  C   UNL     1      -4.407  10.918  -7.267  1.00  0.00     0.198 A 
ATOM     81  C   UNL     1      -3.317   9.738  -5.486  1.00  0.00     0.198 A 
ATOM     82  F   UNL     1      -2.568   7.532  -5.821  1.00  0.00    -0.203 F 
ATOM     83  F   UNL     1      -4.963  12.038  -7.749  1.00  0.00    -0.200 F 
ATOM     84  C   UNL     1      -3.921  10.889  -5.969  1.00  0.00     0.200 A 
ATOM     85  F   UNL     1      -2.858   9.701  -4.227  1.00  0.00    -0.200 F 
ATOM     86  F   UNL     1      -4.023  11.973  -5.188  1.00  0.00    -0.200 F 
ENDBRANCH  52  76
BRANCH  64  87
ATOM     87  C   UNL     1       0.088   7.573 -13.404  1.00  0.00     0.064 A 
ATOM     88  C   UNL     1       1.354   8.001 -12.982  1.00  0.00     0.173 A 
ATOM     89  C   UNL     1      -0.348   7.960 -14.681  1.00  0.00     0.173 A 
ATOM     90  F   UNL     1       1.808   7.668 -11.764  1.00  0.00    -0.203 F 
ATOM     91  C   UNL     1       2.148   8.797 -13.803  1.00  0.00     0.198 A 
ATOM     92  C   UNL     1       0.459   8.734 -15.508  1.00  0.00     0.198 A 
ATOM     93  F   UNL     1      -1.550   7.571 -15.132  1.00  0.00    -0.203 F 
ATOM     94  F   UNL     1       3.341   9.225 -13.367  1.00  0.00    -0.200 F 
ATOM     95  C   UNL     1       1.704   9.155 -15.068  1.00  0.00     0.200 A 
ATOM     96  F   UNL     1       0.034   9.068 -16.735  1.00  0.00    -0.200 F 
ATOM     97  F   UNL     1       2.477   9.910 -15.861  1.00  0.00    -0.200 F 
ENDBRANCH  64  87
ENDBRANCH  38  39
ENDBRANCH  30  33
ENDBRANCH  28  29
ENDBRANCH  27  28
ENDBRANCH  26  27
ENDBRANCH  25  26
ENDBRANCH   1  25
TORSDOF 19
