REMARK SMILES Cc1ccc(C(=O)N2CCCC[C@@H]2C(=O)NCCCCCCNC(=O)c2ccc(-c3c4nc(c(-c5c(F)c(F)c(F)c(F)c5F)c5ccc([nH]5)c(-c5c(F)c(F)c(F)c(F)c5F)c5nc(c(-c6c(F)c(F)c(F)c(F)c6F)c6ccc3[nH]6)C=C5)C=C4)cc2)cc1S(=O)(=O)N1CCCCC1
REMARK SMILES IDX 18 1 17 2 16 3 14 4 15 5 13 7 8 8 9 9 10 10 12 11 11 12 6 13
REMARK SMILES IDX 7 14 5 15 1 16 2 17 3 18 90 19 4 20 89 21 91 22 92 23 93 24
REMARK SMILES IDX 94 25 95 26 99 27 96 28 98 29 97 30 19 31 20 32 21 33 22 34
REMARK SMILES IDX 23 35 24 36 25 38 26 39 27 40 88 41 28 42 87 43 29 44 30 45
REMARK SMILES IDX 31 46 81 47 32 48 86 49 80 50 82 51 33 52 85 53 79 54 78 55
REMARK SMILES IDX 34 57 66 58 46 59 65 60 47 61 50 62 64 63 83 64 48 65 49 66
REMARK SMILES IDX 63 68 84 69 51 70 35 71 36 72 44 73 37 74 38 75 42 76 45 77
REMARK SMILES IDX 39 78 40 79 43 80 41 81 67 82 68 83 76 84 69 85 70 86 74 87
REMARK SMILES IDX 77 88 71 89 72 90 75 91 73 92 52 93 53 94 61 95 54 96 55 97
REMARK SMILES IDX 59 98 62 99 56 100 57 101 60 102 58 103
REMARK H PARENT 16 6 23 37 82 56 50 67
REMARK Flexibility Score: inf
ROOT
ATOM      1  C   UNL     1      -5.590  -0.504  -3.758  1.00  0.00     0.021 C 
ENDROOT
BRANCH   1   2
ATOM      2  C   UNL     1      -4.787  -0.340  -2.468  1.00  0.00     0.116 C 
BRANCH   2   3
ATOM      3  N   UNL     1      -3.506   0.269  -2.757  1.00  0.00    -0.354 N 
ATOM      4  C   UNL     1      -2.991   1.451  -2.324  1.00  0.00     0.242 C 
ATOM      5  O   UNL     1      -2.010   1.893  -2.926  1.00  0.00    -0.273 OA
ATOM      6  H   UNL     1      -2.921  -0.250  -3.356  1.00  0.00     0.163 HD
BRANCH   4   7
ATOM      7  C   UNL     1      -3.671   2.266  -1.200  1.00  0.00     0.174 C 
ATOM      8  N   UNL     1      -4.074   1.460  -0.015  1.00  0.00    -0.327 N 
ATOM      9  C   UNL     1      -4.988   2.095   0.925  1.00  0.00     0.120 C 
ATOM     10  C   UNL     1      -6.219   2.661   0.249  1.00  0.00     0.022 C 
ATOM     11  C   UNL     1      -4.876   2.995  -1.844  1.00  0.00     0.035 C 
ATOM     12  C   UNL     1      -5.814   3.647  -0.835  1.00  0.00     0.004 C 
BRANCH   8  13
ATOM     13  C   UNL     1      -3.389   0.356   0.506  1.00  0.00     0.254 C 
ATOM     14  O   UNL     1      -3.946  -0.462   1.239  1.00  0.00    -0.269 OA
BRANCH  13  15
ATOM     15  C   UNL     1      -1.953   0.135   0.229  1.00  0.00     0.041 A 
ATOM     16  C   UNL     1       2.228  -0.855  -0.084  1.00  0.00     0.046 C 
ATOM     17  C   UNL     1       0.823  -0.354  -0.015  1.00  0.00    -0.031 A 
ATOM     18  C   UNL     1      -0.128  -1.405  -0.024  1.00  0.00     0.005 A 
ATOM     19  C   UNL     1       0.354   0.968   0.094  1.00  0.00     0.086 A 
ATOM     20  C   UNL     1      -1.494  -1.169   0.094  1.00  0.00     0.014 A 
ATOM     21  C   UNL     1      -1.035   1.184   0.250  1.00  0.00     0.035 A 
BRANCH  19  22
ATOM     22  S   UNL     1       1.243   2.536   0.085  1.00  0.00     0.243 S 
ATOM     23  O   UNL     1       0.867   3.183  -1.163  1.00  0.00    -0.207 OA
ATOM     24  O   UNL     1       0.924   3.156   1.351  1.00  0.00    -0.207 OA
BRANCH  22  25
ATOM     25  N   UNL     1       2.919   2.327   0.045  1.00  0.00    -0.198 NA
ATOM     26  C   UNL     1       3.562   1.971   1.325  1.00  0.00     0.102 C 
ATOM     27  C   UNL     1       3.523   2.022  -1.268  1.00  0.00     0.102 C 
ATOM     28  C   UNL     1       5.063   1.753   1.236  1.00  0.00     0.017 C 
ATOM     29  C   UNL     1       5.022   1.764  -1.235  1.00  0.00     0.017 C 
ATOM     30  C   UNL     1       5.482   0.996  -0.010  1.00  0.00     0.003 C 
ENDBRANCH  22  25
ENDBRANCH  19  22
ENDBRANCH  13  15
ENDBRANCH   8  13
ENDBRANCH   4   7
ENDBRANCH   2   3
ENDBRANCH   1   2
BRANCH   1  31
ATOM     31  C   UNL     1      -4.987  -1.512  -4.747  1.00  0.00     0.002 C 
BRANCH  31  32
ATOM     32  C   UNL     1      -4.667  -2.894  -4.162  1.00  0.00     0.002 C 
BRANCH  32  33
ATOM     33  C   UNL     1      -5.787  -3.529  -3.342  1.00  0.00     0.021 C 
BRANCH  33  34
ATOM     34  C   UNL     1      -7.011  -3.890  -4.161  1.00  0.00     0.116 C 
BRANCH  34  35
ATOM     35  N   UNL     1      -6.907  -5.204  -4.776  1.00  0.00    -0.352 N 
ATOM     36  C   UNL     1      -7.874  -5.991  -5.367  1.00  0.00     0.251 C 
ATOM     37  H   UNL     1      -6.003  -5.594  -4.769  1.00  0.00     0.163 HD
ATOM     38  O   UNL     1      -7.635  -7.169  -5.614  1.00  0.00    -0.269 OA
BRANCH  36  39
ATOM     39  C   UNL     1      -9.098  -5.360  -5.917  1.00  0.00     0.039 A 
ATOM     40  C   UNL     1      -9.410  -5.706  -7.241  1.00  0.00     0.014 A 
ATOM     41  C   UNL     1      -9.607  -4.198  -5.356  1.00  0.00     0.014 A 
ATOM     42  C   UNL     1      -9.927  -4.739  -8.085  1.00  0.00     0.010 A 
ATOM     43  C   UNL     1      -9.956  -3.189  -6.211  1.00  0.00     0.010 A 
ATOM     44  C   UNL     1     -10.045  -3.454  -7.580  1.00  0.00    -0.014 A 
BRANCH  44  45
ATOM     45  C   UNL     1     -10.336  -2.287  -8.374  1.00  0.00     0.031 A 
ATOM     46  C   UNL     1     -11.736  -1.856  -8.414  1.00  0.00     0.074 A 
ATOM     47  C   UNL     1      -9.300  -1.547  -8.820  1.00  0.00     0.049 A 
ATOM     48  N   UNL     1     -12.206  -1.018  -9.260  1.00  0.00    -0.248 NA
ATOM     49  C   UNL     1     -12.747  -2.377  -7.497  1.00  0.00     0.031 C 
ATOM     50  C   UNL     1      -9.304  -0.171  -9.300  1.00  0.00     0.029 A 
ATOM     51  N   UNL     1      -7.997  -1.999  -9.092  1.00  0.00    -0.354 N 
ATOM     52  C   UNL     1     -13.455  -0.647  -8.818  1.00  0.00     0.074 A 
ATOM     53  C   UNL     1     -13.790  -1.596  -7.786  1.00  0.00     0.031 C 
ATOM     54  C   UNL     1      -8.222   0.016 -10.078  1.00  0.00     0.029 A 
ATOM     55  C   UNL     1      -7.593  -1.283 -10.247  1.00  0.00     0.049 A 
ATOM     56  H   UNL     1      -7.478  -2.668  -8.589  1.00  0.00     0.167 HD
ATOM     57  C   UNL     1     -13.969   0.522  -9.292  1.00  0.00     0.037 A 
ATOM     58  C   UNL     1      -7.470  -1.949 -11.437  1.00  0.00     0.037 A 
ATOM     59  C   UNL     1     -13.064   1.091 -10.294  1.00  0.00     0.049 A 
ATOM     60  C   UNL     1      -8.484  -1.518 -12.484  1.00  0.00     0.074 A 
ATOM     61  C   UNL     1     -12.068   2.053 -10.263  1.00  0.00     0.029 A 
ATOM     62  N   UNL     1     -12.848   0.368 -11.450  1.00  0.00    -0.354 N 
ATOM     63  N   UNL     1      -9.504  -0.738 -12.244  1.00  0.00    -0.248 NA
ATOM     64  C   UNL     1      -8.470  -1.992 -13.866  1.00  0.00     0.031 C 
ATOM     65  C   UNL     1     -11.255   1.887 -11.426  1.00  0.00     0.029 A 
ATOM     66  C   UNL     1     -11.770   0.838 -12.167  1.00  0.00     0.049 A 
ATOM     67  H   UNL     1     -13.402  -0.396 -11.731  1.00  0.00     0.167 HD
ATOM     68  C   UNL     1     -10.273  -0.608 -13.370  1.00  0.00     0.074 A 
ATOM     69  C   UNL     1      -9.597  -1.441 -14.352  1.00  0.00     0.031 C 
ATOM     70  C   UNL     1     -11.411   0.153 -13.400  1.00  0.00     0.037 A 
BRANCH  57  71
ATOM     71  C   UNL     1     -15.138   1.274  -8.704  1.00  0.00     0.064 A 
ATOM     72  C   UNL     1     -15.263   2.662  -8.933  1.00  0.00     0.173 A 
ATOM     73  C   UNL     1     -16.147   0.722  -7.891  1.00  0.00     0.173 A 
ATOM     74  F   UNL     1     -14.428   3.315  -9.752  1.00  0.00    -0.203 F 
ATOM     75  C   UNL     1     -16.252   3.440  -8.329  1.00  0.00     0.198 A 
ATOM     76  C   UNL     1     -17.115   1.507  -7.254  1.00  0.00     0.198 A 
ATOM     77  F   UNL     1     -16.277  -0.597  -7.723  1.00  0.00    -0.203 F 
ATOM     78  F   UNL     1     -16.307   4.755  -8.584  1.00  0.00    -0.200 F 
ATOM     79  C   UNL     1     -17.163   2.868  -7.468  1.00  0.00     0.200 A 
ATOM     80  F   UNL     1     -18.007   0.929  -6.437  1.00  0.00    -0.200 F 
ATOM     81  F   UNL     1     -18.096   3.619  -6.869  1.00  0.00    -0.200 F 
ENDBRANCH  57  71
BRANCH  58  82
ATOM     82  C   UNL     1      -6.967  -3.344 -11.226  1.00  0.00     0.064 A 
ATOM     83  C   UNL     1      -5.736  -3.496 -10.549  1.00  0.00     0.173 A 
ATOM     84  C   UNL     1      -7.841  -4.437 -11.221  1.00  0.00     0.173 A 
ATOM     85  F   UNL     1      -4.847  -2.489 -10.539  1.00  0.00    -0.203 F 
ATOM     86  C   UNL     1      -5.487  -4.604  -9.740  1.00  0.00     0.198 A 
ATOM     87  C   UNL     1      -7.565  -5.565 -10.445  1.00  0.00     0.198 A 
ATOM     88  F   UNL     1      -9.021  -4.367 -11.855  1.00  0.00    -0.203 F 
ATOM     89  F   UNL     1      -4.392  -4.634  -8.966  1.00  0.00    -0.200 F 
ATOM     90  C   UNL     1      -6.421  -5.621  -9.661  1.00  0.00     0.200 A 
ATOM     91  F   UNL     1      -8.466  -6.556 -10.370  1.00  0.00    -0.200 F 
ATOM     92  F   UNL     1      -6.241  -6.631  -8.799  1.00  0.00    -0.200 F 
ENDBRANCH  58  82
BRANCH  70  93
ATOM     93  C   UNL     1     -12.320   0.294 -14.600  1.00  0.00     0.064 A 
ATOM     94  C   UNL     1     -11.835   0.390 -15.911  1.00  0.00     0.173 A 
ATOM     95  C   UNL     1     -13.726   0.428 -14.465  1.00  0.00     0.173 A 
ATOM     96  F   UNL     1     -10.518   0.424 -16.157  1.00  0.00    -0.203 F 
ATOM     97  C   UNL     1     -12.695   0.490 -17.009  1.00  0.00     0.198 A 
ATOM     98  C   UNL     1     -14.575   0.595 -15.554  1.00  0.00     0.198 A 
ATOM     99  F   UNL     1     -14.342   0.376 -13.277  1.00  0.00    -0.203 F 
ATOM    100  F   UNL     1     -12.187   0.491 -18.249  1.00  0.00    -0.200 F 
ATOM    101  C   UNL     1     -14.063   0.592 -16.831  1.00  0.00     0.200 A 
ATOM    102  F   UNL     1     -15.892   0.741 -15.351  1.00  0.00    -0.200 F 
ATOM    103  F   UNL     1     -14.884   0.692 -17.884  1.00  0.00    -0.200 F 
ENDBRANCH  70  93
ENDBRANCH  44  45
ENDBRANCH  36  39
ENDBRANCH  34  35
ENDBRANCH  33  34
ENDBRANCH  32  33
ENDBRANCH  31  32
ENDBRANCH   1  31
TORSDOF 17
