REMARK SMILES CC(C)(C)OC(=O)N1CCN(N[C@@H](C(=O)NCCCCCCNC(=O)c2ccc(-c3c4nc(c(-c5c(F)c(F)c(F)c(F)c5F)c5ccc([nH]5)c(-c5c(F)c(F)c(F)c(F)c5F)c5nc(c(-c6c(F)c(F)c(F)c(F)c6F)c6ccc3[nH]6)C=C5)C=C4)cc2)c2ccccc2Cl)CC1
REMARK SMILES IDX 18 1 17 2 16 3 14 4 15 5 13 7 12 8 11 10 6 11 7 12 8 13 9 14
REMARK SMILES IDX 97 15 10 16 96 17 5 18 2 19 1 20 3 21 4 22 89 23 90 24 94 25
REMARK SMILES IDX 91 26 93 27 95 28 92 29 19 30 20 31 21 32 22 33 23 34 24 35
REMARK SMILES IDX 25 37 26 38 27 39 88 40 28 41 87 42 29 43 30 44 31 45 81 46
REMARK SMILES IDX 32 47 86 48 80 49 82 50 33 51 85 52 79 53 78 54 34 56 66 57
REMARK SMILES IDX 46 58 65 59 47 60 50 61 64 62 83 63 48 64 49 65 63 67 84 68
REMARK SMILES IDX 51 69 35 70 36 71 44 72 37 73 38 74 42 75 45 76 39 77 40 78
REMARK SMILES IDX 43 79 41 80 67 81 68 82 76 83 69 84 70 85 74 86 77 87 71 88
REMARK SMILES IDX 72 89 75 90 73 91 52 92 53 93 61 94 54 95 55 96 59 97 62 98
REMARK SMILES IDX 56 99 57 100 60 101 58 102
REMARK H PARENT 16 6 12 9 23 36 82 55 50 66
REMARK Flexibility Score: inf
ROOT
ATOM      1  C   UNL     1       0.733  -5.444   5.595  1.00  0.00     0.021 C 
ENDROOT
BRANCH   1   2
ATOM      2  C   UNL     1      -0.005  -5.215   6.923  1.00  0.00     0.116 C 
BRANCH   2   3
ATOM      3  N   UNL     1       0.900  -5.461   8.031  1.00  0.00    -0.354 N 
ATOM      4  C   UNL     1       1.790  -4.559   8.562  1.00  0.00     0.243 C 
ATOM      5  O   UNL     1       2.890  -5.010   8.902  1.00  0.00    -0.273 OA
ATOM      6  H   UNL     1       0.873  -6.356   8.440  1.00  0.00     0.163 HD
BRANCH   4   7
ATOM      7  C   UNL     1       1.404  -3.046   8.720  1.00  0.00     0.190 C 
BRANCH   7   8
ATOM      8  N   UNL     1       2.109  -2.271   7.634  1.00  0.00    -0.238 NA
ATOM      9  H   UNL     1       2.111  -1.281   7.880  1.00  0.00     0.143 HD
BRANCH   8  10
ATOM     10  N   UNL     1       1.441  -2.441   6.339  1.00  0.00    -0.240 NA
ATOM     11  C   UNL     1       0.585   0.555   3.593  1.00  0.00     0.410 C 
ATOM     12  O   UNL     1      -0.400   1.268   3.702  1.00  0.00    -0.224 OA
ATOM     13  N   UNL     1       1.198  -0.040   4.673  1.00  0.00    -0.306 N 
ATOM     14  C   UNL     1       0.477  -0.122   5.926  1.00  0.00     0.140 C 
ATOM     15  C   UNL     1       2.484  -0.727   4.690  1.00  0.00     0.140 C 
ATOM     16  C   UNL     1       0.220  -1.599   6.242  1.00  0.00     0.124 C 
ATOM     17  C   UNL     1       2.352  -2.185   5.191  1.00  0.00     0.124 C 
BRANCH  11  18
ATOM     18  O   UNL     1       1.154   0.210   2.408  1.00  0.00    -0.444 OA
BRANCH  18  19
ATOM     19  C   UNL     1       0.599   0.732   1.168  1.00  0.00     0.106 C 
ATOM     20  C   UNL     1       1.289  -0.072   0.056  1.00  0.00     0.056 C 
ATOM     21  C   UNL     1       0.969   2.211   1.026  1.00  0.00     0.056 C 
ATOM     22  C   UNL     1      -0.917   0.509   1.029  1.00  0.00     0.056 C 
ENDBRANCH  18  19
ENDBRANCH  11  18
ENDBRANCH   8  10
ENDBRANCH   7   8
BRANCH   7  23
ATOM     23  C   UNL     1       1.735  -2.455  10.114  1.00  0.00    -0.002 A 
ATOM     24  C   UNL     1       2.240  -3.255  11.163  1.00  0.00     0.007 A 
ATOM     25  C   UNL     1       1.496  -1.101  10.432  1.00  0.00     0.046 A 
ATOM     26  C   UNL     1       2.572  -2.722  12.415  1.00  0.00     0.000 A 
ATOM     27  C   UNL     1       1.855  -0.562  11.678  1.00  0.00     0.021 A 
ATOM     28  Cl  UNL     1       0.670  -0.010   9.382  1.00  0.00    -0.084 Cl
ATOM     29  C   UNL     1       2.403  -1.369  12.666  1.00  0.00     0.002 A 
ENDBRANCH   7  23
ENDBRANCH   4   7
ENDBRANCH   2   3
ENDBRANCH   1   2
BRANCH   1  30
ATOM     30  C   UNL     1       0.726  -6.904   5.131  1.00  0.00     0.002 C 
BRANCH  30  31
ATOM     31  C   UNL     1      -0.627  -7.393   4.603  1.00  0.00     0.002 C 
BRANCH  31  32
ATOM     32  C   UNL     1      -1.179  -6.618   3.402  1.00  0.00     0.021 C 
BRANCH  32  33
ATOM     33  C   UNL     1      -0.270  -6.606   2.174  1.00  0.00     0.116 C 
BRANCH  33  34
ATOM     34  N   UNL     1      -0.079  -7.942   1.628  1.00  0.00    -0.352 N 
ATOM     35  C   UNL     1      -0.495  -8.465   0.429  1.00  0.00     0.251 C 
ATOM     36  H   UNL     1       0.424  -8.563   2.204  1.00  0.00     0.163 HD
ATOM     37  O   UNL     1      -0.455  -9.675   0.229  1.00  0.00    -0.269 OA
BRANCH  35  38
ATOM     38  C   UNL     1      -1.009  -7.565  -0.624  1.00  0.00     0.039 A 
ATOM     39  C   UNL     1      -2.212  -7.880  -1.261  1.00  0.00     0.014 A 
ATOM     40  C   UNL     1      -0.302  -6.413  -0.978  1.00  0.00     0.014 A 
ATOM     41  C   UNL     1      -2.751  -6.994  -2.196  1.00  0.00     0.010 A 
ATOM     42  C   UNL     1      -0.867  -5.504  -1.868  1.00  0.00     0.010 A 
ATOM     43  C   UNL     1      -2.104  -5.778  -2.471  1.00  0.00    -0.014 A 
BRANCH  43  44
ATOM     44  C   UNL     1      -2.726  -4.748  -3.340  1.00  0.00     0.031 A 
ATOM     45  C   UNL     1      -2.087  -4.367  -4.643  1.00  0.00     0.074 A 
ATOM     46  C   UNL     1      -3.814  -4.088  -2.899  1.00  0.00     0.049 A 
ATOM     47  N   UNL     1      -2.409  -3.406  -5.471  1.00  0.00    -0.248 NA
ATOM     48  C   UNL     1      -0.918  -5.155  -5.060  1.00  0.00     0.031 C 
ATOM     49  C   UNL     1      -4.500  -4.343  -1.631  1.00  0.00     0.029 A 
ATOM     50  N   UNL     1      -4.520  -3.051  -3.455  1.00  0.00    -0.354 N 
ATOM     51  C   UNL     1      -1.478  -3.466  -6.499  1.00  0.00     0.074 A 
ATOM     52  C   UNL     1      -0.554  -4.530  -6.171  1.00  0.00     0.031 C 
ATOM     53  C   UNL     1      -5.530  -3.491  -1.508  1.00  0.00     0.029 A 
ATOM     54  C   UNL     1      -5.550  -2.602  -2.665  1.00  0.00     0.049 A 
ATOM     55  H   UNL     1      -4.309  -2.665  -4.336  1.00  0.00     0.167 HD
ATOM     56  C   UNL     1      -1.414  -2.710  -7.621  1.00  0.00     0.037 A 
ATOM     57  C   UNL     1      -6.401  -1.573  -2.841  1.00  0.00     0.037 A 
ATOM     58  C   UNL     1      -2.348  -1.666  -7.951  1.00  0.00     0.049 A 
ATOM     59  C   UNL     1      -6.282  -0.726  -4.078  1.00  0.00     0.074 A 
ATOM     60  C   UNL     1      -2.415  -0.898  -9.101  1.00  0.00     0.029 A 
ATOM     61  N   UNL     1      -3.376  -1.236  -7.124  1.00  0.00    -0.354 N 
ATOM     62  N   UNL     1      -5.441  -0.837  -5.077  1.00  0.00    -0.248 NA
ATOM     63  C   UNL     1      -7.226   0.393  -4.208  1.00  0.00     0.031 C 
ATOM     64  C   UNL     1      -3.451   0.029  -8.949  1.00  0.00     0.029 A 
ATOM     65  C   UNL     1      -4.059  -0.189  -7.723  1.00  0.00     0.049 A 
ATOM     66  H   UNL     1      -3.589  -1.619  -6.242  1.00  0.00     0.167 HD
ATOM     67  C   UNL     1      -5.761   0.186  -5.959  1.00  0.00     0.074 A 
ATOM     68  C   UNL     1      -6.887   0.895  -5.387  1.00  0.00     0.031 C 
ATOM     69  C   UNL     1      -5.171   0.512  -7.135  1.00  0.00     0.037 A 
BRANCH  56  70
ATOM     70  C   UNL     1      -0.294  -2.984  -8.582  1.00  0.00     0.064 A 
ATOM     71  C   UNL     1      -0.269  -4.145  -9.368  1.00  0.00     0.173 A 
ATOM     72  C   UNL     1       0.740  -2.051  -8.754  1.00  0.00     0.173 A 
ATOM     73  F   UNL     1      -1.229  -5.072  -9.234  1.00  0.00    -0.203 F 
ATOM     74  C   UNL     1       0.762  -4.373 -10.276  1.00  0.00     0.198 A 
ATOM     75  C   UNL     1       1.755  -2.269  -9.682  1.00  0.00     0.198 A 
ATOM     76  F   UNL     1       0.760  -0.921  -8.031  1.00  0.00    -0.203 F 
ATOM     77  F   UNL     1       0.787  -5.508 -10.988  1.00  0.00    -0.200 F 
ATOM     78  C   UNL     1       1.769  -3.432 -10.438  1.00  0.00     0.200 A 
ATOM     79  F   UNL     1       2.720  -1.354  -9.845  1.00  0.00    -0.200 F 
ATOM     80  F   UNL     1       2.756  -3.649 -11.318  1.00  0.00    -0.200 F 
ENDBRANCH  56  70
BRANCH  57  81
ATOM     81  C   UNL     1      -7.437  -1.284  -1.816  1.00  0.00     0.064 A 
ATOM     82  C   UNL     1      -8.794  -1.510  -2.084  1.00  0.00     0.173 A 
ATOM     83  C   UNL     1      -7.095  -0.780  -0.553  1.00  0.00     0.173 A 
ATOM     84  F   UNL     1      -9.171  -1.970  -3.286  1.00  0.00    -0.203 F 
ATOM     85  C   UNL     1      -9.771  -1.229  -1.132  1.00  0.00     0.198 A 
ATOM     86  C   UNL     1      -8.071  -0.525   0.408  1.00  0.00     0.198 A 
ATOM     87  F   UNL     1      -5.810  -0.550  -0.247  1.00  0.00    -0.203 F 
ATOM     88  F   UNL     1     -11.065  -1.416  -1.428  1.00  0.00    -0.200 F 
ATOM     89  C   UNL     1      -9.409  -0.742   0.115  1.00  0.00     0.200 A 
ATOM     90  F   UNL     1      -7.716  -0.069   1.617  1.00  0.00    -0.200 F 
ATOM     91  F   UNL     1     -10.349  -0.478   1.032  1.00  0.00    -0.200 F 
ENDBRANCH  57  81
BRANCH  69  92
ATOM     92  C   UNL     1      -5.733   1.684  -7.882  1.00  0.00     0.064 A 
ATOM     93  C   UNL     1      -5.513   2.999  -7.446  1.00  0.00     0.173 A 
ATOM     94  C   UNL     1      -6.458   1.496  -9.068  1.00  0.00     0.173 A 
ATOM     95  F   UNL     1      -4.841   3.229  -6.308  1.00  0.00    -0.203 F 
ATOM     96  C   UNL     1      -6.013   4.083  -8.162  1.00  0.00     0.198 A 
ATOM     97  C   UNL     1      -6.934   2.583  -9.796  1.00  0.00     0.198 A 
ATOM     98  F   UNL     1      -6.692   0.258  -9.528  1.00  0.00    -0.203 F 
ATOM     99  F   UNL     1      -5.825   5.329  -7.707  1.00  0.00    -0.200 F 
ATOM    100  C   UNL     1      -6.716   3.874  -9.340  1.00  0.00     0.200 A 
ATOM    101  F   UNL     1      -7.603   2.381 -10.939  1.00  0.00    -0.200 F 
ATOM    102  F   UNL     1      -7.188   4.919 -10.033  1.00  0.00    -0.200 F 
ENDBRANCH  69  92
ENDBRANCH  43  44
ENDBRANCH  35  38
ENDBRANCH  33  34
ENDBRANCH  32  33
ENDBRANCH  31  32
ENDBRANCH  30  31
ENDBRANCH   1  30
TORSDOF 18
