REMARK SMILES O=C(NCCCCCCNC(=O)[C@@H](c1ccccc1)N1C(=O)/C(=C\c2ccc(-c3ccc(F)cc3)o2)SC1=S)c1ccc(-c2c3nc(c(-c4c(F)c(F)c(F)c(F)c4F)c4ccc([nH]4)c(-c4c(F)c(F)c(F)c(F)c4F)c4nc(c(-c5c(F)c(F)c(F)c(F)c5F)c5ccc2[nH]5)C=C4)C=C3)cc1
REMARK SMILES IDX 7 1 6 2 5 3 4 4 3 5 1 6 2 7 40 9 41 10 102 11 42 12 101 13
REMARK SMILES IDX 43 14 44 15 45 16 95 17 46 18 100 19 94 20 96 21 47 22 99 23
REMARK SMILES IDX 93 24 92 25 48 27 80 28 60 29 79 30 61 31 64 32 78 33 97 34
REMARK SMILES IDX 62 35 63 36 77 38 98 39 65 40 49 41 50 42 58 43 51 44 52 45
REMARK SMILES IDX 56 46 59 47 53 48 54 49 57 50 55 51 81 52 82 53 90 54 83 55
REMARK SMILES IDX 84 56 88 57 91 58 85 59 86 60 89 61 87 62 66 63 67 64 75 65
REMARK SMILES IDX 68 66 69 67 73 68 76 69 70 70 71 71 74 72 72 73 8 74 9 75
REMARK SMILES IDX 10 76 11 77 12 79 13 80 14 81 15 82 19 83 16 84 18 85 17 86
REMARK SMILES IDX 20 87 21 88 38 89 22 90 23 91 37 92 39 93 24 94 25 95 26 96
REMARK SMILES IDX 36 97 27 98 28 99 29 100 30 101 35 102 31 103 34 104 32 105
REMARK SMILES IDX 33 106
REMARK H PARENT 3 8 96 26 64 37 10 78
REMARK Flexibility Score: inf
ROOT
ATOM      1  C   UNL     1       4.632  -2.548  -3.594  1.00  0.00     0.002 C 
ENDROOT
BRANCH   1   2
ATOM      2  C   UNL     1       4.123  -3.130  -2.274  1.00  0.00     0.002 C 
BRANCH   2   3
ATOM      3  C   UNL     1       4.649  -2.440  -1.017  1.00  0.00     0.021 C 
BRANCH   3   4
ATOM      4  C   UNL     1       4.449  -0.932  -0.990  1.00  0.00     0.116 C 
BRANCH   4   5
ATOM      5  N   UNL     1       3.045  -0.554  -0.997  1.00  0.00    -0.352 N 
ATOM      6  O   UNL     1       1.115   0.256  -0.145  1.00  0.00    -0.269 OA
ATOM      7  C   UNL     1       2.336   0.170  -0.070  1.00  0.00     0.251 C 
ATOM      8  H   UNL     1       2.530  -0.861  -1.777  1.00  0.00     0.163 HD
BRANCH   7   9
ATOM      9  C   UNL     1       3.058   0.821   1.042  1.00  0.00     0.039 A 
ATOM     10  C   UNL     1       4.241   1.520   0.799  1.00  0.00     0.014 A 
ATOM     11  C   UNL     1       2.566   0.701   2.344  1.00  0.00     0.014 A 
ATOM     12  C   UNL     1       5.025   1.933   1.866  1.00  0.00     0.010 A 
ATOM     13  C   UNL     1       3.303   1.222   3.411  1.00  0.00     0.010 A 
ATOM     14  C   UNL     1       4.560   1.804   3.185  1.00  0.00    -0.014 A 
BRANCH  14  15
ATOM     15  C   UNL     1       5.393   2.332   4.297  1.00  0.00     0.031 A 
ATOM     16  C   UNL     1       5.932   1.427   5.370  1.00  0.00     0.074 A 
ATOM     17  C   UNL     1       5.695   3.645   4.305  1.00  0.00     0.049 A 
ATOM     18  N   UNL     1       6.711   1.722   6.382  1.00  0.00    -0.248 NA
ATOM     19  C   UNL     1       5.544   0.011   5.309  1.00  0.00     0.031 C 
ATOM     20  C   UNL     1       5.220   4.622   3.321  1.00  0.00     0.029 A 
ATOM     21  N   UNL     1       6.488   4.382   5.146  1.00  0.00    -0.354 N 
ATOM     22  C   UNL     1       6.882   0.539   7.091  1.00  0.00     0.074 A 
ATOM     23  C   UNL     1       6.105  -0.474   6.408  1.00  0.00     0.031 C 
ATOM     24  C   UNL     1       5.780   5.812   3.577  1.00  0.00     0.029 A 
ATOM     25  C   UNL     1       6.589   5.703   4.784  1.00  0.00     0.049 A 
ATOM     26  H   UNL     1       6.941   4.001   5.933  1.00  0.00     0.167 HD
ATOM     27  C   UNL     1       7.625   0.321   8.204  1.00  0.00     0.037 A 
ATOM     28  C   UNL     1       7.247   6.720   5.368  1.00  0.00     0.037 A 
ATOM     29  C   UNL     1       8.405   1.335   8.869  1.00  0.00     0.049 A 
ATOM     30  C   UNL     1       8.034   6.452   6.618  1.00  0.00     0.074 A 
ATOM     31  C   UNL     1       9.229   1.204   9.973  1.00  0.00     0.029 A 
ATOM     32  N   UNL     1       8.448   2.673   8.498  1.00  0.00    -0.354 N 
ATOM     33  N   UNL     1       8.230   5.320   7.248  1.00  0.00    -0.248 NA
ATOM     34  C   UNL     1       8.692   7.608   7.239  1.00  0.00     0.031 C 
ATOM     35  C   UNL     1       9.716   2.471  10.312  1.00  0.00     0.029 A 
ATOM     36  C   UNL     1       9.258   3.382   9.373  1.00  0.00     0.049 A 
ATOM     37  H   UNL     1       7.973   3.061   7.728  1.00  0.00     0.167 HD
ATOM     38  C   UNL     1       9.058   5.619   8.320  1.00  0.00     0.074 A 
ATOM     39  C   UNL     1       9.342   7.037   8.242  1.00  0.00     0.031 C 
ATOM     40  C   UNL     1       9.539   4.793   9.282  1.00  0.00     0.037 A 
BRANCH  27  41
ATOM     41  C   UNL     1       7.607  -1.061   8.799  1.00  0.00     0.064 A 
ATOM     42  C   UNL     1       8.199  -2.158   8.155  1.00  0.00     0.173 A 
ATOM     43  C   UNL     1       7.022  -1.281  10.057  1.00  0.00     0.173 A 
ATOM     44  F   UNL     1       8.764  -2.008   6.948  1.00  0.00    -0.203 F 
ATOM     45  C   UNL     1       8.176  -3.427   8.731  1.00  0.00     0.198 A 
ATOM     46  C   UNL     1       7.032  -2.543  10.645  1.00  0.00     0.198 A 
ATOM     47  F   UNL     1       6.449  -0.268  10.724  1.00  0.00    -0.203 F 
ATOM     48  F   UNL     1       8.700  -4.470   8.071  1.00  0.00    -0.200 F 
ATOM     49  C   UNL     1       7.601  -3.617   9.978  1.00  0.00     0.200 A 
ATOM     50  F   UNL     1       6.490  -2.720  11.858  1.00  0.00    -0.200 F 
ATOM     51  F   UNL     1       7.586  -4.837  10.533  1.00  0.00    -0.200 F 
ENDBRANCH  27  41
BRANCH  28  52
ATOM     52  C   UNL     1       7.190   8.080   4.771  1.00  0.00     0.064 A 
ATOM     53  C   UNL     1       8.335   8.677   4.228  1.00  0.00     0.173 A 
ATOM     54  C   UNL     1       5.992   8.811   4.732  1.00  0.00     0.173 A 
ATOM     55  F   UNL     1       9.507   8.024   4.255  1.00  0.00    -0.203 F 
ATOM     56  C   UNL     1       8.291   9.961   3.690  1.00  0.00     0.198 A 
ATOM     57  C   UNL     1       5.942  10.080   4.161  1.00  0.00     0.198 A 
ATOM     58  F   UNL     1       4.865   8.282   5.231  1.00  0.00    -0.203 F 
ATOM     59  F   UNL     1       9.412  10.527   3.223  1.00  0.00    -0.200 F 
ATOM     60  C   UNL     1       7.093  10.659   3.651  1.00  0.00     0.200 A 
ATOM     61  F   UNL     1       4.777  10.741   4.106  1.00  0.00    -0.200 F 
ATOM     62  F   UNL     1       7.050  11.891   3.127  1.00  0.00    -0.200 F 
ENDBRANCH  28  52
BRANCH  40  63
ATOM     63  C   UNL     1      10.469   5.396  10.297  1.00  0.00     0.064 A 
ATOM     64  C   UNL     1      10.027   6.321  11.255  1.00  0.00     0.173 A 
ATOM     65  C   UNL     1      11.825   5.034  10.314  1.00  0.00     0.173 A 
ATOM     66  F   UNL     1       8.745   6.715  11.273  1.00  0.00    -0.203 F 
ATOM     67  C   UNL     1      10.915   6.889  12.166  1.00  0.00     0.198 A 
ATOM     68  C   UNL     1      12.701   5.574  11.251  1.00  0.00     0.198 A 
ATOM     69  F   UNL     1      12.301   4.149   9.425  1.00  0.00    -0.203 F 
ATOM     70  F   UNL     1      10.483   7.821  13.027  1.00  0.00    -0.200 F 
ATOM     71  C   UNL     1      12.249   6.510  12.168  1.00  0.00     0.200 A 
ATOM     72  F   UNL     1      13.986   5.193  11.262  1.00  0.00    -0.200 F 
ATOM     73  F   UNL     1      13.101   7.056  13.046  1.00  0.00    -0.200 F 
ENDBRANCH  40  63
ENDBRANCH  14  15
ENDBRANCH   7   9
ENDBRANCH   4   5
ENDBRANCH   3   4
ENDBRANCH   2   3
ENDBRANCH   1   2
BRANCH   1  74
ATOM     74  C   UNL     1       6.148  -2.398  -3.689  1.00  0.00     0.021 C 
BRANCH  74  75
ATOM     75  C   UNL     1       6.934  -3.685  -3.473  1.00  0.00     0.116 C 
BRANCH  75  76
ATOM     76  N   UNL     1       6.752  -4.646  -4.538  1.00  0.00    -0.354 N 
ATOM     77  C   UNL     1       7.660  -5.136  -5.436  1.00  0.00     0.247 C 
ATOM     78  H   UNL     1       5.838  -5.000  -4.631  1.00  0.00     0.163 HD
ATOM     79  O   UNL     1       7.193  -5.697  -6.434  1.00  0.00    -0.272 OA
BRANCH  77  80
ATOM     80  C   UNL     1       9.202  -4.938  -5.279  1.00  0.00     0.211 C 
BRANCH  80  81
ATOM     81  C   UNL     1       9.661  -3.508  -5.619  1.00  0.00    -0.016 A 
ATOM     82  C   UNL     1      10.988  -3.107  -5.391  1.00  0.00     0.006 A 
ATOM     83  C   UNL     1       8.764  -2.532  -6.091  1.00  0.00     0.006 A 
ATOM     84  C   UNL     1      11.334  -1.751  -5.396  1.00  0.00     0.000 A 
ATOM     85  C   UNL     1       9.111  -1.179  -6.107  1.00  0.00     0.000 A 
ATOM     86  C   UNL     1      10.384  -0.785  -5.715  1.00  0.00     0.000 A 
ENDBRANCH  80  81
BRANCH  80  87
ATOM     87  N   UNL     1       9.617  -5.508  -3.950  1.00  0.00    -0.276 N 
ATOM     88  C   UNL     1       9.965  -4.714  -2.871  1.00  0.00     0.267 C 
ATOM     89  C   UNL     1       9.633  -6.870  -3.696  1.00  0.00     0.149 C 
ATOM     90  O   UNL     1      10.089  -3.503  -2.871  1.00  0.00    -0.268 OA
ATOM     91  C   UNL     1      10.194  -5.514  -1.638  1.00  0.00     0.084 C 
ATOM     92  S   UNL     1      10.052  -7.182  -2.009  1.00  0.00    -0.054 SA
ATOM     93  S   UNL     1       9.300  -8.134  -4.733  1.00  0.00    -0.052 S 
ATOM     94  C   UNL     1      10.476  -5.028  -0.419  1.00  0.00     0.068 C 
BRANCH  94  95
ATOM     95  C   UNL     1      10.547  -3.631  -0.150  1.00  0.00     0.128 A 
ATOM     96  C   UNL     1       9.548  -2.665  -0.238  1.00  0.00     0.051 A 
ATOM     97  O   UNL     1      11.709  -2.994   0.229  1.00  0.00    -0.457 OA
ATOM     98  C   UNL     1      10.135  -1.408   0.016  1.00  0.00     0.051 A 
ATOM     99  C   UNL     1      11.455  -1.657   0.312  1.00  0.00     0.134 A 
BRANCH  99 100
ATOM    100  C   UNL     1      12.558  -0.799   0.705  1.00  0.00     0.017 A 
ATOM    101  C   UNL     1      13.809  -0.881   0.077  1.00  0.00     0.015 A 
ATOM    102  C   UNL     1      12.358   0.159   1.711  1.00  0.00     0.015 A 
ATOM    103  C   UNL     1      14.841  -0.015   0.450  1.00  0.00     0.040 A 
ATOM    104  C   UNL     1      13.393   1.015   2.091  1.00  0.00     0.040 A 
ATOM    105  C   UNL     1      14.623   0.922   1.454  1.00  0.00     0.123 A 
ATOM    106  F   UNL     1      15.614   1.750   1.813  1.00  0.00    -0.207 F 
ENDBRANCH  99 100
ENDBRANCH  94  95
ENDBRANCH  80  87
ENDBRANCH  77  80
ENDBRANCH  75  76
ENDBRANCH  74  75
ENDBRANCH   1  74
TORSDOF 17
