REMARK SMILES C[C@@H]1CC[C@@H](C(=O)NCCCCCCNC(=O)c2ccc(-c3c4nc(c(-c5c(F)c(F)c(F)c(F)c5F)c5ccc([nH]5)c(-c5c(F)c(F)c(F)c(F)c5F)c5nc(c(-c6c(F)c(F)c(F)c(F)c6F)c6ccc3[nH]6)C=C5)C=C4)cc2)[C@H]2C(=O)N(c3ccccc3)C(=O)[C@@H]21
REMARK SMILES IDX 12 1 11 2 10 3 9 4 8 5 6 6 7 7 5 9 1 10 2 11 3 12 93 13 4 14
REMARK SMILES IDX 81 15 91 16 82 17 84 18 92 19 83 20 85 21 86 22 90 23 87 24
REMARK SMILES IDX 89 25 88 26 13 27 14 28 15 29 16 30 17 32 18 33 19 34 80 35
REMARK SMILES IDX 20 36 79 37 21 38 22 39 23 40 73 41 24 42 78 43 72 44 74 45
REMARK SMILES IDX 25 46 77 47 71 48 70 49 26 51 58 52 38 53 57 54 39 55 42 56
REMARK SMILES IDX 56 57 75 58 40 59 41 60 55 62 76 63 43 64 27 65 28 66 36 67
REMARK SMILES IDX 29 68 30 69 34 70 37 71 31 72 32 73 35 74 33 75 59 76 60 77
REMARK SMILES IDX 68 78 61 79 62 80 66 81 69 82 63 83 64 84 67 85 65 86 44 87
REMARK SMILES IDX 45 88 53 89 46 90 47 91 51 92 54 93 48 94 49 95 52 96 50 97
REMARK H PARENT 8 8 15 31 74 50 42 61
REMARK Flexibility Score: inf
ROOT
ATOM      1  C   UNL     1      -0.207  -7.446  -2.810  1.00  0.00     0.002 C 
ENDROOT
BRANCH   1   2
ATOM      2  C   UNL     1      -0.648  -5.995  -3.033  1.00  0.00     0.002 C 
BRANCH   2   3
ATOM      3  C   UNL     1      -0.062  -4.981  -2.045  1.00  0.00     0.021 C 
BRANCH   3   4
ATOM      4  C   UNL     1       1.468  -4.908  -2.056  1.00  0.00     0.116 C 
BRANCH   4   5
ATOM      5  N   UNL     1       1.925  -4.094  -3.162  1.00  0.00    -0.356 N 
ATOM      6  C   UNL     1       2.254  -2.790  -3.283  1.00  0.00     0.223 C 
ATOM      7  O   UNL     1       2.108  -2.335  -4.424  1.00  0.00    -0.275 OA
ATOM      8  H   UNL     1       2.014  -4.597  -4.004  1.00  0.00     0.163 HD
BRANCH   6   9
ATOM      9  C   UNL     1       2.875  -1.906  -2.184  1.00  0.00     0.092 C 
ATOM     10  C   UNL     1       1.138   0.565   0.318  1.00  0.00     0.008 C 
ATOM     11  C   UNL     1       0.635  -0.506  -0.653  1.00  0.00    -0.001 C 
ATOM     12  C   UNL     1       1.162  -1.903  -0.249  1.00  0.00     0.005 C 
ATOM     13  C   UNL     1       0.998  -0.252  -2.116  1.00  0.00     0.095 C 
ATOM     14  C   UNL     1       2.611  -2.184  -0.692  1.00  0.00     0.014 C 
ATOM     15  C   UNL     1       2.480  -0.440  -2.384  1.00  0.00     0.104 C 
ATOM     16  C   UNL     1       0.746   1.098  -2.727  1.00  0.00     0.237 C 
ATOM     17  C   UNL     1       2.668   0.276  -3.699  1.00  0.00     0.238 C 
ATOM     18  N   UNL     1       1.664   1.238  -3.758  1.00  0.00    -0.250 N 
ATOM     19  O   UNL     1      -0.184   1.822  -2.402  1.00  0.00    -0.274 OA
ATOM     20  O   UNL     1       3.664   0.152  -4.398  1.00  0.00    -0.274 OA
BRANCH  18  21
ATOM     21  C   UNL     1       1.624   2.280  -4.719  1.00  0.00     0.052 A 
ATOM     22  C   UNL     1       1.114   3.544  -4.391  1.00  0.00     0.027 A 
ATOM     23  C   UNL     1       2.085   2.068  -6.025  1.00  0.00     0.027 A 
ATOM     24  C   UNL     1       1.076   4.572  -5.337  1.00  0.00     0.002 A 
ATOM     25  C   UNL     1       2.015   3.086  -6.982  1.00  0.00     0.002 A 
ATOM     26  C   UNL     1       1.518   4.339  -6.635  1.00  0.00     0.000 A 
ENDBRANCH  18  21
ENDBRANCH   6   9
ENDBRANCH   4   5
ENDBRANCH   3   4
ENDBRANCH   2   3
ENDBRANCH   1   2
BRANCH   1  27
ATOM     27  C   UNL     1      -0.375  -7.969  -1.380  1.00  0.00     0.021 C 
BRANCH  27  28
ATOM     28  C   UNL     1      -1.796  -7.889  -0.830  1.00  0.00     0.116 C 
BRANCH  28  29
ATOM     29  N   UNL     1      -2.730  -8.671  -1.620  1.00  0.00    -0.352 N 
ATOM     30  C   UNL     1      -3.559  -9.695  -1.243  1.00  0.00     0.251 C 
ATOM     31  H   UNL     1      -2.774  -8.429  -2.573  1.00  0.00     0.163 HD
ATOM     32  O   UNL     1      -4.116 -10.376  -2.099  1.00  0.00    -0.269 OA
BRANCH  30  33
ATOM     33  C   UNL     1      -3.781  -9.996   0.188  1.00  0.00     0.039 A 
ATOM     34  C   UNL     1      -3.829 -11.334   0.588  1.00  0.00     0.014 A 
ATOM     35  C   UNL     1      -3.994  -8.977   1.122  1.00  0.00     0.014 A 
ATOM     36  C   UNL     1      -4.049 -11.649   1.929  1.00  0.00     0.010 A 
ATOM     37  C   UNL     1      -4.148  -9.291   2.472  1.00  0.00     0.010 A 
ATOM     38  C   UNL     1      -4.188 -10.630   2.886  1.00  0.00    -0.014 A 
BRANCH  38  39
ATOM     39  C   UNL     1      -4.375 -10.967   4.320  1.00  0.00     0.031 A 
ATOM     40  C   UNL     1      -5.669 -10.656   5.018  1.00  0.00     0.074 A 
ATOM     41  C   UNL     1      -3.360 -11.530   5.001  1.00  0.00     0.049 A 
ATOM     42  N   UNL     1      -6.024 -10.909   6.253  1.00  0.00    -0.248 NA
ATOM     43  C   UNL     1      -6.690  -9.944   4.234  1.00  0.00     0.031 C 
ATOM     44  C   UNL     1      -2.037 -11.826   4.450  1.00  0.00     0.029 A 
ATOM     45  N   UNL     1      -3.283 -11.961   6.301  1.00  0.00    -0.354 N 
ATOM     46  C   UNL     1      -7.300 -10.378   6.397  1.00  0.00     0.074 A 
ATOM     47  C   UNL     1      -7.637  -9.745   5.140  1.00  0.00     0.031 C 
ATOM     48  C   UNL     1      -1.294 -12.429   5.392  1.00  0.00     0.029 A 
ATOM     49  C   UNL     1      -2.078 -12.538   6.618  1.00  0.00     0.049 A 
ATOM     50  H   UNL     1      -4.021 -11.866   6.945  1.00  0.00     0.167 HD
ATOM     51  C   UNL     1      -8.122 -10.434   7.472  1.00  0.00     0.037 A 
ATOM     52  C   UNL     1      -1.660 -13.105   7.764  1.00  0.00     0.037 A 
ATOM     53  C   UNL     1      -7.794 -11.091   8.711  1.00  0.00     0.049 A 
ATOM     54  C   UNL     1      -2.602 -13.175   8.934  1.00  0.00     0.074 A 
ATOM     55  C   UNL     1      -8.588 -11.275   9.829  1.00  0.00     0.029 A 
ATOM     56  N   UNL     1      -6.565 -11.669   8.995  1.00  0.00    -0.354 N 
ATOM     57  N   UNL     1      -3.838 -12.751   9.030  1.00  0.00    -0.248 NA
ATOM     58  C   UNL     1      -2.089 -13.814  10.154  1.00  0.00     0.031 C 
ATOM     59  C   UNL     1      -7.824 -11.923  10.807  1.00  0.00     0.029 A 
ATOM     60  C   UNL     1      -6.570 -12.187  10.281  1.00  0.00     0.049 A 
ATOM     61  H   UNL     1      -5.802 -11.706   8.375  1.00  0.00     0.167 HD
ATOM     62  C   UNL     1      -4.261 -13.093  10.307  1.00  0.00     0.074 A 
ATOM     63  C   UNL     1      -3.154 -13.779  10.942  1.00  0.00     0.031 C 
ATOM     64  C   UNL     1      -5.458 -12.861  10.901  1.00  0.00     0.037 A 
BRANCH  51  65
ATOM     65  C   UNL     1      -9.461  -9.762   7.356  1.00  0.00     0.064 A 
ATOM     66  C   UNL     1     -10.472 -10.269   6.526  1.00  0.00     0.173 A 
ATOM     67  C   UNL     1      -9.744  -8.608   8.102  1.00  0.00     0.173 A 
ATOM     68  F   UNL     1     -10.250 -11.364   5.782  1.00  0.00    -0.203 F 
ATOM     69  C   UNL     1     -11.704  -9.628   6.422  1.00  0.00     0.198 A 
ATOM     70  C   UNL     1     -10.988  -7.987   8.019  1.00  0.00     0.198 A 
ATOM     71  F   UNL     1      -8.815  -8.083   8.915  1.00  0.00    -0.203 F 
ATOM     72  F   UNL     1     -12.636 -10.101   5.582  1.00  0.00    -0.200 F 
ATOM     73  C   UNL     1     -11.963  -8.492   7.173  1.00  0.00     0.200 A 
ATOM     74  F   UNL     1     -11.240  -6.895   8.754  1.00  0.00    -0.200 F 
ATOM     75  F   UNL     1     -13.150  -7.877   7.074  1.00  0.00    -0.200 F 
ENDBRANCH  51  65
BRANCH  52  76
ATOM     76  C   UNL     1      -0.304 -13.706   7.841  1.00  0.00     0.064 A 
ATOM     77  C   UNL     1      -0.141 -15.097   7.904  1.00  0.00     0.173 A 
ATOM     78  C   UNL     1       0.850 -12.911   7.849  1.00  0.00     0.173 A 
ATOM     79  F   UNL     1      -1.218 -15.896   7.918  1.00  0.00    -0.203 F 
ATOM     80  C   UNL     1       1.125 -15.670   7.989  1.00  0.00     0.198 A 
ATOM     81  C   UNL     1       2.118 -13.487   7.909  1.00  0.00     0.198 A 
ATOM     82  F   UNL     1       0.747 -11.576   7.785  1.00  0.00    -0.203 F 
ATOM     83  F   UNL     1       1.250 -17.000   8.088  1.00  0.00    -0.200 F 
ATOM     84  C   UNL     1       2.254 -14.865   7.986  1.00  0.00     0.200 A 
ATOM     85  F   UNL     1       3.207 -12.707   7.891  1.00  0.00    -0.200 F 
ATOM     86  F   UNL     1       3.472 -15.417   8.063  1.00  0.00    -0.200 F 
ENDBRANCH  52  76
BRANCH  64  87
ATOM     87  C   UNL     1      -5.631 -13.375  12.301  1.00  0.00     0.064 A 
ATOM     88  C   UNL     1      -4.962 -12.791  13.387  1.00  0.00     0.173 A 
ATOM     89  C   UNL     1      -6.480 -14.462  12.559  1.00  0.00     0.173 A 
ATOM     90  F   UNL     1      -4.126 -11.760  13.189  1.00  0.00    -0.203 F 
ATOM     91  C   UNL     1      -5.105 -13.302  14.674  1.00  0.00     0.198 A 
ATOM     92  C   UNL     1      -6.645 -14.950  13.852  1.00  0.00     0.198 A 
ATOM     93  F   UNL     1      -7.148 -15.052  11.557  1.00  0.00    -0.203 F 
ATOM     94  F   UNL     1      -4.407 -12.768  15.686  1.00  0.00    -0.200 F 
ATOM     95  C   UNL     1      -5.949 -14.377  14.906  1.00  0.00     0.200 A 
ATOM     96  F   UNL     1      -7.470 -15.982  14.077  1.00  0.00    -0.200 F 
ATOM     97  F   UNL     1      -6.082 -14.870  16.145  1.00  0.00    -0.200 F 
ENDBRANCH  64  87
ENDBRANCH  38  39
ENDBRANCH  30  33
ENDBRANCH  28  29
ENDBRANCH  27  28
ENDBRANCH   1  27
TORSDOF 14
