REMARK SMILES Cn1ccc(-c2n[nH]c(=O)n2-c2ccc(C(=O)NCCCCCCNC(=O)c3ccc(-c4c5nc(c(-c6c(F)c(F)c(F)c(F)c6F)c6ccc([nH]6)c(-c6c(F)c(F)c(F)c(F)c6F)c6nc(c(-c7c(F)c(F)c(F)c(F)c7F)c7ccc4[nH]7)C=C6)C=C5)cc3)cc2)n1
REMARK SMILES IDX 21 1 20 2 19 3 18 4 16 5 17 6 15 8 12 9 13 10 92 11 14 12
REMARK SMILES IDX 91 13 11 14 6 15 7 16 8 17 9 18 10 20 5 21 1 22 2 23 3 24
REMARK SMILES IDX 93 25 4 26 22 27 23 28 24 29 25 30 26 31 27 33 28 34 29 35
REMARK SMILES IDX 90 36 30 37 89 38 31 39 32 40 33 41 83 42 34 43 88 44 82 45
REMARK SMILES IDX 84 46 35 47 87 48 81 49 80 50 36 52 68 53 48 54 67 55 49 56
REMARK SMILES IDX 52 57 66 58 85 59 50 60 51 61 65 63 86 64 53 65 37 66 38 67
REMARK SMILES IDX 46 68 39 69 40 70 44 71 47 72 41 73 42 74 45 75 43 76 69 77
REMARK SMILES IDX 70 78 78 79 71 80 72 81 76 82 79 83 73 84 74 85 77 86 75 87
REMARK SMILES IDX 54 88 55 89 63 90 56 91 57 92 61 93 64 94 58 95 59 96 62 97
REMARK SMILES IDX 60 98
REMARK H PARENT 18 7 8 19 25 32 84 51 52 62
REMARK Flexibility Score: inf
ROOT
ATOM      1  C   UNL     1       0.256   0.557   8.876  1.00  0.00     0.002 C 
ENDROOT
BRANCH   1   2
ATOM      2  C   UNL     1       0.832   0.625   7.455  1.00  0.00     0.021 C 
BRANCH   2   3
ATOM      3  C   UNL     1      -0.175   1.140   6.422  1.00  0.00     0.116 C 
BRANCH   3   4
ATOM      4  N   UNL     1      -0.243   2.587   6.474  1.00  0.00    -0.352 N 
ATOM      5  C   UNL     1       0.258   3.582   5.673  1.00  0.00     0.251 C 
ATOM      6  O   UNL     1       0.033   4.744   6.012  1.00  0.00    -0.269 OA
ATOM      7  H   UNL     1      -0.754   2.927   7.244  1.00  0.00     0.163 HD
BRANCH   5   8
ATOM      8  C   UNL     1       0.989   3.327   4.400  1.00  0.00     0.039 A 
ATOM      9  C   UNL     1       2.142   2.935   1.861  1.00  0.00     0.052 A 
ATOM     10  C   UNL     1       1.568   4.165   2.179  1.00  0.00     0.028 A 
ATOM     11  C   UNL     1       2.219   1.940   2.840  1.00  0.00     0.028 A 
ATOM     12  C   UNL     1       0.965   4.344   3.430  1.00  0.00     0.016 A 
ATOM     13  C   UNL     1       1.701   2.162   4.118  1.00  0.00     0.016 A 
BRANCH   9  14
ATOM     14  N   UNL     1       2.710   2.706   0.602  1.00  0.00    -0.242 N 
ATOM     15  C   UNL     1       2.586   1.609  -0.197  1.00  0.00     0.189 A 
ATOM     16  N   UNL     1       3.494   1.503  -1.130  1.00  0.00    -0.150 NA
ATOM     17  N   UNL     1       4.255   2.630  -0.965  1.00  0.00    -0.226 N 
ATOM     18  C   UNL     1       3.786   3.397   0.102  1.00  0.00     0.348 A 
ATOM     19  H   UNL     1       5.030   2.867  -1.524  1.00  0.00     0.195 HD
ATOM     20  O   UNL     1       4.317   4.418   0.517  1.00  0.00    -0.246 OA
BRANCH  15  21
ATOM     21  C   UNL     1       1.489   0.661  -0.088  1.00  0.00     0.130 A 
ATOM     22  C   UNL     1      -1.952   0.023   0.033  1.00  0.00     0.173 C 
ATOM     23  N   UNL     1      -0.510  -0.059   0.025  1.00  0.00    -0.275 N 
ATOM     24  C   UNL     1       0.246  -1.183  -0.122  1.00  0.00     0.109 A 
ATOM     25  N   UNL     1       0.221   1.065   0.116  1.00  0.00    -0.170 NA
ATOM     26  C   UNL     1       1.545  -0.749  -0.236  1.00  0.00     0.054 A 
ENDBRANCH  15  21
ENDBRANCH   9  14
ENDBRANCH   5   8
ENDBRANCH   3   4
ENDBRANCH   2   3
ENDBRANCH   1   2
BRANCH   1  27
ATOM     27  C   UNL     1      -0.972  -0.352   9.041  1.00  0.00     0.002 C 
BRANCH  27  28
ATOM     28  C   UNL     1      -0.810  -1.786   8.516  1.00  0.00     0.021 C 
BRANCH  28  29
ATOM     29  C   UNL     1       0.173  -2.614   9.333  1.00  0.00     0.116 C 
BRANCH  29  30
ATOM     30  N   UNL     1      -0.340  -2.877  10.673  1.00  0.00    -0.352 N 
ATOM     31  C   UNL     1       0.256  -3.551  11.710  1.00  0.00     0.251 C 
ATOM     32  H   UNL     1      -1.239  -2.522  10.859  1.00  0.00     0.163 HD
ATOM     33  O   UNL     1      -0.416  -3.986  12.640  1.00  0.00    -0.269 OA
BRANCH  31  34
ATOM     34  C   UNL     1       1.711  -3.765  11.693  1.00  0.00     0.039 A 
ATOM     35  C   UNL     1       2.237  -4.999  12.088  1.00  0.00     0.014 A 
ATOM     36  C   UNL     1       2.551  -2.728  11.289  1.00  0.00     0.014 A 
ATOM     37  C   UNL     1       3.608  -5.212  11.997  1.00  0.00     0.010 A 
ATOM     38  C   UNL     1       3.895  -2.969  11.106  1.00  0.00     0.010 A 
ATOM     39  C   UNL     1       4.432  -4.201  11.482  1.00  0.00    -0.014 A 
BRANCH  39  40
ATOM     40  C   UNL     1       5.839  -4.482  11.203  1.00  0.00     0.031 A 
ATOM     41  C   UNL     1       6.093  -5.626  10.279  1.00  0.00     0.074 A 
ATOM     42  C   UNL     1       6.835  -3.643  11.554  1.00  0.00     0.049 A 
ATOM     43  N   UNL     1       6.822  -6.672  10.495  1.00  0.00    -0.248 NA
ATOM     44  C   UNL     1       5.390  -5.653   8.986  1.00  0.00     0.031 C 
ATOM     45  C   UNL     1       6.727  -2.339  12.214  1.00  0.00     0.029 A 
ATOM     46  N   UNL     1       8.166  -3.729  11.271  1.00  0.00    -0.354 N 
ATOM     47  C   UNL     1       6.798  -7.423   9.321  1.00  0.00     0.074 A 
ATOM     48  C   UNL     1       5.802  -6.816   8.476  1.00  0.00     0.031 C 
ATOM     49  C   UNL     1       7.887  -1.664  12.065  1.00  0.00     0.029 A 
ATOM     50  C   UNL     1       8.859  -2.537  11.431  1.00  0.00     0.049 A 
ATOM     51  H   UNL     1       8.597  -4.564  10.979  1.00  0.00     0.167 HD
ATOM     52  C   UNL     1       7.745  -8.370   9.067  1.00  0.00     0.037 A 
ATOM     53  C   UNL     1      10.127  -2.270  11.033  1.00  0.00     0.037 A 
ATOM     54  C   UNL     1       8.433  -8.748  10.275  1.00  0.00     0.049 A 
ATOM     55  C   UNL     1      10.816  -3.572  10.852  1.00  0.00     0.074 A 
ATOM     56  C   UNL     1       8.038  -9.289  11.484  1.00  0.00     0.029 A 
ATOM     57  N   UNL     1       9.696  -8.252  10.489  1.00  0.00    -0.354 N 
ATOM     58  N   UNL     1      11.134  -4.365  11.837  1.00  0.00    -0.248 NA
ATOM     59  C   UNL     1      10.763  -4.198   9.539  1.00  0.00     0.031 C 
ATOM     60  C   UNL     1       8.851  -8.640  12.459  1.00  0.00     0.029 A 
ATOM     61  C   UNL     1       9.733  -7.798  11.781  1.00  0.00     0.049 A 
ATOM     62  H   UNL     1      10.434  -8.227   9.838  1.00  0.00     0.167 HD
ATOM     63  C   UNL     1      10.873  -5.638  11.354  1.00  0.00     0.074 A 
ATOM     64  C   UNL     1      10.759  -5.482   9.907  1.00  0.00     0.031 C 
ATOM     65  C   UNL     1      10.483  -6.639  12.196  1.00  0.00     0.037 A 
BRANCH  52  66
ATOM     66  C   UNL     1       8.300  -8.703   7.700  1.00  0.00     0.064 A 
ATOM     67  C   UNL     1       9.233  -9.756   7.579  1.00  0.00     0.173 A 
ATOM     68  C   UNL     1       8.208  -7.847   6.583  1.00  0.00     0.173 A 
ATOM     69  F   UNL     1       9.406 -10.637   8.577  1.00  0.00    -0.203 F 
ATOM     70  C   UNL     1      10.086  -9.868   6.478  1.00  0.00     0.198 A 
ATOM     71  C   UNL     1       9.024  -7.995   5.462  1.00  0.00     0.198 A 
ATOM     72  F   UNL     1       7.414  -6.771   6.570  1.00  0.00    -0.203 F 
ATOM     73  F   UNL     1      11.053 -10.795   6.477  1.00  0.00    -0.200 F 
ATOM     74  C   UNL     1       9.989  -8.979   5.425  1.00  0.00     0.200 A 
ATOM     75  F   UNL     1       8.922  -7.116   4.454  1.00  0.00    -0.200 F 
ATOM     76  F   UNL     1      10.852  -9.037   4.403  1.00  0.00    -0.200 F 
ENDBRANCH  52  66
BRANCH  53  77
ATOM     77  C   UNL     1      10.722  -0.983  10.599  1.00  0.00     0.064 A 
ATOM     78  C   UNL     1      12.114  -0.831  10.481  1.00  0.00     0.173 A 
ATOM     79  C   UNL     1       9.935   0.045  10.041  1.00  0.00     0.173 A 
ATOM     80  F   UNL     1      12.939  -1.780  10.947  1.00  0.00    -0.203 F 
ATOM     81  C   UNL     1      12.681   0.262   9.817  1.00  0.00     0.198 A 
ATOM     82  C   UNL     1      10.503   1.142   9.392  1.00  0.00     0.198 A 
ATOM     83  F   UNL     1       8.597  -0.038  10.028  1.00  0.00    -0.203 F 
ATOM     84  F   UNL     1      14.011   0.334   9.664  1.00  0.00    -0.200 F 
ATOM     85  C   UNL     1      11.875   1.243   9.265  1.00  0.00     0.200 A 
ATOM     86  F   UNL     1       9.708   2.067   8.834  1.00  0.00    -0.200 F 
ATOM     87  F   UNL     1      12.415   2.257   8.576  1.00  0.00    -0.200 F 
ENDBRANCH  53  77
BRANCH  65  88
ATOM     88  C   UNL     1      10.607  -6.407  13.675  1.00  0.00     0.064 A 
ATOM     89  C   UNL     1       9.922  -5.398  14.373  1.00  0.00     0.173 A 
ATOM     90  C   UNL     1      11.333  -7.335  14.433  1.00  0.00     0.173 A 
ATOM     91  F   UNL     1       9.119  -4.538  13.737  1.00  0.00    -0.203 F 
ATOM     92  C   UNL     1      10.002  -5.295  15.760  1.00  0.00     0.198 A 
ATOM     93  C   UNL     1      11.380  -7.254  15.822  1.00  0.00     0.198 A 
ATOM     94  F   UNL     1      11.960  -8.355  13.826  1.00  0.00    -0.203 F 
ATOM     95  F   UNL     1       9.351  -4.312  16.400  1.00  0.00    -0.200 F 
ATOM     96  C   UNL     1      10.725  -6.228  16.484  1.00  0.00     0.200 A 
ATOM     97  F   UNL     1      12.037  -8.189  16.521  1.00  0.00    -0.200 F 
ATOM     98  F   UNL     1      10.769  -6.154  17.821  1.00  0.00    -0.200 F 
ENDBRANCH  65  88
ENDBRANCH  39  40
ENDBRANCH  31  34
ENDBRANCH  29  30
ENDBRANCH  28  29
ENDBRANCH  27  28
ENDBRANCH   1  27
TORSDOF 15
