REMARK SMILES COc1cccc(Cn2c(=O)c(=O)n(CC(=O)NCCCCCCNC(=O)c3ccc(-c4c5nc(c(-c6c(F)c(F)c(F)c(F)c6F)c6ccc([nH]6)c(-c6c(F)c(F)c(F)c(F)c6F)c6nc(c(-c7c(F)c(F)c(F)c(F)c7F)c7ccc4[nH]7)C=C6)C=C5)cc3)c3ccccc32)c1
REMARK SMILES IDX 20 1 19 2 18 3 16 4 17 5 15 7 14 8 9 9 10 10 96 11 11 12
REMARK SMILES IDX 12 13 91 14 95 15 13 16 92 17 94 18 93 19 8 20 7 21 3 22
REMARK SMILES IDX 4 23 97 24 5 25 6 26 2 27 1 28 21 29 22 30 23 31 24 32 25 33
REMARK SMILES IDX 26 34 27 36 28 37 29 38 90 39 30 40 89 41 31 42 32 43 33 44
REMARK SMILES IDX 83 45 34 46 88 47 82 48 84 49 35 50 87 51 81 52 80 53 36 55
REMARK SMILES IDX 68 56 48 57 67 58 49 59 52 60 66 61 85 62 50 63 51 64 65 66
REMARK SMILES IDX 86 67 53 68 37 69 38 70 46 71 39 72 40 73 44 74 47 75 41 76
REMARK SMILES IDX 42 77 45 78 43 79 69 80 70 81 78 82 71 83 72 84 76 85 79 86
REMARK SMILES IDX 73 87 74 88 77 89 75 90 54 91 55 92 63 93 56 94 57 95 61 96
REMARK SMILES IDX 64 97 58 98 59 99 62 100 60 101
REMARK H PARENT 18 6 25 35 84 54 52 65
REMARK Flexibility Score: inf
ROOT
ATOM      1  C   UNL     1       1.147  -0.557   7.489  1.00  0.00     0.021 C 
ENDROOT
BRANCH   1   2
ATOM      2  C   UNL     1       0.922   0.715   6.674  1.00  0.00     0.116 C 
BRANCH   2   3
ATOM      3  N   UNL     1       1.409   1.873   7.391  1.00  0.00    -0.355 N 
ATOM      4  C   UNL     1       2.636   2.451   7.420  1.00  0.00     0.240 C 
ATOM      5  O   UNL     1       2.752   3.439   8.159  1.00  0.00    -0.273 OA
ATOM      6  H   UNL     1       0.736   2.317   7.955  1.00  0.00     0.163 HD
BRANCH   4   7
ATOM      7  C   UNL     1       3.777   2.119   6.451  1.00  0.00     0.226 C 
BRANCH   7   8
ATOM      8  N   UNL     1       4.179   0.798   5.990  1.00  0.00    -0.293 N 
ATOM      9  N   UNL     1       5.240  -1.491   4.735  1.00  0.00    -0.298 N 
ATOM     10  C   UNL     1       4.931  -0.377   3.982  1.00  0.00     0.317 A 
ATOM     11  C   UNL     1       5.584  -1.238   6.091  1.00  0.00     0.068 A 
ATOM     12  O   UNL     1       5.365  -0.123   2.863  1.00  0.00    -0.263 OA
ATOM     13  C   UNL     1       3.919   0.536   4.651  1.00  0.00     0.317 A 
ATOM     14  C   UNL     1       5.093  -0.046   6.708  1.00  0.00     0.069 A 
ATOM     15  C   UNL     1       6.533  -2.028   6.755  1.00  0.00     0.028 A 
ATOM     16  O   UNL     1       3.022   1.038   3.981  1.00  0.00    -0.263 OA
ATOM     17  C   UNL     1       5.537   0.284   7.994  1.00  0.00     0.028 A 
ATOM     18  C   UNL     1       7.017  -1.634   8.005  1.00  0.00     0.002 A 
ATOM     19  C   UNL     1       6.513  -0.492   8.626  1.00  0.00     0.002 A 
BRANCH   9  20
ATOM     20  C   UNL     1       5.286  -2.777   4.043  1.00  0.00     0.162 C 
BRANCH  20  21
ATOM     21  C   UNL     1       3.885  -3.074   3.481  1.00  0.00    -0.024 A 
ATOM     22  C   UNL     1       2.004  -2.198   2.200  1.00  0.00     0.119 A 
ATOM     23  C   UNL     1       1.135  -2.990   2.940  1.00  0.00     0.046 A 
ATOM     24  C   UNL     1       3.378  -2.308   2.404  1.00  0.00     0.052 A 
ATOM     25  C   UNL     1       1.633  -3.882   3.888  1.00  0.00     0.004 A 
ATOM     26  C   UNL     1       2.999  -3.901   4.184  1.00  0.00     0.006 A 
BRANCH  22  27
ATOM     27  O   UNL     1       1.424  -1.181   1.494  1.00  0.00    -0.497 OA
ATOM     28  C   UNL     1       1.853  -1.042   0.148  1.00  0.00     0.278 C 
ENDBRANCH  22  27
ENDBRANCH  20  21
ENDBRANCH   9  20
ENDBRANCH   7   8
ENDBRANCH   4   7
ENDBRANCH   2   3
ENDBRANCH   1   2
BRANCH   1  29
ATOM     29  C   UNL     1       0.072  -0.774   8.564  1.00  0.00     0.002 C 
BRANCH  29  30
ATOM     30  C   UNL     1      -1.281  -1.243   8.013  1.00  0.00     0.002 C 
BRANCH  30  31
ATOM     31  C   UNL     1      -1.276  -2.651   7.406  1.00  0.00     0.021 C 
BRANCH  31  32
ATOM     32  C   UNL     1      -0.929  -3.763   8.394  1.00  0.00     0.116 C 
BRANCH  32  33
ATOM     33  N   UNL     1      -1.892  -3.827   9.484  1.00  0.00    -0.352 N 
ATOM     34  C   UNL     1      -2.849  -4.773   9.747  1.00  0.00     0.251 C 
ATOM     35  H   UNL     1      -1.850  -3.082  10.126  1.00  0.00     0.163 HD
ATOM     36  O   UNL     1      -3.767  -4.529  10.524  1.00  0.00    -0.269 OA
BRANCH  34  37
ATOM     37  C   UNL     1      -2.769  -6.099   9.103  1.00  0.00     0.039 A 
ATOM     38  C   UNL     1      -3.932  -6.681   8.590  1.00  0.00     0.014 A 
ATOM     39  C   UNL     1      -1.554  -6.788   9.057  1.00  0.00     0.014 A 
ATOM     40  C   UNL     1      -3.866  -7.938   7.986  1.00  0.00     0.010 A 
ATOM     41  C   UNL     1      -1.478  -8.014   8.405  1.00  0.00     0.010 A 
ATOM     42  C   UNL     1      -2.635  -8.603   7.872  1.00  0.00    -0.014 A 
BRANCH  42  43
ATOM     43  C   UNL     1      -2.527  -9.924   7.210  1.00  0.00     0.031 A 
ATOM     44  C   UNL     1      -2.165 -11.138   8.014  1.00  0.00     0.074 A 
ATOM     45  C   UNL     1      -2.671 -10.010   5.875  1.00  0.00     0.049 A 
ATOM     46  N   UNL     1      -1.919 -12.358   7.609  1.00  0.00    -0.248 NA
ATOM     47  C   UNL     1      -2.034 -10.948   9.467  1.00  0.00     0.031 C 
ATOM     48  C   UNL     1      -2.986  -8.892   4.986  1.00  0.00     0.029 A 
ATOM     49  N   UNL     1      -2.554 -11.086   5.033  1.00  0.00    -0.354 N 
ATOM     50  C   UNL     1      -1.584 -13.073   8.750  1.00  0.00     0.074 A 
ATOM     51  C   UNL     1      -1.617 -12.143   9.859  1.00  0.00     0.031 C 
ATOM     52  C   UNL     1      -3.054  -9.343   3.723  1.00  0.00     0.029 A 
ATOM     53  C   UNL     1      -2.752 -10.771   3.712  1.00  0.00     0.049 A 
ATOM     54  H   UNL     1      -2.348 -11.996   5.346  1.00  0.00     0.167 HD
ATOM     55  C   UNL     1      -1.292 -14.391   8.863  1.00  0.00     0.037 A 
ATOM     56  C   UNL     1      -2.687 -11.549   2.615  1.00  0.00     0.037 A 
ATOM     57  C   UNL     1      -1.295 -15.317   7.762  1.00  0.00     0.049 A 
ATOM     58  C   UNL     1      -2.348 -13.005   2.764  1.00  0.00     0.074 A 
ATOM     59  C   UNL     1      -1.108 -16.688   7.784  1.00  0.00     0.029 A 
ATOM     60  N   UNL     1      -1.493 -14.961   6.435  1.00  0.00    -0.354 N 
ATOM     61  N   UNL     1      -2.097 -13.687   3.855  1.00  0.00    -0.248 NA
ATOM     62  C   UNL     1      -2.277 -13.797   1.529  1.00  0.00     0.031 C 
ATOM     63  C   UNL     1      -1.151 -17.156   6.465  1.00  0.00     0.029 A 
ATOM     64  C   UNL     1      -1.400 -16.082   5.626  1.00  0.00     0.049 A 
ATOM     65  H   UNL     1      -1.673 -14.047   6.116  1.00  0.00     0.167 HD
ATOM     66  C   UNL     1      -1.853 -14.989   3.443  1.00  0.00     0.074 A 
ATOM     67  C   UNL     1      -2.000 -15.005   2.001  1.00  0.00     0.031 C 
ATOM     68  C   UNL     1      -1.536 -16.074   4.191  1.00  0.00     0.037 A 
BRANCH  55  69
ATOM     69  C   UNL     1      -0.940 -14.904  10.228  1.00  0.00     0.064 A 
ATOM     70  C   UNL     1      -1.903 -15.025  11.241  1.00  0.00     0.173 A 
ATOM     71  C   UNL     1       0.376 -15.290  10.524  1.00  0.00     0.173 A 
ATOM     72  F   UNL     1      -3.173 -14.656  11.012  1.00  0.00    -0.203 F 
ATOM     73  C   UNL     1      -1.556 -15.480  12.510  1.00  0.00     0.198 A 
ATOM     74  C   UNL     1       0.715 -15.771  11.786  1.00  0.00     0.198 A 
ATOM     75  F   UNL     1       1.335 -15.198   9.590  1.00  0.00    -0.203 F 
ATOM     76  F   UNL     1      -2.482 -15.536  13.477  1.00  0.00    -0.200 F 
ATOM     77  C   UNL     1      -0.249 -15.857  12.780  1.00  0.00     0.200 A 
ATOM     78  F   UNL     1       1.976 -16.142  12.044  1.00  0.00    -0.200 F 
ATOM     79  F   UNL     1       0.085 -16.293  14.003  1.00  0.00    -0.200 F 
ENDBRANCH  55  69
BRANCH  56  80
ATOM     80  C   UNL     1      -2.978 -10.962   1.284  1.00  0.00     0.064 A 
ATOM     81  C   UNL     1      -4.180 -11.253   0.625  1.00  0.00     0.173 A 
ATOM     82  C   UNL     1      -2.083 -10.084   0.658  1.00  0.00     0.173 A 
ATOM     83  F   UNL     1      -5.056 -12.105   1.177  1.00  0.00    -0.203 F 
ATOM     84  C   UNL     1      -4.474 -10.689  -0.614  1.00  0.00     0.198 A 
ATOM     85  C   UNL     1      -2.387  -9.504  -0.572  1.00  0.00     0.198 A 
ATOM     86  F   UNL     1      -0.921  -9.773   1.252  1.00  0.00    -0.203 F 
ATOM     87  F   UNL     1      -5.619 -11.003  -1.235  1.00  0.00    -0.200 F 
ATOM     88  C   UNL     1      -3.581  -9.809  -1.208  1.00  0.00     0.200 A 
ATOM     89  F   UNL     1      -1.527  -8.646  -1.137  1.00  0.00    -0.200 F 
ATOM     90  F   UNL     1      -3.870  -9.259  -2.395  1.00  0.00    -0.200 F 
ENDBRANCH  56  80
BRANCH  68  91
ATOM     91  C   UNL     1      -1.329 -17.368   3.463  1.00  0.00     0.064 A 
ATOM     92  C   UNL     1      -0.166 -17.606   2.718  1.00  0.00     0.173 A 
ATOM     93  C   UNL     1      -2.285 -18.391   3.541  1.00  0.00     0.173 A 
ATOM     94  F   UNL     1       0.768 -16.650   2.600  1.00  0.00    -0.203 F 
ATOM     95  C   UNL     1       0.026 -18.819   2.062  1.00  0.00     0.198 A 
ATOM     96  C   UNL     1      -2.079 -19.611   2.904  1.00  0.00     0.198 A 
ATOM     97  F   UNL     1      -3.413 -18.211   4.245  1.00  0.00    -0.203 F 
ATOM     98  F   UNL     1       1.128 -19.012   1.324  1.00  0.00    -0.200 F 
ATOM     99  C   UNL     1      -0.926 -19.822   2.161  1.00  0.00     0.200 A 
ATOM    100  F   UNL     1      -2.995 -20.583   3.007  1.00  0.00    -0.200 F 
ATOM    101  F   UNL     1      -0.737 -20.991   1.534  1.00  0.00    -0.200 F 
ENDBRANCH  68  91
ENDBRANCH  42  43
ENDBRANCH  34  37
ENDBRANCH  32  33
ENDBRANCH  31  32
ENDBRANCH  30  31
ENDBRANCH  29  30
ENDBRANCH   1  29
TORSDOF 17
