REMARK SMILES CCC[C@@]1(C(=O)NCCCCCCNC(=O)c2ccc(-c3c4nc(c(-c5c(F)c(F)c(F)c(F)c5F)c5ccc([nH]5)c(-c5c(F)c(F)c(F)c(F)c5F)c5nc(c(-c6c(F)c(F)c(F)c(F)c6F)c6ccc3[nH]6)C=C5)C=C4)cc2)CCCN(C(=O)CCn2cncn2)C1
REMARK SMILES IDX 9 1 8 2 7 3 5 4 6 5 4 7 80 8 93 9 81 10 83 11 82 12 3 13
REMARK SMILES IDX 2 14 1 15 84 16 85 17 86 18 87 19 88 20 89 21 92 22 90 23
REMARK SMILES IDX 91 24 10 25 11 26 12 27 13 28 14 29 15 30 16 32 17 33 18 34
REMARK SMILES IDX 79 35 19 36 78 37 20 38 21 39 22 40 72 41 23 42 77 43 71 44
REMARK SMILES IDX 73 45 24 46 76 47 70 48 69 49 25 51 57 52 37 53 56 54 38 55
REMARK SMILES IDX 41 56 55 57 74 58 39 59 40 60 54 62 75 63 42 64 26 65 27 66
REMARK SMILES IDX 35 67 28 68 29 69 33 70 36 71 30 72 31 73 34 74 32 75 58 76
REMARK SMILES IDX 59 77 67 78 60 79 61 80 65 81 68 82 62 83 63 84 66 85 64 86
REMARK SMILES IDX 43 87 44 88 52 89 45 90 46 91 50 92 53 93 47 94 48 95 51 96
REMARK SMILES IDX 49 97
REMARK H PARENT 7 6 14 31 73 50 41 61
REMARK Flexibility Score: inf
ROOT
ATOM      1  C   UNL     1       0.435   1.236   5.170  1.00  0.00     0.021 C 
ENDROOT
BRANCH   1   2
ATOM      2  C   UNL     1       1.282   2.092   4.231  1.00  0.00     0.116 C 
BRANCH   2   3
ATOM      3  N   UNL     1       1.731   1.357   3.066  1.00  0.00    -0.356 N 
ATOM      4  C   UNL     1       1.516   1.464   1.733  1.00  0.00     0.228 C 
ATOM      5  O   UNL     1       2.100   0.597   1.064  1.00  0.00    -0.274 OA
ATOM      6  H   UNL     1       2.329   0.610   3.296  1.00  0.00     0.163 HD
BRANCH   4   7
ATOM      7  C   UNL     1       0.562   2.477   1.018  1.00  0.00     0.067 C 
ATOM      8  C   UNL     1       0.577   3.936   1.574  1.00  0.00     0.020 C 
ATOM      9  C   UNL     1      -0.831   1.817   1.025  1.00  0.00     0.136 C 
ATOM     10  C   UNL     1      -0.663   4.462   2.313  1.00  0.00     0.023 C 
ATOM     11  N   UNL     1      -1.740   2.289   2.065  1.00  0.00    -0.342 N 
ATOM     12  C   UNL     1      -1.961   3.722   2.038  1.00  0.00     0.119 C 
BRANCH   7  13
ATOM     13  C   UNL     1       1.149   2.605  -0.465  1.00  0.00     0.018 C 
BRANCH  13  14
ATOM     14  C   UNL     1       0.675   1.644  -1.568  1.00  0.00    -0.002 C 
ATOM     15  C   UNL     1      -0.508   2.180  -2.375  1.00  0.00     0.004 C 
ENDBRANCH  13  14
ENDBRANCH   7  13
BRANCH  11  16
ATOM     16  C   UNL     1      -2.377   1.367   2.875  1.00  0.00     0.224 C 
ATOM     17  O   UNL     1      -2.001   0.195   2.957  1.00  0.00    -0.275 OA
BRANCH  16  18
ATOM     18  C   UNL     1      -3.626   1.767   3.635  1.00  0.00     0.124 C 
BRANCH  18  19
ATOM     19  C   UNL     1      -3.382   1.886   5.130  1.00  0.00     0.156 C 
BRANCH  19  20
ATOM     20  N   UNL     1      -3.139   3.247   5.559  1.00  0.00    -0.252 N 
ATOM     21  C   UNL     1      -4.005   4.093   6.178  1.00  0.00     0.219 A 
ATOM     22  N   UNL     1      -1.941   3.832   5.395  1.00  0.00    -0.160 NA
ATOM     23  N   UNL     1      -3.410   5.240   6.409  1.00  0.00    -0.224 NA
ATOM     24  C   UNL     1      -2.160   5.047   5.903  1.00  0.00     0.246 A 
ENDBRANCH  19  20
ENDBRANCH  18  19
ENDBRANCH  16  18
ENDBRANCH  11  16
ENDBRANCH   4   7
ENDBRANCH   2   3
ENDBRANCH   1   2
BRANCH   1  25
ATOM     25  C   UNL     1       1.113   0.742   6.450  1.00  0.00     0.002 C 
BRANCH  25  26
ATOM     26  C   UNL     1       1.648   1.810   7.414  1.00  0.00     0.002 C 
BRANCH  26  27
ATOM     27  C   UNL     1       0.706   2.957   7.800  1.00  0.00     0.021 C 
BRANCH  27  28
ATOM     28  C   UNL     1      -0.647   2.569   8.399  1.00  0.00     0.116 C 
BRANCH  28  29
ATOM     29  N   UNL     1      -0.528   1.792   9.621  1.00  0.00    -0.352 N 
ATOM     30  C   UNL     1      -0.856   2.071  10.924  1.00  0.00     0.251 C 
ATOM     31  H   UNL     1      -0.140   0.897   9.490  1.00  0.00     0.163 HD
ATOM     32  O   UNL     1      -0.519   1.276  11.799  1.00  0.00    -0.269 OA
BRANCH  30  33
ATOM     33  C   UNL     1      -1.587   3.300  11.322  1.00  0.00     0.039 A 
ATOM     34  C   UNL     1      -1.206   3.925  12.518  1.00  0.00     0.014 A 
ATOM     35  C   UNL     1      -2.688   3.793  10.617  1.00  0.00     0.014 A 
ATOM     36  C   UNL     1      -1.887   5.059  12.976  1.00  0.00     0.010 A 
ATOM     37  C   UNL     1      -3.338   4.957  11.049  1.00  0.00     0.010 A 
ATOM     38  C   UNL     1      -2.945   5.602  12.233  1.00  0.00    -0.014 A 
BRANCH  38  39
ATOM     39  C   UNL     1      -3.616   6.855  12.675  1.00  0.00     0.031 A 
ATOM     40  C   UNL     1      -5.042   6.848  13.151  1.00  0.00     0.074 A 
ATOM     41  C   UNL     1      -2.946   8.022  12.606  1.00  0.00     0.049 A 
ATOM     42  N   UNL     1      -5.790   7.852  13.542  1.00  0.00    -0.248 NA
ATOM     43  C   UNL     1      -5.725   5.547  13.176  1.00  0.00     0.031 C 
ATOM     44  C   UNL     1      -1.574   8.177  12.125  1.00  0.00     0.029 A 
ATOM     45  N   UNL     1      -3.333   9.300  12.929  1.00  0.00    -0.354 N 
ATOM     46  C   UNL     1      -7.032   7.308  13.844  1.00  0.00     0.074 A 
ATOM     47  C   UNL     1      -6.947   5.890  13.560  1.00  0.00     0.031 C 
ATOM     48  C   UNL     1      -1.231   9.473  12.188  1.00  0.00     0.029 A 
ATOM     49  C   UNL     1      -2.367  10.245  12.685  1.00  0.00     0.049 A 
ATOM     50  H   UNL     1      -4.219   9.518  13.299  1.00  0.00     0.167 HD
ATOM     51  C   UNL     1      -8.135   7.931  14.326  1.00  0.00     0.037 A 
ATOM     52  C   UNL     1      -2.392  11.583  12.834  1.00  0.00     0.037 A 
ATOM     53  C   UNL     1      -8.215   9.337  14.633  1.00  0.00     0.049 A 
ATOM     54  C   UNL     1      -3.625  12.248  13.378  1.00  0.00     0.074 A 
ATOM     55  C   UNL     1      -9.265  10.038  15.202  1.00  0.00     0.029 A 
ATOM     56  N   UNL     1      -7.209  10.259  14.389  1.00  0.00    -0.354 N 
ATOM     57  N   UNL     1      -4.765  11.711  13.734  1.00  0.00    -0.248 NA
ATOM     58  C   UNL     1      -3.570  13.707  13.550  1.00  0.00     0.031 C 
ATOM     59  C   UNL     1      -8.913  11.391  15.259  1.00  0.00     0.029 A 
ATOM     60  C   UNL     1      -7.625  11.527  14.768  1.00  0.00     0.049 A 
ATOM     61  H   UNL     1      -6.328  10.045  14.003  1.00  0.00     0.167 HD
ATOM     62  C   UNL     1      -5.556  12.758  14.187  1.00  0.00     0.074 A 
ATOM     63  C   UNL     1      -4.759  13.962  14.078  1.00  0.00     0.031 C 
ATOM     64  C   UNL     1      -6.829  12.722  14.651  1.00  0.00     0.037 A 
BRANCH  51  65
ATOM     65  C   UNL     1      -9.363   7.096  14.549  1.00  0.00     0.064 A 
ATOM     66  C   UNL     1      -9.443   6.168  15.598  1.00  0.00     0.173 A 
ATOM     67  C   UNL     1     -10.493   7.261  13.732  1.00  0.00     0.173 A 
ATOM     68  F   UNL     1      -8.389   5.968  16.404  1.00  0.00    -0.203 F 
ATOM     69  C   UNL     1     -10.598   5.417  15.804  1.00  0.00     0.198 A 
ATOM     70  C   UNL     1     -11.655   6.528  13.958  1.00  0.00     0.198 A 
ATOM     71  F   UNL     1     -10.473   8.143  12.721  1.00  0.00    -0.203 F 
ATOM     72  F   UNL     1     -10.636   4.505  16.785  1.00  0.00    -0.200 F 
ATOM     73  C   UNL     1     -11.704   5.601  14.988  1.00  0.00     0.200 A 
ATOM     74  F   UNL     1     -12.727   6.717  13.177  1.00  0.00    -0.200 F 
ATOM     75  F   UNL     1     -12.816   4.882  15.191  1.00  0.00    -0.200 F 
ENDBRANCH  51  65
BRANCH  52  76
ATOM     76  C   UNL     1      -1.194  12.382  12.470  1.00  0.00     0.064 A 
ATOM     77  C   UNL     1      -0.395  12.973  13.457  1.00  0.00     0.173 A 
ATOM     78  C   UNL     1      -0.818  12.556  11.130  1.00  0.00     0.173 A 
ATOM     79  F   UNL     1      -0.729  12.852  14.750  1.00  0.00    -0.203 F 
ATOM     80  C   UNL     1       0.731  13.721  13.117  1.00  0.00     0.198 A 
ATOM     81  C   UNL     1       0.322  13.282  10.793  1.00  0.00     0.198 A 
ATOM     82  F   UNL     1      -1.550  12.007  10.150  1.00  0.00    -0.203 F 
ATOM     83  F   UNL     1       1.458  14.307  14.078  1.00  0.00    -0.200 F 
ATOM     84  C   UNL     1       1.092  13.869  11.786  1.00  0.00     0.200 A 
ATOM     85  F   UNL     1       0.675  13.412   9.507  1.00  0.00    -0.200 F 
ATOM     86  F   UNL     1       2.179  14.581  11.460  1.00  0.00    -0.200 F 
ENDBRANCH  52  76
BRANCH  64  87
ATOM     87  C   UNL     1      -7.437  14.022  15.091  1.00  0.00     0.064 A 
ATOM     88  C   UNL     1      -7.825  15.001  14.165  1.00  0.00     0.173 A 
ATOM     89  C   UNL     1      -7.662  14.278  16.452  1.00  0.00     0.173 A 
ATOM     90  F   UNL     1      -7.615  14.811  12.854  1.00  0.00    -0.203 F 
ATOM     91  C   UNL     1      -8.394  16.200  14.588  1.00  0.00     0.198 A 
ATOM     92  C   UNL     1      -8.256  15.467  16.869  1.00  0.00     0.198 A 
ATOM     93  F   UNL     1      -7.314  13.373  17.378  1.00  0.00    -0.203 F 
ATOM     94  F   UNL     1      -8.716  17.140  13.688  1.00  0.00    -0.200 F 
ATOM     95  C   UNL     1      -8.615  16.429  15.938  1.00  0.00     0.200 A 
ATOM     96  F   UNL     1      -8.479  15.682  18.173  1.00  0.00    -0.200 F 
ATOM     97  F   UNL     1      -9.167  17.582  16.341  1.00  0.00    -0.200 F 
ENDBRANCH  64  87
ENDBRANCH  38  39
ENDBRANCH  30  33
ENDBRANCH  28  29
ENDBRANCH  27  28
ENDBRANCH  26  27
ENDBRANCH  25  26
ENDBRANCH   1  25
TORSDOF 19
