REMARK SMILES CC1=C[C@@H]([C@@H]2N=N[C@H](S)N2/N=C/c2ccc(C(=O)NCCCCCCNC(=O)c3ccc(-c4c5nc(c(-c6c(F)c(F)c(F)c(F)c6F)c6ccc([nH]6)c(-c6c(F)c(F)c(F)c(F)c6F)c6nc(c(-c7c(F)c(F)c(F)c(F)c7F)c7ccc4[nH]7)C=C6)C=C5)cc3)cc2)N=N1
REMARK SMILES IDX 22 1 21 2 20 3 19 4 17 5 18 6 16 8 13 9 14 10 93 11 15 12
REMARK SMILES IDX 92 13 12 14 11 15 10 16 5 17 6 18 7 19 8 20 4 21 1 22 2 23
REMARK SMILES IDX 3 24 95 25 94 26 9 27 23 29 24 30 25 31 26 32 27 33 28 35
REMARK SMILES IDX 29 36 30 37 91 38 31 39 90 40 32 41 33 42 34 43 84 44 35 45
REMARK SMILES IDX 89 46 83 47 85 48 36 49 88 50 82 51 81 52 37 54 69 55 49 56
REMARK SMILES IDX 68 57 50 58 53 59 67 60 86 61 51 62 52 63 66 65 87 66 54 67
REMARK SMILES IDX 38 68 39 69 47 70 40 71 41 72 45 73 48 74 42 75 43 76 46 77
REMARK SMILES IDX 44 78 70 79 71 80 79 81 72 82 73 83 77 84 80 85 74 86 75 87
REMARK SMILES IDX 78 88 76 89 55 90 56 91 64 92 57 93 58 94 62 95 65 96 59 97
REMARK SMILES IDX 60 98 63 99 61 100
REMARK H PARENT 19 7 9 28 26 34 85 53 53 64
REMARK Flexibility Score: inf
ROOT
ATOM      1  C   UNL     1       6.385   4.533  -1.343  1.00  0.00     0.002 C 
ENDROOT
BRANCH   1   2
ATOM      2  C   UNL     1       5.840   3.470  -0.379  1.00  0.00     0.021 C 
BRANCH   2   3
ATOM      3  C   UNL     1       5.482   2.151  -1.070  1.00  0.00     0.116 C 
BRANCH   3   4
ATOM      4  N   UNL     1       6.680   1.365  -1.289  1.00  0.00    -0.352 N 
ATOM      5  C   UNL     1       7.192   0.257  -0.668  1.00  0.00     0.251 C 
ATOM      6  O   UNL     1       8.259  -0.190  -1.088  1.00  0.00    -0.269 OA
ATOM      7  H   UNL     1       7.236   1.693  -2.032  1.00  0.00     0.163 HD
BRANCH   5   8
ATOM      8  C   UNL     1       6.489  -0.469   0.427  1.00  0.00     0.039 A 
ATOM      9  C   UNL     1       5.115  -2.044   2.295  1.00  0.00    -0.005 A 
ATOM     10  C   UNL     1       6.077  -2.631   1.473  1.00  0.00     0.010 A 
ATOM     11  C   UNL     1       4.889  -0.669   2.245  1.00  0.00     0.010 A 
ATOM     12  C   UNL     1       6.749  -1.846   0.534  1.00  0.00     0.014 A 
ATOM     13  C   UNL     1       5.609   0.120   1.341  1.00  0.00     0.014 A 
BRANCH   9  14
ATOM     14  C   UNL     1       4.335  -2.909   3.194  1.00  0.00     0.141 C 
ATOM     15  N   UNL     1       3.206  -2.530   3.710  1.00  0.00    -0.180 NA
BRANCH  15  16
ATOM     16  N   UNL     1       2.603  -3.456   4.486  1.00  0.00    -0.233 NA
ATOM     17  C   UNL     1       1.175  -3.460   4.790  1.00  0.00     0.274 C 
ATOM     18  N   UNL     1       0.958  -4.522   5.812  1.00  0.00    -0.161 NA
ATOM     19  N   UNL     1       2.058  -4.962   6.231  1.00  0.00    -0.153 NA
ATOM     20  C   UNL     1       3.179  -4.291   5.538  1.00  0.00     0.298 C 
BRANCH  17  21
ATOM     21  C   UNL     1       0.580  -2.113   5.282  1.00  0.00     0.201 C 
ATOM     22  C   UNL     1       0.352  -1.328   8.896  1.00  0.00     0.068 C 
ATOM     23  C   UNL     1       0.215  -1.621   7.447  1.00  0.00     0.058 C 
ATOM     24  C   UNL     1       1.178  -1.561   6.529  1.00  0.00     0.031 C 
ATOM     25  N   UNL     1      -0.976  -2.061   6.930  1.00  0.00    -0.160 NA
ATOM     26  N   UNL     1      -0.846  -2.321   5.698  1.00  0.00    -0.177 NA
ENDBRANCH  17  21
BRANCH  20  27
ATOM     27  S   UNL     1       4.316  -3.382   6.645  1.00  0.00    -0.128 SA
ATOM     28  H   UNL     1       3.636  -2.386   7.274  1.00  0.00     0.106 HD
ENDBRANCH  20  27
ENDBRANCH  15  16
ENDBRANCH   9  14
ENDBRANCH   5   8
ENDBRANCH   3   4
ENDBRANCH   2   3
ENDBRANCH   1   2
BRANCH   1  29
ATOM     29  C   UNL     1       5.446   4.916  -2.500  1.00  0.00     0.002 C 
BRANCH  29  30
ATOM     30  C   UNL     1       4.014   5.300  -2.102  1.00  0.00     0.021 C 
BRANCH  30  31
ATOM     31  C   UNL     1       3.928   6.633  -1.376  1.00  0.00     0.116 C 
BRANCH  31  32
ATOM     32  N   UNL     1       4.242   7.753  -2.261  1.00  0.00    -0.352 N 
ATOM     33  C   UNL     1       4.382   9.089  -1.942  1.00  0.00     0.251 C 
ATOM     34  H   UNL     1       4.370   7.524  -3.210  1.00  0.00     0.163 HD
ATOM     35  O   UNL     1       4.289   9.958  -2.789  1.00  0.00    -0.269 OA
BRANCH  33  36
ATOM     36  C   UNL     1       4.650   9.440  -0.538  1.00  0.00     0.039 A 
ATOM     37  C   UNL     1       3.969  10.490   0.081  1.00  0.00     0.014 A 
ATOM     38  C   UNL     1       5.574   8.668   0.160  1.00  0.00     0.014 A 
ATOM     39  C   UNL     1       4.166  10.706   1.442  1.00  0.00     0.010 A 
ATOM     40  C   UNL     1       5.662   8.791   1.523  1.00  0.00     0.010 A 
ATOM     41  C   UNL     1       5.001   9.838   2.162  1.00  0.00    -0.014 A 
BRANCH  41  42
ATOM     42  C   UNL     1       5.114   9.949   3.612  1.00  0.00     0.031 A 
ATOM     43  C   UNL     1       3.827   9.846   4.362  1.00  0.00     0.074 A 
ATOM     44  C   UNL     1       6.306   9.901   4.245  1.00  0.00     0.049 A 
ATOM     45  N   UNL     1       3.291  10.716   5.154  1.00  0.00    -0.248 NA
ATOM     46  C   UNL     1       2.985   8.660   4.131  1.00  0.00     0.031 C 
ATOM     47  C   UNL     1       7.635   9.666   3.664  1.00  0.00     0.029 A 
ATOM     48  N   UNL     1       6.568   9.931   5.579  1.00  0.00    -0.354 N 
ATOM     49  C   UNL     1       2.130  10.128   5.656  1.00  0.00     0.074 A 
ATOM     50  C   UNL     1       1.916   8.934   4.881  1.00  0.00     0.031 C 
ATOM     51  C   UNL     1       8.505   9.334   4.642  1.00  0.00     0.029 A 
ATOM     52  C   UNL     1       7.846   9.510   5.921  1.00  0.00     0.049 A 
ATOM     53  H   UNL     1       5.907  10.227   6.246  1.00  0.00     0.167 HD
ATOM     54  C   UNL     1       1.563  10.561   6.817  1.00  0.00     0.037 A 
ATOM     55  C   UNL     1       8.319   9.290   7.171  1.00  0.00     0.037 A 
ATOM     56  C   UNL     1       2.041  11.874   7.167  1.00  0.00     0.049 A 
ATOM     57  C   UNL     1       7.420   9.999   8.113  1.00  0.00     0.074 A 
ATOM     58  C   UNL     1       1.992  13.118   6.569  1.00  0.00     0.029 A 
ATOM     59  N   UNL     1       3.011  11.967   8.133  1.00  0.00    -0.354 N 
ATOM     60  N   UNL     1       7.317  11.297   8.184  1.00  0.00    -0.248 NA
ATOM     61  C   UNL     1       6.304   9.252   8.672  1.00  0.00     0.031 C 
ATOM     62  C   UNL     1       3.256  13.713   6.858  1.00  0.00     0.029 A 
ATOM     63  C   UNL     1       3.970  12.828   7.668  1.00  0.00     0.049 A 
ATOM     64  H   UNL     1       3.018  11.501   9.000  1.00  0.00     0.167 HD
ATOM     65  C   UNL     1       5.966  11.531   8.388  1.00  0.00     0.074 A 
ATOM     66  C   UNL     1       5.411  10.238   8.779  1.00  0.00     0.031 C 
ATOM     67  C   UNL     1       5.379  12.681   7.943  1.00  0.00     0.037 A 
BRANCH  54  68
ATOM     68  C   UNL     1       0.870   9.673   7.827  1.00  0.00     0.064 A 
ATOM     69  C   UNL     1       0.255  10.264   8.952  1.00  0.00     0.173 A 
ATOM     70  C   UNL     1       1.055   8.276   7.907  1.00  0.00     0.173 A 
ATOM     71  F   UNL     1       0.034  11.587   8.995  1.00  0.00    -0.203 F 
ATOM     72  C   UNL     1      -0.054   9.530  10.101  1.00  0.00     0.198 A 
ATOM     73  C   UNL     1       0.696   7.538   9.035  1.00  0.00     0.198 A 
ATOM     74  F   UNL     1       1.691   7.584   6.956  1.00  0.00    -0.203 F 
ATOM     75  F   UNL     1      -0.505  10.162  11.193  1.00  0.00    -0.200 F 
ATOM     76  C   UNL     1       0.176   8.168  10.145  1.00  0.00     0.200 A 
ATOM     77  F   UNL     1       0.942   6.220   9.063  1.00  0.00    -0.200 F 
ATOM     78  F   UNL     1      -0.051   7.474  11.267  1.00  0.00    -0.200 F 
ENDBRANCH  54  68
BRANCH  55  79
ATOM     79  C   UNL     1       9.302   8.278   7.618  1.00  0.00     0.064 A 
ATOM     80  C   UNL     1       9.949   8.396   8.858  1.00  0.00     0.173 A 
ATOM     81  C   UNL     1       9.414   7.034   6.966  1.00  0.00     0.173 A 
ATOM     82  F   UNL     1       9.855   9.534   9.561  1.00  0.00    -0.203 F 
ATOM     83  C   UNL     1      10.642   7.322   9.428  1.00  0.00     0.198 A 
ATOM     84  C   UNL     1      10.111   5.965   7.533  1.00  0.00     0.198 A 
ATOM     85  F   UNL     1       8.768   6.800   5.815  1.00  0.00    -0.203 F 
ATOM     86  F   UNL     1      11.191   7.451  10.643  1.00  0.00    -0.200 F 
ATOM     87  C   UNL     1      10.712   6.105   8.770  1.00  0.00     0.200 A 
ATOM     88  F   UNL     1      10.139   4.782   6.904  1.00  0.00    -0.200 F 
ATOM     89  F   UNL     1      11.318   5.057   9.345  1.00  0.00    -0.200 F 
ENDBRANCH  55  79
BRANCH  67  90
ATOM     90  C   UNL     1       6.276  13.796   7.482  1.00  0.00     0.064 A 
ATOM     91  C   UNL     1       7.137  13.712   6.374  1.00  0.00     0.173 A 
ATOM     92  C   UNL     1       6.142  15.047   8.098  1.00  0.00     0.173 A 
ATOM     93  F   UNL     1       7.247  12.581   5.669  1.00  0.00    -0.203 F 
ATOM     94  C   UNL     1       7.859  14.819   5.932  1.00  0.00     0.198 A 
ATOM     95  C   UNL     1       6.835  16.160   7.632  1.00  0.00     0.198 A 
ATOM     96  F   UNL     1       5.294  15.201   9.127  1.00  0.00    -0.203 F 
ATOM     97  F   UNL     1       8.681  14.710   4.878  1.00  0.00    -0.200 F 
ATOM     98  C   UNL     1       7.700  16.045   6.556  1.00  0.00     0.200 A 
ATOM     99  F   UNL     1       6.640  17.354   8.209  1.00  0.00    -0.200 F 
ATOM    100  F   UNL     1       8.360  17.121   6.105  1.00  0.00    -0.200 F 
ENDBRANCH  67  90
ENDBRANCH  41  42
ENDBRANCH  33  36
ENDBRANCH  31  32
ENDBRANCH  30  31
ENDBRANCH  29  30
ENDBRANCH   1  29
TORSDOF 17
