REMARK SMILES O=C(NCCCCCCNC(=O)c1cc(F)cc(-c2cccc(F)c2F)c1)c1ccc(-c2c3nc(c(-c4c(F)c(F)c(F)c(F)c4F)c4ccc([nH]4)c(-c4c(F)c(F)c(F)c(F)c4F)c4nc(c(-c5c(F)c(F)c(F)c(F)c5F)c5ccc2[nH]5)C=C4)C=C3)cc1
REMARK SMILES IDX 6 1 5 2 4 3 3 4 1 5 2 6 28 8 29 9 90 10 30 11 89 12 31 13
REMARK SMILES IDX 32 14 33 15 83 16 34 17 88 18 82 19 84 20 35 21 87 22 81 23
REMARK SMILES IDX 80 24 36 26 68 27 48 28 67 29 49 30 52 31 66 32 85 33 50 34
REMARK SMILES IDX 51 35 65 37 86 38 53 39 37 40 38 41 46 42 39 43 40 44 44 45
REMARK SMILES IDX 47 46 41 47 42 48 45 49 43 50 69 51 70 52 78 53 71 54 72 55
REMARK SMILES IDX 76 56 79 57 73 58 74 59 77 60 75 61 54 62 55 63 63 64 56 65
REMARK SMILES IDX 57 66 61 67 64 68 58 69 59 70 62 71 60 72 7 73 8 74 9 75
REMARK SMILES IDX 10 76 11 77 12 79 13 80 14 81 27 82 15 83 18 84 16 85 17 86
REMARK SMILES IDX 19 87 20 88 25 89 21 90 23 91 26 92 22 93 24 94
REMARK H PARENT 3 7 84 25 52 36 10 78
REMARK Flexibility Score: inf
ROOT
ATOM      1  C   UNL     1       4.125  -3.494   1.585  1.00  0.00     0.002 C 
ENDROOT
BRANCH   1   2
ATOM      2  C   UNL     1       4.592  -2.040   1.638  1.00  0.00     0.021 C 
BRANCH   2   3
ATOM      3  C   UNL     1       4.341  -1.242   0.367  1.00  0.00     0.116 C 
BRANCH   3   4
ATOM      4  N   UNL     1       2.926  -1.075   0.082  1.00  0.00    -0.352 N 
ATOM      5  O   UNL     1       0.991   0.056  -0.196  1.00  0.00    -0.269 OA
ATOM      6  C   UNL     1       2.216   0.081  -0.126  1.00  0.00     0.251 C 
ATOM      7  H   UNL     1       2.403  -1.908   0.030  1.00  0.00     0.163 HD
BRANCH   6   8
ATOM      8  C   UNL     1       2.934   1.367  -0.243  1.00  0.00     0.039 A 
ATOM      9  C   UNL     1       4.081   1.470  -1.034  1.00  0.00     0.014 A 
ATOM     10  C   UNL     1       2.454   2.484   0.447  1.00  0.00     0.014 A 
ATOM     11  C   UNL     1       4.822   2.646  -1.026  1.00  0.00     0.010 A 
ATOM     12  C   UNL     1       3.151   3.693   0.381  1.00  0.00     0.010 A 
ATOM     13  C   UNL     1       4.354   3.776  -0.337  1.00  0.00    -0.014 A 
BRANCH  13  14
ATOM     14  C   UNL     1       5.099   5.055  -0.450  1.00  0.00     0.031 A 
ATOM     15  C   UNL     1       5.751   5.688   0.745  1.00  0.00     0.074 A 
ATOM     16  C   UNL     1       5.202   5.631  -1.663  1.00  0.00     0.049 A 
ATOM     17  N   UNL     1       6.440   6.800   0.813  1.00  0.00    -0.248 NA
ATOM     18  C   UNL     1       5.611   4.991   2.033  1.00  0.00     0.031 C 
ATOM     19  C   UNL     1       4.605   5.104  -2.893  1.00  0.00     0.029 A 
ATOM     20  N   UNL     1       5.853   6.766  -2.071  1.00  0.00    -0.354 N 
ATOM     21  C   UNL     1       6.804   6.943   2.145  1.00  0.00     0.074 A 
ATOM     22  C   UNL     1       6.238   5.819   2.860  1.00  0.00     0.031 C 
ATOM     23  C   UNL     1       4.958   5.885  -3.923  1.00  0.00     0.029 A 
ATOM     24  C   UNL     1       5.745   7.005  -3.419  1.00  0.00     0.049 A 
ATOM     25  H   UNL     1       6.351   7.353  -1.457  1.00  0.00     0.167 HD
ATOM     26  C   UNL     1       7.552   7.921   2.711  1.00  0.00     0.037 A 
ATOM     27  C   UNL     1       6.208   8.023  -4.168  1.00  0.00     0.037 A 
ATOM     28  C   UNL     1       8.121   9.029   1.986  1.00  0.00     0.049 A 
ATOM     29  C   UNL     1       6.997   9.113  -3.505  1.00  0.00     0.074 A 
ATOM     30  C   UNL     1       8.918  10.053   2.467  1.00  0.00     0.029 A 
ATOM     31  N   UNL     1       7.951   9.261   0.628  1.00  0.00    -0.354 N 
ATOM     32  N   UNL     1       7.354   9.225  -2.249  1.00  0.00    -0.248 NA
ATOM     33  C   UNL     1       7.442  10.222  -4.359  1.00  0.00     0.031 C 
ATOM     34  C   UNL     1       9.185  10.932   1.415  1.00  0.00     0.029 A 
ATOM     35  C   UNL     1       8.607  10.426   0.262  1.00  0.00     0.049 A 
ATOM     36  H   UNL     1       7.441   8.683   0.016  1.00  0.00     0.167 HD
ATOM     37  C   UNL     1       8.078  10.405  -2.162  1.00  0.00     0.074 A 
ATOM     38  C   UNL     1       8.125  10.965  -3.497  1.00  0.00     0.031 C 
ATOM     39  C   UNL     1       8.648  10.971  -1.071  1.00  0.00     0.037 A 
BRANCH  26  40
ATOM     40  C   UNL     1       7.803   7.854   4.190  1.00  0.00     0.064 A 
ATOM     41  C   UNL     1       7.239   8.810   5.050  1.00  0.00     0.173 A 
ATOM     42  C   UNL     1       8.674   6.906   4.746  1.00  0.00     0.173 A 
ATOM     43  F   UNL     1       6.406   9.745   4.569  1.00  0.00    -0.203 F 
ATOM     44  C   UNL     1       7.553   8.830   6.407  1.00  0.00     0.198 A 
ATOM     45  C   UNL     1       8.964   6.912   6.109  1.00  0.00     0.198 A 
ATOM     46  F   UNL     1       9.233   5.965   3.970  1.00  0.00    -0.203 F 
ATOM     47  F   UNL     1       7.032   9.776   7.200  1.00  0.00    -0.200 F 
ATOM     48  C   UNL     1       8.413   7.880   6.935  1.00  0.00     0.200 A 
ATOM     49  F   UNL     1       9.780   5.980   6.622  1.00  0.00    -0.200 F 
ATOM     50  F   UNL     1       8.711   7.897   8.242  1.00  0.00    -0.200 F 
ENDBRANCH  26  40
BRANCH  27  51
ATOM     51  C   UNL     1       5.932   8.037  -5.627  1.00  0.00     0.064 A 
ATOM     52  C   UNL     1       4.629   8.204  -6.120  1.00  0.00     0.173 A 
ATOM     53  C   UNL     1       6.960   7.832  -6.556  1.00  0.00     0.173 A 
ATOM     54  F   UNL     1       3.609   8.396  -5.270  1.00  0.00    -0.203 F 
ATOM     55  C   UNL     1       4.361   8.135  -7.484  1.00  0.00     0.198 A 
ATOM     56  C   UNL     1       6.695   7.794  -7.923  1.00  0.00     0.198 A 
ATOM     57  F   UNL     1       8.224   7.684  -6.134  1.00  0.00    -0.203 F 
ATOM     58  F   UNL     1       3.100   8.249  -7.924  1.00  0.00    -0.200 F 
ATOM     59  C   UNL     1       5.395   7.934  -8.386  1.00  0.00     0.200 A 
ATOM     60  F   UNL     1       7.700   7.621  -8.793  1.00  0.00    -0.200 F 
ATOM     61  F   UNL     1       5.139   7.875  -9.699  1.00  0.00    -0.200 F 
ENDBRANCH  27  51
BRANCH  39  62
ATOM     62  C   UNL     1       9.395  12.258  -1.269  1.00  0.00     0.064 A 
ATOM     63  C   UNL     1      10.792  12.294  -1.141  1.00  0.00     0.173 A 
ATOM     64  C   UNL     1       8.724  13.466  -1.508  1.00  0.00     0.173 A 
ATOM     65  F   UNL     1      11.479  11.166  -0.906  1.00  0.00    -0.203 F 
ATOM     66  C   UNL     1      11.488  13.496  -1.227  1.00  0.00     0.198 A 
ATOM     67  C   UNL     1       9.427  14.662  -1.623  1.00  0.00     0.198 A 
ATOM     68  F   UNL     1       7.391  13.480  -1.653  1.00  0.00    -0.203 F 
ATOM     69  F   UNL     1      12.818  13.511  -1.064  1.00  0.00    -0.200 F 
ATOM     70  C   UNL     1      10.806  14.678  -1.472  1.00  0.00     0.200 A 
ATOM     71  F   UNL     1       8.769  15.800  -1.885  1.00  0.00    -0.200 F 
ATOM     72  F   UNL     1      11.478  15.834  -1.563  1.00  0.00    -0.200 F 
ENDBRANCH  39  62
ENDBRANCH  13  14
ENDBRANCH   6   8
ENDBRANCH   3   4
ENDBRANCH   2   3
ENDBRANCH   1   2
BRANCH   1  73
ATOM     73  C   UNL     1       4.686  -4.319   0.423  1.00  0.00     0.002 C 
BRANCH  73  74
ATOM     74  C   UNL     1       6.211  -4.309   0.282  1.00  0.00     0.021 C 
BRANCH  74  75
ATOM     75  C   UNL     1       6.977  -4.726   1.534  1.00  0.00     0.116 C 
BRANCH  75  76
ATOM     76  N   UNL     1       6.683  -6.096   1.916  1.00  0.00    -0.352 N 
ATOM     77  C   UNL     1       7.542  -7.151   2.073  1.00  0.00     0.251 C 
ATOM     78  H   UNL     1       5.734  -6.293   2.086  1.00  0.00     0.163 HD
ATOM     79  O   UNL     1       7.109  -8.291   2.201  1.00  0.00    -0.269 OA
BRANCH  77  80
ATOM     80  C   UNL     1       8.998  -6.917   2.068  1.00  0.00     0.043 A 
ATOM     81  C   UNL     1       9.569  -5.957   2.904  1.00  0.00     0.053 A 
ATOM     82  C   UNL     1       9.802  -7.711   1.241  1.00  0.00     0.023 A 
ATOM     83  C   UNL     1      10.939  -5.755   2.852  1.00  0.00     0.124 A 
ATOM     84  C   UNL     1      11.194  -7.525   1.208  1.00  0.00    -0.012 A 
ATOM     85  F   UNL     1      11.491  -4.807   3.619  1.00  0.00    -0.207 F 
ATOM     86  C   UNL     1      11.749  -6.518   2.015  1.00  0.00     0.048 A 
BRANCH  84  87
ATOM     87  C   UNL     1      12.048  -8.385   0.379  1.00  0.00     0.021 A 
ATOM     88  C   UNL     1      11.873  -8.459  -1.016  1.00  0.00     0.012 A 
ATOM     89  C   UNL     1      13.053  -9.175   0.956  1.00  0.00     0.166 A 
ATOM     90  C   UNL     1      12.677  -9.295  -1.800  1.00  0.00     0.004 A 
ATOM     91  C   UNL     1      13.847 -10.008   0.175  1.00  0.00     0.159 A 
ATOM     92  F   UNL     1      13.253  -9.143   2.284  1.00  0.00    -0.203 F 
ATOM     93  C   UNL     1      13.665 -10.074  -1.201  1.00  0.00     0.042 A 
ATOM     94  F   UNL     1      14.796 -10.761   0.748  1.00  0.00    -0.204 F 
ENDBRANCH  84  87
ENDBRANCH  77  80
ENDBRANCH  75  76
ENDBRANCH  74  75
ENDBRANCH  73  74
ENDBRANCH   1  73
TORSDOF 14
