REMARK SMILES O=C(NCCCCCCNC(=O)c1ccc(-c2c3nc(c(-c4c(F)c(F)c(F)c(F)c4F)c4ccc([nH]4)c(-c4c(F)c(F)c(F)c(F)c4F)c4nc(c(-c5c(F)c(F)c(F)c(F)c5F)c5ccc2[nH]5)C=C4)C=C3)cc1)C1=Cc2cc(Cl)cc(-c3ccc(CO)cc3)c2O[C@@H]1C(F)(F)F
REMARK SMILES IDX 6 1 5 2 4 3 3 4 1 5 2 6 76 8 77 9 94 10 78 11 93 12 79 13
REMARK SMILES IDX 92 14 80 15 83 16 81 17 82 18 95 19 96 20 97 21 98 22 84 23
REMARK SMILES IDX 85 24 91 25 86 26 90 27 87 28 88 29 89 30 7 32 8 33 9 34
REMARK SMILES IDX 10 35 11 36 12 38 13 39 14 40 75 41 15 42 74 43 16 44 17 45
REMARK SMILES IDX 18 46 68 47 19 48 73 49 67 50 69 51 20 52 72 53 66 54 65 55
REMARK SMILES IDX 21 57 53 58 33 59 52 60 34 61 37 62 51 63 70 64 35 65 36 66
REMARK SMILES IDX 50 68 71 69 38 70 22 71 23 72 31 73 24 74 25 75 29 76 32 77
REMARK SMILES IDX 26 78 27 79 30 80 28 81 54 82 55 83 63 84 56 85 57 86 61 87
REMARK SMILES IDX 64 88 58 89 59 90 62 91 60 92 39 93 40 94 48 95 41 96 42 97
REMARK SMILES IDX 46 98 49 99 43 100 44 101 47 102 45 103
REMARK H PARENT 3 7 89 31 10 37 69 56 37 67
REMARK Flexibility Score: inf
ROOT
ATOM      1  C   UNL     1       3.719   1.377   4.377  1.00  0.00     0.002 C 
ENDROOT
BRANCH   1   2
ATOM      2  C   UNL     1       4.110   1.914   2.995  1.00  0.00     0.021 C 
BRANCH   2   3
ATOM      3  C   UNL     1       3.878   0.989   1.795  1.00  0.00     0.116 C 
BRANCH   3   4
ATOM      4  N   UNL     1       2.609   1.191   1.101  1.00  0.00    -0.352 N 
ATOM      5  O   UNL     1       1.069   0.957  -0.534  1.00  0.00    -0.270 OA
ATOM      6  C   UNL     1       2.238   0.848  -0.181  1.00  0.00     0.251 C 
ATOM      7  H   UNL     1       1.912   1.642   1.631  1.00  0.00     0.163 HD
BRANCH   6   8
ATOM      8  C   UNL     1       3.218   0.145  -1.049  1.00  0.00     0.067 C 
ATOM      9  C   UNL     1       4.434   0.595  -1.393  1.00  0.00     0.025 C 
ATOM     10  C   UNL     1       2.933  -1.304  -1.310  1.00  0.00     0.314 C 
ATOM     11  C   UNL     1       5.475  -0.329  -0.862  1.00  0.00     0.019 A 
ATOM     12  O   UNL     1       3.831  -2.119  -0.525  1.00  0.00    -0.475 OA
ATOM     13  C   UNL     1       6.740   0.193  -0.555  1.00  0.00     0.032 A 
ATOM     14  C   UNL     1       5.094  -1.593  -0.331  1.00  0.00     0.135 A 
ATOM     15  C   UNL     1       7.601  -0.520   0.277  1.00  0.00     0.042 A 
ATOM     16  C   UNL     1       5.938  -2.285   0.559  1.00  0.00     0.026 A 
ATOM     17  Cl  UNL     1       9.097   0.179   0.766  1.00  0.00    -0.084 Cl
ATOM     18  C   UNL     1       7.210  -1.740   0.825  1.00  0.00     0.033 A 
BRANCH  10  19
ATOM     19  C   UNL     1       3.003  -1.627  -2.824  1.00  0.00     0.429 C 
ATOM     20  F   UNL     1       2.644  -2.909  -3.074  1.00  0.00    -0.167 F 
ATOM     21  F   UNL     1       2.165  -0.838  -3.543  1.00  0.00    -0.167 F 
ATOM     22  F   UNL     1       4.242  -1.458  -3.348  1.00  0.00    -0.167 F 
ENDBRANCH  10  19
BRANCH  16  23
ATOM     23  C   UNL     1       5.475  -3.403   1.404  1.00  0.00    -0.015 A 
ATOM     24  C   UNL     1       5.347  -3.179   2.784  1.00  0.00     0.009 A 
ATOM     25  C   UNL     1       5.194  -4.684   0.928  1.00  0.00     0.009 A 
ATOM     26  C   UNL     1       5.025  -4.194   3.678  1.00  0.00     0.007 A 
ATOM     27  C   UNL     1       4.869  -5.719   1.823  1.00  0.00     0.007 A 
ATOM     28  C   UNL     1       4.812  -5.488   3.207  1.00  0.00    -0.023 A 
BRANCH  28  29
ATOM     29  C   UNL     1       4.547  -6.595   4.192  1.00  0.00     0.191 C 
BRANCH  29  30
ATOM     30  O   UNL     1       5.636  -6.721   5.102  1.00  0.00    -0.392 OA
ATOM     31  H   UNL     1       6.446  -6.930   4.611  1.00  0.00     0.211 HD
ENDBRANCH  29  30
ENDBRANCH  28  29
ENDBRANCH  16  23
ENDBRANCH   6   8
ENDBRANCH   3   4
ENDBRANCH   2   3
ENDBRANCH   1   2
BRANCH   1  32
ATOM     32  C   UNL     1       4.342   0.044   4.810  1.00  0.00     0.002 C 
BRANCH  32  33
ATOM     33  C   UNL     1       5.859  -0.091   4.645  1.00  0.00     0.021 C 
BRANCH  33  34
ATOM     34  C   UNL     1       6.716   0.851   5.476  1.00  0.00     0.116 C 
BRANCH  34  35
ATOM     35  N   UNL     1       6.630   0.546   6.895  1.00  0.00    -0.352 N 
ATOM     36  C   UNL     1       7.570   0.079   7.781  1.00  0.00     0.251 C 
ATOM     37  H   UNL     1       5.742   0.703   7.290  1.00  0.00     0.163 HD
ATOM     38  O   UNL     1       7.200  -0.328   8.877  1.00  0.00    -0.269 OA
BRANCH  36  39
ATOM     39  C   UNL     1       9.018   0.051   7.450  1.00  0.00     0.039 A 
ATOM     40  C   UNL     1       9.817  -0.946   8.025  1.00  0.00     0.014 A 
ATOM     41  C   UNL     1       9.620   1.033   6.660  1.00  0.00     0.014 A 
ATOM     42  C   UNL     1      11.195  -0.976   7.782  1.00  0.00     0.010 A 
ATOM     43  C   UNL     1      10.974   0.948   6.341  1.00  0.00     0.010 A 
ATOM     44  C   UNL     1      11.783  -0.040   6.919  1.00  0.00    -0.014 A 
BRANCH  44  45
ATOM     45  C   UNL     1      13.245  -0.042   6.646  1.00  0.00     0.031 A 
ATOM     46  C   UNL     1      14.085   1.146   7.036  1.00  0.00     0.074 A 
ATOM     47  C   UNL     1      13.807  -1.076   5.992  1.00  0.00     0.049 A 
ATOM     48  N   UNL     1      15.350   1.387   6.795  1.00  0.00    -0.248 NA
ATOM     49  C   UNL     1      13.401   2.225   7.767  1.00  0.00     0.031 C 
ATOM     50  C   UNL     1      13.096  -2.264   5.519  1.00  0.00     0.029 A 
ATOM     51  N   UNL     1      15.106  -1.287   5.598  1.00  0.00    -0.354 N 
ATOM     52  C   UNL     1      15.602   2.648   7.321  1.00  0.00     0.074 A 
ATOM     53  C   UNL     1      14.349   3.147   7.841  1.00  0.00     0.031 C 
ATOM     54  C   UNL     1      13.968  -3.085   4.912  1.00  0.00     0.029 A 
ATOM     55  C   UNL     1      15.290  -2.466   4.920  1.00  0.00     0.049 A 
ATOM     56  H   UNL     1      15.835  -0.652   5.785  1.00  0.00     0.167 HD
ATOM     57  C   UNL     1      16.778   3.318   7.390  1.00  0.00     0.037 A 
ATOM     58  C   UNL     1      16.399  -2.986   4.359  1.00  0.00     0.037 A 
ATOM     59  C   UNL     1      18.030   2.804   6.902  1.00  0.00     0.049 A 
ATOM     60  C   UNL     1      17.697  -2.231   4.461  1.00  0.00     0.074 A 
ATOM     61  C   UNL     1      19.287   3.379   6.972  1.00  0.00     0.029 A 
ATOM     62  N   UNL     1      18.183   1.585   6.256  1.00  0.00    -0.354 N 
ATOM     63  N   UNL     1      17.934  -1.064   5.009  1.00  0.00    -0.248 NA
ATOM     64  C   UNL     1      18.883  -2.871   3.876  1.00  0.00     0.031 C 
ATOM     65  C   UNL     1      20.194   2.525   6.335  1.00  0.00     0.029 A 
ATOM     66  C   UNL     1      19.511   1.397   5.910  1.00  0.00     0.049 A 
ATOM     67  H   UNL     1      17.455   0.949   6.072  1.00  0.00     0.167 HD
ATOM     68  C   UNL     1      19.295  -0.839   4.855  1.00  0.00     0.074 A 
ATOM     69  C   UNL     1      19.835  -2.000   4.178  1.00  0.00     0.031 C 
ATOM     70  C   UNL     1      20.031   0.233   5.239  1.00  0.00     0.037 A 
BRANCH  57  71
ATOM     71  C   UNL     1      16.761   4.681   8.024  1.00  0.00     0.064 A 
ATOM     72  C   UNL     1      16.535   4.850   9.399  1.00  0.00     0.173 A 
ATOM     73  C   UNL     1      16.991   5.831   7.253  1.00  0.00     0.173 A 
ATOM     74  F   UNL     1      16.298   3.785  10.180  1.00  0.00    -0.203 F 
ATOM     75  C   UNL     1      16.502   6.119   9.971  1.00  0.00     0.198 A 
ATOM     76  C   UNL     1      16.990   7.096   7.835  1.00  0.00     0.198 A 
ATOM     77  F   UNL     1      17.220   5.728   5.935  1.00  0.00    -0.203 F 
ATOM     78  F   UNL     1      16.224   6.257  11.275  1.00  0.00    -0.200 F 
ATOM     79  C   UNL     1      16.735   7.240   9.190  1.00  0.00     0.200 A 
ATOM     80  F   UNL     1      17.228   8.179   7.081  1.00  0.00    -0.200 F 
ATOM     81  F   UNL     1      16.704   8.461   9.742  1.00  0.00    -0.200 F 
ENDBRANCH  57  71
BRANCH  58  82
ATOM     82  C   UNL     1      16.329  -4.301   3.671  1.00  0.00     0.064 A 
ATOM     83  C   UNL     1      16.925  -5.439   4.231  1.00  0.00     0.173 A 
ATOM     84  C   UNL     1      15.653  -4.451   2.451  1.00  0.00     0.173 A 
ATOM     85  F   UNL     1      17.599  -5.341   5.386  1.00  0.00    -0.203 F 
ATOM     86  C   UNL     1      16.862  -6.674   3.589  1.00  0.00     0.198 A 
ATOM     87  C   UNL     1      15.567  -5.692   1.824  1.00  0.00     0.198 A 
ATOM     88  F   UNL     1      15.060  -3.394   1.877  1.00  0.00    -0.203 F 
ATOM     89  F   UNL     1      17.474  -7.738   4.127  1.00  0.00    -0.200 F 
ATOM     90  C   UNL     1      16.177  -6.802   2.390  1.00  0.00     0.200 A 
ATOM     91  F   UNL     1      14.891  -5.814   0.674  1.00  0.00    -0.200 F 
ATOM     92  F   UNL     1      16.108  -7.992   1.778  1.00  0.00    -0.200 F 
ENDBRANCH  58  82
BRANCH  70  93
ATOM     93  C   UNL     1      21.505   0.189   4.961  1.00  0.00     0.064 A 
ATOM     94  C   UNL     1      22.012   0.333   3.661  1.00  0.00     0.173 A 
ATOM     95  C   UNL     1      22.421   0.042   6.013  1.00  0.00     0.173 A 
ATOM     96  F   UNL     1      21.175   0.461   2.620  1.00  0.00    -0.203 F 
ATOM     97  C   UNL     1      23.383   0.308   3.422  1.00  0.00     0.198 A 
ATOM     98  C   UNL     1      23.792   0.046   5.774  1.00  0.00     0.198 A 
ATOM     99  F   UNL     1      21.987  -0.093   7.275  1.00  0.00    -0.203 F 
ATOM    100  F   UNL     1      23.844   0.403   2.167  1.00  0.00    -0.200 F 
ATOM    101  C   UNL     1      24.272   0.173   4.479  1.00  0.00     0.200 A 
ATOM    102  F   UNL     1      24.650  -0.072   6.796  1.00  0.00    -0.200 F 
ATOM    103  F   UNL     1      25.592   0.157   4.247  1.00  0.00    -0.200 F 
ENDBRANCH  70  93
ENDBRANCH  44  45
ENDBRANCH  36  39
ENDBRANCH  34  35
ENDBRANCH  33  34
ENDBRANCH  32  33
ENDBRANCH   1  32
TORSDOF 17
