REMARK SMILES O=C(NCCCCCCNC(=O)c1c(F)cccc1N1CC[C@@H]([NH+]2CCCCC2)C1)c1ccc(-c2c3nc(c(-c4c(F)c(F)c(F)c(F)c4F)c4ccc([nH]4)c(-c4c(F)c(F)c(F)c(F)c4F)c4nc(c(-c5c(F)c(F)c(F)c(F)c5F)c5ccc2[nH]5)C=C4)C=C3)cc1
REMARK SMILES IDX 6 1 5 2 4 3 3 4 1 5 2 6 31 8 32 9 93 10 33 11 92 12 34 13
REMARK SMILES IDX 35 14 36 15 86 16 37 17 91 18 85 19 87 20 38 21 90 22 84 23
REMARK SMILES IDX 83 24 39 26 71 27 51 28 70 29 52 30 55 31 69 32 88 33 53 34
REMARK SMILES IDX 54 35 68 37 89 38 56 39 40 40 41 41 49 42 42 43 43 44 47 45
REMARK SMILES IDX 50 46 44 47 45 48 48 49 46 50 72 51 73 52 81 53 74 54 75 55
REMARK SMILES IDX 79 56 82 57 76 58 77 59 80 60 78 61 57 62 58 63 66 64 59 65
REMARK SMILES IDX 60 66 64 67 67 68 61 69 62 70 65 71 63 72 7 73 8 74 9 75
REMARK SMILES IDX 10 76 11 77 12 79 13 80 14 81 19 82 15 83 16 84 18 85 17 86
REMARK SMILES IDX 20 87 21 88 30 89 22 90 23 91 24 92 25 93 29 94 26 96 28 97
REMARK SMILES IDX 27 98
REMARK H PARENT 3 7 87 25 55 36 10 78 24 95
REMARK Flexibility Score: inf
ROOT
ATOM      1  C   UNL     1       4.367  -3.831   0.466  1.00  0.00     0.002 C 
ENDROOT
BRANCH   1   2
ATOM      2  C   UNL     1       4.816  -2.449   0.937  1.00  0.00     0.021 C 
BRANCH   2   3
ATOM      3  C   UNL     1       4.543  -1.310  -0.036  1.00  0.00     0.116 C 
BRANCH   3   4
ATOM      4  N   UNL     1       3.124  -1.066  -0.236  1.00  0.00    -0.352 N 
ATOM      5  O   UNL     1       1.179   0.078  -0.142  1.00  0.00    -0.269 OA
ATOM      6  C   UNL     1       2.405   0.092  -0.063  1.00  0.00     0.251 C 
ATOM      7  H   UNL     1       2.602  -1.843  -0.540  1.00  0.00     0.163 HD
BRANCH   6   8
ATOM      8  C   UNL     1       3.104   1.358   0.247  1.00  0.00     0.039 A 
ATOM      9  C   UNL     1       4.257   1.728  -0.449  1.00  0.00     0.014 A 
ATOM     10  C   UNL     1       2.593   2.191   1.247  1.00  0.00     0.014 A 
ATOM     11  C   UNL     1       4.979   2.846  -0.047  1.00  0.00     0.010 A 
ATOM     12  C   UNL     1       3.272   3.364   1.589  1.00  0.00     0.010 A 
ATOM     13  C   UNL     1       4.488   3.684   0.968  1.00  0.00    -0.014 A 
BRANCH  13  14
ATOM     14  C   UNL     1       5.235   4.919   1.319  1.00  0.00     0.031 A 
ATOM     15  C   UNL     1       5.852   5.098   2.676  1.00  0.00     0.074 A 
ATOM     16  C   UNL     1       5.378   5.875   0.381  1.00  0.00     0.049 A 
ATOM     17  N   UNL     1       6.550   6.107   3.137  1.00  0.00    -0.248 NA
ATOM     18  C   UNL     1       5.658   4.011   3.646  1.00  0.00     0.031 C 
ATOM     19  C   UNL     1       4.821   5.812  -0.971  1.00  0.00     0.029 A 
ATOM     20  N   UNL     1       6.047   7.072   0.410  1.00  0.00    -0.354 N 
ATOM     21  C   UNL     1       6.868   5.782   4.449  1.00  0.00     0.074 A 
ATOM     22  C   UNL     1       6.258   4.498   4.724  1.00  0.00     0.031 C 
ATOM     23  C   UNL     1       5.213   6.892  -1.659  1.00  0.00     0.029 A 
ATOM     24  C   UNL     1       5.994   7.756  -0.779  1.00  0.00     0.049 A 
ATOM     25  H   UNL     1       6.520   7.407   1.205  1.00  0.00     0.167 HD
ATOM     26  C   UNL     1       7.610   6.488   5.336  1.00  0.00     0.037 A 
ATOM     27  C   UNL     1       6.503   8.953  -1.124  1.00  0.00     0.037 A 
ATOM     28  C   UNL     1       8.219   7.764   5.051  1.00  0.00     0.049 A 
ATOM     29  C   UNL     1       7.285   9.736  -0.111  1.00  0.00     0.074 A 
ATOM     30  C   UNL     1       9.008   8.545   5.877  1.00  0.00     0.029 A 
ATOM     31  N   UNL     1       8.101   8.448   3.849  1.00  0.00    -0.354 N 
ATOM     32  N   UNL     1       7.595   9.410   1.120  1.00  0.00    -0.248 NA
ATOM     33  C   UNL     1       7.786  11.051  -0.531  1.00  0.00     0.031 C 
ATOM     34  C   UNL     1       9.322   9.725   5.196  1.00  0.00     0.029 A 
ATOM     35  C   UNL     1       8.783   9.653   3.921  1.00  0.00     0.049 A 
ATOM     36  H   UNL     1       7.606   8.125   3.062  1.00  0.00     0.167 HD
ATOM     37  C   UNL     1       8.338  10.469   1.619  1.00  0.00     0.074 A 
ATOM     38  C   UNL     1       8.446  11.443   0.551  1.00  0.00     0.031 C 
ATOM     39  C   UNL     1       8.882  10.616   2.852  1.00  0.00     0.037 A 
BRANCH  26  40
ATOM     40  C   UNL     1       7.800   5.907   6.709  1.00  0.00     0.064 A 
ATOM     41  C   UNL     1       7.221   6.523   7.830  1.00  0.00     0.173 A 
ATOM     42  C   UNL     1       8.601   4.776   6.927  1.00  0.00     0.173 A 
ATOM     43  F   UNL     1       6.454   7.614   7.681  1.00  0.00    -0.203 F 
ATOM     44  C   UNL     1       7.442   6.033   9.114  1.00  0.00     0.198 A 
ATOM     45  C   UNL     1       8.795   4.270   8.210  1.00  0.00     0.198 A 
ATOM     46  F   UNL     1       9.172   4.143   5.891  1.00  0.00    -0.203 F 
ATOM     47  F   UNL     1       6.902   6.656  10.171  1.00  0.00    -0.200 F 
ATOM     48  C   UNL     1       8.223   4.903   9.303  1.00  0.00     0.200 A 
ATOM     49  F   UNL     1       9.530   3.163   8.388  1.00  0.00    -0.200 F 
ATOM     50  F   UNL     1       8.421   4.421  10.538  1.00  0.00    -0.200 F 
ENDBRANCH  26  40
BRANCH  27  51
ATOM     51  C   UNL     1       6.294   9.452  -2.506  1.00  0.00     0.064 A 
ATOM     52  C   UNL     1       5.020   9.826  -2.961  1.00  0.00     0.173 A 
ATOM     53  C   UNL     1       7.352   9.486  -3.424  1.00  0.00     0.173 A 
ATOM     54  F   UNL     1       3.974   9.801  -2.121  1.00  0.00    -0.203 F 
ATOM     55  C   UNL     1       4.806  10.179  -4.290  1.00  0.00     0.198 A 
ATOM     56  C   UNL     1       7.141   9.866  -4.747  1.00  0.00     0.198 A 
ATOM     57  F   UNL     1       8.590   9.152  -3.031  1.00  0.00    -0.203 F 
ATOM     58  F   UNL     1       3.570  10.479  -4.711  1.00  0.00    -0.200 F 
ATOM     59  C   UNL     1       5.867  10.200  -5.183  1.00  0.00     0.200 A 
ATOM     60  F   UNL     1       8.171   9.902  -5.603  1.00  0.00    -0.200 F 
ATOM     61  F   UNL     1       5.661  10.536  -6.463  1.00  0.00    -0.200 F 
ENDBRANCH  27  51
BRANCH  39  62
ATOM     62  C   UNL     1       9.669  11.867   3.119  1.00  0.00     0.064 A 
ATOM     63  C   UNL     1      11.061  11.806   3.286  1.00  0.00     0.173 A 
ATOM     64  C   UNL     1       9.040  13.109   3.284  1.00  0.00     0.173 A 
ATOM     65  F   UNL     1      11.709  10.640   3.143  1.00  0.00    -0.203 F 
ATOM     66  C   UNL     1      11.792  12.940   3.627  1.00  0.00     0.198 A 
ATOM     67  C   UNL     1       9.779  14.248   3.597  1.00  0.00     0.198 A 
ATOM     68  F   UNL     1       7.714  13.222   3.121  1.00  0.00    -0.203 F 
ATOM     69  F   UNL     1      13.116  12.850   3.817  1.00  0.00    -0.200 F 
ATOM     70  C   UNL     1      11.152  14.160   3.779  1.00  0.00     0.200 A 
ATOM     71  F   UNL     1       9.162  15.431   3.719  1.00  0.00    -0.200 F 
ATOM     72  F   UNL     1      11.858  15.253   4.098  1.00  0.00    -0.200 F 
ENDBRANCH  39  62
ENDBRANCH  13  14
ENDBRANCH   6   8
ENDBRANCH   3   4
ENDBRANCH   2   3
ENDBRANCH   1   2
BRANCH   1  73
ATOM     73  C   UNL     1       4.927  -4.292  -0.882  1.00  0.00     0.002 C 
BRANCH  73  74
ATOM     74  C   UNL     1       6.450  -4.240  -1.036  1.00  0.00     0.021 C 
BRANCH  74  75
ATOM     75  C   UNL     1       7.257  -4.933   0.060  1.00  0.00     0.116 C 
BRANCH  75  76
ATOM     76  N   UNL     1       6.935  -6.340   0.200  1.00  0.00    -0.352 N 
ATOM     77  C   UNL     1       7.790  -7.418   0.257  1.00  0.00     0.256 C 
ATOM     78  H   UNL     1       5.976  -6.553   0.263  1.00  0.00     0.163 HD
ATOM     79  O   UNL     1       7.334  -8.546   0.421  1.00  0.00    -0.269 OA
BRANCH  77  80
ATOM     80  C   UNL     1       9.241  -7.209   0.087  1.00  0.00     0.098 A 
ATOM     81  C   UNL     1       9.896  -6.516   1.114  1.00  0.00     0.138 A 
ATOM     82  C   UNL     1       9.963  -7.757  -0.999  1.00  0.00     0.053 A 
ATOM     83  F   UNL     1       9.207  -6.015   2.152  1.00  0.00    -0.206 F 
ATOM     84  C   UNL     1      11.266  -6.301   1.075  1.00  0.00     0.040 A 
ATOM     85  C   UNL     1      11.357  -7.555  -0.987  1.00  0.00     0.027 A 
ATOM     86  C   UNL     1      12.001  -6.824   0.020  1.00  0.00     0.005 A 
BRANCH  82  87
ATOM     87  N   UNL     1       9.396  -8.433  -2.053  1.00  0.00    -0.365 N 
ATOM     88  C   UNL     1       8.197  -8.010  -2.748  1.00  0.00     0.123 C 
ATOM     89  C   UNL     1       9.926  -9.680  -2.618  1.00  0.00     0.181 C 
ATOM     90  C   UNL     1       7.638  -9.304  -3.310  1.00  0.00     0.088 C 
ATOM     91  C   UNL     1       8.862 -10.151  -3.668  1.00  0.00     0.205 C 
BRANCH  91  92
ATOM     92  N   UNL     1       9.330 -10.158  -5.069  1.00  0.00    -0.331 N 
ATOM     93  C   UNL     1       9.748  -8.896  -5.671  1.00  0.00     0.262 C 
ATOM     94  C   UNL     1       8.521 -10.966  -5.988  1.00  0.00     0.262 C 
ATOM     95  H   UNL     1      10.215 -10.645  -4.930  1.00  0.00     0.348 HD
ATOM     96  C   UNL     1       8.624  -8.077  -6.310  1.00  0.00     0.062 C 
ATOM     97  C   UNL     1       7.334 -10.237  -6.617  1.00  0.00     0.062 C 
ATOM     98  C   UNL     1       7.739  -8.904  -7.235  1.00  0.00     0.012 C 
ENDBRANCH  91  92
ENDBRANCH  82  87
ENDBRANCH  77  80
ENDBRANCH  75  76
ENDBRANCH  74  75
ENDBRANCH  73  74
ENDBRANCH   1  73
TORSDOF 15
