REMARK SMILES CC1(C)CC(=O)C(/C=N/Cc2ccc(C(=O)NCCCCCCNC(=O)c3ccc(-c4c5nc(c(-c6c(F)c(F)c(F)c(F)c6F)c6ccc([nH]6)c(-c6c(F)c(F)c(F)c(F)c6F)c6nc(c(-c7c(F)c(F)c(F)c(F)c7F)c7ccc4[nH]7)C=C6)C=C5)cc3)cc2)=C([O-])C1
REMARK SMILES IDX 20 1 19 2 18 3 17 4 15 5 16 6 14 8 11 9 12 10 91 11 13 12
REMARK SMILES IDX 90 13 10 14 9 15 8 16 7 17 1 18 2 19 3 20 4 21 94 22 5 23
REMARK SMILES IDX 92 24 6 25 93 26 21 27 22 28 23 29 24 30 25 31 26 33 27 34
REMARK SMILES IDX 28 35 89 36 29 37 88 38 30 39 31 40 32 41 82 42 33 43 87 44
REMARK SMILES IDX 81 45 83 46 34 47 86 48 80 49 79 50 35 52 67 53 47 54 66 55
REMARK SMILES IDX 48 56 51 57 65 58 84 59 49 60 50 61 64 63 85 64 52 65 36 66
REMARK SMILES IDX 37 67 45 68 38 69 39 70 43 71 46 72 40 73 41 74 44 75 42 76
REMARK SMILES IDX 68 77 69 78 77 79 70 80 71 81 75 82 78 83 72 84 73 85 76 86
REMARK SMILES IDX 74 87 53 88 54 89 62 90 55 91 56 92 60 93 63 94 57 95 58 96
REMARK SMILES IDX 61 97 59 98
REMARK H PARENT 17 7 24 32 83 51 51 62
REMARK Flexibility Score: inf
ROOT
ATOM      1  C   UNL     1       9.009  -3.630  -7.437  1.00  0.00     0.002 C 
ENDROOT
BRANCH   1   2
ATOM      2  C   UNL     1       8.341  -3.790  -6.064  1.00  0.00     0.021 C 
BRANCH   2   3
ATOM      3  C   UNL     1       8.704  -2.660  -5.100  1.00  0.00     0.116 C 
BRANCH   3   4
ATOM      4  N   UNL     1       7.966  -1.470  -5.468  1.00  0.00    -0.352 N 
ATOM      5  C   UNL     1       6.843  -0.900  -4.936  1.00  0.00     0.251 C 
ATOM      6  O   UNL     1       6.366   0.083  -5.502  1.00  0.00    -0.269 OA
ATOM      7  H   UNL     1       8.341  -0.984  -6.238  1.00  0.00     0.163 HD
BRANCH   5   8
ATOM      8  C   UNL     1       6.249  -1.361  -3.657  1.00  0.00     0.039 A 
ATOM      9  C   UNL     1       5.197  -2.003  -1.127  1.00  0.00    -0.027 A 
ATOM     10  C   UNL     1       5.244  -0.673  -1.565  1.00  0.00     0.006 A 
ATOM     11  C   UNL     1       5.645  -3.013  -1.985  1.00  0.00     0.006 A 
ATOM     12  C   UNL     1       5.755  -0.356  -2.820  1.00  0.00     0.014 A 
ATOM     13  C   UNL     1       6.149  -2.695  -3.252  1.00  0.00     0.014 A 
BRANCH   9  14
ATOM     14  C   UNL     1       4.588  -2.340   0.214  1.00  0.00     0.177 C 
BRANCH  14  15
ATOM     15  N   UNL     1       3.133  -2.179   0.171  1.00  0.00    -0.288 NA
ATOM     16  C   UNL     1       2.710  -1.011   0.499  1.00  0.00     0.116 C 
BRANCH  16  17
ATOM     17  C   UNL     1       1.301  -0.554   0.415  1.00  0.00     0.024 C 
ATOM     18  C   UNL     1      -2.796   0.991   0.526  1.00  0.00     0.012 C 
ATOM     19  C   UNL     1      -1.454   0.425   0.028  1.00  0.00    -0.025 C 
ATOM     20  C   UNL     1      -1.523   0.296  -1.508  1.00  0.00     0.012 C 
ATOM     21  C   UNL     1      -1.227  -0.948   0.671  1.00  0.00     0.087 C 
ATOM     22  C   UNL     1      -0.321   1.383   0.441  1.00  0.00     0.026 C 
ATOM     23  C   UNL     1       0.149  -1.502   0.377  1.00  0.00     0.164 C 
ATOM     24  C   UNL     1       1.057   0.773   0.418  1.00  0.00    -0.120 C 
ATOM     25  O   UNL     1       0.292  -2.707   0.182  1.00  0.00    -0.294 OA
ATOM     26  O   UNL     1       2.054   1.735   0.397  1.00  0.00    -0.875 OA
ENDBRANCH  16  17
ENDBRANCH  14  15
ENDBRANCH   9  14
ENDBRANCH   5   8
ENDBRANCH   3   4
ENDBRANCH   2   3
ENDBRANCH   1   2
BRANCH   1  27
ATOM     27  C   UNL     1      10.541  -3.684  -7.404  1.00  0.00     0.002 C 
BRANCH  27  28
ATOM     28  C   UNL     1      11.115  -4.939  -6.743  1.00  0.00     0.021 C 
BRANCH  28  29
ATOM     29  C   UNL     1      10.704  -6.236  -7.432  1.00  0.00     0.116 C 
BRANCH  29  30
ATOM     30  N   UNL     1      11.236  -6.308  -8.785  1.00  0.00    -0.352 N 
ATOM     31  C   UNL     1      12.135  -7.199  -9.314  1.00  0.00     0.251 C 
ATOM     32  H   UNL     1      10.904  -5.622  -9.408  1.00  0.00     0.163 HD
ATOM     33  O   UNL     1      12.687  -6.972 -10.383  1.00  0.00    -0.269 OA
BRANCH  31  34
ATOM     34  C   UNL     1      12.442  -8.437  -8.571  1.00  0.00     0.039 A 
ATOM     35  C   UNL     1      13.774  -8.822  -8.410  1.00  0.00     0.014 A 
ATOM     36  C   UNL     1      11.409  -9.204  -8.024  1.00  0.00     0.014 A 
ATOM     37  C   UNL     1      14.076  -9.943  -7.635  1.00  0.00     0.010 A 
ATOM     38  C   UNL     1      11.714 -10.277  -7.195  1.00  0.00     0.010 A 
ATOM     39  C   UNL     1      13.051 -10.652  -6.987  1.00  0.00    -0.014 A 
BRANCH  39  40
ATOM     40  C   UNL     1      13.351 -11.770  -6.061  1.00  0.00     0.031 A 
ATOM     41  C   UNL     1      12.890 -13.161  -6.381  1.00  0.00     0.074 A 
ATOM     42  C   UNL     1      13.966 -11.510  -4.891  1.00  0.00     0.049 A 
ATOM     43  N   UNL     1      12.970 -14.248  -5.656  1.00  0.00    -0.248 NA
ATOM     44  C   UNL     1      12.230 -13.352  -7.682  1.00  0.00     0.031 C 
ATOM     45  C   UNL     1      14.426 -10.191  -4.454  1.00  0.00     0.029 A 
ATOM     46  N   UNL     1      14.294 -12.338  -3.848  1.00  0.00    -0.354 N 
ATOM     47  C   UNL     1      12.365 -15.246  -6.406  1.00  0.00     0.074 A 
ATOM     48  C   UNL     1      11.873 -14.627  -7.617  1.00  0.00     0.031 C 
ATOM     49  C   UNL     1      14.995 -10.303  -3.244  1.00  0.00     0.029 A 
ATOM     50  C   UNL     1      14.895 -11.689  -2.798  1.00  0.00     0.049 A 
ATOM     51  H   UNL     1      14.116 -13.307  -3.852  1.00  0.00     0.167 HD
ATOM     52  C   UNL     1      12.250 -16.565  -6.117  1.00  0.00     0.037 A 
ATOM     53  C   UNL     1      15.301 -12.155  -1.602  1.00  0.00     0.037 A 
ATOM     54  C   UNL     1      12.748 -17.173  -4.911  1.00  0.00     0.049 A 
ATOM     55  C   UNL     1      15.111 -13.613  -1.282  1.00  0.00     0.074 A 
ATOM     56  C   UNL     1      12.739 -18.509  -4.550  1.00  0.00     0.029 A 
ATOM     57  N   UNL     1      13.335 -16.480  -3.861  1.00  0.00    -0.354 N 
ATOM     58  N   UNL     1      14.605 -14.564  -2.028  1.00  0.00    -0.248 NA
ATOM     59  C   UNL     1      15.542 -14.059   0.050  1.00  0.00     0.031 C 
ATOM     60  C   UNL     1      13.263 -18.616  -3.257  1.00  0.00     0.029 A 
ATOM     61  C   UNL     1      13.652 -17.355  -2.834  1.00  0.00     0.049 A 
ATOM     62  H   UNL     1      13.502 -15.510  -3.848  1.00  0.00     0.167 HD
ATOM     63  C   UNL     1      14.673 -15.723  -1.267  1.00  0.00     0.074 A 
ATOM     64  C   UNL     1      15.289 -15.359  -0.008  1.00  0.00     0.031 C 
ATOM     65  C   UNL     1      14.258 -16.975  -1.582  1.00  0.00     0.037 A 
BRANCH  52  66
ATOM     66  C   UNL     1      11.550 -17.435  -7.121  1.00  0.00     0.064 A 
ATOM     67  C   UNL     1      12.111 -17.708  -8.379  1.00  0.00     0.173 A 
ATOM     68  C   UNL     1      10.313 -18.023  -6.816  1.00  0.00     0.173 A 
ATOM     69  F   UNL     1      13.287 -17.164  -8.726  1.00  0.00    -0.203 F 
ATOM     70  C   UNL     1      11.443 -18.505  -9.305  1.00  0.00     0.198 A 
ATOM     71  C   UNL     1       9.664 -18.848  -7.732  1.00  0.00     0.198 A 
ATOM     72  F   UNL     1       9.734 -17.803  -5.626  1.00  0.00    -0.203 F 
ATOM     73  F   UNL     1      11.973 -18.703 -10.521  1.00  0.00    -0.200 F 
ATOM     74  C   UNL     1      10.224 -19.079  -8.979  1.00  0.00     0.200 A 
ATOM     75  F   UNL     1       8.493 -19.414  -7.409  1.00  0.00    -0.200 F 
ATOM     76  F   UNL     1       9.585 -19.849  -9.870  1.00  0.00    -0.200 F 
ENDBRANCH  52  66
BRANCH  53  77
ATOM     77  C   UNL     1      15.934 -11.232  -0.624  1.00  0.00     0.064 A 
ATOM     78  C   UNL     1      17.293 -11.350  -0.303  1.00  0.00     0.173 A 
ATOM     79  C   UNL     1      15.201 -10.213   0.003  1.00  0.00     0.173 A 
ATOM     80  F   UNL     1      18.030 -12.321  -0.861  1.00  0.00    -0.203 F 
ATOM     81  C   UNL     1      17.892 -10.492   0.618  1.00  0.00     0.198 A 
ATOM     82  C   UNL     1      15.808  -9.338   0.901  1.00  0.00     0.198 A 
ATOM     83  F   UNL     1      13.898 -10.056  -0.271  1.00  0.00    -0.203 F 
ATOM     84  F   UNL     1      19.184 -10.653   0.936  1.00  0.00    -0.200 F 
ATOM     85  C   UNL     1      17.151  -9.483   1.213  1.00  0.00     0.200 A 
ATOM     86  F   UNL     1      15.092  -8.354   1.462  1.00  0.00    -0.200 F 
ATOM     87  F   UNL     1      17.730  -8.653   2.092  1.00  0.00    -0.200 F 
ENDBRANCH  53  77
BRANCH  65  88
ATOM     88  C   UNL     1      14.461 -18.047  -0.551  1.00  0.00     0.064 A 
ATOM     89  C   UNL     1      13.690 -18.092   0.620  1.00  0.00     0.173 A 
ATOM     90  C   UNL     1      15.399 -19.070  -0.760  1.00  0.00     0.173 A 
ATOM     91  F   UNL     1      12.793 -17.128   0.875  1.00  0.00    -0.203 F 
ATOM     92  C   UNL     1      13.864 -19.112   1.552  1.00  0.00     0.198 A 
ATOM     93  C   UNL     1      15.548 -20.105   0.159  1.00  0.00     0.198 A 
ATOM     94  F   UNL     1      16.159 -19.075  -1.865  1.00  0.00    -0.203 F 
ATOM     95  F   UNL     1      13.146 -19.111   2.684  1.00  0.00    -0.200 F 
ATOM     96  C   UNL     1      14.784 -20.122   1.317  1.00  0.00     0.200 A 
ATOM     97  F   UNL     1      16.427 -21.088  -0.077  1.00  0.00    -0.200 F 
ATOM     98  F   UNL     1      14.940 -21.110   2.208  1.00  0.00    -0.200 F 
ENDBRANCH  65  88
ENDBRANCH  39  40
ENDBRANCH  31  34
ENDBRANCH  29  30
ENDBRANCH  28  29
ENDBRANCH  27  28
ENDBRANCH   1  27
TORSDOF 16
