REMARK SMILES COc1cccc(C(=O)Nc2ccc(NC(=O)[C@@H]3[C@@H](C(=O)NCCCCCCNC(=O)c4ccc(-c5c6nc(c(-c7c(F)c(F)c(F)c(F)c7F)c7ccc([nH]7)c(-c7c(F)c(F)c(F)c(F)c7F)c7nc(c(-c8c(F)c(F)c(F)c(F)c8F)c8ccc5[nH]8)C=C7)C=C6)cc4)[C@@H]4C=C[C@H]3C4)cc2)c1
REMARK SMILES IDX 24 1 23 2 22 3 20 4 21 5 19 7 18 8 98 9 95 10 97 11 99 12
REMARK SMILES IDX 96 13 16 14 15 15 17 17 14 18 11 19 12 20 101 21 13 22
REMARK SMILES IDX 100 23 10 24 8 25 9 26 7 28 3 29 4 30 102 31 5 32 6 33 2 34
REMARK SMILES IDX 1 35 25 36 26 37 27 38 28 39 29 40 30 41 31 43 32 44 33 45
REMARK SMILES IDX 94 46 34 47 93 48 35 49 36 50 37 51 87 52 38 53 92 54 86 55
REMARK SMILES IDX 88 56 39 57 91 58 85 59 84 60 40 62 72 63 52 64 71 65 53 66
REMARK SMILES IDX 56 67 70 68 89 69 54 70 55 71 69 73 90 74 57 75 41 76 42 77
REMARK SMILES IDX 50 78 43 79 44 80 48 81 51 82 45 83 46 84 49 85 47 86 73 87
REMARK SMILES IDX 74 88 82 89 75 90 76 91 80 92 83 93 77 94 78 95 81 96 79 97
REMARK SMILES IDX 58 98 59 99 67 100 60 101 61 102 65 103 68 104 62 105 63 106
REMARK SMILES IDX 66 107 64 108
REMARK H PARENT 22 6 15 16 10 27 29 42 88 61 56 72
REMARK Flexibility Score: inf
ROOT
ATOM      1  C   UNL     1       7.330  -1.923   0.338  1.00  0.00     0.021 C 
ENDROOT
BRANCH   1   2
ATOM      2  C   UNL     1       7.093  -1.928  -1.177  1.00  0.00     0.116 C 
BRANCH   2   3
ATOM      3  N   UNL     1       7.418  -3.219  -1.748  1.00  0.00    -0.356 N 
ATOM      4  C   UNL     1       6.714  -4.340  -2.032  1.00  0.00     0.224 C 
ATOM      5  O   UNL     1       7.404  -5.285  -2.437  1.00  0.00    -0.275 OA
ATOM      6  H   UNL     1       8.370  -3.300  -1.985  1.00  0.00     0.163 HD
BRANCH   4   7
ATOM      7  C   UNL     1       5.188  -4.489  -1.998  1.00  0.00     0.098 C 
ATOM      8  C   UNL     1       4.315  -3.598  -1.061  1.00  0.00     0.099 C 
ATOM      9  C   UNL     1       3.523  -4.632  -0.215  1.00  0.00     0.025 C 
ATOM     10  C   UNL     1       4.855  -5.921  -1.459  1.00  0.00     0.025 C 
ATOM     11  C   UNL     1       2.631  -5.484  -1.083  1.00  0.00    -0.027 C 
ATOM     12  C   UNL     1       4.638  -5.651   0.037  1.00  0.00     0.017 C 
ATOM     13  C   UNL     1       3.430  -6.255  -1.832  1.00  0.00    -0.027 C 
BRANCH   8  14
ATOM     14  C   UNL     1       3.418  -2.639  -1.840  1.00  0.00     0.228 C 
ATOM     15  N   UNL     1       3.282  -1.328  -1.478  1.00  0.00    -0.326 N 
ATOM     16  H   UNL     1       2.824  -0.782  -2.157  1.00  0.00     0.169 HD
ATOM     17  O   UNL     1       2.839  -2.982  -2.874  1.00  0.00    -0.274 OA
BRANCH  15  18
ATOM     18  C   UNL     1       3.659  -0.599  -0.342  1.00  0.00     0.041 A 
ATOM     19  C   UNL     1       4.286   0.987   1.872  1.00  0.00     0.041 A 
ATOM     20  C   UNL     1       4.299  -0.398   1.985  1.00  0.00     0.028 A 
ATOM     21  C   UNL     1       4.001   1.597   0.653  1.00  0.00     0.028 A 
ATOM     22  C   UNL     1       3.927  -1.179   0.896  1.00  0.00     0.028 A 
ATOM     23  C   UNL     1       3.701   0.799  -0.457  1.00  0.00     0.028 A 
BRANCH  19  24
ATOM     24  N   UNL     1       4.453   1.710   3.047  1.00  0.00    -0.322 N 
ATOM     25  C   UNL     1       3.485   2.370   3.777  1.00  0.00     0.255 C 
ATOM     26  O   UNL     1       3.810   2.805   4.883  1.00  0.00    -0.269 OA
ATOM     27  H   UNL     1       5.371   1.758   3.401  1.00  0.00     0.170 HD
BRANCH  25  28
ATOM     28  C   UNL     1       2.071   2.533   3.327  1.00  0.00     0.043 A 
ATOM     29  C   UNL     1       0.062   1.861   2.128  1.00  0.00     0.119 A 
ATOM     30  C   UNL     1      -0.586   3.003   2.597  1.00  0.00     0.046 A 
ATOM     31  C   UNL     1       1.368   1.601   2.545  1.00  0.00     0.060 A 
ATOM     32  C   UNL     1       0.069   3.893   3.447  1.00  0.00     0.005 A 
ATOM     33  C   UNL     1       1.397   3.666   3.800  1.00  0.00     0.014 A 
BRANCH  29  34
ATOM     34  O   UNL     1      -0.691   1.085   1.291  1.00  0.00    -0.497 OA
ATOM     35  C   UNL     1      -0.043   0.036   0.580  1.00  0.00     0.278 C 
ENDBRANCH  29  34
ENDBRANCH  25  28
ENDBRANCH  19  24
ENDBRANCH  15  18
ENDBRANCH   8  14
ENDBRANCH   4   7
ENDBRANCH   2   3
ENDBRANCH   1   2
BRANCH   1  36
ATOM     36  C   UNL     1       8.762  -1.581   0.764  1.00  0.00     0.002 C 
BRANCH  36  37
ATOM     37  C   UNL     1       9.210  -0.145   0.454  1.00  0.00     0.002 C 
BRANCH  37  38
ATOM     38  C   UNL     1       8.337   0.975   1.035  1.00  0.00     0.021 C 
BRANCH  38  39
ATOM     39  C   UNL     1       8.276   1.038   2.562  1.00  0.00     0.116 C 
BRANCH  39  40
ATOM     40  N   UNL     1       9.563   1.368   3.149  1.00  0.00    -0.352 N 
ATOM     41  C   UNL     1       9.916   2.390   3.996  1.00  0.00     0.251 C 
ATOM     42  H   UNL     1      10.299   0.764   2.900  1.00  0.00     0.163 HD
ATOM     43  O   UNL     1      11.104   2.619   4.205  1.00  0.00    -0.269 OA
BRANCH  41  44
ATOM     44  C   UNL     1       8.888   3.226   4.659  1.00  0.00     0.039 A 
ATOM     45  C   UNL     1       9.109   4.603   4.766  1.00  0.00     0.014 A 
ATOM     46  C   UNL     1       7.753   2.660   5.245  1.00  0.00     0.014 A 
ATOM     47  C   UNL     1       8.175   5.417   5.417  1.00  0.00     0.010 A 
ATOM     48  C   UNL     1       6.797   3.481   5.847  1.00  0.00     0.010 A 
ATOM     49  C   UNL     1       6.995   4.867   5.944  1.00  0.00    -0.014 A 
BRANCH  49  50
ATOM     50  C   UNL     1       5.974   5.729   6.603  1.00  0.00     0.031 A 
ATOM     51  C   UNL     1       5.669   5.576   8.070  1.00  0.00     0.074 A 
ATOM     52  C   UNL     1       5.285   6.629   5.875  1.00  0.00     0.049 A 
ATOM     53  N   UNL     1       4.803   6.225   8.811  1.00  0.00    -0.248 NA
ATOM     54  C   UNL     1       6.427   4.548   8.799  1.00  0.00     0.031 C 
ATOM     55  C   UNL     1       5.442   6.849   4.437  1.00  0.00     0.029 A 
ATOM     56  N   UNL     1       4.310   7.525   6.243  1.00  0.00    -0.354 N 
ATOM     57  C   UNL     1       4.899   5.670  10.081  1.00  0.00     0.074 A 
ATOM     58  C   UNL     1       5.877   4.607  10.004  1.00  0.00     0.031 C 
ATOM     59  C   UNL     1       4.612   7.831   4.049  1.00  0.00     0.029 A 
ATOM     60  C   UNL     1       3.841   8.287   5.202  1.00  0.00     0.049 A 
ATOM     61  H   UNL     1       3.980   7.612   7.166  1.00  0.00     0.167 HD
ATOM     62  C   UNL     1       4.245   6.026  11.214  1.00  0.00     0.037 A 
ATOM     63  C   UNL     1       2.893   9.244   5.176  1.00  0.00     0.037 A 
ATOM     64  C   UNL     1       3.287   7.097  11.303  1.00  0.00     0.049 A 
ATOM     65  C   UNL     1       2.189   9.629   6.450  1.00  0.00     0.074 A 
ATOM     66  C   UNL     1       2.623   7.572  12.421  1.00  0.00     0.029 A 
ATOM     67  N   UNL     1       2.853   7.859  10.229  1.00  0.00    -0.354 N 
ATOM     68  N   UNL     1       2.344   9.148   7.659  1.00  0.00    -0.248 NA
ATOM     69  C   UNL     1       1.184  10.698   6.355  1.00  0.00     0.031 C 
ATOM     70  C   UNL     1       1.754   8.590  12.017  1.00  0.00     0.029 A 
ATOM     71  C   UNL     1       1.914   8.786  10.655  1.00  0.00     0.049 A 
ATOM     72  H   UNL     1       3.165   7.756   9.300  1.00  0.00     0.167 HD
ATOM     73  C   UNL     1       1.480   9.871   8.471  1.00  0.00     0.074 A 
ATOM     74  C   UNL     1       0.814  10.834   7.621  1.00  0.00     0.031 C 
ATOM     75  C   UNL     1       1.260   9.745   9.803  1.00  0.00     0.037 A 
BRANCH  62  76
ATOM     76  C   UNL     1       4.546   5.246  12.463  1.00  0.00     0.064 A 
ATOM     77  C   UNL     1       5.778   5.364  13.124  1.00  0.00     0.173 A 
ATOM     78  C   UNL     1       3.574   4.408  13.031  1.00  0.00     0.173 A 
ATOM     79  F   UNL     1       6.743   6.146  12.619  1.00  0.00    -0.203 F 
ATOM     80  C   UNL     1       6.037   4.648  14.290  1.00  0.00     0.198 A 
ATOM     81  C   UNL     1       3.826   3.717  14.214  1.00  0.00     0.198 A 
ATOM     82  F   UNL     1       2.375   4.268  12.446  1.00  0.00    -0.203 F 
ATOM     83  F   UNL     1       7.237   4.741  14.879  1.00  0.00    -0.200 F 
ATOM     84  C   UNL     1       5.059   3.832  14.838  1.00  0.00     0.200 A 
ATOM     85  F   UNL     1       2.875   2.940  14.750  1.00  0.00    -0.200 F 
ATOM     86  F   UNL     1       5.307   3.150  15.965  1.00  0.00    -0.200 F 
ENDBRANCH  62  76
BRANCH  63  87
ATOM     87  C   UNL     1       2.570   9.930   3.898  1.00  0.00     0.064 A 
ATOM     88  C   UNL     1       2.919  11.273   3.694  1.00  0.00     0.173 A 
ATOM     89  C   UNL     1       1.903   9.263   2.861  1.00  0.00     0.173 A 
ATOM     90  F   UNL     1       3.538  11.959   4.667  1.00  0.00    -0.203 F 
ATOM     91  C   UNL     1       2.595  11.928   2.509  1.00  0.00     0.198 A 
ATOM     92  C   UNL     1       1.605   9.912   1.665  1.00  0.00     0.198 A 
ATOM     93  F   UNL     1       1.549   7.978   3.007  1.00  0.00    -0.203 F 
ATOM     94  F   UNL     1       2.899  13.225   2.358  1.00  0.00    -0.200 F 
ATOM     95  C   UNL     1       1.944  11.245   1.492  1.00  0.00     0.200 A 
ATOM     96  F   UNL     1       0.987   9.245   0.680  1.00  0.00    -0.200 F 
ATOM     97  F   UNL     1       1.635  11.875   0.350  1.00  0.00    -0.200 F 
ENDBRANCH  63  87
BRANCH  75  98
ATOM     98  C   UNL     1       0.283  10.696  10.433  1.00  0.00     0.064 A 
ATOM     99  C   UNL     1      -1.097  10.593  10.206  1.00  0.00     0.173 A 
ATOM    100  C   UNL     1       0.732  11.701  11.304  1.00  0.00     0.173 A 
ATOM    101  F   UNL     1      -1.576   9.659   9.370  1.00  0.00    -0.203 F 
ATOM    102  C   UNL     1      -1.989  11.478  10.806  1.00  0.00     0.198 A 
ATOM    103  C   UNL     1      -0.165  12.565  11.925  1.00  0.00     0.198 A 
ATOM    104  F   UNL     1       2.042  11.838  11.560  1.00  0.00    -0.203 F 
ATOM    105  F   UNL     1      -3.299  11.392  10.536  1.00  0.00    -0.200 F 
ATOM    106  C   UNL     1      -1.524  12.458  11.670  1.00  0.00     0.200 A 
ATOM    107  F   UNL     1       0.285  13.503  12.770  1.00  0.00    -0.200 F 
ATOM    108  F   UNL     1      -2.384  13.305  12.251  1.00  0.00    -0.200 F 
ENDBRANCH  75  98
ENDBRANCH  49  50
ENDBRANCH  41  44
ENDBRANCH  39  40
ENDBRANCH  38  39
ENDBRANCH  37  38
ENDBRANCH  36  37
ENDBRANCH   1  36
TORSDOF 18
