REMARK SMILES O=C(Cc1cncnc1N1CCC2(CC1)OCCC[C@@H]2O)NCCCCCCNC(=O)c1ccc(-c2c3nc(c(-c4c(F)c(F)c(F)c(F)c4F)c4ccc([nH]4)c(-c4c(F)c(F)c(F)c(F)c4F)c4nc(c(-c5c(F)c(F)c(F)c(F)c5F)c5ccc2[nH]5)C=C4)C=C3)cc1
REMARK SMILES IDX 25 1 24 2 23 3 22 4 1 5 2 6 3 8 4 9 5 10 9 11 6 12 8 13 7 14
REMARK SMILES IDX 10 15 11 16 15 17 12 18 14 19 13 20 16 21 20 22 17 23 19 24
REMARK SMILES IDX 18 25 21 26 26 28 27 29 28 30 29 31 30 32 31 34 32 35 33 36
REMARK SMILES IDX 94 37 34 38 93 39 35 40 36 41 37 42 87 43 38 44 92 45 86 46
REMARK SMILES IDX 88 47 39 48 91 49 85 50 84 51 40 53 72 54 52 55 71 56 53 57
REMARK SMILES IDX 56 58 70 59 89 60 54 61 55 62 69 64 90 65 57 66 41 67 42 68
REMARK SMILES IDX 50 69 43 70 44 71 48 72 51 73 45 74 46 75 49 76 47 77 73 78
REMARK SMILES IDX 74 79 82 80 75 81 76 82 80 83 83 84 77 85 78 86 81 87 79 88
REMARK SMILES IDX 58 89 59 90 67 91 60 92 61 93 65 94 68 95 62 96 63 97 66 98
REMARK SMILES IDX 64 99
REMARK H PARENT 22 7 21 27 29 33 88 52 56 63
REMARK Flexibility Score: inf
ROOT
ATOM      1  C   UNL     1       4.051  -3.644   0.835  1.00  0.00     0.002 C 
ENDROOT
BRANCH   1   2
ATOM      2  C   UNL     1       2.539  -3.440   0.640  1.00  0.00     0.021 C 
BRANCH   2   3
ATOM      3  C   UNL     1       2.001  -2.115   1.181  1.00  0.00     0.116 C 
BRANCH   3   4
ATOM      4  N   UNL     1       2.769  -1.016   0.645  1.00  0.00    -0.356 N 
ATOM      5  O   UNL     1       1.028   0.251  -0.151  1.00  0.00    -0.275 OA
ATOM      6  C   UNL     1       2.231   0.063  -0.016  1.00  0.00     0.224 C 
ATOM      7  H   UNL     1       3.746  -1.041   0.761  1.00  0.00     0.163 HD
BRANCH   6   8
ATOM      8  C   UNL     1       3.293   0.973  -0.601  1.00  0.00     0.141 C 
BRANCH   8   9
ATOM      9  C   UNL     1       3.849   1.957   0.388  1.00  0.00     0.022 A 
ATOM     10  C   UNL     1       4.742   1.551   1.367  1.00  0.00     0.121 A 
ATOM     11  C   UNL     1       3.604   3.323   0.329  1.00  0.00     0.135 A 
ATOM     12  N   UNL     1       5.344   2.375   2.237  1.00  0.00    -0.244 NA
ATOM     13  N   UNL     1       4.208   4.183   1.172  1.00  0.00    -0.219 NA
ATOM     14  C   UNL     1       5.035   3.667   2.091  1.00  0.00     0.224 A 
BRANCH  11  15
ATOM     15  N   UNL     1       2.853   3.846  -0.701  1.00  0.00    -0.356 N 
ATOM     16  C   UNL     1       3.374   5.004  -1.399  1.00  0.00     0.121 C 
ATOM     17  C   UNL     1       1.398   3.736  -0.694  1.00  0.00     0.121 C 
ATOM     18  C   UNL     1       3.046   4.788  -2.872  1.00  0.00     0.060 C 
ATOM     19  C   UNL     1       0.924   3.571  -2.140  1.00  0.00     0.060 C 
ATOM     20  C   UNL     1       1.521   4.633  -3.103  1.00  0.00     0.097 C 
ATOM     21  O   UNL     1       0.838   5.871  -2.810  1.00  0.00    -0.372 OA
ATOM     22  C   UNL     1       1.256   4.198  -4.578  1.00  0.00     0.146 C 
ATOM     23  C   UNL     1       1.111   6.954  -3.694  1.00  0.00     0.161 C 
ATOM     24  C   UNL     1       1.573   5.327  -5.558  1.00  0.00     0.037 C 
ATOM     25  C   UNL     1       0.844   6.601  -5.150  1.00  0.00     0.031 C 
BRANCH  22  26
ATOM     26  O   UNL     1      -0.113   3.817  -4.757  1.00  0.00    -0.390 OA
ATOM     27  H   UNL     1      -0.687   4.578  -4.575  1.00  0.00     0.211 HD
ENDBRANCH  22  26
ENDBRANCH  11  15
ENDBRANCH   8   9
ENDBRANCH   6   8
ENDBRANCH   3   4
ENDBRANCH   2   3
ENDBRANCH   1   2
BRANCH   1  28
ATOM     28  C   UNL     1       4.542  -3.539   2.282  1.00  0.00     0.002 C 
BRANCH  28  29
ATOM     29  C   UNL     1       3.894  -4.531   3.248  1.00  0.00     0.021 C 
BRANCH  29  30
ATOM     30  C   UNL     1       4.036  -5.991   2.840  1.00  0.00     0.116 C 
BRANCH  30  31
ATOM     31  N   UNL     1       5.422  -6.433   2.821  1.00  0.00    -0.352 N 
ATOM     32  C   UNL     1       5.963  -7.583   3.336  1.00  0.00     0.251 C 
ATOM     33  H   UNL     1       6.057  -5.824   2.378  1.00  0.00     0.163 HD
ATOM     34  O   UNL     1       7.182  -7.732   3.378  1.00  0.00    -0.269 OA
BRANCH  32  35
ATOM     35  C   UNL     1       5.072  -8.637   3.865  1.00  0.00     0.039 A 
ATOM     36  C   UNL     1       5.382  -9.234   5.088  1.00  0.00     0.014 A 
ATOM     37  C   UNL     1       3.934  -9.033   3.157  1.00  0.00     0.014 A 
ATOM     38  C   UNL     1       4.524 -10.195   5.626  1.00  0.00     0.010 A 
ATOM     39  C   UNL     1       3.039  -9.931   3.731  1.00  0.00     0.010 A 
ATOM     40  C   UNL     1       3.331 -10.532   4.965  1.00  0.00    -0.014 A 
BRANCH  40  41
ATOM     41  C   UNL     1       2.395 -11.539   5.528  1.00  0.00     0.031 A 
ATOM     42  C   UNL     1       2.133 -12.817   4.779  1.00  0.00     0.074 A 
ATOM     43  C   UNL     1       1.749 -11.286   6.683  1.00  0.00     0.049 A 
ATOM     44  N   UNL     1       1.294 -13.784   5.055  1.00  0.00    -0.248 NA
ATOM     45  C   UNL     1       2.897 -13.026   3.538  1.00  0.00     0.031 C 
ATOM     46  C   UNL     1       1.888 -10.069   7.483  1.00  0.00     0.029 A 
ATOM     47  N   UNL     1       0.835 -12.038   7.380  1.00  0.00    -0.354 N 
ATOM     48  C   UNL     1       1.428 -14.707   4.026  1.00  0.00     0.074 A 
ATOM     49  C   UNL     1       2.377 -14.156   3.083  1.00  0.00     0.031 C 
ATOM     50  C   UNL     1       1.100 -10.162   8.567  1.00  0.00     0.029 A 
ATOM     51  C   UNL     1       0.372 -11.426   8.520  1.00  0.00     0.049 A 
ATOM     52  H   UNL     1       0.539 -12.931   7.089  1.00  0.00     0.167 HD
ATOM     53  C   UNL     1       0.839 -15.919   3.894  1.00  0.00     0.037 A 
ATOM     54  C   UNL     1      -0.546 -11.835   9.417  1.00  0.00     0.037 A 
ATOM     55  C   UNL     1      -0.091 -16.474   4.842  1.00  0.00     0.049 A 
ATOM     56  C   UNL     1      -1.202 -13.180   9.232  1.00  0.00     0.074 A 
ATOM     57  C   UNL     1      -0.729 -17.701   4.807  1.00  0.00     0.029 A 
ATOM     58  N   UNL     1      -0.510 -15.836   6.000  1.00  0.00    -0.354 N 
ATOM     59  N   UNL     1      -1.029 -14.064   8.280  1.00  0.00    -0.248 NA
ATOM     60  C   UNL     1      -2.172 -13.590  10.257  1.00  0.00     0.031 C 
ATOM     61  C   UNL     1      -1.565 -17.791   5.924  1.00  0.00     0.029 A 
ATOM     62  C   UNL     1      -1.404 -16.644   6.684  1.00  0.00     0.049 A 
ATOM     63  H   UNL     1      -0.217 -14.943   6.291  1.00  0.00     0.167 HD
ATOM     64  C   UNL     1      -1.832 -15.147   8.613  1.00  0.00     0.074 A 
ATOM     65  C   UNL     1      -2.482 -14.816   9.862  1.00  0.00     0.031 C 
ATOM     66  C   UNL     1      -2.017 -16.311   7.944  1.00  0.00     0.037 A 
BRANCH  53  67
ATOM     67  C   UNL     1       1.200 -16.742   2.691  1.00  0.00     0.064 A 
ATOM     68  C   UNL     1       2.473 -17.316   2.555  1.00  0.00     0.173 A 
ATOM     69  C   UNL     1       0.250 -17.011   1.695  1.00  0.00     0.173 A 
ATOM     70  F   UNL     1       3.422 -17.080   3.473  1.00  0.00    -0.203 F 
ATOM     71  C   UNL     1       2.788 -18.111   1.456  1.00  0.00     0.198 A 
ATOM     72  C   UNL     1       0.558 -17.832   0.614  1.00  0.00     0.198 A 
ATOM     73  F   UNL     1      -0.984 -16.491   1.778  1.00  0.00    -0.203 F 
ATOM     74  F   UNL     1       4.023 -18.614   1.327  1.00  0.00    -0.200 F 
ATOM     75  C   UNL     1       1.827 -18.377   0.492  1.00  0.00     0.200 A 
ATOM     76  F   UNL     1      -0.376 -18.100  -0.310  1.00  0.00    -0.200 F 
ATOM     77  F   UNL     1       2.126 -19.156  -0.557  1.00  0.00    -0.200 F 
ENDBRANCH  53  67
BRANCH  54  78
ATOM     78  C   UNL     1      -0.904 -10.974  10.577  1.00  0.00     0.064 A 
ATOM     79  C   UNL     1      -0.608 -11.369  11.890  1.00  0.00     0.173 A 
ATOM     80  C   UNL     1      -1.593  -9.765  10.402  1.00  0.00     0.173 A 
ATOM     81  F   UNL     1       0.033 -12.526  12.113  1.00  0.00    -0.203 F 
ATOM     82  C   UNL     1      -1.026 -10.611  12.982  1.00  0.00     0.198 A 
ATOM     83  C   UNL     1      -1.978  -8.990  11.493  1.00  0.00     0.198 A 
ATOM     84  F   UNL     1      -1.895  -9.336   9.167  1.00  0.00    -0.203 F 
ATOM     85  F   UNL     1      -0.793 -11.050  14.227  1.00  0.00    -0.200 F 
ATOM     86  C   UNL     1      -1.708  -9.421  12.783  1.00  0.00     0.200 A 
ATOM     87  F   UNL     1      -2.623  -7.832  11.296  1.00  0.00    -0.200 F 
ATOM     88  F   UNL     1      -2.118  -8.697  13.834  1.00  0.00    -0.200 F 
ENDBRANCH  54  78
BRANCH  66  89
ATOM     89  C   UNL     1      -2.902 -17.343   8.582  1.00  0.00     0.064 A 
ATOM     90  C   UNL     1      -4.291 -17.172   8.681  1.00  0.00     0.173 A 
ATOM     91  C   UNL     1      -2.352 -18.539   9.070  1.00  0.00     0.173 A 
ATOM     92  F   UNL     1      -4.865 -16.043   8.241  1.00  0.00    -0.203 F 
ATOM     93  C   UNL     1      -5.091 -18.146   9.274  1.00  0.00     0.198 A 
ATOM     94  C   UNL     1      -3.159 -19.524   9.630  1.00  0.00     0.198 A 
ATOM     95  F   UNL     1      -1.030 -18.756   8.992  1.00  0.00    -0.203 F 
ATOM     96  F   UNL     1      -6.408 -17.937   9.408  1.00  0.00    -0.200 F 
ATOM     97  C   UNL     1      -4.526 -19.323   9.741  1.00  0.00     0.200 A 
ATOM     98  F   UNL     1      -2.612 -20.668  10.065  1.00  0.00    -0.200 F 
ATOM     99  F   UNL     1      -5.298 -20.262  10.304  1.00  0.00    -0.200 F 
ENDBRANCH  66  89
ENDBRANCH  40  41
ENDBRANCH  32  35
ENDBRANCH  30  31
ENDBRANCH  29  30
ENDBRANCH  28  29
ENDBRANCH   1  28
TORSDOF 16
