REMARK SMILES COC(=O)c1ccc([C@H]2Nc3c(C(=O)NCCCCCCNC(=O)c4ccc(-c5c6nc(c(-c7c(F)c(F)c(F)c(F)c7F)c7ccc([nH]7)c(-c7c(F)c(F)c(F)c(F)c7F)c7nc(c(-c8c(F)c(F)c(F)c(F)c8F)c8ccc5[nH]8)C=C7)C=C6)cc4)cccc3[C@@H]3[C@@H]4CC[C@@H](C4)[C@@H]32)cc1
REMARK SMILES IDX 18 1 17 2 16 3 15 4 13 5 14 6 12 8 9 9 10 10 98 11 11 12
REMARK SMILES IDX 92 14 96 15 91 16 93 17 95 18 97 19 88 20 90 21 94 22 89 23
REMARK SMILES IDX 8 24 5 25 6 26 100 27 7 28 99 29 3 30 4 31 2 32 1 33 19 34
REMARK SMILES IDX 20 35 21 36 22 37 23 38 24 40 25 41 26 42 87 43 27 44 86 45
REMARK SMILES IDX 28 46 29 47 30 48 80 49 31 50 85 51 79 52 81 53 32 54 84 55
REMARK SMILES IDX 78 56 77 57 33 59 65 60 45 61 64 62 46 63 49 64 63 65 82 66
REMARK SMILES IDX 47 67 48 68 62 70 83 71 50 72 34 73 35 74 43 75 36 76 37 77
REMARK SMILES IDX 41 78 44 79 38 80 39 81 42 82 40 83 66 84 67 85 75 86 68 87
REMARK SMILES IDX 69 88 73 89 76 90 70 91 71 92 74 93 72 94 51 95 52 96 60 97
REMARK SMILES IDX 53 98 54 99 58 100 61 101 55 102 56 103 59 104 57 105
REMARK H PARENT 15 7 10 13 22 39 81 58 49 69
REMARK Flexibility Score: inf
ROOT
ATOM      1  C   UNL     1      -5.293 -10.655  -7.653  1.00  0.00     0.002 C 
ENDROOT
BRANCH   1   2
ATOM      2  C   UNL     1      -3.927 -10.473  -6.991  1.00  0.00     0.021 C 
BRANCH   2   3
ATOM      3  C   UNL     1      -3.681  -9.165  -6.252  1.00  0.00     0.116 C 
BRANCH   3   4
ATOM      4  N   UNL     1      -4.513  -8.933  -5.091  1.00  0.00    -0.352 N 
ATOM      5  C   UNL     1      -4.178  -8.367  -3.873  1.00  0.00     0.253 C 
ATOM      6  O   UNL     1      -5.069  -8.198  -3.040  1.00  0.00    -0.269 OA
ATOM      7  H   UNL     1      -5.451  -9.219  -5.180  1.00  0.00     0.163 HD
BRANCH   5   8
ATOM      8  C   UNL     1      -2.765  -8.055  -3.503  1.00  0.00     0.063 A 
ATOM      9  C   UNL     1      -1.777  -5.250  -5.375  1.00  0.00     0.113 C 
ATOM     10  N   UNL     1      -2.322  -6.615  -5.417  1.00  0.00    -0.377 N 
ATOM     11  C   UNL     1      -0.393  -5.447  -6.009  1.00  0.00     0.027 C 
ATOM     12  C   UNL     1      -1.877  -7.345  -4.318  1.00  0.00     0.051 A 
ATOM     13  H   UNL     1      -2.915  -6.963  -6.122  1.00  0.00     0.161 HD
ATOM     14  C   UNL     1       0.359  -6.542  -5.090  1.00  0.00     0.030 C 
ATOM     15  C   UNL     1       0.647  -4.305  -6.049  1.00  0.00    -0.005 C 
ATOM     16  C   UNL     1      -0.507  -7.186  -4.003  1.00  0.00    -0.020 A 
ATOM     17  C   UNL     1       1.648  -5.795  -4.693  1.00  0.00    -0.003 C 
ATOM     18  C   UNL     1       0.739  -3.554  -4.719  1.00  0.00     0.004 C 
ATOM     19  C   UNL     1       1.974  -5.088  -6.015  1.00  0.00     0.008 C 
ATOM     20  C   UNL     1      -2.337  -8.355  -2.210  1.00  0.00     0.016 A 
ATOM     21  C   UNL     1      -0.084  -7.570  -2.735  1.00  0.00     0.006 A 
ATOM     22  C   UNL     1       1.354  -4.595  -3.773  1.00  0.00     0.004 C 
ATOM     23  C   UNL     1      -1.015  -8.091  -1.823  1.00  0.00     0.001 A 
BRANCH   9  24
ATOM     24  C   UNL     1      -3.033  -4.443  -5.660  1.00  0.00    -0.025 A 
ATOM     25  C   UNL     1      -5.839  -4.550  -5.636  1.00  0.00     0.060 A 
ATOM     26  C   UNL     1      -5.159  -4.246  -4.460  1.00  0.00     0.016 A 
ATOM     27  C   UNL     1      -5.135  -4.601  -6.852  1.00  0.00     0.016 A 
ATOM     28  C   UNL     1      -3.773  -4.153  -4.480  1.00  0.00     0.007 A 
ATOM     29  C   UNL     1      -3.728  -4.536  -6.872  1.00  0.00     0.007 A 
BRANCH  25  30
ATOM     30  C   UNL     1      -7.264  -4.954  -5.492  1.00  0.00     0.337 C 
ATOM     31  O   UNL     1      -7.936  -4.724  -4.496  1.00  0.00    -0.246 OA
BRANCH  30  32
ATOM     32  O   UNL     1      -7.651  -5.712  -6.549  1.00  0.00    -0.465 OA
ATOM     33  C   UNL     1      -8.921  -6.343  -6.362  1.00  0.00     0.282 C 
ENDBRANCH  30  32
ENDBRANCH  25  30
ENDBRANCH   9  24
ENDBRANCH   5   8
ENDBRANCH   3   4
ENDBRANCH   2   3
ENDBRANCH   1   2
BRANCH   1  34
ATOM     34  C   UNL     1      -5.791  -9.532  -8.567  1.00  0.00     0.002 C 
BRANCH  34  35
ATOM     35  C   UNL     1      -4.843  -9.046  -9.665  1.00  0.00     0.021 C 
BRANCH  35  36
ATOM     36  C   UNL     1      -4.221 -10.115 -10.556  1.00  0.00     0.116 C 
BRANCH  36  37
ATOM     37  N   UNL     1      -5.198 -10.910 -11.278  1.00  0.00    -0.352 N 
ATOM     38  C   UNL     1      -5.248 -11.236 -12.613  1.00  0.00     0.251 C 
ATOM     39  H   UNL     1      -5.934 -11.269 -10.731  1.00  0.00     0.163 HD
ATOM     40  O   UNL     1      -6.213 -11.846 -13.063  1.00  0.00    -0.269 OA
BRANCH  38  41
ATOM     41  C   UNL     1      -4.157 -10.822 -13.524  1.00  0.00     0.039 A 
ATOM     42  C   UNL     1      -4.492 -10.247 -14.753  1.00  0.00     0.014 A 
ATOM     43  C   UNL     1      -2.815 -11.002 -13.180  1.00  0.00     0.014 A 
ATOM     44  C   UNL     1      -3.485  -9.789 -15.606  1.00  0.00     0.010 A 
ATOM     45  C   UNL     1      -1.813 -10.483 -13.999  1.00  0.00     0.010 A 
ATOM     46  C   UNL     1      -2.138  -9.870 -15.220  1.00  0.00    -0.014 A 
BRANCH  46  47
ATOM     47  C   UNL     1      -1.053  -9.324 -16.076  1.00  0.00     0.031 A 
ATOM     48  C   UNL     1      -0.022 -10.245 -16.666  1.00  0.00     0.074 A 
ATOM     49  C   UNL     1      -0.953  -7.993 -16.264  1.00  0.00     0.049 A 
ATOM     50  N   UNL     1       1.056  -9.955 -17.350  1.00  0.00    -0.248 NA
ATOM     51  C   UNL     1      -0.214 -11.685 -16.431  1.00  0.00     0.031 C 
ATOM     52  C   UNL     1      -1.870  -6.991 -15.719  1.00  0.00     0.029 A 
ATOM     53  N   UNL     1      -0.025  -7.253 -16.955  1.00  0.00    -0.354 N 
ATOM     54  C   UNL     1       1.675 -11.170 -17.613  1.00  0.00     0.074 A 
ATOM     55  C   UNL     1       0.882 -12.196 -16.972  1.00  0.00     0.031 C 
ATOM     56  C   UNL     1      -1.468  -5.770 -16.107  1.00  0.00     0.029 A 
ATOM     57  C   UNL     1      -0.245  -5.898 -16.893  1.00  0.00     0.049 A 
ATOM     58  H   UNL     1       0.726  -7.655 -17.448  1.00  0.00     0.167 HD
ATOM     59  C   UNL     1       2.792 -11.410 -18.342  1.00  0.00     0.037 A 
ATOM     60  C   UNL     1       0.468  -4.874 -17.401  1.00  0.00     0.037 A 
ATOM     61  C   UNL     1       3.565 -10.390 -19.000  1.00  0.00     0.049 A 
ATOM     62  C   UNL     1       1.715  -5.167 -18.192  1.00  0.00     0.074 A 
ATOM     63  C   UNL     1       4.682 -10.537 -19.804  1.00  0.00     0.029 A 
ATOM     64  N   UNL     1       3.300  -9.030 -18.928  1.00  0.00    -0.354 N 
ATOM     65  N   UNL     1       2.260  -6.323 -18.480  1.00  0.00    -0.248 NA
ATOM     66  C   UNL     1       2.445  -4.010 -18.731  1.00  0.00     0.031 C 
ATOM     67  C   UNL     1       5.121  -9.263 -20.180  1.00  0.00     0.029 A 
ATOM     68  C   UNL     1       4.246  -8.325 -19.656  1.00  0.00     0.049 A 
ATOM     69  H   UNL     1       2.551  -8.625 -18.433  1.00  0.00     0.167 HD
ATOM     70  C   UNL     1       3.373  -6.038 -19.260  1.00  0.00     0.074 A 
ATOM     71  C   UNL     1       3.421  -4.599 -19.408  1.00  0.00     0.031 C 
ATOM     72  C   UNL     1       4.272  -6.893 -19.806  1.00  0.00     0.037 A 
BRANCH  59  73
ATOM     73  C   UNL     1       3.246 -12.836 -18.468  1.00  0.00     0.064 A 
ATOM     74  C   UNL     1       2.522 -13.775 -19.219  1.00  0.00     0.173 A 
ATOM     75  C   UNL     1       4.438 -13.261 -17.861  1.00  0.00     0.173 A 
ATOM     76  F   UNL     1       1.370 -13.424 -19.810  1.00  0.00    -0.203 F 
ATOM     77  C   UNL     1       2.958 -15.093 -19.331  1.00  0.00     0.198 A 
ATOM     78  C   UNL     1       4.887 -14.571 -18.002  1.00  0.00     0.198 A 
ATOM     79  F   UNL     1       5.172 -12.402 -17.137  1.00  0.00    -0.203 F 
ATOM     80  F   UNL     1       2.223 -15.984 -20.011  1.00  0.00    -0.200 F 
ATOM     81  C   UNL     1       4.144 -15.488 -18.730  1.00  0.00     0.200 A 
ATOM     82  F   UNL     1       6.040 -14.947 -17.432  1.00  0.00    -0.200 F 
ATOM     83  F   UNL     1       4.566 -16.755 -18.845  1.00  0.00    -0.200 F 
ENDBRANCH  59  73
BRANCH  60  84
ATOM     84  C   UNL     1       0.012  -3.474 -17.193  1.00  0.00     0.064 A 
ATOM     85  C   UNL     1      -0.469  -2.708 -18.264  1.00  0.00     0.173 A 
ATOM     86  C   UNL     1       0.054  -2.872 -15.928  1.00  0.00     0.173 A 
ATOM     87  F   UNL     1      -0.508  -3.233 -19.498  1.00  0.00    -0.203 F 
ATOM     88  C   UNL     1      -0.869  -1.386 -18.082  1.00  0.00     0.198 A 
ATOM     89  C   UNL     1      -0.374  -1.559 -15.741  1.00  0.00     0.198 A 
ATOM     90  F   UNL     1       0.501  -3.562 -14.868  1.00  0.00    -0.203 F 
ATOM     91  F   UNL     1      -1.278  -0.661 -19.132  1.00  0.00    -0.200 F 
ATOM     92  C   UNL     1      -0.826  -0.814 -16.819  1.00  0.00     0.200 A 
ATOM     93  F   UNL     1      -0.344  -1.015 -14.516  1.00  0.00    -0.200 F 
ATOM     94  F   UNL     1      -1.214   0.457 -16.644  1.00  0.00    -0.200 F 
ENDBRANCH  60  84
BRANCH  72  95
ATOM     95  C   UNL     1       5.362  -6.301 -20.652  1.00  0.00     0.064 A 
ATOM     96  C   UNL     1       6.425  -5.580 -20.088  1.00  0.00     0.173 A 
ATOM     97  C   UNL     1       5.369  -6.505 -22.041  1.00  0.00     0.173 A 
ATOM     98  F   UNL     1       6.456  -5.345 -18.768  1.00  0.00    -0.203 F 
ATOM     99  C   UNL     1       7.443  -5.066 -20.887  1.00  0.00     0.198 A 
ATOM    100  C   UNL     1       6.404  -6.016 -22.832  1.00  0.00     0.198 A 
ATOM    101  F   UNL     1       4.379  -7.194 -22.628  1.00  0.00    -0.203 F 
ATOM    102  F   UNL     1       8.426  -4.343 -20.333  1.00  0.00    -0.200 F 
ATOM    103  C   UNL     1       7.436  -5.292 -22.256  1.00  0.00     0.200 A 
ATOM    104  F   UNL     1       6.403  -6.247 -24.152  1.00  0.00    -0.200 F 
ATOM    105  F   UNL     1       8.424  -4.806 -23.021  1.00  0.00    -0.200 F 
ENDBRANCH  72  95
ENDBRANCH  46  47
ENDBRANCH  38  41
ENDBRANCH  36  37
ENDBRANCH  35  36
ENDBRANCH  34  35
ENDBRANCH   1  34
TORSDOF 16
