REMARK SMILES O=C(NCCCCCCNC(=O)c1cc(Cl)ccc1NC(=O)c1ccc2c(c1)C(=O)N(Cc1ccco1)C2=O)c1ccc(-c2c3nc(c(-c4c(F)c(F)c(F)c(F)c4F)c4ccc([nH]4)c(-c4c(F)c(F)c(F)c(F)c4F)c4nc(c(-c5c(F)c(F)c(F)c(F)c5F)c5ccc2[nH]5)C=C4)C=C3)cc1
REMARK SMILES IDX 7 1 6 2 5 3 4 4 3 5 1 6 2 7 40 9 41 10 102 11 42 12 101 13
REMARK SMILES IDX 43 14 44 15 45 16 95 17 46 18 100 19 94 20 96 21 47 22 99 23
REMARK SMILES IDX 93 24 92 25 48 27 80 28 60 29 79 30 61 31 64 32 78 33 97 34
REMARK SMILES IDX 62 35 63 36 77 38 98 39 65 40 49 41 50 42 58 43 51 44 52 45
REMARK SMILES IDX 56 46 59 47 53 48 54 49 57 50 55 51 81 52 82 53 90 54 83 55
REMARK SMILES IDX 84 56 88 57 91 58 85 59 86 60 89 61 87 62 66 63 67 64 75 65
REMARK SMILES IDX 68 66 69 67 73 68 76 69 70 70 71 71 74 72 72 73 8 74 9 75
REMARK SMILES IDX 10 76 11 77 12 79 13 80 14 81 19 82 15 83 18 84 16 85 17 86
REMARK SMILES IDX 20 87 21 88 22 90 23 91 24 92 28 93 25 94 27 95 26 96 29 97
REMARK SMILES IDX 38 98 30 99 31 100 39 101 32 102 33 103 34 104 37 105 35 106
REMARK SMILES IDX 36 107
REMARK H PARENT 3 8 96 26 64 37 10 78 20 89
REMARK Flexibility Score: inf
ROOT
ATOM      1  C   UNL     1       4.813  -2.804   3.304  1.00  0.00     0.002 C 
ENDROOT
BRANCH   1   2
ATOM      2  C   UNL     1       4.276  -1.381   3.485  1.00  0.00     0.002 C 
BRANCH   2   3
ATOM      3  C   UNL     1       4.762  -0.364   2.450  1.00  0.00     0.021 C 
BRANCH   3   4
ATOM      4  C   UNL     1       4.487  -0.751   1.002  1.00  0.00     0.116 C 
BRANCH   4   5
ATOM      5  N   UNL     1       3.064  -0.860   0.727  1.00  0.00    -0.352 N 
ATOM      6  O   UNL     1       1.070  -0.236  -0.121  1.00  0.00    -0.269 OA
ATOM      7  C   UNL     1       2.293  -0.157  -0.163  1.00  0.00     0.251 C 
ATOM      8  H   UNL     1       2.584  -1.537   1.256  1.00  0.00     0.163 HD
BRANCH   7   9
ATOM      9  C   UNL     1       2.939   0.712  -1.168  1.00  0.00     0.039 A 
ATOM     10  C   UNL     1       4.037   0.260  -1.907  1.00  0.00     0.014 A 
ATOM     11  C   UNL     1       2.415   1.987  -1.393  1.00  0.00     0.014 A 
ATOM     12  C   UNL     1       4.681   1.122  -2.789  1.00  0.00     0.010 A 
ATOM     13  C   UNL     1       3.016   2.824  -2.333  1.00  0.00     0.010 A 
ATOM     14  C   UNL     1       4.165   2.405  -3.023  1.00  0.00    -0.014 A 
BRANCH  14  15
ATOM     15  C   UNL     1       4.789   3.291  -4.036  1.00  0.00     0.031 A 
ATOM     16  C   UNL     1       5.411   4.595  -3.633  1.00  0.00     0.074 A 
ATOM     17  C   UNL     1       4.741   2.935  -5.333  1.00  0.00     0.049 A 
ATOM     18  N   UNL     1       5.898   5.548  -4.387  1.00  0.00    -0.248 NA
ATOM     19  C   UNL     1       5.484   4.870  -2.191  1.00  0.00     0.031 C 
ATOM     20  C   UNL     1       4.158   1.693  -5.841  1.00  0.00     0.029 A 
ATOM     21  N   UNL     1       5.166   3.591  -6.460  1.00  0.00    -0.354 N 
ATOM     22  C   UNL     1       6.311   6.546  -3.515  1.00  0.00     0.074 A 
ATOM     23  C   UNL     1       5.993   6.094  -2.177  1.00  0.00     0.031 C 
ATOM     24  C   UNL     1       4.259   1.676  -7.177  1.00  0.00     0.029 A 
ATOM     25  C   UNL     1       4.850   2.934  -7.622  1.00  0.00     0.049 A 
ATOM     26  H   UNL     1       5.649   4.449  -6.437  1.00  0.00     0.167 HD
ATOM     27  C   UNL     1       6.903   7.729  -3.810  1.00  0.00     0.037 A 
ATOM     28  C   UNL     1       4.976   3.317  -8.906  1.00  0.00     0.037 A 
ATOM     29  C   UNL     1       7.207   8.166  -5.150  1.00  0.00     0.049 A 
ATOM     30  C   UNL     1       5.585   4.655  -9.214  1.00  0.00     0.074 A 
ATOM     31  C   UNL     1       7.845   9.325  -5.555  1.00  0.00     0.029 A 
ATOM     32  N   UNL     1       6.872   7.471  -6.304  1.00  0.00    -0.354 N 
ATOM     33  N   UNL     1       6.016   5.574  -8.385  1.00  0.00    -0.248 NA
ATOM     34  C   UNL     1       5.729   5.009 -10.632  1.00  0.00     0.031 C 
ATOM     35  C   UNL     1       7.830   9.366  -6.953  1.00  0.00     0.029 A 
ATOM     36  C   UNL     1       7.256   8.195  -7.422  1.00  0.00     0.049 A 
ATOM     37  H   UNL     1       6.427   6.593  -6.326  1.00  0.00     0.167 HD
ATOM     38  C   UNL     1       6.509   6.602  -9.176  1.00  0.00     0.074 A 
ATOM     39  C   UNL     1       6.323   6.193 -10.553  1.00  0.00     0.031 C 
ATOM     40  C   UNL     1       7.074   7.772  -8.791  1.00  0.00     0.037 A 
BRANCH  27  41
ATOM     41  C   UNL     1       7.215   8.653  -2.665  1.00  0.00     0.064 A 
ATOM     42  C   UNL     1       8.177   8.339  -1.693  1.00  0.00     0.173 A 
ATOM     43  C   UNL     1       6.539   9.878  -2.540  1.00  0.00     0.173 A 
ATOM     44  F   UNL     1       8.851   7.180  -1.759  1.00  0.00    -0.203 F 
ATOM     45  C   UNL     1       8.412   9.188  -0.614  1.00  0.00     0.198 A 
ATOM     46  C   UNL     1       6.805  10.742  -1.481  1.00  0.00     0.198 A 
ATOM     47  F   UNL     1       5.618  10.239  -3.446  1.00  0.00    -0.203 F 
ATOM     48  F   UNL     1       9.282   8.829   0.341  1.00  0.00    -0.200 F 
ATOM     49  C   UNL     1       7.729  10.390  -0.510  1.00  0.00     0.200 A 
ATOM     50  F   UNL     1       6.157  11.912  -1.394  1.00  0.00    -0.200 F 
ATOM     51  F   UNL     1       7.953  11.203   0.531  1.00  0.00    -0.200 F 
ENDBRANCH  27  41
BRANCH  28  52
ATOM     52  C   UNL     1       4.492   2.412  -9.979  1.00  0.00     0.064 A 
ATOM     53  C   UNL     1       5.390   1.739 -10.816  1.00  0.00     0.173 A 
ATOM     54  C   UNL     1       3.123   2.153 -10.144  1.00  0.00     0.173 A 
ATOM     55  F   UNL     1       6.707   1.964 -10.705  1.00  0.00    -0.203 F 
ATOM     56  C   UNL     1       4.936   0.842 -11.781  1.00  0.00     0.198 A 
ATOM     57  C   UNL     1       2.672   1.234 -11.088  1.00  0.00     0.198 A 
ATOM     58  F   UNL     1       2.224   2.765  -9.358  1.00  0.00    -0.203 F 
ATOM     59  F   UNL     1       5.813   0.228 -12.587  1.00  0.00    -0.200 F 
ATOM     60  C   UNL     1       3.579   0.582 -11.909  1.00  0.00     0.200 A 
ATOM     61  F   UNL     1       1.363   0.970 -11.191  1.00  0.00    -0.200 F 
ATOM     62  F   UNL     1       3.146  -0.298 -12.822  1.00  0.00    -0.200 F 
ENDBRANCH  28  52
BRANCH  40  63
ATOM     63  C   UNL     1       7.590   8.686  -9.865  1.00  0.00     0.064 A 
ATOM     64  C   UNL     1       6.729   9.424 -10.690  1.00  0.00     0.173 A 
ATOM     65  C   UNL     1       8.972   8.890 -10.008  1.00  0.00     0.173 A 
ATOM     66  F   UNL     1       5.401   9.253 -10.606  1.00  0.00    -0.203 F 
ATOM     67  C   UNL     1       7.234  10.329 -11.621  1.00  0.00     0.198 A 
ATOM     68  C   UNL     1       9.471   9.817 -10.917  1.00  0.00     0.198 A 
ATOM     69  F   UNL     1       9.838   8.210  -9.241  1.00  0.00    -0.203 F 
ATOM     70  F   UNL     1       6.395  11.003 -12.420  1.00  0.00    -0.200 F 
ATOM     71  C   UNL     1       8.602  10.535 -11.725  1.00  0.00     0.200 A 
ATOM     72  F   UNL     1      10.792  10.026 -11.002  1.00  0.00    -0.200 F 
ATOM     73  F   UNL     1       9.083  11.425 -12.603  1.00  0.00    -0.200 F 
ENDBRANCH  40  63
ENDBRANCH  14  15
ENDBRANCH   7   9
ENDBRANCH   4   5
ENDBRANCH   3   4
ENDBRANCH   2   3
ENDBRANCH   1   2
BRANCH   1  74
ATOM     74  C   UNL     1       6.338  -2.921   3.246  1.00  0.00     0.021 C 
BRANCH  74  75
ATOM     75  C   UNL     1       7.065  -2.352   4.460  1.00  0.00     0.116 C 
BRANCH  75  76
ATOM     76  N   UNL     1       6.780  -3.103   5.676  1.00  0.00    -0.352 N 
ATOM     77  C   UNL     1       7.662  -3.736   6.519  1.00  0.00     0.253 C 
ATOM     78  H   UNL     1       5.830  -3.166   5.926  1.00  0.00     0.163 HD
ATOM     79  O   UNL     1       7.269  -4.511   7.383  1.00  0.00    -0.269 OA
BRANCH  77  80
ATOM     80  C   UNL     1       9.108  -3.522   6.316  1.00  0.00     0.064 A 
ATOM     81  C   UNL     1       9.581  -2.199   6.313  1.00  0.00     0.036 A 
ATOM     82  C   UNL     1       9.962  -4.606   6.045  1.00  0.00     0.054 A 
ATOM     83  C   UNL     1      10.876  -1.939   5.893  1.00  0.00     0.041 A 
ATOM     84  C   UNL     1      11.210  -4.298   5.498  1.00  0.00     0.028 A 
ATOM     85  Cl  UNL     1      11.454  -0.323   5.843  1.00  0.00    -0.084 Cl
ATOM     86  C   UNL     1      11.678  -2.979   5.442  1.00  0.00     0.023 A 
BRANCH  82  87
ATOM     87  N   UNL     1       9.527  -5.926   6.333  1.00  0.00    -0.321 N 
ATOM     88  C   UNL     1      10.193  -7.129   6.462  1.00  0.00     0.255 C 
ATOM     89  H   UNL     1       8.555  -6.000   6.468  1.00  0.00     0.170 HD
ATOM     90  O   UNL     1       9.576  -8.182   6.597  1.00  0.00    -0.269 OA
BRANCH  88  91
ATOM     91  C   UNL     1      11.667  -7.192   6.447  1.00  0.00     0.041 A 
ATOM     92  C   UNL     1      12.271  -7.968   5.429  1.00  0.00     0.015 A 
ATOM     93  C   UNL     1      12.430  -6.397   7.317  1.00  0.00     0.028 A 
ATOM     94  C   UNL     1      13.637  -7.850   5.172  1.00  0.00     0.015 A 
ATOM     95  C   UNL     1      13.773  -6.280   7.018  1.00  0.00     0.054 A 
ATOM     96  C   UNL     1      14.347  -6.962   5.958  1.00  0.00     0.053 A 
ATOM     97  C   UNL     1      14.773  -5.343   7.530  1.00  0.00     0.261 C 
ATOM     98  C   UNL     1      15.697  -6.440   5.778  1.00  0.00     0.261 C 
ATOM     99  O   UNL     1      14.543  -4.519   8.394  1.00  0.00    -0.269 OA
ATOM    100  N   UNL     1      15.898  -5.528   6.778  1.00  0.00    -0.267 N 
ATOM    101  O   UNL     1      16.410  -6.737   4.841  1.00  0.00    -0.269 OA
BRANCH 100 102
ATOM    102  C   UNL     1      17.102  -4.734   6.906  1.00  0.00     0.204 C 
BRANCH 102 103
ATOM    103  C   UNL     1      18.213  -5.594   7.395  1.00  0.00     0.123 A 
ATOM    104  C   UNL     1      18.926  -6.631   6.828  1.00  0.00     0.047 A 
ATOM    105  O   UNL     1      18.670  -5.353   8.657  1.00  0.00    -0.467 OA
ATOM    106  C   UNL     1      19.855  -7.061   7.804  1.00  0.00     0.042 A 
ATOM    107  C   UNL     1      19.666  -6.246   8.894  1.00  0.00     0.195 A 
ENDBRANCH 102 103
ENDBRANCH 100 102
ENDBRANCH  88  91
ENDBRANCH  82  87
ENDBRANCH  77  80
ENDBRANCH  75  76
ENDBRANCH  74  75
ENDBRANCH   1  74
TORSDOF 17
