REMARK SMILES C[C@H]1[C@H](C(=O)NCCCCCCNC(=O)c2ccc(-c3c4nc(c(-c5c(F)c(F)c(F)c(F)c5F)c5ccc([nH]5)c(-c5c(F)c(F)c(F)c(F)c5F)c5nc(c(-c6c(F)c(F)c(F)c(F)c6F)c6ccc3[nH]6)C=C5)C=C4)cc2)CCN1C(=O)[C@H]1CC[C@@H](C[NH3+])CC1
REMARK SMILES IDX 8 1 7 2 6 3 4 4 5 5 3 7 1 8 2 9 81 10 79 11 80 12 82 13
REMARK SMILES IDX 83 14 84 15 91 16 85 17 90 18 86 19 87 20 88 21 89 22 9 26
REMARK SMILES IDX 10 27 11 28 12 29 13 30 14 31 15 33 16 34 17 35 78 36 18 37
REMARK SMILES IDX 77 38 19 39 20 40 21 41 71 42 22 43 76 44 70 45 72 46 23 47
REMARK SMILES IDX 75 48 69 49 68 50 24 52 56 53 36 54 55 55 37 56 40 57 54 58
REMARK SMILES IDX 73 59 38 60 39 61 53 63 74 64 41 65 25 66 26 67 34 68 27 69
REMARK SMILES IDX 28 70 32 71 35 72 29 73 30 74 33 75 31 76 57 77 58 78 66 79
REMARK SMILES IDX 59 80 60 81 64 82 67 83 61 84 62 85 65 86 63 87 42 88 43 89
REMARK SMILES IDX 51 90 44 91 45 92 49 93 52 94 46 95 47 96 50 97 48 98
REMARK H PARENT 6 6 89 23 89 24 89 25 13 32 72 51 40 62
REMARK Flexibility Score: inf
ROOT
ATOM      1  C   UNL     1       0.002   0.372   4.179  1.00  0.00     0.021 C 
ENDROOT
BRANCH   1   2
ATOM      2  C   UNL     1      -0.875   0.675   2.968  1.00  0.00     0.116 C 
BRANCH   2   3
ATOM      3  N   UNL     1      -0.511   1.945   2.377  1.00  0.00    -0.356 N 
ATOM      4  C   UNL     1      -0.177   2.271   1.105  1.00  0.00     0.225 C 
ATOM      5  O   UNL     1       0.191   3.432   0.903  1.00  0.00    -0.275 OA
ATOM      6  H   UNL     1      -0.505   2.701   3.007  1.00  0.00     0.163 HD
BRANCH   4   7
ATOM      7  C   UNL     1      -0.224   1.283  -0.048  1.00  0.00     0.102 C 
ATOM      8  C   UNL     1       1.762   0.377  -1.217  1.00  0.00     0.032 C 
ATOM      9  C   UNL     1       0.860   0.181   0.013  1.00  0.00     0.094 C 
ATOM     10  N   UNL     1       0.116  -1.091  -0.020  1.00  0.00    -0.339 N 
ATOM     11  C   UNL     1      -1.560   0.574  -0.258  1.00  0.00     0.037 C 
ATOM     12  C   UNL     1      -1.196  -0.859  -0.608  1.00  0.00     0.120 C 
BRANCH  10  13
ATOM     13  C   UNL     1       0.420  -2.371   0.411  1.00  0.00     0.225 C 
ATOM     14  O   UNL     1      -0.399  -3.285   0.230  1.00  0.00    -0.275 OA
BRANCH  13  15
ATOM     15  C   UNL     1       1.705  -2.740   1.178  1.00  0.00     0.078 C 
ATOM     16  C   UNL     1       2.989  -2.591   0.367  1.00  0.00     0.014 C 
ATOM     17  C   UNL     1       1.754  -2.112   2.571  1.00  0.00     0.014 C 
ATOM     18  C   UNL     1       4.266  -2.813   1.178  1.00  0.00     0.010 C 
ATOM     19  C   UNL     1       3.068  -2.363   3.308  1.00  0.00     0.010 C 
ATOM     20  C   UNL     1       4.293  -1.974   2.467  1.00  0.00     0.044 C 
BRANCH  20  21
ATOM     21  C   UNL     1       4.391  -0.465   2.149  1.00  0.00     0.262 C 
BRANCH  21  22
ATOM     22  N   UNL     1       4.446   0.368   3.345  1.00  0.00    -0.357 N 
ATOM     23  H   UNL     1       3.590   0.245   3.884  1.00  0.00     0.344 HD
ATOM     24  H   UNL     1       4.540   1.347   3.073  1.00  0.00     0.344 HD
ATOM     25  H   UNL     1       5.248   0.094   3.913  1.00  0.00     0.344 HD
ENDBRANCH  21  22
ENDBRANCH  20  21
ENDBRANCH  13  15
ENDBRANCH  10  13
ENDBRANCH   4   7
ENDBRANCH   2   3
ENDBRANCH   1   2
BRANCH   1  26
ATOM     26  C   UNL     1      -0.284   1.219   5.418  1.00  0.00     0.002 C 
BRANCH  26  27
ATOM     27  C   UNL     1      -1.714   1.123   5.955  1.00  0.00     0.002 C 
BRANCH  27  28
ATOM     28  C   UNL     1      -2.227  -0.299   6.195  1.00  0.00     0.021 C 
BRANCH  28  29
ATOM     29  C   UNL     1      -1.347  -1.157   7.099  1.00  0.00     0.116 C 
BRANCH  29  30
ATOM     30  N   UNL     1      -1.199  -0.585   8.426  1.00  0.00    -0.352 N 
ATOM     31  C   UNL     1      -1.508  -1.122   9.650  1.00  0.00     0.251 C 
ATOM     32  H   UNL     1      -0.821   0.324   8.451  1.00  0.00     0.163 HD
ATOM     33  O   UNL     1      -1.498  -0.418  10.653  1.00  0.00    -0.269 OA
BRANCH  31  34
ATOM     34  C   UNL     1      -1.874  -2.550   9.757  1.00  0.00     0.039 A 
ATOM     35  C   UNL     1      -2.967  -2.907  10.550  1.00  0.00     0.014 A 
ATOM     36  C   UNL     1      -1.138  -3.535   9.092  1.00  0.00     0.014 A 
ATOM     37  C   UNL     1      -3.359  -4.244  10.627  1.00  0.00     0.010 A 
ATOM     38  C   UNL     1      -1.575  -4.856   9.108  1.00  0.00     0.010 A 
ATOM     39  C   UNL     1      -2.687  -5.225   9.880  1.00  0.00    -0.014 A 
BRANCH  39  40
ATOM     40  C   UNL     1      -3.138  -6.640   9.892  1.00  0.00     0.031 A 
ATOM     41  C   UNL     1      -2.245  -7.716  10.443  1.00  0.00     0.074 A 
ATOM     42  C   UNL     1      -4.331  -6.962   9.355  1.00  0.00     0.049 A 
ATOM     43  N   UNL     1      -2.440  -9.011  10.491  1.00  0.00    -0.248 NA
ATOM     44  C   UNL     1      -0.950  -7.285  10.989  1.00  0.00     0.031 C 
ATOM     45  C   UNL     1      -5.268  -6.014   8.750  1.00  0.00     0.029 A 
ATOM     46  N   UNL     1      -4.957  -8.177   9.224  1.00  0.00    -0.354 N 
ATOM     47  C   UNL     1      -1.292  -9.544  11.062  1.00  0.00     0.074 A 
ATOM     48  C   UNL     1      -0.382  -8.443  11.289  1.00  0.00     0.031 C 
ATOM     49  C   UNL     1      -6.358  -6.678   8.335  1.00  0.00     0.029 A 
ATOM     50  C   UNL     1      -6.181  -8.101   8.605  1.00  0.00     0.049 A 
ATOM     51  H   UNL     1      -4.565  -9.022   9.542  1.00  0.00     0.167 HD
ATOM     52  C   UNL     1      -1.032 -10.833  11.389  1.00  0.00     0.037 A 
ATOM     53  C   UNL     1      -7.057  -9.072   8.284  1.00  0.00     0.037 A 
ATOM     54  C   UNL     1      -1.948 -11.923  11.174  1.00  0.00     0.049 A 
ATOM     55  C   UNL     1      -6.732 -10.499   8.636  1.00  0.00     0.074 A 
ATOM     56  C   UNL     1      -1.801 -13.255  11.523  1.00  0.00     0.029 A 
ATOM     57  N   UNL     1      -3.180 -11.808  10.547  1.00  0.00    -0.354 N 
ATOM     58  N   UNL     1      -5.676 -10.983   9.243  1.00  0.00    -0.248 NA
ATOM     59  C   UNL     1      -7.726 -11.514   8.263  1.00  0.00     0.031 C 
ATOM     60  C   UNL     1      -2.918 -13.954  11.056  1.00  0.00     0.029 A 
ATOM     61  C   UNL     1      -3.791 -13.050  10.471  1.00  0.00     0.049 A 
ATOM     62  H   UNL     1      -3.564 -10.968  10.206  1.00  0.00     0.167 HD
ATOM     63  C   UNL     1      -5.889 -12.350   9.349  1.00  0.00     0.074 A 
ATOM     64  C   UNL     1      -7.185 -12.617   8.760  1.00  0.00     0.031 C 
ATOM     65  C   UNL     1      -5.083 -13.300   9.886  1.00  0.00     0.037 A 
BRANCH  52  66
ATOM     66  C   UNL     1       0.301 -11.135  12.013  1.00  0.00     0.064 A 
ATOM     67  C   UNL     1       0.627 -10.694  13.305  1.00  0.00     0.173 A 
ATOM     68  C   UNL     1       1.253 -11.903  11.325  1.00  0.00     0.173 A 
ATOM     69  F   UNL     1      -0.242  -9.948  14.004  1.00  0.00    -0.203 F 
ATOM     70  C   UNL     1       1.867 -10.982  13.871  1.00  0.00     0.198 A 
ATOM     71  C   UNL     1       2.479 -12.218  11.907  1.00  0.00     0.198 A 
ATOM     72  F   UNL     1       0.992 -12.357  10.090  1.00  0.00    -0.203 F 
ATOM     73  F   UNL     1       2.175 -10.503  15.084  1.00  0.00    -0.200 F 
ATOM     74  C   UNL     1       2.788 -11.749  13.175  1.00  0.00     0.200 A 
ATOM     75  F   UNL     1       3.362 -12.973  11.239  1.00  0.00    -0.200 F 
ATOM     76  F   UNL     1       3.978 -12.031  13.723  1.00  0.00    -0.200 F 
ENDBRANCH  52  66
BRANCH  53  77
ATOM     77  C   UNL     1      -8.335  -8.726   7.607  1.00  0.00     0.064 A 
ATOM     78  C   UNL     1      -9.562  -8.870   8.270  1.00  0.00     0.173 A 
ATOM     79  C   UNL     1      -8.359  -8.252   6.288  1.00  0.00     0.173 A 
ATOM     80  F   UNL     1      -9.593  -9.338   9.527  1.00  0.00    -0.203 F 
ATOM     81  C   UNL     1     -10.765  -8.574   7.632  1.00  0.00     0.198 A 
ATOM     82  C   UNL     1      -9.560  -7.926   5.661  1.00  0.00     0.198 A 
ATOM     83  F   UNL     1      -7.213  -8.091   5.610  1.00  0.00    -0.203 F 
ATOM     84  F   UNL     1     -11.925  -8.768   8.273  1.00  0.00    -0.200 F 
ATOM     85  C   UNL     1     -10.763  -8.097   6.330  1.00  0.00     0.200 A 
ATOM     86  F   UNL     1      -9.553  -7.450   4.409  1.00  0.00    -0.200 F 
ATOM     87  F   UNL     1     -11.919  -7.809   5.718  1.00  0.00    -0.200 F 
ENDBRANCH  53  77
BRANCH  65  88
ATOM     88  C   UNL     1      -5.594 -14.713   9.891  1.00  0.00     0.064 A 
ATOM     89  C   UNL     1      -5.707 -15.462   8.710  1.00  0.00     0.173 A 
ATOM     90  C   UNL     1      -5.937 -15.338  11.100  1.00  0.00     0.173 A 
ATOM     91  F   UNL     1      -5.406 -14.906   7.527  1.00  0.00    -0.203 F 
ATOM     92  C   UNL     1      -6.172 -16.774   8.737  1.00  0.00     0.198 A 
ATOM     93  C   UNL     1      -6.369 -16.661  11.126  1.00  0.00     0.198 A 
ATOM     94  F   UNL     1      -5.841 -14.670  12.259  1.00  0.00    -0.203 F 
ATOM     95  F   UNL     1      -6.322 -17.453   7.591  1.00  0.00    -0.200 F 
ATOM     96  C   UNL     1      -6.495 -17.375   9.944  1.00  0.00     0.200 A 
ATOM     97  F   UNL     1      -6.665 -17.245  12.296  1.00  0.00    -0.200 F 
ATOM     98  F   UNL     1      -6.934 -18.641   9.968  1.00  0.00    -0.200 F 
ENDBRANCH  65  88
ENDBRANCH  39  40
ENDBRANCH  31  34
ENDBRANCH  29  30
ENDBRANCH  28  29
ENDBRANCH  27  28
ENDBRANCH  26  27
ENDBRANCH   1  26
TORSDOF 17
