REMARK SMILES Cc1nn(CC(=O)NCCCCCCNC(=O)c2ccc(-c3c4nc(c(-c5c(F)c(F)c(F)c(F)c5F)c5ccc([nH]5)c(-c5c(F)c(F)c(F)c(F)c5F)c5nc(c(-c6c(F)c(F)c(F)c(F)c6F)c6ccc3[nH]6)C=C5)C=C4)cc2)c(C)c1NS(=O)(=O)c1cccc2cccnc12
REMARK SMILES IDX 10 1 9 2 8 3 6 4 7 5 5 7 4 8 1 9 2 10 3 11 83 12 81 13 82 14
REMARK SMILES IDX 84 15 85 17 86 18 87 19 88 20 89 21 97 22 90 23 92 24 96 25
REMARK SMILES IDX 91 26 93 27 95 28 94 29 11 30 12 31 13 32 14 33 15 34 16 35
REMARK SMILES IDX 17 37 18 38 19 39 80 40 20 41 79 42 21 43 22 44 23 45 73 46
REMARK SMILES IDX 24 47 78 48 72 49 74 50 25 51 77 52 71 53 70 54 26 56 58 57
REMARK SMILES IDX 38 58 57 59 39 60 42 61 56 62 75 63 40 64 41 65 55 67 76 68
REMARK SMILES IDX 43 69 27 70 28 71 36 72 29 73 30 74 34 75 37 76 31 77 32 78
REMARK SMILES IDX 35 79 33 80 59 81 60 82 68 83 61 84 62 85 66 86 69 87 63 88
REMARK SMILES IDX 64 89 67 90 65 91 44 92 45 93 53 94 46 95 47 96 51 97 54 98
REMARK SMILES IDX 48 99 49 100 52 101 50 102
REMARK H PARENT 8 6 84 16 15 36 74 55 42 66
REMARK Flexibility Score: inf
ROOT
ATOM      1  C   UNL     1      -3.148  -3.460   1.010  1.00  0.00     0.021 C 
ENDROOT
BRANCH   1   2
ATOM      2  C   UNL     1      -2.445  -4.292   2.082  1.00  0.00     0.116 C 
BRANCH   2   3
ATOM      3  N   UNL     1      -1.615  -5.329   1.496  1.00  0.00    -0.354 N 
ATOM      4  C   UNL     1      -0.262  -5.466   1.427  1.00  0.00     0.241 C 
ATOM      5  O   UNL     1       0.162  -6.487   0.871  1.00  0.00    -0.273 OA
ATOM      6  H   UNL     1      -2.119  -6.063   1.075  1.00  0.00     0.163 HD
BRANCH   4   7
ATOM      7  C   UNL     1       0.699  -4.560   2.153  1.00  0.00     0.244 C 
BRANCH   7   8
ATOM      8  N   UNL     1       0.449  -3.133   2.056  1.00  0.00    -0.258 N 
ATOM      9  C   UNL     1       0.465  -0.163   0.197  1.00  0.00     0.071 C 
ATOM     10  C   UNL     1       0.210  -1.215   1.215  1.00  0.00     0.084 A 
ATOM     11  N   UNL     1       0.507  -2.485   0.885  1.00  0.00    -0.175 NA
ATOM     12  C   UNL     1      -0.176  -1.096   2.596  1.00  0.00     0.093 A 
ATOM     13  C   UNL     1       0.352  -2.260   3.110  1.00  0.00     0.060 A 
ATOM     14  C   UNL     1       0.875  -2.614   4.436  1.00  0.00     0.069 C 
BRANCH  12  15
ATOM     15  N   UNL     1      -0.608   0.051   3.297  1.00  0.00    -0.276 N 
ATOM     16  H   UNL     1      -0.091   0.878   3.168  1.00  0.00     0.180 HD
BRANCH  15  17
ATOM     17  S   UNL     1      -1.971   0.125   4.365  1.00  0.00     0.264 S 
ATOM     18  O   UNL     1      -1.791   1.370   5.083  1.00  0.00    -0.201 OA
ATOM     19  O   UNL     1      -3.145  -0.047   3.529  1.00  0.00    -0.201 OA
BRANCH  17  20
ATOM     20  C   UNL     1      -1.827  -1.168   5.573  1.00  0.00     0.114 A 
ATOM     21  C   UNL     1      -0.832  -1.025   6.558  1.00  0.00     0.024 A 
ATOM     22  C   UNL     1      -2.664  -2.289   5.567  1.00  0.00     0.091 A 
ATOM     23  C   UNL     1      -0.488  -2.110   7.362  1.00  0.00     0.002 A 
ATOM     24  C   UNL     1      -2.200  -3.424   6.274  1.00  0.00     0.002 A 
ATOM     25  N   UNL     1      -3.882  -2.338   4.988  1.00  0.00    -0.255 NA
ATOM     26  C   UNL     1      -1.109  -3.335   7.149  1.00  0.00     0.010 A 
ATOM     27  C   UNL     1      -2.865  -4.647   6.122  1.00  0.00     0.012 A 
ATOM     28  C   UNL     1      -4.615  -3.471   5.093  1.00  0.00     0.112 A 
ATOM     29  C   UNL     1      -4.116  -4.671   5.539  1.00  0.00     0.021 A 
ENDBRANCH  17  20
ENDBRANCH  15  17
ENDBRANCH  12  15
ENDBRANCH   7   8
ENDBRANCH   4   7
ENDBRANCH   2   3
ENDBRANCH   1   2
BRANCH   1  30
ATOM     30  C   UNL     1      -4.284  -4.203   0.289  1.00  0.00     0.002 C 
BRANCH  30  31
ATOM     31  C   UNL     1      -5.417  -4.743   1.177  1.00  0.00     0.002 C 
BRANCH  31  32
ATOM     32  C   UNL     1      -6.108  -3.727   2.088  1.00  0.00     0.021 C 
BRANCH  32  33
ATOM     33  C   UNL     1      -6.854  -2.608   1.393  1.00  0.00     0.116 C 
BRANCH  33  34
ATOM     34  N   UNL     1      -7.942  -3.086   0.538  1.00  0.00    -0.352 N 
ATOM     35  C   UNL     1      -8.726  -2.369  -0.355  1.00  0.00     0.251 C 
ATOM     36  H   UNL     1      -8.146  -4.047   0.607  1.00  0.00     0.163 HD
ATOM     37  O   UNL     1      -9.810  -2.786  -0.720  1.00  0.00    -0.269 OA
BRANCH  35  38
ATOM     38  C   UNL     1      -8.207  -1.086  -0.864  1.00  0.00     0.039 A 
ATOM     39  C   UNL     1      -9.026   0.013  -1.131  1.00  0.00     0.014 A 
ATOM     40  C   UNL     1      -6.834  -0.997  -1.036  1.00  0.00     0.014 A 
ATOM     41  C   UNL     1      -8.422   1.209  -1.517  1.00  0.00     0.010 A 
ATOM     42  C   UNL     1      -6.245   0.227  -1.102  1.00  0.00     0.010 A 
ATOM     43  C   UNL     1      -7.021   1.300  -1.490  1.00  0.00    -0.014 A 
BRANCH  43  44
ATOM     44  C   UNL     1      -6.299   2.524  -1.791  1.00  0.00     0.031 A 
ATOM     45  C   UNL     1      -6.678   3.662  -0.924  1.00  0.00     0.074 A 
ATOM     46  C   UNL     1      -5.214   2.541  -2.600  1.00  0.00     0.049 A 
ATOM     47  N   UNL     1      -7.315   4.729  -1.268  1.00  0.00    -0.248 NA
ATOM     48  C   UNL     1      -6.476   3.526   0.528  1.00  0.00     0.031 C 
ATOM     49  C   UNL     1      -4.532   1.410  -3.248  1.00  0.00     0.029 A 
ATOM     50  N   UNL     1      -4.419   3.589  -2.941  1.00  0.00    -0.354 N 
ATOM     51  C   UNL     1      -7.399   5.504  -0.117  1.00  0.00     0.074 A 
ATOM     52  C   UNL     1      -7.075   4.630   0.978  1.00  0.00     0.031 C 
ATOM     53  C   UNL     1      -3.321   1.802  -3.703  1.00  0.00     0.029 A 
ATOM     54  C   UNL     1      -3.212   3.237  -3.541  1.00  0.00     0.049 A 
ATOM     55  H   UNL     1      -4.676   4.525  -2.777  1.00  0.00     0.167 HD
ATOM     56  C   UNL     1      -7.439   6.862  -0.207  1.00  0.00     0.037 A 
ATOM     57  C   UNL     1      -2.195   4.078  -3.856  1.00  0.00     0.037 A 
ATOM     58  C   UNL     1      -7.794   7.271  -1.548  1.00  0.00     0.049 A 
ATOM     59  C   UNL     1      -2.762   5.450  -3.886  1.00  0.00     0.074 A 
ATOM     60  C   UNL     1      -8.878   7.047  -2.376  1.00  0.00     0.029 A 
ATOM     61  N   UNL     1      -6.781   7.692  -2.376  1.00  0.00    -0.354 N 
ATOM     62  N   UNL     1      -3.629   5.855  -4.773  1.00  0.00    -0.248 NA
ATOM     63  C   UNL     1      -2.732   6.210  -2.646  1.00  0.00     0.031 C 
ATOM     64  C   UNL     1      -8.319   6.869  -3.678  1.00  0.00     0.029 A 
ATOM     65  C   UNL     1      -6.942   7.076  -3.590  1.00  0.00     0.049 A 
ATOM     66  H   UNL     1      -6.065   8.325  -2.139  1.00  0.00     0.167 HD
ATOM     67  C   UNL     1      -4.540   6.613  -4.052  1.00  0.00     0.074 A 
ATOM     68  C   UNL     1      -3.893   6.859  -2.764  1.00  0.00     0.031 C 
ATOM     69  C   UNL     1      -5.842   6.710  -4.452  1.00  0.00     0.037 A 
BRANCH  56  70
ATOM     70  C   UNL     1      -6.752   7.801   0.762  1.00  0.00     0.064 A 
ATOM     71  C   UNL     1      -6.897   9.190   0.566  1.00  0.00     0.173 A 
ATOM     72  C   UNL     1      -5.727   7.424   1.659  1.00  0.00     0.173 A 
ATOM     73  F   UNL     1      -7.837   9.670  -0.262  1.00  0.00    -0.203 F 
ATOM     74  C   UNL     1      -6.014  10.114   1.131  1.00  0.00     0.198 A 
ATOM     75  C   UNL     1      -4.881   8.353   2.262  1.00  0.00     0.198 A 
ATOM     76  F   UNL     1      -5.418   6.149   1.911  1.00  0.00    -0.203 F 
ATOM     77  F   UNL     1      -6.104  11.408   0.796  1.00  0.00    -0.200 F 
ATOM     78  C   UNL     1      -4.998   9.693   1.968  1.00  0.00     0.200 A 
ATOM     79  F   UNL     1      -3.894   7.922   3.060  1.00  0.00    -0.200 F 
ATOM     80  F   UNL     1      -4.106  10.566   2.451  1.00  0.00    -0.200 F 
ENDBRANCH  56  70
BRANCH  57  81
ATOM     81  C   UNL     1      -0.733   3.829  -3.812  1.00  0.00     0.064 A 
ATOM     82  C   UNL     1       0.171   4.699  -4.447  1.00  0.00     0.173 A 
ATOM     83  C   UNL     1      -0.177   2.911  -2.900  1.00  0.00     0.173 A 
ATOM     84  F   UNL     1      -0.280   5.636  -5.294  1.00  0.00    -0.203 F 
ATOM     85  C   UNL     1       1.541   4.673  -4.164  1.00  0.00     0.198 A 
ATOM     86  C   UNL     1       1.191   2.884  -2.620  1.00  0.00     0.198 A 
ATOM     87  F   UNL     1      -0.962   2.093  -2.183  1.00  0.00    -0.203 F 
ATOM     88  F   UNL     1       2.362   5.564  -4.738  1.00  0.00    -0.200 F 
ATOM     89  C   UNL     1       2.048   3.773  -3.241  1.00  0.00     0.200 A 
ATOM     90  F   UNL     1       1.662   2.040  -1.690  1.00  0.00    -0.200 F 
ATOM     91  F   UNL     1       3.348   3.793  -2.915  1.00  0.00    -0.200 F 
ENDBRANCH  57  81
BRANCH  69  92
ATOM     92  C   UNL     1      -6.194   6.198  -5.823  1.00  0.00     0.064 A 
ATOM     93  C   UNL     1      -6.084   4.854  -6.223  1.00  0.00     0.173 A 
ATOM     94  C   UNL     1      -6.799   7.085  -6.722  1.00  0.00     0.173 A 
ATOM     95  F   UNL     1      -5.604   3.922  -5.390  1.00  0.00    -0.203 F 
ATOM     96  C   UNL     1      -6.522   4.431  -7.478  1.00  0.00     0.198 A 
ATOM     97  C   UNL     1      -7.269   6.654  -7.960  1.00  0.00     0.198 A 
ATOM     98  F   UNL     1      -6.979   8.370  -6.378  1.00  0.00    -0.203 F 
ATOM     99  F   UNL     1      -6.394   3.145  -7.838  1.00  0.00    -0.200 F 
ATOM    100  C   UNL     1      -7.122   5.331  -8.342  1.00  0.00     0.200 A 
ATOM    101  F   UNL     1      -7.891   7.519  -8.772  1.00  0.00    -0.200 F 
ATOM    102  F   UNL     1      -7.580   4.919  -9.532  1.00  0.00    -0.200 F 
ENDBRANCH  69  92
ENDBRANCH  43  44
ENDBRANCH  35  38
ENDBRANCH  33  34
ENDBRANCH  32  33
ENDBRANCH  31  32
ENDBRANCH  30  31
ENDBRANCH   1  30
TORSDOF 17
