REMARK SMILES COc1ccc(F)cc1[C@@H](C(=O)NCCCCCCNC(=O)c1ccc(-c2c3nc(c(-c4c(F)c(F)c(F)c(F)c4F)c4ccc([nH]4)c(-c4c(F)c(F)c(F)c(F)c4F)c4nc(c(-c5c(F)c(F)c(F)c(F)c5F)c5ccc2[nH]5)C=C4)C=C3)cc1)[N@@H+](C)CCn1ccnc1C
REMARK SMILES IDX 15 1 14 2 13 3 11 4 12 5 10 7 9 8 3 9 4 10 5 11 8 12 6 13
REMARK SMILES IDX 7 14 2 15 1 16 86 17 87 18 88 20 89 21 90 22 91 23 94 24
REMARK SMILES IDX 92 25 93 26 95 27 16 28 17 29 18 30 19 31 20 32 21 33 22 35
REMARK SMILES IDX 23 36 24 37 85 38 25 39 84 40 26 41 27 42 28 43 78 44 29 45
REMARK SMILES IDX 83 46 77 47 79 48 30 49 82 50 76 51 75 52 31 54 63 55 43 56
REMARK SMILES IDX 62 57 44 58 47 59 61 60 80 61 45 62 46 63 60 65 81 66 48 67
REMARK SMILES IDX 32 68 33 69 41 70 34 71 35 72 39 73 42 74 36 75 37 76 40 77
REMARK SMILES IDX 38 78 64 79 65 80 73 81 66 82 67 83 71 84 74 85 68 86 69 87
REMARK SMILES IDX 72 88 70 89 49 90 50 91 58 92 51 93 52 94 56 95 59 96 53 97
REMARK SMILES IDX 54 98 57 99 55 100
REMARK H PARENT 13 6 86 19 20 34 79 53 47 64
REMARK Flexibility Score: inf
ROOT
ATOM      1  C   UNL     1      -0.338  -2.229  -2.836  1.00  0.00     0.021 C 
ENDROOT
BRANCH   1   2
ATOM      2  C   UNL     1      -0.972  -1.366  -1.752  1.00  0.00     0.116 C 
BRANCH   2   3
ATOM      3  N   UNL     1      -2.181  -1.917  -1.202  1.00  0.00    -0.351 N 
ATOM      4  C   UNL     1      -2.464  -2.420   0.027  1.00  0.00     0.283 C 
ATOM      5  O   UNL     1      -3.673  -2.382   0.310  1.00  0.00    -0.268 OA
ATOM      6  H   UNL     1      -2.941  -1.931  -1.828  1.00  0.00     0.163 HD
BRANCH   4   7
ATOM      7  C   UNL     1      -1.417  -2.907   1.071  1.00  0.00     0.309 C 
BRANCH   7   8
ATOM      8  C   UNL     1       0.021  -3.216   0.618  1.00  0.00     0.064 A 
ATOM      9  C   UNL     1       1.092  -2.315   0.841  1.00  0.00     0.128 A 
ATOM     10  C   UNL     1       2.415  -2.663   0.511  1.00  0.00     0.050 A 
ATOM     11  C   UNL     1       2.696  -3.892  -0.078  1.00  0.00     0.043 A 
ATOM     12  C   UNL     1       0.340  -4.408  -0.046  1.00  0.00     0.053 A 
ATOM     13  C   UNL     1       1.652  -4.750  -0.361  1.00  0.00     0.124 A 
ATOM     14  F   UNL     1       1.902  -5.930  -0.943  1.00  0.00    -0.207 F 
BRANCH   9  15
ATOM     15  O   UNL     1       0.796  -1.081   1.368  1.00  0.00    -0.496 OA
ATOM     16  C   UNL     1       1.525   0.004   0.786  1.00  0.00     0.278 C 
ENDBRANCH   9  15
ENDBRANCH   7   8
BRANCH   7  17
ATOM     17  N   UNL     1      -1.981  -3.936   2.024  1.00  0.00    -0.322 N 
ATOM     18  C   UNL     1      -3.066  -3.414   2.862  1.00  0.00     0.333 C 
ATOM     19  H   UNL     1      -1.127  -4.081   2.563  1.00  0.00     0.348 HD
BRANCH  17  20
ATOM     20  C   UNL     1      -2.235  -5.327   1.611  1.00  0.00     0.285 C 
BRANCH  20  21
ATOM     21  C   UNL     1      -3.396  -5.758   0.679  1.00  0.00     0.184 C 
BRANCH  21  22
ATOM     22  N   UNL     1      -3.300  -5.495  -0.743  1.00  0.00    -0.330 N 
ATOM     23  C   UNL     1      -4.179  -4.689  -1.424  1.00  0.00     0.107 A 
ATOM     24  C   UNL     1      -2.531  -6.130  -1.697  1.00  0.00     0.105 A 
ATOM     25  C   UNL     1      -3.780  -4.727  -2.732  1.00  0.00     0.131 A 
ATOM     26  N   UNL     1      -2.748  -5.606  -2.889  1.00  0.00    -0.242 NA
ATOM     27  C   UNL     1      -1.601  -7.264  -1.460  1.00  0.00     0.087 C 
ENDBRANCH  21  22
ENDBRANCH  20  21
ENDBRANCH  17  20
ENDBRANCH   7  17
ENDBRANCH   4   7
ENDBRANCH   2   3
ENDBRANCH   1   2
BRANCH   1  28
ATOM     28  C   UNL     1      -1.147  -2.362  -4.129  1.00  0.00     0.002 C 
BRANCH  28  29
ATOM     29  C   UNL     1      -1.702  -1.063  -4.716  1.00  0.00     0.002 C 
BRANCH  29  30
ATOM     30  C   UNL     1      -0.669   0.035  -4.965  1.00  0.00     0.021 C 
BRANCH  30  31
ATOM     31  C   UNL     1       0.469  -0.358  -5.896  1.00  0.00     0.116 C 
BRANCH  31  32
ATOM     32  N   UNL     1       0.008  -0.670  -7.239  1.00  0.00    -0.352 N 
ATOM     33  C   UNL     1       0.458  -0.184  -8.443  1.00  0.00     0.251 C 
ATOM     34  H   UNL     1      -0.730  -1.319  -7.293  1.00  0.00     0.163 HD
ATOM     35  O   UNL     1      -0.144  -0.424  -9.479  1.00  0.00    -0.269 OA
BRANCH  33  36
ATOM     36  C   UNL     1       1.670   0.662  -8.472  1.00  0.00     0.039 A 
ATOM     37  C   UNL     1       1.641   1.857  -9.193  1.00  0.00     0.014 A 
ATOM     38  C   UNL     1       2.822   0.284  -7.775  1.00  0.00     0.014 A 
ATOM     39  C   UNL     1       2.747   2.708  -9.161  1.00  0.00     0.010 A 
ATOM     40  C   UNL     1       3.895   1.165  -7.686  1.00  0.00     0.010 A 
ATOM     41  C   UNL     1       3.868   2.385  -8.378  1.00  0.00    -0.014 A 
BRANCH  41  42
ATOM     42  C   UNL     1       5.025   3.308  -8.274  1.00  0.00     0.031 A 
ATOM     43  C   UNL     1       6.365   2.894  -8.813  1.00  0.00     0.074 A 
ATOM     44  C   UNL     1       4.879   4.496  -7.655  1.00  0.00     0.049 A 
ATOM     45  N   UNL     1       7.511   3.524  -8.751  1.00  0.00    -0.248 NA
ATOM     46  C   UNL     1       6.433   1.591  -9.493  1.00  0.00     0.031 C 
ATOM     47  C   UNL     1       3.635   4.997  -7.070  1.00  0.00     0.029 A 
ATOM     48  N   UNL     1       5.786   5.498  -7.414  1.00  0.00    -0.354 N 
ATOM     49  C   UNL     1       8.431   2.695  -9.379  1.00  0.00     0.074 A 
ATOM     50  C   UNL     1       7.726   1.492  -9.764  1.00  0.00     0.031 C 
ATOM     51  C   UNL     1       3.847   6.226  -6.572  1.00  0.00     0.029 A 
ATOM     52  C   UNL     1       5.250   6.582  -6.763  1.00  0.00     0.049 A 
ATOM     53  H   UNL     1       6.731   5.445  -7.683  1.00  0.00     0.167 HD
ATOM     54  C   UNL     1       9.738   2.930  -9.637  1.00  0.00     0.037 A 
ATOM     55  C   UNL     1       5.826   7.733  -6.365  1.00  0.00     0.037 A 
ATOM     56  C   UNL     1      10.430   4.139  -9.276  1.00  0.00     0.049 A 
ATOM     57  C   UNL     1       7.290   7.953  -6.637  1.00  0.00     0.074 A 
ATOM     58  C   UNL     1      11.750   4.479  -9.514  1.00  0.00     0.029 A 
ATOM     59  N   UNL     1       9.853   5.210  -8.610  1.00  0.00    -0.354 N 
ATOM     60  N   UNL     1       8.142   7.172  -7.253  1.00  0.00    -0.248 NA
ATOM     61  C   UNL     1       7.872   9.214  -6.156  1.00  0.00     0.031 C 
ATOM     62  C   UNL     1      11.982   5.741  -8.963  1.00  0.00     0.029 A 
ATOM     63  C   UNL     1      10.794   6.207  -8.421  1.00  0.00     0.049 A 
ATOM     64  H   UNL     1       8.915   5.254  -8.316  1.00  0.00     0.167 HD
ATOM     65  C   UNL     1       9.349   7.857  -7.263  1.00  0.00     0.074 A 
ATOM     66  C   UNL     1       9.119   9.122  -6.598  1.00  0.00     0.031 C 
ATOM     67  C   UNL     1      10.542   7.470  -7.776  1.00  0.00     0.037 A 
BRANCH  54  68
ATOM     68  C   UNL     1      10.508   1.874 -10.371  1.00  0.00     0.064 A 
ATOM     69  C   UNL     1      11.520   1.147  -9.726  1.00  0.00     0.173 A 
ATOM     70  C   UNL     1      10.298   1.639 -11.738  1.00  0.00     0.173 A 
ATOM     71  F   UNL     1      11.764   1.338  -8.421  1.00  0.00    -0.203 F 
ATOM     72  C   UNL     1      12.305   0.236 -10.429  1.00  0.00     0.198 A 
ATOM     73  C   UNL     1      11.066   0.709 -12.431  1.00  0.00     0.198 A 
ATOM     74  F   UNL     1       9.333   2.300 -12.395  1.00  0.00    -0.203 F 
ATOM     75  F   UNL     1      13.290  -0.422  -9.802  1.00  0.00    -0.200 F 
ATOM     76  C   UNL     1      12.076   0.017 -11.780  1.00  0.00     0.200 A 
ATOM     77  F   UNL     1      10.829   0.481 -13.730  1.00  0.00    -0.200 F 
ATOM     78  F   UNL     1      12.829  -0.863 -12.454  1.00  0.00    -0.200 F 
ENDBRANCH  54  68
BRANCH  55  79
ATOM     79  C   UNL     1       5.009   8.784  -5.704  1.00  0.00     0.064 A 
ATOM     80  C   UNL     1       4.492   8.609  -4.412  1.00  0.00     0.173 A 
ATOM     81  C   UNL     1       4.728   9.989  -6.362  1.00  0.00     0.173 A 
ATOM     82  F   UNL     1       4.729   7.473  -3.740  1.00  0.00    -0.203 F 
ATOM     83  C   UNL     1       3.714   9.597  -3.809  1.00  0.00     0.198 A 
ATOM     84  C   UNL     1       3.973  10.987  -5.748  1.00  0.00     0.198 A 
ATOM     85  F   UNL     1       5.219  10.211  -7.590  1.00  0.00    -0.203 F 
ATOM     86  F   UNL     1       3.210   9.394  -2.584  1.00  0.00    -0.200 F 
ATOM     87  C   UNL     1       3.461  10.787  -4.475  1.00  0.00     0.200 A 
ATOM     88  F   UNL     1       3.754  12.145  -6.384  1.00  0.00    -0.200 F 
ATOM     89  F   UNL     1       2.730  11.743  -3.886  1.00  0.00    -0.200 F 
ENDBRANCH  55  79
BRANCH  67  90
ATOM     90  C   UNL     1      11.689   8.431  -7.678  1.00  0.00     0.064 A 
ATOM     91  C   UNL     1      12.185   9.061  -8.829  1.00  0.00     0.173 A 
ATOM     92  C   UNL     1      12.349   8.662  -6.463  1.00  0.00     0.173 A 
ATOM     93  F   UNL     1      11.592   8.865 -10.017  1.00  0.00    -0.203 F 
ATOM     94  C   UNL     1      13.313   9.874  -8.770  1.00  0.00     0.198 A 
ATOM     95  C   UNL     1      13.461   9.497  -6.403  1.00  0.00     0.198 A 
ATOM     96  F   UNL     1      11.904   8.091  -5.334  1.00  0.00    -0.203 F 
ATOM     97  F   UNL     1      13.792  10.436  -9.889  1.00  0.00    -0.200 F 
ATOM     98  C   UNL     1      13.948  10.093  -7.558  1.00  0.00     0.200 A 
ATOM     99  F   UNL     1      14.062   9.726  -5.227  1.00  0.00    -0.200 F 
ATOM    100  F   UNL     1      15.031  10.880  -7.500  1.00  0.00    -0.200 F 
ENDBRANCH  67  90
ENDBRANCH  41  42
ENDBRANCH  33  36
ENDBRANCH  31  32
ENDBRANCH  30  31
ENDBRANCH  29  30
ENDBRANCH  28  29
ENDBRANCH   1  28
TORSDOF 19
