REMARK SMILES C[C@@H](O)[C@H](C)[N@@H+]1CCOC[C@@H]1C(=O)NCCCCCCNC(=O)c1ccc(-c2c3nc(c(-c4c(F)c(F)c(F)c(F)c4F)c4ccc([nH]4)c(-c4c(F)c(F)c(F)c(F)c4F)c4nc(c(-c5c(F)c(F)c(F)c(F)c5F)c5ccc2[nH]5)C=C4)C=C3)cc1
REMARK SMILES IDX 17 1 16 2 15 3 14 4 12 5 13 6 11 8 6 9 7 10 8 12 10 13 9 14
REMARK SMILES IDX 4 15 5 16 2 17 1 18 3 19 18 21 19 22 20 23 21 24 22 25 23 27
REMARK SMILES IDX 24 28 25 29 86 30 26 31 85 32 27 33 28 34 29 35 79 36 30 37
REMARK SMILES IDX 84 38 78 39 80 40 31 41 83 42 77 43 76 44 32 46 64 47 44 48
REMARK SMILES IDX 63 49 45 50 48 51 62 52 81 53 46 54 47 55 61 57 82 58 49 59
REMARK SMILES IDX 33 60 34 61 42 62 35 63 36 64 40 65 43 66 37 67 38 68 41 69
REMARK SMILES IDX 39 70 65 71 66 72 74 73 67 74 68 75 72 76 75 77 69 78 70 79
REMARK SMILES IDX 73 80 71 81 50 82 51 83 59 84 52 85 53 86 57 87 60 88 54 89
REMARK SMILES IDX 55 90 58 91 56 92
REMARK H PARENT 14 7 6 11 3 20 21 26 80 45 48 56
REMARK Flexibility Score: inf
ROOT
ATOM      1  C   UNL     1       0.438   3.832   3.064  1.00  0.00     0.002 C 
ENDROOT
BRANCH   1   2
ATOM      2  C   UNL     1       0.338   2.307   2.994  1.00  0.00     0.021 C 
BRANCH   2   3
ATOM      3  C   UNL     1      -0.822   1.707   3.793  1.00  0.00     0.116 C 
BRANCH   3   4
ATOM      4  N   UNL     1      -2.075   1.932   3.100  1.00  0.00    -0.351 N 
ATOM      5  C   UNL     1      -2.904   1.033   2.483  1.00  0.00     0.280 C 
ATOM      6  O   UNL     1      -3.847   1.498   1.838  1.00  0.00    -0.268 OA
ATOM      7  H   UNL     1      -2.375   2.869   3.068  1.00  0.00     0.163 HD
BRANCH   5   8
ATOM      8  C   UNL     1      -2.714  -0.479   2.697  1.00  0.00     0.300 C 
ATOM      9  N   UNL     1      -1.399  -1.049   2.273  1.00  0.00    -0.317 N 
ATOM     10  C   UNL     1      -1.389  -2.489   2.558  1.00  0.00     0.292 C 
ATOM     11  H   UNL     1      -0.692  -0.600   2.856  1.00  0.00     0.349 HD
ATOM     12  C   UNL     1      -2.646  -3.258   2.120  1.00  0.00     0.221 C 
ATOM     13  C   UNL     1      -3.934  -1.271   2.195  1.00  0.00     0.235 C 
ATOM     14  O   UNL     1      -3.852  -2.651   2.595  1.00  0.00    -0.369 OA
BRANCH   9  15
ATOM     15  C   UNL     1      -0.779  -0.589   1.015  1.00  0.00     0.210 C 
ATOM     16  C   UNL     1       0.750  -0.639   1.237  1.00  0.00     0.078 C 
BRANCH  15  17
ATOM     17  C   UNL     1      -1.138  -1.164  -0.399  1.00  0.00     0.169 C 
ATOM     18  C   UNL     1      -0.253  -2.294  -0.920  1.00  0.00     0.045 C 
BRANCH  17  19
ATOM     19  O   UNL     1      -2.506  -1.538  -0.478  1.00  0.00    -0.387 OA
ATOM     20  H   UNL     1      -2.671  -2.285   0.118  1.00  0.00     0.211 HD
ENDBRANCH  17  19
ENDBRANCH  15  17
ENDBRANCH   9  15
ENDBRANCH   5   8
ENDBRANCH   3   4
ENDBRANCH   2   3
ENDBRANCH   1   2
BRANCH   1  21
ATOM     21  C   UNL     1       0.761   4.390   4.452  1.00  0.00     0.002 C 
BRANCH  21  22
ATOM     22  C   UNL     1       2.010   3.801   5.114  1.00  0.00     0.021 C 
BRANCH  22  23
ATOM     23  C   UNL     1       3.287   3.922   4.287  1.00  0.00     0.116 C 
BRANCH  23  24
ATOM     24  N   UNL     1       3.661   5.310   4.057  1.00  0.00    -0.352 N 
ATOM     25  C   UNL     1       4.766   6.003   4.492  1.00  0.00     0.251 C 
ATOM     26  H   UNL     1       3.030   5.829   3.509  1.00  0.00     0.163 HD
ATOM     27  O   UNL     1       4.819   7.220   4.382  1.00  0.00    -0.269 OA
BRANCH  25  28
ATOM     28  C   UNL     1       5.886   5.269   5.118  1.00  0.00     0.039 A 
ATOM     29  C   UNL     1       6.408   5.736   6.326  1.00  0.00     0.014 A 
ATOM     30  C   UNL     1       6.405   4.118   4.521  1.00  0.00     0.014 A 
ATOM     31  C   UNL     1       7.393   4.995   6.983  1.00  0.00     0.010 A 
ATOM     32  C   UNL     1       7.337   3.347   5.208  1.00  0.00     0.010 A 
ATOM     33  C   UNL     1       7.827   3.769   6.454  1.00  0.00    -0.014 A 
BRANCH  33  34
ATOM     34  C   UNL     1       8.754   2.885   7.206  1.00  0.00     0.031 A 
ATOM     35  C   UNL     1      10.114   2.566   6.657  1.00  0.00     0.074 A 
ATOM     36  C   UNL     1       8.328   2.298   8.342  1.00  0.00     0.049 A 
ATOM     37  N   UNL     1      11.012   1.728   7.106  1.00  0.00    -0.248 NA
ATOM     38  C   UNL     1      10.507   3.267   5.425  1.00  0.00     0.031 C 
ATOM     39  C   UNL     1       7.017   2.503   8.959  1.00  0.00     0.029 A 
ATOM     40  N   UNL     1       8.946   1.392   9.169  1.00  0.00    -0.354 N 
ATOM     41  C   UNL     1      12.071   1.793   6.211  1.00  0.00     0.074 A 
ATOM     42  C   UNL     1      11.684   2.715   5.165  1.00  0.00     0.031 C 
ATOM     43  C   UNL     1       6.933   1.758  10.072  1.00  0.00     0.029 A 
ATOM     44  C   UNL     1       8.160   0.983  10.220  1.00  0.00     0.049 A 
ATOM     45  H   UNL     1       9.864   1.067   9.024  1.00  0.00     0.167 HD
ATOM     46  C   UNL     1      13.264   1.154   6.268  1.00  0.00     0.037 A 
ATOM     47  C   UNL     1       8.393   0.068  11.180  1.00  0.00     0.037 A 
ATOM     48  C   UNL     1      13.646   0.243   7.317  1.00  0.00     0.049 A 
ATOM     49  C   UNL     1       9.704  -0.671  11.188  1.00  0.00     0.074 A 
ATOM     50  C   UNL     1      14.853  -0.408   7.495  1.00  0.00     0.029 A 
ATOM     51  N   UNL     1      12.820  -0.154   8.358  1.00  0.00    -0.354 N 
ATOM     52  N   UNL     1      10.726  -0.550  10.376  1.00  0.00    -0.248 NA
ATOM     53  C   UNL     1       9.893  -1.676  12.243  1.00  0.00     0.031 C 
ATOM     54  C   UNL     1      14.737  -1.248   8.608  1.00  0.00     0.029 A 
ATOM     55  C   UNL     1      13.478  -1.074   9.160  1.00  0.00     0.049 A 
ATOM     56  H   UNL     1      11.902   0.170   8.507  1.00  0.00     0.167 HD
ATOM     57  C   UNL     1      11.685  -1.444  10.833  1.00  0.00     0.074 A 
ATOM     58  C   UNL     1      11.131  -2.088  12.005  1.00  0.00     0.031 C 
ATOM     59  C   UNL     1      12.914  -1.707  10.325  1.00  0.00     0.037 A 
BRANCH  46  60
ATOM     60  C   UNL     1      14.245   1.410   5.160  1.00  0.00     0.064 A 
ATOM     61  C   UNL     1      14.878   2.654   5.008  1.00  0.00     0.173 A 
ATOM     62  C   UNL     1      14.589   0.387   4.263  1.00  0.00     0.173 A 
ATOM     63  F   UNL     1      14.580   3.669   5.833  1.00  0.00    -0.203 F 
ATOM     64  C   UNL     1      15.792   2.873   3.980  1.00  0.00     0.198 A 
ATOM     65  C   UNL     1      15.529   0.600   3.257  1.00  0.00     0.198 A 
ATOM     66  F   UNL     1      14.021  -0.824   4.367  1.00  0.00    -0.203 F 
ATOM     67  F   UNL     1      16.344   4.084   3.824  1.00  0.00    -0.200 F 
ATOM     68  C   UNL     1      16.122   1.844   3.111  1.00  0.00     0.200 A 
ATOM     69  F   UNL     1      15.858  -0.400   2.428  1.00  0.00    -0.200 F 
ATOM     70  F   UNL     1      17.008   2.054   2.128  1.00  0.00    -0.200 F 
ENDBRANCH  46  60
BRANCH  47  71
ATOM     71  C   UNL     1       7.359  -0.205  12.213  1.00  0.00     0.064 A 
ATOM     72  C   UNL     1       7.571   0.145  13.553  1.00  0.00     0.173 A 
ATOM     73  C   UNL     1       6.142  -0.822  11.886  1.00  0.00     0.173 A 
ATOM     74  F   UNL     1       8.728   0.717  13.920  1.00  0.00    -0.203 F 
ATOM     75  C   UNL     1       6.616  -0.129  14.530  1.00  0.00     0.198 A 
ATOM     76  C   UNL     1       5.174  -1.067  12.858  1.00  0.00     0.198 A 
ATOM     77  F   UNL     1       5.886  -1.175  10.617  1.00  0.00    -0.203 F 
ATOM     78  F   UNL     1       6.865   0.173  15.811  1.00  0.00    -0.200 F 
ATOM     79  C   UNL     1       5.415  -0.728  14.180  1.00  0.00     0.200 A 
ATOM     80  F   UNL     1       4.009  -1.631  12.512  1.00  0.00    -0.200 F 
ATOM     81  F   UNL     1       4.494  -0.986  15.119  1.00  0.00    -0.200 F 
ENDBRANCH  47  71
BRANCH  59  82
ATOM     82  C   UNL     1      13.756  -2.723  11.041  1.00  0.00     0.064 A 
ATOM     83  C   UNL     1      13.457  -4.093  10.991  1.00  0.00     0.173 A 
ATOM     84  C   UNL     1      14.911  -2.329  11.734  1.00  0.00     0.173 A 
ATOM     85  F   UNL     1      12.354  -4.519  10.356  1.00  0.00    -0.203 F 
ATOM     86  C   UNL     1      14.274  -5.028  11.620  1.00  0.00     0.198 A 
ATOM     87  C   UNL     1      15.744  -3.269  12.334  1.00  0.00     0.198 A 
ATOM     88  F   UNL     1      15.246  -1.032  11.809  1.00  0.00    -0.203 F 
ATOM     89  F   UNL     1      13.947  -6.327  11.591  1.00  0.00    -0.200 F 
ATOM     90  C   UNL     1      15.422  -4.617  12.281  1.00  0.00     0.200 A 
ATOM     91  F   UNL     1      16.861  -2.872  12.959  1.00  0.00    -0.200 F 
ATOM     92  F   UNL     1      16.217  -5.521  12.870  1.00  0.00    -0.200 F 
ENDBRANCH  59  82
ENDBRANCH  33  34
ENDBRANCH  25  28
ENDBRANCH  23  24
ENDBRANCH  22  23
ENDBRANCH  21  22
ENDBRANCH   1  21
TORSDOF 16
