REMARK SMILES COc1cc(F)c(C[N@H+]2CCC[C@@](CC3CC3)(C(=O)NCCCCCCNC(=O)c3ccc(-c4c5nc(c(-c6c(F)c(F)c(F)c(F)c6F)c6ccc([nH]6)c(-c6c(F)c(F)c(F)c(F)c6F)c6nc(c(-c7c(F)c(F)c(F)c(F)c7F)c7ccc4[nH]7)C=C6)C=C5)cc3)C2)cc1OC
REMARK SMILES IDX 23 1 22 2 21 3 20 4 18 5 19 6 13 8 9 9 10 10 93 11 11 13
REMARK SMILES IDX 12 14 8 15 7 16 3 17 4 18 95 19 5 20 94 21 6 22 2 23 1 24
REMARK SMILES IDX 96 25 97 26 14 27 15 28 16 29 17 30 24 31 25 32 26 33 27 34
REMARK SMILES IDX 28 35 29 37 30 38 31 39 92 40 32 41 91 42 33 43 34 44 35 45
REMARK SMILES IDX 85 46 36 47 90 48 84 49 86 50 37 51 89 52 83 53 82 54 38 56
REMARK SMILES IDX 70 57 50 58 69 59 51 60 54 61 68 62 87 63 52 64 53 65 67 67
REMARK SMILES IDX 88 68 55 69 39 70 40 71 48 72 41 73 42 74 46 75 49 76 43 77
REMARK SMILES IDX 44 78 47 79 45 80 71 81 72 82 80 83 73 84 74 85 78 86 81 87
REMARK SMILES IDX 75 88 76 89 79 90 77 91 56 92 57 93 65 94 58 95 59 96 63 97
REMARK SMILES IDX 66 98 60 99 61 100 64 101 62 102
REMARK H PARENT 20 7 9 12 27 36 86 55 54 66
REMARK Flexibility Score: inf
ROOT
ATOM      1  C   UNL     1      -4.354 -10.892   0.166  1.00  0.00     0.002 C 
ENDROOT
BRANCH   1   2
ATOM      2  C   UNL     1      -2.966 -10.305  -0.089  1.00  0.00     0.021 C 
BRANCH   2   3
ATOM      3  C   UNL     1      -2.796  -9.762  -1.496  1.00  0.00     0.116 C 
BRANCH   3   4
ATOM      4  N   UNL     1      -2.907  -8.344  -1.607  1.00  0.00    -0.355 N 
ATOM      5  C   UNL     1      -2.153  -7.550  -2.413  1.00  0.00     0.231 C 
ATOM      6  O   UNL     1      -2.734  -6.542  -2.832  1.00  0.00    -0.274 OA
ATOM      7  H   UNL     1      -3.589  -7.901  -1.052  1.00  0.00     0.163 HD
BRANCH   5   8
ATOM      8  C   UNL     1      -0.665  -7.878  -2.793  1.00  0.00     0.098 C 
ATOM      9  N   UNL     1       1.278  -6.277  -3.453  1.00  0.00    -0.330 N 
ATOM     10  C   UNL     1       2.062  -6.695  -2.288  1.00  0.00     0.262 C 
ATOM     11  C   UNL     1      -0.163  -6.450  -3.224  1.00  0.00     0.279 C 
ATOM     12  H   UNL     1       1.549  -6.892  -4.220  1.00  0.00     0.348 HD
ATOM     13  C   UNL     1       1.695  -8.112  -1.844  1.00  0.00     0.063 C 
ATOM     14  C   UNL     1       0.195  -8.245  -1.567  1.00  0.00     0.028 C 
BRANCH   9  15
ATOM     15  C   UNL     1       1.593  -4.887  -3.882  1.00  0.00     0.302 C 
BRANCH  15  16
ATOM     16  C   UNL     1       1.369  -3.787  -2.858  1.00  0.00     0.046 A 
ATOM     17  C   UNL     1       0.953  -1.949  -0.762  1.00  0.00     0.163 A 
ATOM     18  C   UNL     1       2.249  -2.321  -1.131  1.00  0.00     0.090 A 
ATOM     19  C   UNL     1      -0.149  -2.477  -1.442  1.00  0.00     0.161 A 
ATOM     20  C   UNL     1       2.444  -3.234  -2.164  1.00  0.00     0.136 A 
ATOM     21  C   UNL     1       0.077  -3.340  -2.524  1.00  0.00     0.063 A 
ATOM     22  F   UNL     1       3.698  -3.598  -2.469  1.00  0.00    -0.206 F 
BRANCH  17  23
ATOM     23  O   UNL     1       0.801  -1.116   0.314  1.00  0.00    -0.493 OA
ATOM     24  C   UNL     1       1.109   0.232  -0.039  1.00  0.00     0.278 C 
ENDBRANCH  17  23
BRANCH  19  25
ATOM     25  O   UNL     1      -1.476  -2.249  -1.196  1.00  0.00    -0.493 OA
ATOM     26  C   UNL     1      -1.841  -1.826   0.112  1.00  0.00     0.278 C 
ENDBRANCH  19  25
ENDBRANCH  15  16
ENDBRANCH   9  15
BRANCH   8  27
ATOM     27  C   UNL     1      -0.591  -8.822  -4.031  1.00  0.00     0.026 C 
BRANCH  27  28
ATOM     28  C   UNL     1      -0.024 -10.234  -4.013  1.00  0.00    -0.010 C 
ATOM     29  C   UNL     1       0.000 -11.332  -2.964  1.00  0.00     0.004 C 
ATOM     30  C   UNL     1      -1.031 -11.373  -4.047  1.00  0.00     0.004 C 
ENDBRANCH  27  28
ENDBRANCH   8  27
ENDBRANCH   5   8
ENDBRANCH   3   4
ENDBRANCH   2   3
ENDBRANCH   1   2
BRANCH   1  31
ATOM     31  C   UNL     1      -4.790 -11.992  -0.814  1.00  0.00     0.002 C 
BRANCH  31  32
ATOM     32  C   UNL     1      -3.844 -13.191  -0.923  1.00  0.00     0.021 C 
BRANCH  32  33
ATOM     33  C   UNL     1      -3.588 -13.919   0.393  1.00  0.00     0.116 C 
BRANCH  33  34
ATOM     34  N   UNL     1      -4.826 -14.306   1.053  1.00  0.00    -0.352 N 
ATOM     35  C   UNL     1      -5.263 -15.536   1.468  1.00  0.00     0.251 C 
ATOM     36  H   UNL     1      -5.449 -13.564   1.229  1.00  0.00     0.163 HD
ATOM     37  O   UNL     1      -6.431 -15.691   1.807  1.00  0.00    -0.269 OA
BRANCH  35  38
ATOM     38  C   UNL     1      -4.329 -16.679   1.504  1.00  0.00     0.039 A 
ATOM     39  C   UNL     1      -4.781 -17.930   1.079  1.00  0.00     0.014 A 
ATOM     40  C   UNL     1      -3.027 -16.526   1.985  1.00  0.00     0.014 A 
ATOM     41  C   UNL     1      -3.908 -19.018   1.087  1.00  0.00     0.010 A 
ATOM     42  C   UNL     1      -2.136 -17.592   1.920  1.00  0.00     0.010 A 
ATOM     43  C   UNL     1      -2.570 -18.849   1.477  1.00  0.00    -0.014 A 
BRANCH  43  44
ATOM     44  C   UNL     1      -1.607 -19.977   1.427  1.00  0.00     0.031 A 
ATOM     45  C   UNL     1      -0.980 -20.491   2.692  1.00  0.00     0.074 A 
ATOM     46  C   UNL     1      -1.258 -20.496   0.235  1.00  0.00     0.049 A 
ATOM     47  N   UNL     1      -0.069 -21.418   2.844  1.00  0.00    -0.248 NA
ATOM     48  C   UNL     1      -1.414 -19.866   3.951  1.00  0.00     0.031 C 
ATOM     49  C   UNL     1      -1.772 -20.051  -1.061  1.00  0.00     0.029 A 
ATOM     50  N   UNL     1      -0.384 -21.505  -0.083  1.00  0.00    -0.354 N 
ATOM     51  C   UNL     1       0.183 -21.479   4.207  1.00  0.00     0.074 A 
ATOM     52  C   UNL     1      -0.626 -20.459   4.836  1.00  0.00     0.031 C 
ATOM     53  C   UNL     1      -1.229 -20.803  -2.030  1.00  0.00     0.029 A 
ATOM     54  C   UNL     1      -0.294 -21.752  -1.431  1.00  0.00     0.049 A 
ATOM     55  H   UNL     1       0.130 -22.005   0.592  1.00  0.00     0.167 HD
ATOM     56  C   UNL     1       0.998 -22.329   4.875  1.00  0.00     0.037 A 
ATOM     57  C   UNL     1       0.461 -22.637  -2.108  1.00  0.00     0.037 A 
ATOM     58  C   UNL     1       1.780 -23.359   4.244  1.00  0.00     0.049 A 
ATOM     59  C   UNL     1       1.373 -23.558  -1.344  1.00  0.00     0.074 A 
ATOM     60  C   UNL     1       2.595 -24.306   4.838  1.00  0.00     0.029 A 
ATOM     61  N   UNL     1       1.846 -23.577   2.875  1.00  0.00    -0.354 N 
ATOM     62  N   UNL     1       1.564 -23.642  -0.050  1.00  0.00    -0.248 NA
ATOM     63  C   UNL     1       2.172 -24.506  -2.132  1.00  0.00     0.031 C 
ATOM     64  C   UNL     1       3.197 -25.060   3.828  1.00  0.00     0.029 A 
ATOM     65  C   UNL     1       2.709 -24.627   2.606  1.00  0.00     0.049 A 
ATOM     66  H   UNL     1       1.353 -23.062   2.196  1.00  0.00     0.167 HD
ATOM     67  C   UNL     1       2.483 -24.666   0.135  1.00  0.00     0.074 A 
ATOM     68  C   UNL     1       2.803 -25.182  -1.180  1.00  0.00     0.031 C 
ATOM     69  C   UNL     1       3.013 -25.134   1.291  1.00  0.00     0.037 A 
BRANCH  56  70
ATOM     70  C   UNL     1       1.079 -22.200   6.368  1.00  0.00     0.064 A 
ATOM     71  C   UNL     1       2.271 -21.788   6.984  1.00  0.00     0.173 A 
ATOM     72  C   UNL     1       0.003 -22.556   7.196  1.00  0.00     0.173 A 
ATOM     73  F   UNL     1       3.333 -21.441   6.240  1.00  0.00    -0.203 F 
ATOM     74  C   UNL     1       2.387 -21.754   8.371  1.00  0.00     0.198 A 
ATOM     75  C   UNL     1       0.112 -22.489   8.582  1.00  0.00     0.198 A 
ATOM     76  F   UNL     1      -1.162 -22.945   6.657  1.00  0.00    -0.203 F 
ATOM     77  F   UNL     1       3.547 -21.393   8.937  1.00  0.00    -0.200 F 
ATOM     78  C   UNL     1       1.307 -22.100   9.169  1.00  0.00     0.200 A 
ATOM     79  F   UNL     1      -0.941 -22.800   9.351  1.00  0.00    -0.200 F 
ATOM     80  F   UNL     1       1.417 -22.058  10.504  1.00  0.00    -0.200 F 
ENDBRANCH  56  70
BRANCH  57  81
ATOM     81  C   UNL     1       0.350 -22.713  -3.588  1.00  0.00     0.064 A 
ATOM     82  C   UNL     1       0.804 -21.670  -4.410  1.00  0.00     0.173 A 
ATOM     83  C   UNL     1      -0.252 -23.816  -4.208  1.00  0.00     0.173 A 
ATOM     84  F   UNL     1       1.382 -20.589  -3.867  1.00  0.00    -0.203 F 
ATOM     85  C   UNL     1       0.639 -21.720  -5.793  1.00  0.00     0.198 A 
ATOM     86  C   UNL     1      -0.391 -23.878  -5.593  1.00  0.00     0.198 A 
ATOM     87  F   UNL     1      -0.685 -24.846  -3.466  1.00  0.00    -0.203 F 
ATOM     88  F   UNL     1       1.045 -20.692  -6.551  1.00  0.00    -0.200 F 
ATOM     89  C   UNL     1       0.045 -22.825  -6.383  1.00  0.00     0.200 A 
ATOM     90  F   UNL     1      -0.944 -24.958  -6.161  1.00  0.00    -0.200 F 
ATOM     91  F   UNL     1      -0.105 -22.877  -7.714  1.00  0.00    -0.200 F 
ENDBRANCH  57  81
BRANCH  69  92
ATOM     92  C   UNL     1       3.980 -26.279   1.204  1.00  0.00     0.064 A 
ATOM     93  C   UNL     1       3.630 -27.542   1.707  1.00  0.00     0.173 A 
ATOM     94  C   UNL     1       5.281 -26.105   0.713  1.00  0.00     0.173 A 
ATOM     95  F   UNL     1       2.400 -27.758   2.197  1.00  0.00    -0.203 F 
ATOM     96  C   UNL     1       4.554 -28.581   1.740  1.00  0.00     0.198 A 
ATOM     97  C   UNL     1       6.194 -27.156   0.718  1.00  0.00     0.198 A 
ATOM     98  F   UNL     1       5.661 -24.920   0.211  1.00  0.00    -0.203 F 
ATOM     99  F   UNL     1       4.210 -29.766   2.265  1.00  0.00    -0.200 F 
ATOM    100  C   UNL     1       5.834 -28.389   1.243  1.00  0.00     0.200 A 
ATOM    101  F   UNL     1       7.423 -26.976   0.216  1.00  0.00    -0.200 F 
ATOM    102  F   UNL     1       6.722 -29.392   1.270  1.00  0.00    -0.200 F 
ENDBRANCH  69  92
ENDBRANCH  43  44
ENDBRANCH  35  38
ENDBRANCH  33  34
ENDBRANCH  32  33
ENDBRANCH  31  32
ENDBRANCH   1  31
TORSDOF 19
