REMARK SMILES O=C(NCCCCCCNC(=O)c1ccc(-c2ccc(Cl)c3ccccc23)o1)c1ccc(-c2c3nc(c(-c4c(F)c(F)c(F)c(F)c4F)c4ccc([nH]4)c(-c4c(F)c(F)c(F)c(F)c4F)c4nc(c(-c5c(F)c(F)c(F)c(F)c5F)c5ccc2[nH]5)C=C4)C=C3)cc1
REMARK SMILES IDX 6 1 5 2 4 3 3 4 1 5 2 6 29 8 30 9 91 10 31 11 90 12 32 13
REMARK SMILES IDX 33 14 34 15 84 16 35 17 89 18 83 19 85 20 36 21 88 22 82 23
REMARK SMILES IDX 81 24 37 26 69 27 49 28 68 29 50 30 53 31 67 32 86 33 51 34
REMARK SMILES IDX 52 35 66 37 87 38 54 39 38 40 39 41 47 42 40 43 41 44 45 45
REMARK SMILES IDX 48 46 42 47 43 48 46 49 44 50 70 51 71 52 79 53 72 54 73 55
REMARK SMILES IDX 77 56 80 57 74 58 75 59 78 60 76 61 55 62 56 63 64 64 57 65
REMARK SMILES IDX 58 66 62 67 65 68 59 69 60 70 63 71 61 72 7 73 8 74 9 75
REMARK SMILES IDX 10 76 11 77 12 79 13 80 14 81 28 82 15 83 16 84 17 85 18 86
REMARK SMILES IDX 27 87 19 88 22 89 26 90 20 91 23 92 25 93 21 94 24 95
REMARK H PARENT 3 7 85 25 53 36 10 78
REMARK Flexibility Score: inf
ROOT
ATOM      1  C   UNL     1       4.184   3.815   0.588  1.00  0.00     0.002 C 
ENDROOT
BRANCH   1   2
ATOM      2  C   UNL     1       4.651   2.660  -0.298  1.00  0.00     0.021 C 
BRANCH   2   3
ATOM      3  C   UNL     1       4.395   1.273   0.275  1.00  0.00     0.116 C 
BRANCH   3   4
ATOM      4  N   UNL     1       2.979   0.967   0.378  1.00  0.00    -0.352 N 
ATOM      5  O   UNL     1       1.074  -0.161  -0.069  1.00  0.00    -0.269 OA
ATOM      6  C   UNL     1       2.300  -0.130  -0.093  1.00  0.00     0.251 C 
ATOM      7  H   UNL     1       2.432   1.636   0.850  1.00  0.00     0.163 HD
BRANCH   6   8
ATOM      8  C   UNL     1       3.056  -1.274  -0.647  1.00  0.00     0.039 A 
ATOM      9  C   UNL     1       4.175  -1.776   0.023  1.00  0.00     0.014 A 
ATOM     10  C   UNL     1       2.623  -1.866  -1.837  1.00  0.00     0.014 A 
ATOM     11  C   UNL     1       4.924  -2.796  -0.550  1.00  0.00     0.010 A 
ATOM     12  C   UNL     1       3.331  -2.947  -2.370  1.00  0.00     0.010 A 
ATOM     13  C   UNL     1       4.492  -3.414  -1.735  1.00  0.00    -0.014 A 
BRANCH  13  14
ATOM     14  C   UNL     1       5.201  -4.624  -2.218  1.00  0.00     0.031 A 
ATOM     15  C   UNL     1       5.950  -4.631  -3.518  1.00  0.00     0.074 A 
ATOM     16  C   UNL     1       5.158  -5.729  -1.448  1.00  0.00     0.049 A 
ATOM     17  N   UNL     1       6.618  -5.610  -4.075  1.00  0.00    -0.248 NA
ATOM     18  C   UNL     1       5.949  -3.385  -4.300  1.00  0.00     0.031 C 
ATOM     19  C   UNL     1       4.437  -5.839  -0.176  1.00  0.00     0.029 A 
ATOM     20  N   UNL     1       5.731  -6.964  -1.610  1.00  0.00    -0.354 N 
ATOM     21  C   UNL     1       7.101  -5.109  -5.276  1.00  0.00     0.074 A 
ATOM     22  C   UNL     1       6.637  -3.741  -5.378  1.00  0.00     0.031 C 
ATOM     23  C   UNL     1       4.638  -7.059   0.341  1.00  0.00     0.029 A 
ATOM     24  C   UNL     1       5.444  -7.838  -0.590  1.00  0.00     0.049 A 
ATOM     25  H   UNL     1       6.294  -7.201  -2.382  1.00  0.00     0.167 HD
ATOM     26  C   UNL     1       7.864  -5.739  -6.201  1.00  0.00     0.037 A 
ATOM     27  C   UNL     1       5.768  -9.134  -0.434  1.00  0.00     0.037 A 
ATOM     28  C   UNL     1       8.336  -7.095  -6.078  1.00  0.00     0.049 A 
ATOM     29  C   UNL     1       6.596  -9.805  -1.491  1.00  0.00     0.074 A 
ATOM     30  C   UNL     1       9.171  -7.798  -6.930  1.00  0.00     0.029 A 
ATOM     31  N   UNL     1       8.006  -7.958  -5.043  1.00  0.00    -0.354 N 
ATOM     32  N   UNL     1       7.099  -9.300  -2.591  1.00  0.00    -0.248 NA
ATOM     33  C   UNL     1       6.896 -11.229  -1.290  1.00  0.00     0.031 C 
ATOM     34  C   UNL     1       9.302  -9.101  -6.441  1.00  0.00     0.029 A 
ATOM     35  C   UNL     1       8.591  -9.197  -5.255  1.00  0.00     0.049 A 
ATOM     36  H   UNL     1       7.440  -7.725  -4.272  1.00  0.00     0.167 HD
ATOM     37  C   UNL     1       7.783 -10.337  -3.206  1.00  0.00     0.074 A 
ATOM     38  C   UNL     1       7.657 -11.492  -2.342  1.00  0.00     0.031 C 
ATOM     39  C   UNL     1       8.449 -10.336  -4.386  1.00  0.00     0.037 A 
BRANCH  26  40
ATOM     40  C   UNL     1       8.239  -4.987  -7.445  1.00  0.00     0.064 A 
ATOM     41  C   UNL     1       9.209  -3.975  -7.430  1.00  0.00     0.173 A 
ATOM     42  C   UNL     1       7.695  -5.358  -8.685  1.00  0.00     0.173 A 
ATOM     43  F   UNL     1       9.754  -3.578  -6.271  1.00  0.00    -0.203 F 
ATOM     44  C   UNL     1       9.617  -3.357  -8.611  1.00  0.00     0.198 A 
ATOM     45  C   UNL     1       8.122  -4.755  -9.865  1.00  0.00     0.198 A 
ATOM     46  F   UNL     1       6.769  -6.326  -8.754  1.00  0.00    -0.203 F 
ATOM     47  F   UNL     1      10.532  -2.379  -8.572  1.00  0.00    -0.200 F 
ATOM     48  C   UNL     1       9.082  -3.755  -9.828  1.00  0.00     0.200 A 
ATOM     49  F   UNL     1       7.614  -5.151 -11.041  1.00  0.00    -0.200 F 
ATOM     50  F   UNL     1       9.492  -3.175 -10.964  1.00  0.00    -0.200 F 
ENDBRANCH  26  40
BRANCH  27  51
ATOM     51  C   UNL     1       5.282  -9.884   0.753  1.00  0.00     0.064 A 
ATOM     52  C   UNL     1       6.172 -10.358   1.726  1.00  0.00     0.173 A 
ATOM     53  C   UNL     1       3.916 -10.154   0.930  1.00  0.00     0.173 A 
ATOM     54  F   UNL     1       7.489 -10.142   1.591  1.00  0.00    -0.203 F 
ATOM     55  C   UNL     1       5.717 -11.096   2.817  1.00  0.00     0.198 A 
ATOM     56  C   UNL     1       3.460 -10.861   2.039  1.00  0.00     0.198 A 
ATOM     57  F   UNL     1       3.022  -9.717   0.031  1.00  0.00    -0.203 F 
ATOM     58  F   UNL     1       6.595 -11.585   3.703  1.00  0.00    -0.200 F 
ATOM     59  C   UNL     1       4.361 -11.342   2.975  1.00  0.00     0.200 A 
ATOM     60  F   UNL     1       2.147 -11.080   2.197  1.00  0.00    -0.200 F 
ATOM     61  F   UNL     1       3.925 -12.050   4.026  1.00  0.00    -0.200 F 
ENDBRANCH  27  51
BRANCH  39  62
ATOM     62  C   UNL     1       9.099 -11.623  -4.799  1.00  0.00     0.064 A 
ATOM     63  C   UNL     1       8.339 -12.723  -5.225  1.00  0.00     0.173 A 
ATOM     64  C   UNL     1      10.496 -11.753  -4.787  1.00  0.00     0.173 A 
ATOM     65  F   UNL     1       7.000 -12.654  -5.235  1.00  0.00    -0.203 F 
ATOM     66  C   UNL     1       8.954 -13.916  -5.596  1.00  0.00     0.198 A 
ATOM     67  C   UNL     1      11.108 -12.936  -5.188  1.00  0.00     0.198 A 
ATOM     68  F   UNL     1      11.267 -10.729  -4.392  1.00  0.00    -0.203 F 
ATOM     69  F   UNL     1       8.206 -14.971  -5.947  1.00  0.00    -0.200 F 
ATOM     70  C   UNL     1      10.337 -14.019  -5.584  1.00  0.00     0.200 A 
ATOM     71  F   UNL     1      12.445 -13.031  -5.188  1.00  0.00    -0.200 F 
ATOM     72  F   UNL     1      10.927 -15.167  -5.945  1.00  0.00    -0.200 F 
ENDBRANCH  39  62
ENDBRANCH  13  14
ENDBRANCH   6   8
ENDBRANCH   3   4
ENDBRANCH   2   3
ENDBRANCH   1   2
BRANCH   1  73
ATOM     73  C   UNL     1       4.757   3.825   2.009  1.00  0.00     0.002 C 
BRANCH  73  74
ATOM     74  C   UNL     1       6.284   3.733   2.105  1.00  0.00     0.021 C 
BRANCH  74  75
ATOM     75  C   UNL     1       7.041   4.822   1.346  1.00  0.00     0.116 C 
BRANCH  75  76
ATOM     76  N   UNL     1       6.807   6.133   1.920  1.00  0.00    -0.349 N 
ATOM     77  C   UNL     1       7.732   7.034   2.398  1.00  0.00     0.287 C 
ATOM     78  H   UNL     1       5.866   6.416   1.975  1.00  0.00     0.163 HD
ATOM     79  O   UNL     1       7.316   7.981   3.067  1.00  0.00    -0.266 OA
BRANCH  77  80
ATOM     80  C   UNL     1       9.123   6.821   2.079  1.00  0.00     0.192 A 
ATOM     81  C   UNL     1       9.762   6.536   0.885  1.00  0.00     0.057 A 
ATOM     82  O   UNL     1      10.049   6.902   3.083  1.00  0.00    -0.451 OA
ATOM     83  C   UNL     1      11.136   6.398   1.182  1.00  0.00     0.052 A 
ATOM     84  C   UNL     1      11.265   6.613   2.539  1.00  0.00     0.135 A 
BRANCH  84  85
ATOM     85  C   UNL     1      12.416   6.640   3.436  1.00  0.00     0.025 A 
ATOM     86  C   UNL     1      13.491   7.458   3.050  1.00  0.00     0.014 A 
ATOM     87  C   UNL     1      12.509   5.845   4.617  1.00  0.00    -0.006 A 
ATOM     88  C   UNL     1      14.656   7.501   3.803  1.00  0.00     0.022 A 
ATOM     89  C   UNL     1      13.710   5.882   5.383  1.00  0.00     0.001 A 
ATOM     90  C   UNL     1      11.467   4.994   5.066  1.00  0.00     0.009 A 
ATOM     91  C   UNL     1      14.769   6.720   4.951  1.00  0.00     0.048 A 
ATOM     92  C   UNL     1      13.801   5.072   6.542  1.00  0.00     0.010 A 
ATOM     93  C   UNL     1      11.584   4.212   6.216  1.00  0.00     0.001 A 
ATOM     94  Cl  UNL     1      16.276   6.826   5.805  1.00  0.00    -0.084 Cl
ATOM     95  C   UNL     1      12.754   4.249   6.954  1.00  0.00     0.001 A 
ENDBRANCH  84  85
ENDBRANCH  77  80
ENDBRANCH  75  76
ENDBRANCH  74  75
ENDBRANCH  73  74
ENDBRANCH   1  73
TORSDOF 14
