REMARK SMILES CC(C)(C)c1cc(NC(=O)CSC[C@H]([NH3+])C(=O)NCCCCCCNC(=O)c2ccc(-c3c4nc(c(-c5c(F)c(F)c(F)c(F)c5F)c5ccc([nH]5)c(-c5c(F)c(F)c(F)c(F)c5F)c5nc(c(-c6c(F)c(F)c(F)c(F)c6F)c6ccc3[nH]6)C=C5)C=C4)cc2)on1
REMARK SMILES IDX 19 1 18 2 16 3 17 4 14 6 13 7 12 8 11 9 9 10 8 11 10 13 7 14
REMARK SMILES IDX 5 15 6 16 92 17 91 18 2 19 1 20 3 21 4 22 15 23 20 27 21 28
REMARK SMILES IDX 22 29 23 30 24 31 25 32 26 33 27 35 28 36 29 37 90 38 30 39
REMARK SMILES IDX 89 40 31 41 32 42 33 43 83 44 34 45 88 46 82 47 84 48 35 49
REMARK SMILES IDX 87 50 81 51 80 52 36 54 68 55 48 56 67 57 49 58 52 59 66 60
REMARK SMILES IDX 85 61 50 62 51 63 65 65 86 66 53 67 37 68 38 69 46 70 39 71
REMARK SMILES IDX 40 72 44 73 47 74 41 75 42 76 45 77 43 78 69 79 70 80 78 81
REMARK SMILES IDX 71 82 72 83 76 84 79 85 73 86 74 87 77 88 75 89 54 90 55 91
REMARK SMILES IDX 63 92 56 93 57 94 61 95 64 96 58 97 59 98 62 99 60 100
REMARK H PARENT 18 5 8 12 15 24 15 25 15 26 25 34 84 53 52 64
REMARK Flexibility Score: inf
ROOT
ATOM      1  C   UNL     1       6.328  -6.983  -1.349  1.00  0.00     0.116 C 
ENDROOT
BRANCH   1   2
ATOM      2  N   UNL     1       6.506  -8.022  -0.353  1.00  0.00    -0.351 N 
ATOM      3  C   UNL     1       5.612  -8.750   0.369  1.00  0.00     0.279 C 
ATOM      4  O   UNL     1       6.058  -9.565   1.180  1.00  0.00    -0.268 OA
ATOM      5  H   UNL     1       7.447  -8.240  -0.164  1.00  0.00     0.163 HD
BRANCH   3   6
ATOM      6  C   UNL     1       4.104  -8.588   0.150  1.00  0.00     0.280 C 
BRANCH   6   7
ATOM      7  C   UNL     1       3.700  -9.027  -1.269  1.00  0.00     0.145 C 
BRANCH   7   8
ATOM      8  S   UNL     1       3.634 -10.833  -1.543  1.00  0.00    -0.145 SA
BRANCH   8   9
ATOM      9  C   UNL     1       5.388 -11.320  -1.737  1.00  0.00     0.170 C 
BRANCH   9  10
ATOM     10  C   UNL     1       6.192 -10.528  -2.756  1.00  0.00     0.236 C 
ATOM     11  N   UNL     1       5.918 -10.505  -4.090  1.00  0.00    -0.294 N 
ATOM     12  H   UNL     1       6.446  -9.871  -4.626  1.00  0.00     0.173 HD
ATOM     13  O   UNL     1       7.188  -9.884  -2.400  1.00  0.00    -0.274 OA
BRANCH  11  14
ATOM     14  C   UNL     1       5.003 -11.249  -4.777  1.00  0.00     0.231 A 
ATOM     15  C   UNL     1       3.677 -12.233  -6.241  1.00  0.00     0.091 A 
ATOM     16  C   UNL     1       4.664 -11.223  -6.107  1.00  0.00     0.097 A 
ATOM     17  N   UNL     1       3.443 -12.820  -5.060  1.00  0.00    -0.082 NA
ATOM     18  O   UNL     1       4.290 -12.219  -4.161  1.00  0.00    -0.338 OA
BRANCH  15  19
ATOM     19  C   UNL     1       2.911 -12.686  -7.464  1.00  0.00     0.008 C 
ATOM     20  C   UNL     1       3.576 -12.196  -8.766  1.00  0.00     0.018 C 
ATOM     21  C   UNL     1       1.474 -12.132  -7.412  1.00  0.00     0.018 C 
ATOM     22  C   UNL     1       2.855 -14.228  -7.514  1.00  0.00     0.018 C 
ENDBRANCH  15  19
ENDBRANCH  11  14
ENDBRANCH   9  10
ENDBRANCH   8   9
ENDBRANCH   7   8
ENDBRANCH   6   7
BRANCH   6  23
ATOM     23  N   UNL     1       3.675  -7.205   0.480  1.00  0.00    -0.347 N 
ATOM     24  H   UNL     1       4.150  -6.545  -0.138  1.00  0.00     0.345 HD
ATOM     25  H   UNL     1       3.916  -6.996   1.449  1.00  0.00     0.345 HD
ATOM     26  H   UNL     1       2.667  -7.122   0.354  1.00  0.00     0.345 HD
ENDBRANCH   6  23
ENDBRANCH   3   6
ENDBRANCH   1   2
BRANCH   1  27
ATOM     27  C   UNL     1       7.301  -5.836  -1.104  1.00  0.00     0.021 C 
BRANCH  27  28
ATOM     28  C   UNL     1       8.773  -6.210  -1.321  1.00  0.00     0.002 C 
BRANCH  28  29
ATOM     29  C   UNL     1       9.132  -6.647  -2.745  1.00  0.00     0.002 C 
BRANCH  29  30
ATOM     30  C   UNL     1       8.756  -5.650  -3.842  1.00  0.00     0.021 C 
BRANCH  30  31
ATOM     31  C   UNL     1       9.286  -4.236  -3.626  1.00  0.00     0.116 C 
BRANCH  31  32
ATOM     32  N   UNL     1      10.739  -4.185  -3.592  1.00  0.00    -0.352 N 
ATOM     33  C   UNL     1      11.600  -3.414  -4.332  1.00  0.00     0.251 C 
ATOM     34  H   UNL     1      11.166  -4.792  -2.946  1.00  0.00     0.163 HD
ATOM     35  O   UNL     1      12.809  -3.620  -4.295  1.00  0.00    -0.269 OA
BRANCH  33  36
ATOM     36  C   UNL     1      11.060  -2.354  -5.206  1.00  0.00     0.039 A 
ATOM     37  C   UNL     1      11.502  -2.284  -6.529  1.00  0.00     0.014 A 
ATOM     38  C   UNL     1      10.097  -1.458  -4.734  1.00  0.00     0.014 A 
ATOM     39  C   UNL     1      10.912  -1.372  -7.405  1.00  0.00     0.010 A 
ATOM     40  C   UNL     1       9.461  -0.598  -5.625  1.00  0.00     0.010 A 
ATOM     41  C   UNL     1       9.851  -0.560  -6.973  1.00  0.00    -0.014 A 
BRANCH  41  42
ATOM     42  C   UNL     1       9.092   0.283  -7.929  1.00  0.00     0.031 A 
ATOM     43  C   UNL     1       9.085   1.777  -7.793  1.00  0.00     0.074 A 
ATOM     44  C   UNL     1       8.327  -0.313  -8.864  1.00  0.00     0.049 A 
ATOM     45  N   UNL     1       8.410   2.666  -8.476  1.00  0.00    -0.248 NA
ATOM     46  C   UNL     1       9.929   2.345  -6.732  1.00  0.00     0.031 C 
ATOM     47  C   UNL     1       8.207  -1.759  -9.056  1.00  0.00     0.029 A 
ATOM     48  N   UNL     1       7.488   0.219  -9.811  1.00  0.00    -0.354 N 
ATOM     49  C   UNL     1       8.735   3.896  -7.920  1.00  0.00     0.074 A 
ATOM     50  C   UNL     1       9.631   3.634  -6.814  1.00  0.00     0.031 C 
ATOM     51  C   UNL     1       7.350  -1.999 -10.059  1.00  0.00     0.029 A 
ATOM     52  C   UNL     1       6.824  -0.729 -10.550  1.00  0.00     0.049 A 
ATOM     53  H   UNL     1       7.373   1.187  -9.947  1.00  0.00     0.167 HD
ATOM     54  C   UNL     1       8.333   5.130  -8.310  1.00  0.00     0.037 A 
ATOM     55  C   UNL     1       5.877  -0.595 -11.498  1.00  0.00     0.037 A 
ATOM     56  C   UNL     1       7.448   5.380  -9.419  1.00  0.00     0.049 A 
ATOM     57  C   UNL     1       5.432   0.782 -11.902  1.00  0.00     0.074 A 
ATOM     58  C   UNL     1       7.054   6.595  -9.951  1.00  0.00     0.029 A 
ATOM     59  N   UNL     1       6.802   4.395 -10.154  1.00  0.00    -0.354 N 
ATOM     60  N   UNL     1       5.820   1.944 -11.435  1.00  0.00    -0.248 NA
ATOM     61  C   UNL     1       4.421   0.869 -12.964  1.00  0.00     0.031 C 
ATOM     62  C   UNL     1       6.117   6.348 -10.959  1.00  0.00     0.029 A 
ATOM     63  C   UNL     1       5.973   4.976 -11.101  1.00  0.00     0.049 A 
ATOM     64  H   UNL     1       6.916   3.426 -10.022  1.00  0.00     0.167 HD
ATOM     65  C   UNL     1       5.110   2.900 -12.149  1.00  0.00     0.074 A 
ATOM     66  C   UNL     1       4.285   2.181 -13.099  1.00  0.00     0.031 C 
ATOM     67  C   UNL     1       5.139   4.250 -12.026  1.00  0.00     0.037 A 
BRANCH  54  68
ATOM     68  C   UNL     1       8.831   6.304  -7.515  1.00  0.00     0.064 A 
ATOM     69  C   UNL     1      10.182   6.685  -7.519  1.00  0.00     0.173 A 
ATOM     70  C   UNL     1       7.938   7.074  -6.753  1.00  0.00     0.173 A 
ATOM     71  F   UNL     1      11.080   5.981  -8.225  1.00  0.00    -0.203 F 
ATOM     72  C   UNL     1      10.626   7.764  -6.758  1.00  0.00     0.198 A 
ATOM     73  C   UNL     1       8.379   8.173  -6.022  1.00  0.00     0.198 A 
ATOM     74  F   UNL     1       6.633   6.761  -6.719  1.00  0.00    -0.203 F 
ATOM     75  F   UNL     1      11.931   8.069  -6.730  1.00  0.00    -0.200 F 
ATOM     76  C   UNL     1       9.724   8.510  -6.015  1.00  0.00     0.200 A 
ATOM     77  F   UNL     1       7.503   8.902  -5.317  1.00  0.00    -0.200 F 
ATOM     78  F   UNL     1      10.152   9.549  -5.285  1.00  0.00    -0.200 F 
ENDBRANCH  54  68
BRANCH  55  79
ATOM     79  C   UNL     1       5.287  -1.811 -12.116  1.00  0.00     0.064 A 
ATOM     80  C   UNL     1       5.561  -2.155 -13.446  1.00  0.00     0.173 A 
ATOM     81  C   UNL     1       4.466  -2.675 -11.374  1.00  0.00     0.173 A 
ATOM     82  F   UNL     1       6.325  -1.352 -14.200  1.00  0.00    -0.203 F 
ATOM     83  C   UNL     1       5.033  -3.313 -14.012  1.00  0.00     0.198 A 
ATOM     84  C   UNL     1       3.963  -3.847 -11.932  1.00  0.00     0.198 A 
ATOM     85  F   UNL     1       4.180  -2.395 -10.093  1.00  0.00    -0.203 F 
ATOM     86  F   UNL     1       5.287  -3.605 -15.295  1.00  0.00    -0.200 F 
ATOM     87  C   UNL     1       4.243  -4.163 -13.252  1.00  0.00     0.200 A 
ATOM     88  F   UNL     1       3.220  -4.676 -11.187  1.00  0.00    -0.200 F 
ATOM     89  F   UNL     1       3.752  -5.287 -13.792  1.00  0.00    -0.200 F 
ENDBRANCH  55  79
BRANCH  67  90
ATOM     90  C   UNL     1       4.246   5.044 -12.937  1.00  0.00     0.064 A 
ATOM     91  C   UNL     1       2.853   5.055 -12.771  1.00  0.00     0.173 A 
ATOM     92  C   UNL     1       4.791   5.840 -13.956  1.00  0.00     0.173 A 
ATOM     93  F   UNL     1       2.280   4.297 -11.824  1.00  0.00    -0.203 F 
ATOM     94  C   UNL     1       2.038   5.819 -13.603  1.00  0.00     0.198 A 
ATOM     95  C   UNL     1       3.977   6.628 -14.765  1.00  0.00     0.198 A 
ATOM     96  F   UNL     1       6.118   5.869 -14.155  1.00  0.00    -0.203 F 
ATOM     97  F   UNL     1       0.707   5.779 -13.454  1.00  0.00    -0.200 F 
ATOM     98  C   UNL     1       2.601   6.612 -14.592  1.00  0.00     0.200 A 
ATOM     99  F   UNL     1       4.523   7.404 -15.710  1.00  0.00    -0.200 F 
ATOM    100  F   UNL     1       1.816   7.356 -15.383  1.00  0.00    -0.200 F 
ENDBRANCH  67  90
ENDBRANCH  41  42
ENDBRANCH  33  36
ENDBRANCH  31  32
ENDBRANCH  30  31
ENDBRANCH  29  30
ENDBRANCH  28  29
ENDBRANCH  27  28
ENDBRANCH   1  27
TORSDOF 20
