REMARK SMILES C#CCN(CC(=O)NCCCCCCNC(=O)c1ccc(-c2c3nc(c(-c4c(F)c(F)c(F)c(F)c4F)c4ccc([nH]4)c(-c4c(F)c(F)c(F)c(F)c4F)c4nc(c(-c5c(F)c(F)c(F)c(F)c5F)c5ccc2[nH]5)C=C4)C=C3)cc1)C(=O)c1c[nH]c(=O)[nH]1
REMARK SMILES IDX 11 1 10 2 9 3 8 4 6 5 7 6 5 8 4 9 3 10 2 11 1 12 81 13 82 14
REMARK SMILES IDX 83 15 84 16 88 17 85 18 86 19 87 22 12 23 13 24 14 25 15 26
REMARK SMILES IDX 16 27 17 29 18 30 19 31 80 32 20 33 79 34 21 35 22 36 23 37
REMARK SMILES IDX 73 38 24 39 78 40 72 41 74 42 25 43 77 44 71 45 70 46 26 48
REMARK SMILES IDX 58 49 38 50 57 51 39 52 42 53 56 54 75 55 40 56 41 57 55 59
REMARK SMILES IDX 76 60 43 61 27 62 28 63 36 64 29 65 30 66 34 67 37 68 31 69
REMARK SMILES IDX 32 70 35 71 33 72 59 73 60 74 68 75 61 76 62 77 66 78 69 79
REMARK SMILES IDX 63 80 64 81 67 82 65 83 44 84 45 85 53 86 46 87 47 88 51 89
REMARK SMILES IDX 54 90 48 91 49 92 52 93 50 94
REMARK H PARENT 8 7 88 20 85 21 15 28 74 47 42 58
REMARK Flexibility Score: inf
ROOT
ATOM      1  C   UNL     1      -6.317  -0.379  -2.249  1.00  0.00     0.002 C 
ENDROOT
BRANCH   1   2
ATOM      2  C   UNL     1      -4.974  -0.095  -1.568  1.00  0.00     0.021 C 
BRANCH   2   3
ATOM      3  C   UNL     1      -5.066   0.067  -0.051  1.00  0.00     0.116 C 
BRANCH   3   4
ATOM      4  N   UNL     1      -5.335  -1.177   0.632  1.00  0.00    -0.355 N 
ATOM      5  C   UNL     1      -4.513  -1.962   1.381  1.00  0.00     0.239 C 
ATOM      6  O   UNL     1      -5.053  -2.822   2.083  1.00  0.00    -0.273 OA
ATOM      7  H   UNL     1      -6.257  -1.509   0.541  1.00  0.00     0.163 HD
BRANCH   5   8
ATOM      8  C   UNL     1      -2.993  -1.732   1.465  1.00  0.00     0.220 C 
BRANCH   8   9
ATOM      9  N   UNL     1      -2.313  -1.395   0.210  1.00  0.00    -0.317 N 
BRANCH   9  10
ATOM     10  C   UNL     1      -1.768  -0.044   0.070  1.00  0.00     0.210 C 
BRANCH  10  11
ATOM     11  C   UNL     1      -0.248  -0.044   0.070  1.00  0.00    -0.085 C 
ATOM     12  C   UNL     1       1.056  -0.044   0.070  1.00  0.00     0.006 C 
ENDBRANCH  10  11
ENDBRANCH   9  10
BRANCH   9  13
ATOM     13  C   UNL     1      -2.053  -2.309  -0.806  1.00  0.00     0.273 C 
ATOM     14  O   UNL     1      -1.461  -2.006  -1.842  1.00  0.00    -0.267 OA
BRANCH  13  15
ATOM     15  C   UNL     1      -2.462  -3.725  -0.624  1.00  0.00     0.125 A 
ATOM     16  C   UNL     1      -3.693  -4.256  -0.581  1.00  0.00     0.119 A 
ATOM     17  N   UNL     1      -1.547  -4.755  -0.595  1.00  0.00    -0.302 N 
ATOM     18  N   UNL     1      -3.580  -5.620  -0.478  1.00  0.00    -0.312 N 
ATOM     19  C   UNL     1      -2.225  -5.973  -0.495  1.00  0.00     0.323 A 
ATOM     20  H   UNL     1      -0.569  -4.649  -0.638  1.00  0.00     0.172 HD
ATOM     21  H   UNL     1      -4.332  -6.251  -0.403  1.00  0.00     0.171 HD
ATOM     22  O   UNL     1      -1.749  -7.092  -0.446  1.00  0.00    -0.248 OA
ENDBRANCH  13  15
ENDBRANCH   9  13
ENDBRANCH   8   9
ENDBRANCH   5   8
ENDBRANCH   3   4
ENDBRANCH   2   3
ENDBRANCH   1   2
BRANCH   1  23
ATOM     23  C   UNL     1      -7.432   0.621  -1.924  1.00  0.00     0.002 C 
BRANCH  23  24
ATOM     24  C   UNL     1      -7.075   2.088  -2.172  1.00  0.00     0.021 C 
BRANCH  24  25
ATOM     25  C   UNL     1      -6.758   2.417  -3.626  1.00  0.00     0.116 C 
BRANCH  25  26
ATOM     26  N   UNL     1      -7.914   2.226  -4.487  1.00  0.00    -0.352 N 
ATOM     27  C   UNL     1      -8.547   3.125  -5.308  1.00  0.00     0.251 C 
ATOM     28  H   UNL     1      -8.299   1.320  -4.479  1.00  0.00     0.163 HD
ATOM     29  O   UNL     1      -9.645   2.858  -5.786  1.00  0.00    -0.269 OA
BRANCH  27  30
ATOM     30  C   UNL     1      -7.910   4.425  -5.604  1.00  0.00     0.039 A 
ATOM     31  C   UNL     1      -8.694   5.581  -5.594  1.00  0.00     0.014 A 
ATOM     32  C   UNL     1      -6.546   4.502  -5.902  1.00  0.00     0.014 A 
ATOM     33  C   UNL     1      -8.098   6.822  -5.829  1.00  0.00     0.010 A 
ATOM     34  C   UNL     1      -5.941   5.745  -6.055  1.00  0.00     0.010 A 
ATOM     35  C   UNL     1      -6.711   6.918  -6.027  1.00  0.00    -0.014 A 
BRANCH  35  36
ATOM     36  C   UNL     1      -6.049   8.234  -6.220  1.00  0.00     0.031 A 
ATOM     37  C   UNL     1      -5.345   8.541  -7.513  1.00  0.00     0.074 A 
ATOM     38  C   UNL     1      -6.035   9.129  -5.213  1.00  0.00     0.049 A 
ATOM     39  N   UNL     1      -4.644   9.596  -7.845  1.00  0.00    -0.248 NA
ATOM     40  C   UNL     1      -5.417   7.515  -8.567  1.00  0.00     0.031 C 
ATOM     41  C   UNL     1      -6.652   8.934  -3.899  1.00  0.00     0.029 A 
ATOM     42  N   UNL     1      -5.473  10.379  -5.132  1.00  0.00    -0.354 N 
ATOM     43  C   UNL     1      -4.190   9.357  -9.136  1.00  0.00     0.074 A 
ATOM     44  C   UNL     1      -4.640   8.034  -9.506  1.00  0.00     0.031 C 
ATOM     45  C   UNL     1      -6.452  10.032  -3.152  1.00  0.00     0.029 A 
ATOM     46  C   UNL     1      -5.655  10.988  -3.914  1.00  0.00     0.049 A 
ATOM     47  H   UNL     1      -4.985  10.799  -5.877  1.00  0.00     0.167 HD
ATOM     48  C   UNL     1      -3.484  10.180  -9.948  1.00  0.00     0.037 A 
ATOM     49  C   UNL     1      -5.215  12.177  -3.459  1.00  0.00     0.037 A 
ATOM     50  C   UNL     1      -3.052  11.503  -9.582  1.00  0.00     0.049 A 
ATOM     51  C   UNL     1      -4.400  13.055  -4.374  1.00  0.00     0.074 A 
ATOM     52  C   UNL     1      -2.365  12.428 -10.348  1.00  0.00     0.029 A 
ATOM     53  N   UNL     1      -3.264  12.088  -8.342  1.00  0.00    -0.354 N 
ATOM     54  N   UNL     1      -4.030  12.843  -5.613  1.00  0.00    -0.248 NA
ATOM     55  C   UNL     1      -3.948  14.342  -3.827  1.00  0.00     0.031 C 
ATOM     56  C   UNL     1      -2.112  13.551  -9.555  1.00  0.00     0.029 A 
ATOM     57  C   UNL     1      -2.700  13.354  -8.316  1.00  0.00     0.049 A 
ATOM     58  H   UNL     1      -3.743  11.667  -7.592  1.00  0.00     0.167 HD
ATOM     59  C   UNL     1      -3.339  13.982  -6.006  1.00  0.00     0.074 A 
ATOM     60  C   UNL     1      -3.355  14.889  -4.878  1.00  0.00     0.031 C 
ATOM     61  C   UNL     1      -2.744  14.254  -7.193  1.00  0.00     0.037 A 
BRANCH  48  62
ATOM     62  C   UNL     1      -3.140   9.680 -11.322  1.00  0.00     0.064 A 
ATOM     63  C   UNL     1      -4.123   9.504 -12.308  1.00  0.00     0.173 A 
ATOM     64  C   UNL     1      -1.805   9.434 -11.678  1.00  0.00     0.173 A 
ATOM     65  F   UNL     1      -5.416   9.715 -12.017  1.00  0.00    -0.203 F 
ATOM     66  C   UNL     1      -3.786   9.081 -13.591  1.00  0.00     0.198 A 
ATOM     67  C   UNL     1      -1.467   9.043 -12.971  1.00  0.00     0.198 A 
ATOM     68  F   UNL     1      -0.824   9.591 -10.776  1.00  0.00    -0.203 F 
ATOM     69  F   UNL     1      -4.747   8.880 -14.502  1.00  0.00    -0.200 F 
ATOM     70  C   UNL     1      -2.458   8.861 -13.924  1.00  0.00     0.200 A 
ATOM     71  F   UNL     1      -0.182   8.847 -13.296  1.00  0.00    -0.200 F 
ATOM     72  F   UNL     1      -2.133   8.471 -15.164  1.00  0.00    -0.200 F 
ENDBRANCH  48  62
BRANCH  49  73
ATOM     73  C   UNL     1      -5.532  12.619  -2.073  1.00  0.00     0.064 A 
ATOM     74  C   UNL     1      -6.345  13.738  -1.839  1.00  0.00     0.173 A 
ATOM     75  C   UNL     1      -4.995  11.962  -0.956  1.00  0.00     0.173 A 
ATOM     76  F   UNL     1      -6.869  14.412  -2.873  1.00  0.00    -0.203 F 
ATOM     77  C   UNL     1      -6.574  14.206  -0.547  1.00  0.00     0.198 A 
ATOM     78  C   UNL     1      -5.255  12.409   0.338  1.00  0.00     0.198 A 
ATOM     79  F   UNL     1      -4.216  10.882  -1.120  1.00  0.00    -0.203 F 
ATOM     80  F   UNL     1      -7.296  15.319  -0.358  1.00  0.00    -0.200 F 
ATOM     81  C   UNL     1      -6.031  13.539   0.541  1.00  0.00     0.200 A 
ATOM     82  F   UNL     1      -4.743  11.751   1.387  1.00  0.00    -0.200 F 
ATOM     83  F   UNL     1      -6.246  13.993   1.783  1.00  0.00    -0.200 F 
ENDBRANCH  49  73
BRANCH  61  84
ATOM     84  C   UNL     1      -2.111  15.607  -7.357  1.00  0.00     0.064 A 
ATOM     85  C   UNL     1      -0.942  15.968  -6.672  1.00  0.00     0.173 A 
ATOM     86  C   UNL     1      -2.664  16.541  -8.248  1.00  0.00     0.173 A 
ATOM     87  F   UNL     1      -0.381  15.117  -5.799  1.00  0.00    -0.203 F 
ATOM     88  C   UNL     1      -0.367  17.224  -6.850  1.00  0.00     0.198 A 
ATOM     89  C   UNL     1      -2.066  17.781  -8.451  1.00  0.00     0.198 A 
ATOM     90  F   UNL     1      -3.777  16.244  -8.935  1.00  0.00    -0.203 F 
ATOM     91  F   UNL     1       0.719  17.567  -6.143  1.00  0.00    -0.200 F 
ATOM     92  C   UNL     1      -0.924  18.125  -7.745  1.00  0.00     0.200 A 
ATOM     93  F   UNL     1      -2.596  18.642  -9.330  1.00  0.00    -0.200 F 
ATOM     94  F   UNL     1      -0.363  19.329  -7.922  1.00  0.00    -0.200 F 
ENDBRANCH  61  84
ENDBRANCH  35  36
ENDBRANCH  27  30
ENDBRANCH  25  26
ENDBRANCH  24  25
ENDBRANCH  23  24
ENDBRANCH   1  23
TORSDOF 18
