REMARK SMILES C[C@@H]1C[N@@H+](CC(C)(C)C(=O)NCCCCCCNC(=O)c2ccc(-c3c4nc(c(-c5c(F)c(F)c(F)c(F)c5F)c5ccc([nH]5)c(-c5c(F)c(F)c(F)c(F)c5F)c5nc(c(-c6c(F)c(F)c(F)c(F)c6F)c6ccc3[nH]6)C=C5)C=C4)cc2)CC[C@@H]1[NH3+]
REMARK SMILES IDX 14 1 13 2 12 3 11 4 9 5 10 6 6 8 7 9 8 10 5 11 4 12 1 13
REMARK SMILES IDX 2 14 3 15 86 16 85 17 84 18 87 20 15 24 16 25 17 26 18 27
REMARK SMILES IDX 19 28 20 30 21 31 22 32 83 33 23 34 82 35 24 36 25 37 26 38
REMARK SMILES IDX 76 39 27 40 81 41 75 42 77 43 28 44 80 45 74 46 73 47 29 49
REMARK SMILES IDX 61 50 41 51 60 52 42 53 45 54 59 55 78 56 43 57 44 58 58 60
REMARK SMILES IDX 79 61 46 62 30 63 31 64 39 65 32 66 33 67 37 68 40 69 34 70
REMARK SMILES IDX 35 71 38 72 36 73 62 74 63 75 71 76 64 77 65 78 69 79 72 80
REMARK SMILES IDX 66 81 67 82 70 83 68 84 47 85 48 86 56 87 49 88 50 89 54 90
REMARK SMILES IDX 57 91 51 92 52 93 55 94 53 95
REMARK H PARENT 11 7 4 19 87 21 87 22 87 23 18 29 77 48 45 59
REMARK Flexibility Score: inf
ROOT
ATOM      1  C   UNL     1      -6.306  -0.197   3.023  1.00  0.00     0.002 C 
ENDROOT
BRANCH   1   2
ATOM      2  C   UNL     1      -5.610  -1.219   3.929  1.00  0.00     0.021 C 
BRANCH   2   3
ATOM      3  C   UNL     1      -4.612  -2.129   3.216  1.00  0.00     0.116 C 
BRANCH   3   4
ATOM      4  N   UNL     1      -3.498  -1.354   2.721  1.00  0.00    -0.355 N 
ATOM      5  C   UNL     1      -2.185  -1.374   3.056  1.00  0.00     0.231 C 
ATOM      6  O   UNL     1      -1.599  -0.292   2.938  1.00  0.00    -0.274 OA
ATOM      7  H   UNL     1      -3.732  -0.701   2.022  1.00  0.00     0.163 HD
BRANCH   5   8
ATOM      8  C   UNL     1      -1.468  -2.625   3.594  1.00  0.00     0.092 C 
ATOM      9  C   UNL     1      -2.086  -3.972   3.186  1.00  0.00     0.027 C 
ATOM     10  C   UNL     1      -1.542  -2.517   5.133  1.00  0.00     0.027 C 
BRANCH   8  11
ATOM     11  C   UNL     1       0.057  -2.563   3.159  1.00  0.00     0.278 C 
BRANCH  11  12
ATOM     12  N   UNL     1       0.507  -2.704   1.744  1.00  0.00    -0.333 N 
ATOM     13  C   UNL     1       1.886  -1.306  -0.814  1.00  0.00     0.020 C 
ATOM     14  C   UNL     1       0.426  -1.722  -0.605  1.00  0.00     0.099 C 
ATOM     15  C   UNL     1       0.001  -1.636   0.873  1.00  0.00     0.271 C 
ATOM     16  C   UNL     1       0.083  -3.131  -1.115  1.00  0.00     0.194 C 
ATOM     17  C   UNL     1       0.798  -4.185  -0.266  1.00  0.00     0.126 C 
ATOM     18  C   UNL     1       0.363  -4.050   1.195  1.00  0.00     0.268 C 
ATOM     19  H   UNL     1       1.518  -2.568   1.774  1.00  0.00     0.348 HD
BRANCH  16  20
ATOM     20  N   UNL     1       0.363  -3.304  -2.541  1.00  0.00    -0.355 N 
ATOM     21  H   UNL     1       1.363  -3.188  -2.707  1.00  0.00     0.344 HD
ATOM     22  H   UNL     1      -0.153  -2.605  -3.075  1.00  0.00     0.344 HD
ATOM     23  H   UNL     1       0.075  -4.237  -2.833  1.00  0.00     0.344 HD
ENDBRANCH  16  20
ENDBRANCH  11  12
ENDBRANCH   8  11
ENDBRANCH   5   8
ENDBRANCH   3   4
ENDBRANCH   2   3
ENDBRANCH   1   2
BRANCH   1  24
ATOM     24  C   UNL     1      -7.048  -0.785   1.821  1.00  0.00     0.002 C 
BRANCH  24  25
ATOM     25  C   UNL     1      -8.037  -1.905   2.152  1.00  0.00     0.021 C 
BRANCH  25  26
ATOM     26  C   UNL     1      -9.069  -1.551   3.214  1.00  0.00     0.116 C 
BRANCH  26  27
ATOM     27  N   UNL     1      -9.933  -0.458   2.806  1.00  0.00    -0.352 N 
ATOM     28  C   UNL     1     -11.294  -0.359   2.905  1.00  0.00     0.251 C 
ATOM     29  H   UNL     1      -9.478   0.317   2.404  1.00  0.00     0.163 HD
ATOM     30  O   UNL     1     -11.890   0.572   2.361  1.00  0.00    -0.269 OA
BRANCH  28  31
ATOM     31  C   UNL     1     -12.057  -1.381   3.651  1.00  0.00     0.039 A 
ATOM     32  C   UNL     1     -13.248  -1.864   3.105  1.00  0.00     0.014 A 
ATOM     33  C   UNL     1     -11.615  -1.844   4.895  1.00  0.00     0.014 A 
ATOM     34  C   UNL     1     -13.985  -2.828   3.794  1.00  0.00     0.010 A 
ATOM     35  C   UNL     1     -12.308  -2.862   5.542  1.00  0.00     0.010 A 
ATOM     36  C   UNL     1     -13.515  -3.342   5.013  1.00  0.00    -0.014 A 
BRANCH  36  37
ATOM     37  C   UNL     1     -14.308  -4.334   5.780  1.00  0.00     0.031 A 
ATOM     38  C   UNL     1     -14.879  -3.958   7.120  1.00  0.00     0.074 A 
ATOM     39  C   UNL     1     -14.482  -5.577   5.294  1.00  0.00     0.049 A 
ATOM     40  N   UNL     1     -15.577  -4.681   7.959  1.00  0.00    -0.248 NA
ATOM     41  C   UNL     1     -14.600  -2.594   7.596  1.00  0.00     0.031 C 
ATOM     42  C   UNL     1     -13.944  -6.073   4.028  1.00  0.00     0.029 A 
ATOM     43  N   UNL     1     -15.165  -6.649   5.810  1.00  0.00    -0.354 N 
ATOM     44  C   UNL     1     -15.796  -3.870   9.065  1.00  0.00     0.074 A 
ATOM     45  C   UNL     1     -15.109  -2.622   8.818  1.00  0.00     0.031 C 
ATOM     46  C   UNL     1     -14.347  -7.341   3.848  1.00  0.00     0.029 A 
ATOM     47  C   UNL     1     -15.145  -7.756   4.998  1.00  0.00     0.049 A 
ATOM     48  H   UNL     1     -15.625  -6.627   6.680  1.00  0.00     0.167 HD
ATOM     49  C   UNL     1     -16.525  -4.132  10.176  1.00  0.00     0.037 A 
ATOM     50  C   UNL     1     -15.716  -8.964   5.162  1.00  0.00     0.037 A 
ATOM     51  C   UNL     1     -17.239  -5.361  10.398  1.00  0.00     0.049 A 
ATOM     52  C   UNL     1     -16.534  -9.226   6.398  1.00  0.00     0.074 A 
ATOM     53  C   UNL     1     -18.066  -5.702  11.454  1.00  0.00     0.029 A 
ATOM     54  N   UNL     1     -17.209  -6.455   9.544  1.00  0.00    -0.354 N 
ATOM     55  N   UNL     1     -16.798  -8.428   7.404  1.00  0.00    -0.248 NA
ATOM     56  C   UNL     1     -17.143 -10.558   6.514  1.00  0.00     0.031 C 
ATOM     57  C   UNL     1     -18.498  -7.019  11.262  1.00  0.00     0.029 A 
ATOM     58  C   UNL     1     -17.986  -7.479  10.059  1.00  0.00     0.049 A 
ATOM     59  H   UNL     1     -16.709  -6.496   8.697  1.00  0.00     0.167 HD
ATOM     60  C   UNL     1     -17.637  -9.142   8.249  1.00  0.00     0.074 A 
ATOM     61  C   UNL     1     -17.840 -10.438   7.635  1.00  0.00     0.031 C 
ATOM     62  C   UNL     1     -18.192  -8.757   9.425  1.00  0.00     0.037 A 
BRANCH  49  63
ATOM     63  C   UNL     1     -16.578  -3.068  11.236  1.00  0.00     0.064 A 
ATOM     64  C   UNL     1     -17.237  -1.846  11.028  1.00  0.00     0.173 A 
ATOM     65  C   UNL     1     -15.963  -3.275  12.480  1.00  0.00     0.173 A 
ATOM     66  F   UNL     1     -17.830  -1.591   9.852  1.00  0.00    -0.203 F 
ATOM     67  C   UNL     1     -17.240  -0.856  12.007  1.00  0.00     0.198 A 
ATOM     68  C   UNL     1     -15.998  -2.297  13.470  1.00  0.00     0.198 A 
ATOM     69  F   UNL     1     -15.324  -4.426  12.736  1.00  0.00    -0.203 F 
ATOM     70  F   UNL     1     -17.818   0.328  11.759  1.00  0.00    -0.200 F 
ATOM     71  C   UNL     1     -16.626  -1.084  13.229  1.00  0.00     0.200 A 
ATOM     72  F   UNL     1     -15.415  -2.524  14.655  1.00  0.00    -0.200 F 
ATOM     73  F   UNL     1     -16.629  -0.130  14.171  1.00  0.00    -0.200 F 
ENDBRANCH  49  63
BRANCH  50  74
ATOM     74  C   UNL     1     -15.587  -9.995   4.101  1.00  0.00     0.064 A 
ATOM     75  C   UNL     1     -16.693 -10.355   3.317  1.00  0.00     0.173 A 
ATOM     76  C   UNL     1     -14.368 -10.637   3.844  1.00  0.00     0.173 A 
ATOM     77  F   UNL     1     -17.885  -9.781   3.538  1.00  0.00    -0.203 F 
ATOM     78  C   UNL     1     -16.588 -11.331   2.329  1.00  0.00     0.198 A 
ATOM     79  C   UNL     1     -14.258 -11.595   2.838  1.00  0.00     0.198 A 
ATOM     80  F   UNL     1     -13.279 -10.324   4.562  1.00  0.00    -0.203 F 
ATOM     81  F   UNL     1     -17.671 -11.685   1.623  1.00  0.00    -0.200 F 
ATOM     82  C   UNL     1     -15.370 -11.947   2.086  1.00  0.00     0.200 A 
ATOM     83  F   UNL     1     -13.076 -12.178   2.596  1.00  0.00    -0.200 F 
ATOM     84  F   UNL     1     -15.268 -12.882   1.133  1.00  0.00    -0.200 F 
ENDBRANCH  50  74
BRANCH  62  85
ATOM     85  C   UNL     1     -19.122  -9.727  10.096  1.00  0.00     0.064 A 
ATOM     86  C   UNL     1     -18.656 -10.901  10.704  1.00  0.00     0.173 A 
ATOM     87  C   UNL     1     -20.498  -9.456  10.157  1.00  0.00     0.173 A 
ATOM     88  F   UNL     1     -17.352 -11.213  10.661  1.00  0.00    -0.203 F 
ATOM     89  C   UNL     1     -19.538 -11.785  11.321  1.00  0.00     0.198 A 
ATOM     90  C   UNL     1     -21.372 -10.326  10.803  1.00  0.00     0.198 A 
ATOM     91  F   UNL     1     -20.994  -8.342   9.598  1.00  0.00    -0.203 F 
ATOM     92  F   UNL     1     -19.077 -12.928  11.848  1.00  0.00    -0.200 F 
ATOM     93  C   UNL     1     -20.892 -11.493  11.376  1.00  0.00     0.200 A 
ATOM     94  F   UNL     1     -22.678 -10.034  10.869  1.00  0.00    -0.200 F 
ATOM     95  F   UNL     1     -21.738 -12.343  11.975  1.00  0.00    -0.200 F 
ENDBRANCH  62  85
ENDBRANCH  36  37
ENDBRANCH  28  31
ENDBRANCH  26  27
ENDBRANCH  25  26
ENDBRANCH  24  25
ENDBRANCH   1  24
TORSDOF 16
