REMARK SMILES COc1ccc(N2C(=O)/C(=C/c3c(C(=O)NCCCCCCNC(=O)c4ccc(-c5c6nc(c(-c7c(F)c(F)c(F)c(F)c7F)c7ccc([nH]7)c(-c7c(F)c(F)c(F)c(F)c7F)c7nc(c(-c8c(F)c(F)c(F)c(F)c8F)c8ccc5[nH]8)C=C7)C=C6)cc4)[nH]c4cc(OC)ccc34)SC2=S)cc1
REMARK SMILES IDX 19 1 18 2 17 3 16 4 14 5 15 6 13 8 12 9 97 10 89 11 90 12
REMARK SMILES IDX 96 13 91 15 95 16 92 17 11 18 7 19 8 20 99 21 9 22 10 23
REMARK SMILES IDX 98 24 100 25 6 26 3 27 4 28 102 29 5 30 101 31 2 32 1 33
REMARK SMILES IDX 93 34 94 35 20 36 21 37 22 38 23 39 24 40 25 42 26 43 27 44
REMARK SMILES IDX 88 45 28 46 87 47 29 48 30 49 31 50 81 51 32 52 86 53 80 54
REMARK SMILES IDX 82 55 33 56 85 57 79 58 78 59 34 61 66 62 46 63 65 64 47 65
REMARK SMILES IDX 50 66 64 67 83 68 48 69 49 70 63 72 84 73 51 74 35 75 36 76
REMARK SMILES IDX 44 77 37 78 38 79 42 80 45 81 39 82 40 83 43 84 41 85 67 86
REMARK SMILES IDX 68 87 76 88 69 89 70 90 74 91 77 92 71 93 72 94 75 95 73 96
REMARK SMILES IDX 52 97 53 98 61 99 54 100 55 101 59 102 62 103 56 104 57 105
REMARK SMILES IDX 60 106 58 107
REMARK H PARENT 16 7 89 14 23 41 82 60 50 71
REMARK Flexibility Score: inf
ROOT
ATOM      1  C   UNL     1       0.022   7.302   3.833  1.00  0.00     0.002 C 
ENDROOT
BRANCH   1   2
ATOM      2  C   UNL     1       0.147   8.339   4.954  1.00  0.00     0.021 C 
BRANCH   2   3
ATOM      3  C   UNL     1       1.444   8.283   5.748  1.00  0.00     0.116 C 
BRANCH   3   4
ATOM      4  N   UNL     1       2.627   8.591   4.975  1.00  0.00    -0.351 N 
ATOM      5  C   UNL     1       3.873   8.852   5.490  1.00  0.00     0.268 C 
ATOM      6  O   UNL     1       4.717   9.382   4.768  1.00  0.00    -0.268 OA
ATOM      7  H   UNL     1       2.531   8.617   3.996  1.00  0.00     0.163 HD
BRANCH   5   8
ATOM      8  C   UNL     1       4.084   8.632   6.899  1.00  0.00     0.112 A 
ATOM      9  C   UNL     1       3.849   7.571   7.784  1.00  0.00     0.014 A 
ATOM     10  C   UNL     1       3.761   8.212   9.104  1.00  0.00     0.008 A 
ATOM     11  N   UNL     1       4.606   9.657   7.638  1.00  0.00    -0.350 N 
ATOM     12  C   UNL     1       4.183   9.534   8.929  1.00  0.00     0.050 A 
ATOM     13  C   UNL     1       3.329   7.891  10.423  1.00  0.00     0.015 A 
ATOM     14  H   UNL     1       5.193  10.369   7.294  1.00  0.00     0.167 HD
ATOM     15  C   UNL     1       4.136  10.531   9.906  1.00  0.00     0.073 A 
ATOM     16  C   UNL     1       3.269   8.903  11.436  1.00  0.00     0.047 A 
ATOM     17  C   UNL     1       3.648  10.216  11.166  1.00  0.00     0.120 A 
BRANCH   9  18
ATOM     18  C   UNL     1       3.488   6.221   7.327  1.00  0.00     0.032 C 
ATOM     19  N   UNL     1       3.780   4.298   4.191  1.00  0.00    -0.261 N 
ATOM     20  C   UNL     1       3.287   4.404   5.506  1.00  0.00     0.270 C 
ATOM     21  C   UNL     1       4.787   5.183   3.849  1.00  0.00     0.152 C 
ATOM     22  O   UNL     1       2.387   3.746   6.014  1.00  0.00    -0.268 OA
ATOM     23  C   UNL     1       3.957   5.571   6.226  1.00  0.00     0.081 C 
ATOM     24  S   UNL     1       5.335   6.027   5.287  1.00  0.00    -0.054 SA
ATOM     25  S   UNL     1       5.459   5.491   2.350  1.00  0.00    -0.051 S 
BRANCH  19  26
ATOM     26  C   UNL     1       3.241   3.376   3.226  1.00  0.00     0.051 A 
ATOM     27  C   UNL     1       2.387   1.663   1.126  1.00  0.00     0.119 A 
ATOM     28  C   UNL     1       1.836   2.928   1.271  1.00  0.00     0.048 A 
ATOM     29  C   UNL     1       3.408   1.268   1.989  1.00  0.00     0.048 A 
ATOM     30  C   UNL     1       2.283   3.784   2.285  1.00  0.00     0.030 A 
ATOM     31  C   UNL     1       3.825   2.115   3.041  1.00  0.00     0.030 A 
BRANCH  27  32
ATOM     32  O   UNL     1       1.949   0.951   0.046  1.00  0.00    -0.497 OA
ATOM     33  C   UNL     1       1.705  -0.428   0.294  1.00  0.00     0.278 C 
ENDBRANCH  27  32
ENDBRANCH  19  26
ENDBRANCH   9  18
BRANCH  17  34
ATOM     34  O   UNL     1       3.545  11.313  11.973  1.00  0.00    -0.497 OA
ATOM     35  C   UNL     1       3.563  11.139  13.379  1.00  0.00     0.278 C 
ENDBRANCH  17  34
ENDBRANCH   5   8
ENDBRANCH   3   4
ENDBRANCH   2   3
ENDBRANCH   1   2
BRANCH   1  36
ATOM     36  C   UNL     1       0.332   5.885   4.314  1.00  0.00     0.002 C 
BRANCH  36  37
ATOM     37  C   UNL     1      -0.612   4.727   4.014  1.00  0.00     0.021 C 
BRANCH  37  38
ATOM     38  C   UNL     1      -1.749   4.910   3.033  1.00  0.00     0.116 C 
BRANCH  38  39
ATOM     39  N   UNL     1      -1.478   4.467   1.674  1.00  0.00    -0.352 N 
ATOM     40  C   UNL     1      -2.006   3.399   0.973  1.00  0.00     0.251 C 
ATOM     41  H   UNL     1      -0.821   5.009   1.179  1.00  0.00     0.163 HD
ATOM     42  O   UNL     1      -1.618   3.155  -0.165  1.00  0.00    -0.269 OA
BRANCH  40  43
ATOM     43  C   UNL     1      -3.023   2.523   1.603  1.00  0.00     0.039 A 
ATOM     44  C   UNL     1      -2.953   1.135   1.444  1.00  0.00     0.014 A 
ATOM     45  C   UNL     1      -4.043   3.073   2.374  1.00  0.00     0.014 A 
ATOM     46  C   UNL     1      -3.861   0.310   2.123  1.00  0.00     0.010 A 
ATOM     47  C   UNL     1      -4.813   2.258   3.185  1.00  0.00     0.010 A 
ATOM     48  C   UNL     1      -4.779   0.866   3.026  1.00  0.00    -0.014 A 
BRANCH  48  49
ATOM     49  C   UNL     1      -5.829   0.077   3.724  1.00  0.00     0.031 A 
ATOM     50  C   UNL     1      -7.272   0.476   3.519  1.00  0.00     0.074 A 
ATOM     51  C   UNL     1      -5.512  -0.894   4.601  1.00  0.00     0.049 A 
ATOM     52  N   UNL     1      -8.341   0.127   4.187  1.00  0.00    -0.248 NA
ATOM     53  C   UNL     1      -7.534   1.464   2.455  1.00  0.00     0.031 C 
ATOM     54  C   UNL     1      -4.160  -1.351   4.919  1.00  0.00     0.029 A 
ATOM     55  N   UNL     1      -6.319  -1.660   5.406  1.00  0.00    -0.354 N 
ATOM     56  C   UNL     1      -9.376   0.891   3.659  1.00  0.00     0.074 A 
ATOM     57  C   UNL     1      -8.795   1.786   2.687  1.00  0.00     0.031 C 
ATOM     58  C   UNL     1      -4.232  -2.337   5.831  1.00  0.00     0.029 A 
ATOM     59  C   UNL     1      -5.630  -2.546   6.198  1.00  0.00     0.049 A 
ATOM     60  H   UNL     1      -7.301  -1.583   5.414  1.00  0.00     0.167 HD
ATOM     61  C   UNL     1     -10.702   0.824   3.924  1.00  0.00     0.037 A 
ATOM     62  C   UNL     1      -6.083  -3.417   7.120  1.00  0.00     0.037 A 
ATOM     63  C   UNL     1     -11.281  -0.123   4.836  1.00  0.00     0.049 A 
ATOM     64  C   UNL     1      -7.566  -3.489   7.386  1.00  0.00     0.074 A 
ATOM     65  C   UNL     1     -12.613  -0.327   5.142  1.00  0.00     0.029 A 
ATOM     66  N   UNL     1     -10.551  -1.044   5.574  1.00  0.00    -0.354 N 
ATOM     67  N   UNL     1      -8.542  -2.790   6.856  1.00  0.00    -0.248 NA
ATOM     68  C   UNL     1      -8.012  -4.480   8.375  1.00  0.00     0.031 C 
ATOM     69  C   UNL     1     -12.688  -1.349   6.092  1.00  0.00     0.029 A 
ATOM     70  C   UNL     1     -11.407  -1.819   6.336  1.00  0.00     0.049 A 
ATOM     71  H   UNL     1      -9.571  -1.133   5.557  1.00  0.00     0.167 HD
ATOM     72  C   UNL     1      -9.715  -3.286   7.410  1.00  0.00     0.074 A 
ATOM     73  C   UNL     1      -9.330  -4.353   8.311  1.00  0.00     0.031 C 
ATOM     74  C   UNL     1     -10.996  -2.897   7.198  1.00  0.00     0.037 A 
BRANCH  61  75
ATOM     75  C   UNL     1     -11.609   1.774   3.193  1.00  0.00     0.064 A 
ATOM     76  C   UNL     1     -11.798   1.693   1.804  1.00  0.00     0.173 A 
ATOM     77  C   UNL     1     -12.311   2.770   3.889  1.00  0.00     0.173 A 
ATOM     78  F   UNL     1     -11.140   0.770   1.085  1.00  0.00    -0.203 F 
ATOM     79  C   UNL     1     -12.621   2.595   1.136  1.00  0.00     0.198 A 
ATOM     80  C   UNL     1     -13.165   3.645   3.223  1.00  0.00     0.198 A 
ATOM     81  F   UNL     1     -12.172   2.894   5.218  1.00  0.00    -0.203 F 
ATOM     82  F   UNL     1     -12.730   2.537  -0.199  1.00  0.00    -0.200 F 
ATOM     83  C   UNL     1     -13.311   3.564   1.846  1.00  0.00     0.200 A 
ATOM     84  F   UNL     1     -13.843   4.573   3.913  1.00  0.00    -0.200 F 
ATOM     85  F   UNL     1     -14.111   4.426   1.203  1.00  0.00    -0.200 F 
ENDBRANCH  61  75
BRANCH  62  86
ATOM     86  C   UNL     1      -5.140  -4.322   7.834  1.00  0.00     0.064 A 
ATOM     87  C   UNL     1      -5.173  -5.707   7.611  1.00  0.00     0.173 A 
ATOM     88  C   UNL     1      -4.214  -3.837   8.768  1.00  0.00     0.173 A 
ATOM     89  F   UNL     1      -6.055  -6.224   6.743  1.00  0.00    -0.203 F 
ATOM     90  C   UNL     1      -4.342  -6.573   8.319  1.00  0.00     0.198 A 
ATOM     91  C   UNL     1      -3.359  -4.702   9.451  1.00  0.00     0.198 A 
ATOM     92  F   UNL     1      -4.135  -2.522   9.016  1.00  0.00    -0.203 F 
ATOM     93  F   UNL     1      -4.440  -7.896   8.130  1.00  0.00    -0.200 F 
ATOM     94  C   UNL     1      -3.433  -6.069   9.236  1.00  0.00     0.200 A 
ATOM     95  F   UNL     1      -2.471  -4.210  10.326  1.00  0.00    -0.200 F 
ATOM     96  F   UNL     1      -2.635  -6.902   9.918  1.00  0.00    -0.200 F 
ENDBRANCH  62  86
BRANCH  74  97
ATOM     97  C   UNL     1     -12.077  -3.673   7.892  1.00  0.00     0.064 A 
ATOM     98  C   UNL     1     -12.283  -3.583   9.276  1.00  0.00     0.173 A 
ATOM     99  C   UNL     1     -12.949  -4.484   7.148  1.00  0.00     0.173 A 
ATOM    100  F   UNL     1     -11.470  -2.830  10.032  1.00  0.00    -0.203 F 
ATOM    101  C   UNL     1     -13.301  -4.303   9.895  1.00  0.00     0.198 A 
ATOM    102  C   UNL     1     -13.987  -5.174   7.765  1.00  0.00     0.198 A 
ATOM    103  F   UNL     1     -12.802  -4.594   5.819  1.00  0.00    -0.203 F 
ATOM    104  F   UNL     1     -13.445  -4.246  11.226  1.00  0.00    -0.200 F 
ATOM    105  C   UNL     1     -14.156  -5.091   9.139  1.00  0.00     0.200 A 
ATOM    106  F   UNL     1     -14.825  -5.918   7.030  1.00  0.00    -0.200 F 
ATOM    107  F   UNL     1     -15.141  -5.776   9.736  1.00  0.00    -0.200 F 
ENDBRANCH  74  97
ENDBRANCH  48  49
ENDBRANCH  40  43
ENDBRANCH  38  39
ENDBRANCH  37  38
ENDBRANCH  36  37
ENDBRANCH   1  36
TORSDOF 17
