REMARK SMILES C[C@@H]1CCC[C@@]1(C(=O)NCCCCCCNC(=O)c1ccc(-c2c3nc(c(-c4c(F)c(F)c(F)c(F)c4F)c4ccc([nH]4)c(-c4c(F)c(F)c(F)c(F)c4F)c4nc(c(-c5c(F)c(F)c(F)c(F)c5F)c5ccc2[nH]5)C=C4)C=C3)cc1)c1ccc(Cl)cc1Cl
REMARK SMILES IDX 13 1 12 2 11 3 10 4 9 5 7 6 8 7 6 9 1 10 2 11 3 12 4 13 5 14
REMARK SMILES IDX 82 15 83 16 88 17 84 18 87 19 89 20 85 21 86 22 14 23 15 24
REMARK SMILES IDX 16 25 17 26 18 28 19 29 20 30 81 31 21 32 80 33 22 34 23 35
REMARK SMILES IDX 24 36 74 37 25 38 79 39 73 40 75 41 26 42 78 43 72 44 71 45
REMARK SMILES IDX 27 47 59 48 39 49 58 50 40 51 43 52 57 53 76 54 41 55 42 56
REMARK SMILES IDX 56 58 77 59 44 60 28 61 29 62 37 63 30 64 31 65 35 66 38 67
REMARK SMILES IDX 32 68 33 69 36 70 34 71 60 72 61 73 69 74 62 75 63 76 67 77
REMARK SMILES IDX 70 78 64 79 65 80 68 81 66 82 45 83 46 84 54 85 47 86 48 87
REMARK SMILES IDX 52 88 55 89 49 90 50 91 53 92 51 93
REMARK H PARENT 9 8 16 27 75 46 43 57
REMARK Flexibility Score: inf
ROOT
ATOM      1  C   UNL     1       4.472   3.246   3.547  1.00  0.00     0.002 C 
ENDROOT
BRANCH   1   2
ATOM      2  C   UNL     1       4.536   2.229   2.402  1.00  0.00     0.002 C 
BRANCH   2   3
ATOM      3  C   UNL     1       3.366   1.248   2.356  1.00  0.00     0.021 C 
BRANCH   3   4
ATOM      4  C   UNL     1       2.004   1.924   2.323  1.00  0.00     0.116 C 
BRANCH   4   5
ATOM      5  N   UNL     1       1.712   2.496   1.025  1.00  0.00    -0.355 N 
ATOM      6  C   UNL     1       0.683   2.211   0.164  1.00  0.00     0.230 C 
ATOM      7  O   UNL     1       0.634   2.838  -0.896  1.00  0.00    -0.274 OA
ATOM      8  H   UNL     1       2.341   3.188   0.717  1.00  0.00     0.163 HD
BRANCH   6   9
ATOM      9  C   UNL     1      -0.324   1.083   0.522  1.00  0.00     0.078 C 
ATOM     10  C   UNL     1       1.582  -0.280  -0.707  1.00  0.00     0.009 C 
ATOM     11  C   UNL     1       0.498  -0.272   0.401  1.00  0.00     0.006 C 
ATOM     12  C   UNL     1      -0.514  -1.358   0.024  1.00  0.00     0.005 C 
ATOM     13  C   UNL     1      -1.669  -0.637  -0.653  1.00  0.00     0.002 C 
ATOM     14  C   UNL     1      -1.388   0.869  -0.580  1.00  0.00     0.022 C 
BRANCH   9  15
ATOM     15  C   UNL     1      -1.061   1.381   1.875  1.00  0.00    -0.013 A 
ATOM     16  C   UNL     1      -1.489   0.322   2.702  1.00  0.00     0.008 A 
ATOM     17  C   UNL     1      -1.294   2.688   2.385  1.00  0.00     0.046 A 
ATOM     18  C   UNL     1      -1.991   0.533   3.993  1.00  0.00     0.021 A 
ATOM     19  C   UNL     1      -1.734   2.895   3.704  1.00  0.00     0.041 A 
ATOM     20  Cl  UNL     1      -1.111   4.146   1.470  1.00  0.00    -0.084 Cl
ATOM     21  C   UNL     1      -2.065   1.817   4.506  1.00  0.00     0.042 A 
ATOM     22  Cl  UNL     1      -2.580   2.070   6.126  1.00  0.00    -0.084 Cl
ENDBRANCH   9  15
ENDBRANCH   6   9
ENDBRANCH   4   5
ENDBRANCH   3   4
ENDBRANCH   2   3
ENDBRANCH   1   2
BRANCH   1  23
ATOM     23  C   UNL     1       4.227   2.646   4.934  1.00  0.00     0.021 C 
BRANCH  23  24
ATOM     24  C   UNL     1       5.212   1.555   5.332  1.00  0.00     0.116 C 
BRANCH  24  25
ATOM     25  N   UNL     1       6.585   2.028   5.315  1.00  0.00    -0.352 N 
ATOM     26  C   UNL     1       7.533   1.946   6.299  1.00  0.00     0.251 C 
ATOM     27  H   UNL     1       6.873   2.468   4.483  1.00  0.00     0.163 HD
ATOM     28  O   UNL     1       8.588   2.569   6.207  1.00  0.00    -0.269 OA
BRANCH  26  29
ATOM     29  C   UNL     1       7.266   1.112   7.486  1.00  0.00     0.039 A 
ATOM     30  C   UNL     1       7.517   1.639   8.753  1.00  0.00     0.014 A 
ATOM     31  C   UNL     1       6.752  -0.180   7.341  1.00  0.00     0.014 A 
ATOM     32  C   UNL     1       7.201   0.885   9.883  1.00  0.00     0.010 A 
ATOM     33  C   UNL     1       6.362  -0.895   8.466  1.00  0.00     0.010 A 
ATOM     34  C   UNL     1       6.592  -0.373   9.748  1.00  0.00    -0.014 A 
BRANCH  34  35
ATOM     35  C   UNL     1       6.197  -1.167  10.937  1.00  0.00     0.031 A 
ATOM     36  C   UNL     1       6.843  -2.499  11.198  1.00  0.00     0.074 A 
ATOM     37  C   UNL     1       5.218  -0.717  11.743  1.00  0.00     0.049 A 
ATOM     38  N   UNL     1       6.589  -3.373  12.139  1.00  0.00    -0.248 NA
ATOM     39  C   UNL     1       7.894  -2.917  10.257  1.00  0.00     0.031 C 
ATOM     40  C   UNL     1       4.491   0.541  11.569  1.00  0.00     0.029 A 
ATOM     41  N   UNL     1       4.659  -1.271  12.867  1.00  0.00    -0.354 N 
ATOM     42  C   UNL     1       7.439  -4.444  11.897  1.00  0.00     0.074 A 
ATOM     43  C   UNL     1       8.167  -4.141  10.684  1.00  0.00     0.031 C 
ATOM     44  C   UNL     1       3.603   0.677  12.566  1.00  0.00     0.029 A 
ATOM     45  C   UNL     1       3.666  -0.503  13.423  1.00  0.00     0.049 A 
ATOM     46  H   UNL     1       4.942  -2.138  13.239  1.00  0.00     0.167 HD
ATOM     47  C   UNL     1       7.617  -5.565  12.635  1.00  0.00     0.037 A 
ATOM     48  C   UNL     1       2.889  -0.731  14.499  1.00  0.00     0.037 A 
ATOM     49  C   UNL     1       6.895  -5.854  13.847  1.00  0.00     0.049 A 
ATOM     50  C   UNL     1       3.080  -2.001  15.282  1.00  0.00     0.074 A 
ATOM     51  C   UNL     1       7.029  -6.939  14.694  1.00  0.00     0.029 A 
ATOM     52  N   UNL     1       5.895  -5.052  14.380  1.00  0.00    -0.354 N 
ATOM     53  N   UNL     1       3.931  -2.979  15.083  1.00  0.00    -0.248 NA
ATOM     54  C   UNL     1       2.205  -2.197  16.446  1.00  0.00     0.031 C 
ATOM     55  C   UNL     1       6.072  -6.824  15.707  1.00  0.00     0.029 A 
ATOM     56  C   UNL     1       5.385  -5.633  15.530  1.00  0.00     0.049 A 
ATOM     57  H   UNL     1       5.593  -4.196  13.997  1.00  0.00     0.167 HD
ATOM     58  C   UNL     1       3.720  -3.887  16.112  1.00  0.00     0.074 A 
ATOM     59  C   UNL     1       2.667  -3.337  16.941  1.00  0.00     0.031 C 
ATOM     60  C   UNL     1       4.342  -5.068  16.350  1.00  0.00     0.037 A 
BRANCH  47  61
ATOM     61  C   UNL     1       8.628  -6.563  12.144  1.00  0.00     0.064 A 
ATOM     62  C   UNL     1      10.002  -6.275  12.126  1.00  0.00     0.173 A 
ATOM     63  C   UNL     1       8.222  -7.831  11.700  1.00  0.00     0.173 A 
ATOM     64  F   UNL     1      10.445  -5.074  12.528  1.00  0.00    -0.203 F 
ATOM     65  C   UNL     1      10.924  -7.199  11.643  1.00  0.00     0.198 A 
ATOM     66  C   UNL     1       9.150  -8.767  11.253  1.00  0.00     0.198 A 
ATOM     67  F   UNL     1       6.922  -8.164  11.701  1.00  0.00    -0.203 F 
ATOM     68  F   UNL     1      12.223  -6.875  11.574  1.00  0.00    -0.200 F 
ATOM     69  C   UNL     1      10.499  -8.447  11.213  1.00  0.00     0.200 A 
ATOM     70  F   UNL     1       8.739  -9.978  10.853  1.00  0.00    -0.200 F 
ATOM     71  F   UNL     1      11.387  -9.337  10.752  1.00  0.00    -0.200 F 
ENDBRANCH  47  61
BRANCH  48  72
ATOM     72  C   UNL     1       1.880   0.279  14.914  1.00  0.00     0.064 A 
ATOM     73  C   UNL     1       2.036   1.002  16.105  1.00  0.00     0.173 A 
ATOM     74  C   UNL     1       0.744   0.544  14.135  1.00  0.00     0.173 A 
ATOM     75  F   UNL     1       3.096   0.771  16.894  1.00  0.00    -0.203 F 
ATOM     76  C   UNL     1       1.084   1.934  16.512  1.00  0.00     0.198 A 
ATOM     77  C   UNL     1      -0.192   1.499  14.527  1.00  0.00     0.198 A 
ATOM     78  F   UNL     1       0.550  -0.116  12.983  1.00  0.00    -0.203 F 
ATOM     79  F   UNL     1       1.234   2.575  17.679  1.00  0.00    -0.200 F 
ATOM     80  C   UNL     1      -0.026   2.186  15.720  1.00  0.00     0.200 A 
ATOM     81  F   UNL     1      -1.254   1.751  13.751  1.00  0.00    -0.200 F 
ATOM     82  F   UNL     1      -0.939   3.086  16.110  1.00  0.00    -0.200 F 
ENDBRANCH  48  72
BRANCH  60  83
ATOM     83  C   UNL     1       3.935  -5.826  17.581  1.00  0.00     0.064 A 
ATOM     84  C   UNL     1       2.683  -6.450  17.688  1.00  0.00     0.173 A 
ATOM     85  C   UNL     1       4.829  -5.963  18.655  1.00  0.00     0.173 A 
ATOM     86  F   UNL     1       1.786  -6.338  16.697  1.00  0.00    -0.203 F 
ATOM     87  C   UNL     1       2.332  -7.158  18.834  1.00  0.00     0.198 A 
ATOM     88  C   UNL     1       4.488  -6.702  19.784  1.00  0.00     0.198 A 
ATOM     89  F   UNL     1       6.043  -5.393  18.602  1.00  0.00    -0.203 F 
ATOM     90  F   UNL     1       1.110  -7.700  18.936  1.00  0.00    -0.200 F 
ATOM     91  C   UNL     1       3.237  -7.290  19.877  1.00  0.00     0.200 A 
ATOM     92  F   UNL     1       5.371  -6.843  20.782  1.00  0.00    -0.200 F 
ATOM     93  F   UNL     1       2.900  -7.981  20.975  1.00  0.00    -0.200 F 
ENDBRANCH  60  83
ENDBRANCH  34  35
ENDBRANCH  26  29
ENDBRANCH  24  25
ENDBRANCH  23  24
ENDBRANCH   1  23
TORSDOF 14
