REMARK SMILES Cc1ccc(-c2cc([C@@H](C)C(=O)NCCCCCCNC(=O)c3ccc(-c4c5nc(c(-c6c(F)c(F)c(F)c(F)c6F)c6ccc([nH]6)c(-c6c(F)c(F)c(F)c(F)c6F)c6nc(c(-c7c(F)c(F)c(F)c(F)c7F)c7ccc4[nH]7)C=C6)C=C5)cc3)ccc2C[C@H]2CCCC2=O)cc1
REMARK SMILES IDX 16 1 15 2 14 3 13 4 11 5 12 6 9 8 10 9 8 10 6 11 7 12 88 13
REMARK SMILES IDX 87 14 86 15 5 16 1 17 2 18 3 19 97 20 4 21 96 22 89 23 90 24
REMARK SMILES IDX 91 25 94 26 92 27 93 28 95 29 17 30 18 31 19 32 20 33 21 34
REMARK SMILES IDX 22 36 23 37 24 38 85 39 25 40 84 41 26 42 27 43 28 44 78 45
REMARK SMILES IDX 29 46 83 47 77 48 79 49 30 50 82 51 76 52 75 53 31 55 63 56
REMARK SMILES IDX 43 57 62 58 44 59 47 60 61 61 80 62 45 63 46 64 60 66 81 67
REMARK SMILES IDX 48 68 32 69 33 70 41 71 34 72 35 73 39 74 42 75 36 76 37 77
REMARK SMILES IDX 40 78 38 79 64 80 65 81 73 82 66 83 67 84 71 85 74 86 68 87
REMARK SMILES IDX 69 88 72 89 70 90 49 91 50 92 58 93 51 94 52 95 56 96 59 97
REMARK SMILES IDX 53 98 54 99 57 100 55 101
REMARK H PARENT 13 7 20 35 79 54 47 65
REMARK Flexibility Score: inf
ROOT
ATOM      1  C   UNL     1      -9.474   2.010   1.627  1.00  0.00     0.002 C 
ENDROOT
BRANCH   1   2
ATOM      2  C   UNL     1      -8.513   1.144   0.800  1.00  0.00     0.021 C 
BRANCH   2   3
ATOM      3  C   UNL     1      -8.664   1.274  -0.718  1.00  0.00     0.116 C 
BRANCH   3   4
ATOM      4  N   UNL     1      -7.839   2.332  -1.259  1.00  0.00    -0.356 N 
ATOM      5  C   UNL     1      -6.657   2.306  -1.933  1.00  0.00     0.227 C 
ATOM      6  O   UNL     1      -6.156   3.406  -2.195  1.00  0.00    -0.274 OA
ATOM      7  H   UNL     1      -8.198   3.236  -1.112  1.00  0.00     0.163 HD
BRANCH   5   8
ATOM      8  C   UNL     1      -5.947   1.017  -2.381  1.00  0.00     0.105 C 
ATOM      9  C   UNL     1      -6.772   0.137  -3.321  1.00  0.00     0.023 C 
BRANCH   8  10
ATOM     10  C   UNL     1      -5.232   0.289  -1.253  1.00  0.00    -0.035 A 
ATOM     11  C   UNL     1      -3.154  -0.068   0.035  1.00  0.00    -0.015 A 
ATOM     12  C   UNL     1      -3.867   0.543  -1.020  1.00  0.00     0.013 A 
ATOM     13  C   UNL     1      -3.873  -0.855   0.962  1.00  0.00    -0.039 A 
ATOM     14  C   UNL     1      -5.209  -1.176   0.679  1.00  0.00     0.004 A 
ATOM     15  C   UNL     1      -5.862  -0.643  -0.430  1.00  0.00     0.005 A 
BRANCH  11  16
ATOM     16  C   UNL     1      -1.682   0.032   0.047  1.00  0.00    -0.018 A 
ATOM     17  C   UNL     1       2.647   0.162  -0.033  1.00  0.00     0.044 C 
ATOM     18  C   UNL     1       1.148   0.133  -0.018  1.00  0.00    -0.051 A 
ATOM     19  C   UNL     1       0.483  -1.090  -0.126  1.00  0.00     0.004 A 
ATOM     20  C   UNL     1       0.394   1.305   0.111  1.00  0.00     0.004 A 
ATOM     21  C   UNL     1      -0.911  -1.135  -0.106  1.00  0.00     0.009 A 
ATOM     22  C   UNL     1      -1.007   1.256   0.140  1.00  0.00     0.009 A 
ENDBRANCH  11  16
BRANCH  13  23
ATOM     23  C   UNL     1      -3.283  -1.360   2.265  1.00  0.00     0.047 C 
BRANCH  23  24
ATOM     24  C   UNL     1      -3.675  -0.583   3.532  1.00  0.00     0.060 C 
ATOM     25  C   UNL     1      -3.373   0.921   3.531  1.00  0.00     0.012 C 
ATOM     26  C   UNL     1      -5.161  -0.609   3.832  1.00  0.00     0.136 C 
ATOM     27  C   UNL     1      -4.697   1.619   3.241  1.00  0.00     0.009 C 
ATOM     28  C   UNL     1      -5.747   0.773   3.943  1.00  0.00     0.076 C 
ATOM     29  O   UNL     1      -5.814  -1.633   4.005  1.00  0.00    -0.299 OA
ENDBRANCH  23  24
ENDBRANCH  13  23
ENDBRANCH   8  10
ENDBRANCH   5   8
ENDBRANCH   3   4
ENDBRANCH   2   3
ENDBRANCH   1   2
BRANCH   1  30
ATOM     30  C   UNL     1     -10.974   1.861   1.319  1.00  0.00     0.002 C 
BRANCH  30  31
ATOM     31  C   UNL     1     -11.496   0.429   1.177  1.00  0.00     0.021 C 
BRANCH  31  32
ATOM     32  C   UNL     1     -11.605  -0.326   2.496  1.00  0.00     0.116 C 
BRANCH  32  33
ATOM     33  N   UNL     1     -12.950  -0.326   3.057  1.00  0.00    -0.352 N 
ATOM     34  C   UNL     1     -13.415  -0.825   4.265  1.00  0.00     0.251 C 
ATOM     35  H   UNL     1     -13.636   0.095   2.490  1.00  0.00     0.163 HD
ATOM     36  O   UNL     1     -14.595  -0.784   4.533  1.00  0.00    -0.269 OA
BRANCH  34  37
ATOM     37  C   UNL     1     -12.432  -1.279   5.283  1.00  0.00     0.039 A 
ATOM     38  C   UNL     1     -12.591  -0.804   6.591  1.00  0.00     0.014 A 
ATOM     39  C   UNL     1     -11.285  -1.978   4.923  1.00  0.00     0.014 A 
ATOM     40  C   UNL     1     -11.500  -0.810   7.456  1.00  0.00     0.010 A 
ATOM     41  C   UNL     1     -10.175  -1.899   5.739  1.00  0.00     0.010 A 
ATOM     42  C   UNL     1     -10.268  -1.252   6.976  1.00  0.00    -0.014 A 
BRANCH  42  43
ATOM     43  C   UNL     1      -9.005  -0.954   7.637  1.00  0.00     0.031 A 
ATOM     44  C   UNL     1      -8.267  -2.003   8.367  1.00  0.00     0.074 A 
ATOM     45  C   UNL     1      -8.467   0.276   7.479  1.00  0.00     0.049 A 
ATOM     46  N   UNL     1      -7.404  -1.770   9.299  1.00  0.00    -0.248 NA
ATOM     47  C   UNL     1      -8.483  -3.424   8.126  1.00  0.00     0.031 C 
ATOM     48  C   UNL     1      -7.103   0.690   7.787  1.00  0.00     0.029 A 
ATOM     49  N   UNL     1      -9.134   1.472   7.159  1.00  0.00    -0.354 N 
ATOM     50  C   UNL     1      -6.768  -2.957   9.590  1.00  0.00     0.074 A 
ATOM     51  C   UNL     1      -7.519  -3.965   8.877  1.00  0.00     0.031 C 
ATOM     52  C   UNL     1      -7.076   2.026   7.920  1.00  0.00     0.029 A 
ATOM     53  C   UNL     1      -8.450   2.491   7.858  1.00  0.00     0.049 A 
ATOM     54  H   UNL     1      -9.915   1.577   6.569  1.00  0.00     0.167 HD
ATOM     55  C   UNL     1      -5.599  -2.934  10.296  1.00  0.00     0.037 A 
ATOM     56  C   UNL     1      -9.067   3.218   8.835  1.00  0.00     0.037 A 
ATOM     57  C   UNL     1      -5.251  -1.571  10.690  1.00  0.00     0.049 A 
ATOM     58  C   UNL     1      -8.416   3.108  10.193  1.00  0.00     0.074 A 
ATOM     59  C   UNL     1      -4.411  -0.625  10.124  1.00  0.00     0.029 A 
ATOM     60  N   UNL     1      -6.033  -0.898  11.621  1.00  0.00    -0.354 N 
ATOM     61  N   UNL     1      -7.590   2.155  10.525  1.00  0.00    -0.248 NA
ATOM     62  C   UNL     1      -8.680   4.028  11.297  1.00  0.00     0.031 C 
ATOM     63  C   UNL     1      -4.730   0.636  10.682  1.00  0.00     0.029 A 
ATOM     64  C   UNL     1      -5.748   0.454  11.602  1.00  0.00     0.049 A 
ATOM     65  H   UNL     1      -6.697  -1.324  12.210  1.00  0.00     0.167 HD
ATOM     66  C   UNL     1      -7.251   2.287  11.844  1.00  0.00     0.074 A 
ATOM     67  C   UNL     1      -7.936   3.488  12.278  1.00  0.00     0.031 C 
ATOM     68  C   UNL     1      -6.452   1.378  12.474  1.00  0.00     0.037 A 
BRANCH  55  69
ATOM     69  C   UNL     1      -4.623  -4.091  10.359  1.00  0.00     0.064 A 
ATOM     70  C   UNL     1      -3.234  -3.862  10.478  1.00  0.00     0.173 A 
ATOM     71  C   UNL     1      -4.983  -5.446  10.247  1.00  0.00     0.173 A 
ATOM     72  F   UNL     1      -2.742  -2.641  10.725  1.00  0.00    -0.203 F 
ATOM     73  C   UNL     1      -2.288  -4.883  10.349  1.00  0.00     0.198 A 
ATOM     74  C   UNL     1      -4.038  -6.461  10.061  1.00  0.00     0.198 A 
ATOM     75  F   UNL     1      -6.256  -5.839  10.378  1.00  0.00    -0.203 F 
ATOM     76  F   UNL     1      -0.982  -4.597  10.459  1.00  0.00    -0.200 F 
ATOM     77  C   UNL     1      -2.689  -6.176  10.095  1.00  0.00     0.200 A 
ATOM     78  F   UNL     1      -4.448  -7.721   9.851  1.00  0.00    -0.200 F 
ATOM     79  F   UNL     1      -1.782  -7.147   9.918  1.00  0.00    -0.200 F 
ENDBRANCH  55  69
BRANCH  56  80
ATOM     80  C   UNL     1     -10.524   3.393   8.610  1.00  0.00     0.064 A 
ATOM     81  C   UNL     1     -10.944   4.158   7.505  1.00  0.00     0.173 A 
ATOM     82  C   UNL     1     -11.465   2.544   9.206  1.00  0.00     0.173 A 
ATOM     83  F   UNL     1     -10.078   4.984   6.897  1.00  0.00    -0.203 F 
ATOM     84  C   UNL     1     -12.213   3.998   6.954  1.00  0.00     0.198 A 
ATOM     85  C   UNL     1     -12.739   2.393   8.655  1.00  0.00     0.198 A 
ATOM     86  F   UNL     1     -11.120   1.776  10.249  1.00  0.00    -0.203 F 
ATOM     87  F   UNL     1     -12.547   4.666   5.840  1.00  0.00    -0.200 F 
ATOM     88  C   UNL     1     -13.100   3.094   7.513  1.00  0.00     0.200 A 
ATOM     89  F   UNL     1     -13.589   1.498   9.179  1.00  0.00    -0.200 F 
ATOM     90  F   UNL     1     -14.287   2.871   6.931  1.00  0.00    -0.200 F 
ENDBRANCH  56  80
BRANCH  68  91
ATOM     91  C   UNL     1      -6.199   1.314  13.955  1.00  0.00     0.064 A 
ATOM     92  C   UNL     1      -7.161   1.647  14.921  1.00  0.00     0.173 A 
ATOM     93  C   UNL     1      -5.001   0.745  14.448  1.00  0.00     0.173 A 
ATOM     94  F   UNL     1      -8.372   2.100  14.568  1.00  0.00    -0.203 F 
ATOM     95  C   UNL     1      -6.924   1.470  16.286  1.00  0.00     0.198 A 
ATOM     96  C   UNL     1      -4.789   0.520  15.806  1.00  0.00     0.198 A 
ATOM     97  F   UNL     1      -4.014   0.371  13.619  1.00  0.00    -0.203 F 
ATOM     98  F   UNL     1      -7.859   1.834  17.175  1.00  0.00    -0.200 F 
ATOM     99  C   UNL     1      -5.746   0.895  16.727  1.00  0.00     0.200 A 
ATOM    100  F   UNL     1      -3.662  -0.080  16.215  1.00  0.00    -0.200 F 
ATOM    101  F   UNL     1      -5.543   0.683  18.034  1.00  0.00    -0.200 F 
ENDBRANCH  68  91
ENDBRANCH  42  43
ENDBRANCH  34  37
ENDBRANCH  32  33
ENDBRANCH  31  32
ENDBRANCH  30  31
ENDBRANCH   1  30
TORSDOF 17
