REMARK SMILES COc1cc(-c2cc(C(=O)NCCCCCCNC(=O)c3ccc(-c4c5nc(c(-c6c(F)c(F)c(F)c(F)c6F)c6ccc([nH]6)c(-c6c(F)c(F)c(F)c(F)c6F)c6nc(c(-c7c(F)c(F)c(F)c(F)c7F)c7ccc4[nH]7)C=C6)C=C5)cc3)c3cc(C)ccc3n2)cc(OC)c1OC
REMARK SMILES IDX 14 1 13 2 12 3 11 4 9 5 10 6 8 8 6 9 7 10 91 11 90 12 84 13
REMARK SMILES IDX 89 14 85 15 88 16 86 17 87 18 5 19 3 20 4 21 96 22 93 23
REMARK SMILES IDX 92 24 2 25 1 26 97 27 98 28 94 29 95 30 15 31 16 32 17 33
REMARK SMILES IDX 18 34 19 35 20 37 21 38 22 39 83 40 23 41 82 42 24 43 25 44
REMARK SMILES IDX 26 45 76 46 27 47 81 48 75 49 77 50 28 51 80 52 74 53 73 54
REMARK SMILES IDX 29 56 61 57 41 58 60 59 42 60 45 61 59 62 78 63 43 64 44 65
REMARK SMILES IDX 58 67 79 68 46 69 30 70 31 71 39 72 32 73 33 74 37 75 40 76
REMARK SMILES IDX 34 77 35 78 38 79 36 80 62 81 63 82 71 83 64 84 65 85 69 86
REMARK SMILES IDX 72 87 66 88 67 89 70 90 68 91 47 92 48 93 56 94 49 95 50 96
REMARK SMILES IDX 54 97 57 98 51 99 52 100 55 101 53 102
REMARK H PARENT 11 7 18 36 77 55 45 66
REMARK Flexibility Score: inf
ROOT
ATOM      1  C   UNL     1      -2.176  -9.416  -6.883  1.00  0.00     0.002 C 
ENDROOT
BRANCH   1   2
ATOM      2  C   UNL     1      -2.367  -8.230  -5.923  1.00  0.00     0.021 C 
BRANCH   2   3
ATOM      3  C   UNL     1      -1.414  -8.253  -4.726  1.00  0.00     0.116 C 
BRANCH   3   4
ATOM      4  N   UNL     1      -0.052  -8.151  -5.206  1.00  0.00    -0.352 N 
ATOM      5  C   UNL     1       0.570  -6.977  -5.558  1.00  0.00     0.252 C 
ATOM      6  O   UNL     1       1.091  -6.868  -6.661  1.00  0.00    -0.269 OA
ATOM      7  H   UNL     1       0.466  -8.984  -5.285  1.00  0.00     0.163 HD
BRANCH   5   8
ATOM      8  C   UNL     1       0.852  -6.035  -4.454  1.00  0.00     0.051 A 
ATOM      9  C   UNL     1       0.320  -4.850  -2.506  1.00  0.00     0.072 A 
ATOM     10  C   UNL     1      -0.119  -5.382  -3.701  1.00  0.00     0.043 A 
ATOM     11  N   UNL     1       1.429  -5.383  -1.929  1.00  0.00    -0.248 NA
ATOM     12  C   UNL     1       2.443  -5.609  -2.763  1.00  0.00     0.072 A 
ATOM     13  C   UNL     1       2.195  -5.821  -4.116  1.00  0.00     0.013 A 
ATOM     14  C   UNL     1       3.736  -5.369  -2.334  1.00  0.00     0.029 A 
ATOM     15  C   UNL     1       3.214  -5.551  -5.052  1.00  0.00     0.014 A 
ATOM     16  C   UNL     1       4.729  -5.040  -3.259  1.00  0.00     0.005 A 
ATOM     17  C   UNL     1       4.427  -5.012  -4.620  1.00  0.00    -0.050 A 
ATOM     18  C   UNL     1       5.307  -4.291  -5.598  1.00  0.00     0.044 C 
BRANCH   9  19
ATOM     19  C   UNL     1       0.331  -3.376  -2.231  1.00  0.00     0.008 A 
ATOM     20  C   UNL     1       0.533  -1.897  -0.347  1.00  0.00     0.165 A 
ATOM     21  C   UNL     1      -0.187  -2.876  -1.039  1.00  0.00     0.061 A 
ATOM     22  C   UNL     1       1.827  -1.531  -0.759  1.00  0.00     0.203 A 
ATOM     23  C   UNL     1       2.225  -1.845  -2.056  1.00  0.00     0.165 A 
ATOM     24  C   UNL     1       1.387  -2.647  -2.839  1.00  0.00     0.061 A 
BRANCH  20  25
ATOM     25  O   UNL     1      -0.038  -1.405   0.799  1.00  0.00    -0.493 OA
ATOM     26  C   UNL     1      -0.111   0.025   0.753  1.00  0.00     0.278 C 
ENDBRANCH  20  25
BRANCH  22  27
ATOM     27  O   UNL     1       2.714  -1.193   0.231  1.00  0.00    -0.490 OA
ATOM     28  C   UNL     1       3.168   0.147   0.235  1.00  0.00     0.278 C 
ENDBRANCH  22  27
BRANCH  23  29
ATOM     29  O   UNL     1       3.398  -1.487  -2.663  1.00  0.00    -0.493 OA
ATOM     30  C   UNL     1       4.587  -1.785  -1.936  1.00  0.00     0.278 C 
ENDBRANCH  23  29
ENDBRANCH   9  19
ENDBRANCH   5   8
ENDBRANCH   3   4
ENDBRANCH   2   3
ENDBRANCH   1   2
BRANCH   1  31
ATOM     31  C   UNL     1      -2.345 -10.797  -6.240  1.00  0.00     0.002 C 
BRANCH  31  32
ATOM     32  C   UNL     1      -3.659 -10.984  -5.481  1.00  0.00     0.021 C 
BRANCH  32  33
ATOM     33  C   UNL     1      -4.903 -10.719  -6.320  1.00  0.00     0.116 C 
BRANCH  33  34
ATOM     34  N   UNL     1      -5.044 -11.679  -7.401  1.00  0.00    -0.352 N 
ATOM     35  C   UNL     1      -6.129 -12.456  -7.723  1.00  0.00     0.251 C 
ATOM     36  H   UNL     1      -4.255 -11.787  -7.980  1.00  0.00     0.163 HD
ATOM     37  O   UNL     1      -6.027 -13.367  -8.533  1.00  0.00    -0.269 OA
BRANCH  35  38
ATOM     38  C   UNL     1      -7.424 -12.192  -7.062  1.00  0.00     0.039 A 
ATOM     39  C   UNL     1      -8.154 -13.268  -6.554  1.00  0.00     0.014 A 
ATOM     40  C   UNL     1      -7.908 -10.886  -6.938  1.00  0.00     0.014 A 
ATOM     41  C   UNL     1      -9.349 -13.028  -5.875  1.00  0.00     0.010 A 
ATOM     42  C   UNL     1      -9.058 -10.643  -6.194  1.00  0.00     0.010 A 
ATOM     43  C   UNL     1      -9.795 -11.713  -5.663  1.00  0.00    -0.014 A 
BRANCH  43  44
ATOM     44  C   UNL     1     -11.037 -11.440  -4.898  1.00  0.00     0.031 A 
ATOM     45  C   UNL     1     -12.211 -10.789  -5.577  1.00  0.00     0.074 A 
ATOM     46  C   UNL     1     -11.091 -11.738  -3.585  1.00  0.00     0.049 A 
ATOM     47  N   UNL     1     -13.361 -10.420  -5.069  1.00  0.00    -0.248 NA
ATOM     48  C   UNL     1     -12.067 -10.491  -7.011  1.00  0.00     0.031 C 
ATOM     49  C   UNL     1     -10.003 -12.333  -2.807  1.00  0.00     0.029 A 
ATOM     50  N   UNL     1     -12.101 -11.574  -2.670  1.00  0.00    -0.354 N 
ATOM     51  C   UNL     1     -14.069  -9.847  -6.117  1.00  0.00     0.074 A 
ATOM     52  C   UNL     1     -13.201  -9.858  -7.274  1.00  0.00     0.031 C 
ATOM     53  C   UNL     1     -10.412 -12.508  -1.540  1.00  0.00     0.029 A 
ATOM     54  C   UNL     1     -11.773 -12.000  -1.405  1.00  0.00     0.049 A 
ATOM     55  H   UNL     1     -12.977 -11.188  -2.898  1.00  0.00     0.167 HD
ATOM     56  C   UNL     1     -15.341  -9.382  -6.122  1.00  0.00     0.037 A 
ATOM     57  C   UNL     1     -12.489 -11.974  -0.265  1.00  0.00     0.037 A 
ATOM     58  C   UNL     1     -16.208  -9.389  -4.973  1.00  0.00     0.049 A 
ATOM     59  C   UNL     1     -13.891 -11.422  -0.295  1.00  0.00     0.074 A 
ATOM     60  C   UNL     1     -17.525  -8.973  -4.884  1.00  0.00     0.029 A 
ATOM     61  N   UNL     1     -15.844  -9.837  -3.712  1.00  0.00    -0.354 N 
ATOM     62  N   UNL     1     -14.572 -10.942  -1.308  1.00  0.00    -0.248 NA
ATOM     63  C   UNL     1     -14.627 -11.416   0.977  1.00  0.00     0.031 C 
ATOM     64  C   UNL     1     -17.943  -9.125  -3.559  1.00  0.00     0.029 A 
ATOM     65  C   UNL     1     -16.906  -9.690  -2.834  1.00  0.00     0.049 A 
ATOM     66  H   UNL     1     -14.962 -10.205  -3.476  1.00  0.00     0.167 HD
ATOM     67  C   UNL     1     -15.823 -10.614  -0.804  1.00  0.00     0.074 A 
ATOM     68  C   UNL     1     -15.814 -10.966   0.600  1.00  0.00     0.031 C 
ATOM     69  C   UNL     1     -16.885 -10.066  -1.444  1.00  0.00     0.037 A 
BRANCH  56  70
ATOM     70  C   UNL     1     -15.882  -8.837  -7.412  1.00  0.00     0.064 A 
ATOM     71  C   UNL     1     -16.163  -9.677  -8.501  1.00  0.00     0.173 A 
ATOM     72  C   UNL     1     -16.179  -7.472  -7.543  1.00  0.00     0.173 A 
ATOM     73  F   UNL     1     -15.886 -10.988  -8.432  1.00  0.00    -0.203 F 
ATOM     74  C   UNL     1     -16.704  -9.168  -9.678  1.00  0.00     0.198 A 
ATOM     75  C   UNL     1     -16.750  -6.972  -8.711  1.00  0.00     0.198 A 
ATOM     76  F   UNL     1     -15.934  -6.626  -6.532  1.00  0.00    -0.203 F 
ATOM     77  F   UNL     1     -16.927  -9.983 -10.719  1.00  0.00    -0.200 F 
ATOM     78  C   UNL     1     -17.006  -7.818  -9.779  1.00  0.00     0.200 A 
ATOM     79  F   UNL     1     -17.055  -5.670  -8.801  1.00  0.00    -0.200 F 
ATOM     80  F   UNL     1     -17.543  -7.332 -10.907  1.00  0.00    -0.200 F 
ENDBRANCH  56  70
BRANCH  57  81
ATOM     81  C   UNL     1     -11.908 -12.493   1.003  1.00  0.00     0.064 A 
ATOM     82  C   UNL     1     -12.440 -13.630   1.628  1.00  0.00     0.173 A 
ATOM     83  C   UNL     1     -10.842 -11.841   1.639  1.00  0.00     0.173 A 
ATOM     84  F   UNL     1     -13.474 -14.279   1.071  1.00  0.00    -0.203 F 
ATOM     85  C   UNL     1     -11.955 -14.071   2.858  1.00  0.00     0.198 A 
ATOM     86  C   UNL     1     -10.334 -12.303   2.851  1.00  0.00     0.198 A 
ATOM     87  F   UNL     1     -10.291 -10.752   1.082  1.00  0.00    -0.203 F 
ATOM     88  F   UNL     1     -12.528 -15.119   3.465  1.00  0.00    -0.200 F 
ATOM     89  C   UNL     1     -10.900 -13.409   3.467  1.00  0.00     0.200 A 
ATOM     90  F   UNL     1      -9.304 -11.669   3.429  1.00  0.00    -0.200 F 
ATOM     91  F   UNL     1     -10.438 -13.828   4.653  1.00  0.00    -0.200 F 
ENDBRANCH  57  81
BRANCH  69  92
ATOM     92  C   UNL     1     -18.141  -9.863  -0.647  1.00  0.00     0.064 A 
ATOM     93  C   UNL     1     -18.230  -8.888   0.358  1.00  0.00     0.173 A 
ATOM     94  C   UNL     1     -19.283 -10.633  -0.917  1.00  0.00     0.173 A 
ATOM     95  F   UNL     1     -17.163  -8.135   0.664  1.00  0.00    -0.203 F 
ATOM     96  C   UNL     1     -19.405  -8.714   1.084  1.00  0.00     0.198 A 
ATOM     97  C   UNL     1     -20.467 -10.433  -0.213  1.00  0.00     0.198 A 
ATOM     98  F   UNL     1     -19.254 -11.573  -1.874  1.00  0.00    -0.203 F 
ATOM     99  F   UNL     1     -19.450  -7.816   2.077  1.00  0.00    -0.200 F 
ATOM    100  C   UNL     1     -20.524  -9.481   0.793  1.00  0.00     0.200 A 
ATOM    101  F   UNL     1     -21.552 -11.162  -0.508  1.00  0.00    -0.200 F 
ATOM    102  F   UNL     1     -21.657  -9.306   1.488  1.00  0.00    -0.200 F 
ENDBRANCH  69  92
ENDBRANCH  43  44
ENDBRANCH  35  38
ENDBRANCH  33  34
ENDBRANCH  32  33
ENDBRANCH  31  32
ENDBRANCH   1  31
TORSDOF 17
