REMARK SMILES O=C(NCCCCCCNC(=O)[C@@H]1CC2(CC[NH2+]CC2)C[N@H+]1Cc1cccc2nonc12)c1ccc(-c2c3nc(c(-c4c(F)c(F)c(F)c(F)c4F)c4ccc([nH]4)c(-c4c(F)c(F)c(F)c(F)c4F)c4nc(c(-c5c(F)c(F)c(F)c(F)c5F)c5ccc2[nH]5)C=C4)C=C3)cc1
REMARK SMILES IDX 6 1 5 2 4 3 3 4 1 5 2 6 33 8 34 9 95 10 35 11 94 12 36 13
REMARK SMILES IDX 37 14 38 15 88 16 39 17 93 18 87 19 89 20 40 21 92 22 86 23
REMARK SMILES IDX 85 24 41 26 73 27 53 28 72 29 54 30 57 31 71 32 90 33 55 34
REMARK SMILES IDX 56 35 70 37 91 38 58 39 42 40 43 41 51 42 44 43 45 44 49 45
REMARK SMILES IDX 52 46 46 47 47 48 50 49 48 50 74 51 75 52 83 53 76 54 77 55
REMARK SMILES IDX 81 56 84 57 78 58 79 59 82 60 80 61 59 62 60 63 68 64 61 65
REMARK SMILES IDX 62 66 66 67 69 68 63 69 64 70 67 71 65 72 7 73 8 74 9 75
REMARK SMILES IDX 10 76 11 77 12 79 13 80 14 81 22 82 15 83 21 84 16 86 20 87
REMARK SMILES IDX 17 88 19 89 18 90 23 93 24 94 25 95 32 96 26 97 28 98 31 99
REMARK SMILES IDX 27 100 29 101 30 102
REMARK H PARENT 3 7 89 25 57 36 10 78 22 85 18 91 18 92
REMARK Flexibility Score: inf
ROOT
ATOM      1  C   UNL     1       4.197   3.061   0.848  1.00  0.00     0.002 C 
ENDROOT
BRANCH   1   2
ATOM      2  C   UNL     1       4.633   1.843   0.015  1.00  0.00     0.021 C 
BRANCH   2   3
ATOM      3  C   UNL     1       4.102   0.487   0.503  1.00  0.00     0.116 C 
BRANCH   3   4
ATOM      4  N   UNL     1       2.648   0.485   0.512  1.00  0.00    -0.352 N 
ATOM      5  O   UNL     1       0.631   0.116  -0.384  1.00  0.00    -0.269 OA
ATOM      6  C   UNL     1       1.764  -0.317  -0.150  1.00  0.00     0.251 C 
ATOM      7  H   UNL     1       2.237   1.170   1.087  1.00  0.00     0.163 HD
BRANCH   6   8
ATOM      8  C   UNL     1       2.090  -1.707  -0.533  1.00  0.00     0.039 A 
ATOM      9  C   UNL     1       1.478  -2.245  -1.674  1.00  0.00     0.014 A 
ATOM     10  C   UNL     1       2.819  -2.540   0.318  1.00  0.00     0.014 A 
ATOM     11  C   UNL     1       1.592  -3.606  -1.969  1.00  0.00     0.010 A 
ATOM     12  C   UNL     1       2.929  -3.902   0.024  1.00  0.00     0.010 A 
ATOM     13  C   UNL     1       2.315  -4.448  -1.118  1.00  0.00    -0.014 A 
BRANCH  13  14
ATOM     14  C   UNL     1       2.429  -5.891  -1.424  1.00  0.00     0.031 A 
ATOM     15  C   UNL     1       3.795  -6.462  -1.358  1.00  0.00     0.074 A 
ATOM     16  C   UNL     1       1.425  -6.773  -1.216  1.00  0.00     0.049 A 
ATOM     17  N   UNL     1       4.282  -6.854  -0.223  1.00  0.00    -0.248 NA
ATOM     18  C   UNL     1       4.760  -6.472  -2.451  1.00  0.00     0.031 C 
ATOM     19  C   UNL     1       0.186  -6.477  -0.489  1.00  0.00     0.029 A 
ATOM     20  N   UNL     1       1.370  -8.136  -1.433  1.00  0.00    -0.354 N 
ATOM     21  C   UNL     1       5.628  -7.071  -0.402  1.00  0.00     0.074 A 
ATOM     22  C   UNL     1       5.877  -6.865  -1.812  1.00  0.00     0.031 C 
ATOM     23  C   UNL     1      -0.454  -7.634  -0.224  1.00  0.00     0.029 A 
ATOM     24  C   UNL     1       0.250  -8.734  -0.875  1.00  0.00     0.049 A 
ATOM     25  H   UNL     1       2.057  -8.633  -1.934  1.00  0.00     0.167 HD
ATOM     26  C   UNL     1       6.422  -7.411   0.646  1.00  0.00     0.037 A 
ATOM     27  C   UNL     1       0.075 -10.034  -0.526  1.00  0.00     0.037 A 
ATOM     28  C   UNL     1       5.782  -7.586   1.931  1.00  0.00     0.049 A 
ATOM     29  C   UNL     1       1.134 -10.296   0.501  1.00  0.00     0.074 A 
ATOM     30  C   UNL     1       6.013  -7.276   3.256  1.00  0.00     0.029 A 
ATOM     31  N   UNL     1       4.576  -8.228   1.912  1.00  0.00    -0.354 N 
ATOM     32  N   UNL     1       1.044  -9.966   1.764  1.00  0.00    -0.248 NA
ATOM     33  C   UNL     1       2.465 -10.759   0.081  1.00  0.00     0.031 C 
ATOM     34  C   UNL     1       4.925  -7.819   4.022  1.00  0.00     0.029 A 
ATOM     35  C   UNL     1       4.071  -8.481   3.155  1.00  0.00     0.049 A 
ATOM     36  H   UNL     1       4.115  -8.484   1.080  1.00  0.00     0.167 HD
ATOM     37  C   UNL     1       2.357  -9.928   2.208  1.00  0.00     0.074 A 
ATOM     38  C   UNL     1       3.165 -10.571   1.195  1.00  0.00     0.031 C 
ATOM     39  C   UNL     1       2.776  -9.110   3.213  1.00  0.00     0.037 A 
BRANCH  26  40
ATOM     40  C   UNL     1       7.831  -7.809   0.487  1.00  0.00     0.064 A 
ATOM     41  C   UNL     1       8.139  -9.178   0.527  1.00  0.00     0.173 A 
ATOM     42  C   UNL     1       8.882  -6.891   0.456  1.00  0.00     0.173 A 
ATOM     43  F   UNL     1       7.152 -10.088   0.545  1.00  0.00    -0.203 F 
ATOM     44  C   UNL     1       9.457  -9.615   0.573  1.00  0.00     0.198 A 
ATOM     45  C   UNL     1      10.204  -7.332   0.496  1.00  0.00     0.198 A 
ATOM     46  F   UNL     1       8.630  -5.575   0.420  1.00  0.00    -0.203 F 
ATOM     47  F   UNL     1       9.724 -10.926   0.640  1.00  0.00    -0.200 F 
ATOM     48  C   UNL     1      10.490  -8.691   0.567  1.00  0.00     0.200 A 
ATOM     49  F   UNL     1      11.207  -6.442   0.488  1.00  0.00    -0.200 F 
ATOM     50  F   UNL     1      11.761  -9.109   0.633  1.00  0.00    -0.200 F 
ENDBRANCH  26  40
BRANCH  27  51
ATOM     51  C   UNL     1      -0.278 -10.988  -1.624  1.00  0.00     0.064 A 
ATOM     52  C   UNL     1      -1.260 -10.625  -2.572  1.00  0.00     0.173 A 
ATOM     53  C   UNL     1       0.258 -12.278  -1.768  1.00  0.00     0.173 A 
ATOM     54  F   UNL     1      -1.921  -9.463  -2.452  1.00  0.00    -0.203 F 
ATOM     55  C   UNL     1      -1.596 -11.449  -3.648  1.00  0.00     0.198 A 
ATOM     56  C   UNL     1      -0.057 -13.091  -2.860  1.00  0.00     0.198 A 
ATOM     57  F   UNL     1       1.094 -12.787  -0.855  1.00  0.00    -0.203 F 
ATOM     58  F   UNL     1      -2.522 -11.051  -4.532  1.00  0.00    -0.200 F 
ATOM     59  C   UNL     1      -0.973 -12.672  -3.807  1.00  0.00     0.200 A 
ATOM     60  F   UNL     1       0.542 -14.284  -2.992  1.00  0.00    -0.200 F 
ATOM     61  F   UNL     1      -1.263 -13.450  -4.858  1.00  0.00    -0.200 F 
ENDBRANCH  27  51
BRANCH  39  62
ATOM     62  C   UNL     1       1.754  -8.732   4.213  1.00  0.00     0.064 A 
ATOM     63  C   UNL     1       1.203  -9.725   5.038  1.00  0.00     0.173 A 
ATOM     64  C   UNL     1       1.318  -7.414   4.379  1.00  0.00     0.173 A 
ATOM     65  F   UNL     1       1.616 -10.998   4.934  1.00  0.00    -0.203 F 
ATOM     66  C   UNL     1       0.245  -9.410   5.993  1.00  0.00     0.198 A 
ATOM     67  C   UNL     1       0.363  -7.101   5.343  1.00  0.00     0.198 A 
ATOM     68  F   UNL     1       1.811  -6.428   3.613  1.00  0.00    -0.203 F 
ATOM     69  F   UNL     1      -0.263 -10.374   6.774  1.00  0.00    -0.200 F 
ATOM     70  C   UNL     1      -0.172  -8.098   6.147  1.00  0.00     0.200 A 
ATOM     71  F   UNL     1      -0.033  -5.830   5.504  1.00  0.00    -0.200 F 
ATOM     72  F   UNL     1      -1.084  -7.791   7.081  1.00  0.00    -0.200 F 
ENDBRANCH  39  62
ENDBRANCH  13  14
ENDBRANCH   6   8
ENDBRANCH   3   4
ENDBRANCH   2   3
ENDBRANCH   1   2
BRANCH   1  73
ATOM     73  C   UNL     1       4.686   3.083   2.300  1.00  0.00     0.002 C 
BRANCH  73  74
ATOM     74  C   UNL     1       6.208   3.067   2.478  1.00  0.00     0.021 C 
BRANCH  74  75
ATOM     75  C   UNL     1       6.932   4.274   1.889  1.00  0.00     0.116 C 
BRANCH  75  76
ATOM     76  N   UNL     1       6.848   5.438   2.748  1.00  0.00    -0.351 N 
ATOM     77  C   UNL     1       7.865   6.283   3.071  1.00  0.00     0.278 C 
ATOM     78  H   UNL     1       5.965   5.638   3.136  1.00  0.00     0.163 HD
ATOM     79  O   UNL     1       7.649   7.485   2.867  1.00  0.00    -0.268 OA
BRANCH  77  80
ATOM     80  C   UNL     1       9.163   5.849   3.799  1.00  0.00     0.275 C 
ATOM     81  C   UNL     1       9.709   4.414   3.707  1.00  0.00     0.089 C 
ATOM     82  N   UNL     1       9.016   6.024   5.261  1.00  0.00    -0.320 N 
ATOM     83  C   UNL     1       9.898   3.932   5.168  1.00  0.00     0.036 C 
ATOM     84  C   UNL     1      10.075   5.264   5.899  1.00  0.00     0.270 C 
ATOM     85  H   UNL     1       8.107   5.645   5.528  1.00  0.00     0.349 HD
ATOM     86  C   UNL     1      11.113   3.010   5.350  1.00  0.00     0.074 C 
ATOM     87  C   UNL     1       8.629   3.191   5.682  1.00  0.00     0.074 C 
ATOM     88  C   UNL     1      10.872   1.616   4.769  1.00  0.00     0.261 C 
ATOM     89  C   UNL     1       8.496   1.779   5.114  1.00  0.00     0.261 C 
ATOM     90  N   UNL     1       9.693   0.979   5.358  1.00  0.00    -0.346 N 
ATOM     91  H   UNL     1       9.832   0.883   6.364  1.00  0.00     0.346 HD
ATOM     92  H   UNL     1       9.568   0.062   4.929  1.00  0.00     0.346 HD
BRANCH  82  93
ATOM     93  C   UNL     1       8.784   7.368   5.774  1.00  0.00     0.302 C 
BRANCH  93  94
ATOM     94  C   UNL     1       7.353   7.456   6.243  1.00  0.00     0.038 A 
ATOM     95  C   UNL     1       6.807   6.481   7.127  1.00  0.00     0.012 A 
ATOM     96  C   UNL     1       6.404   8.413   5.821  1.00  0.00     0.144 A 
ATOM     97  C   UNL     1       5.441   6.412   7.497  1.00  0.00     0.003 A 
ATOM     98  C   UNL     1       4.996   8.337   6.198  1.00  0.00     0.135 A 
ATOM     99  N   UNL     1       6.563   9.499   5.052  1.00  0.00    -0.049 NA
ATOM    100  C   UNL     1       4.484   7.325   7.031  1.00  0.00     0.034 A 
ATOM    101  N   UNL     1       4.345   9.351   5.616  1.00  0.00    -0.050 NA
ATOM    102  O   UNL     1       5.305  10.054   4.908  1.00  0.00    -0.243 OA
ENDBRANCH  93  94
ENDBRANCH  82  93
ENDBRANCH  77  80
ENDBRANCH  75  76
ENDBRANCH  74  75
ENDBRANCH  73  74
ENDBRANCH   1  73
TORSDOF 15
