REMARK SMILES O=C(NCCCCCCNC(=O)[C@H](CCO)NC(=O)c1cccc(C(F)(F)F)c1F)c1ccc(-c2c3nc(c(-c4c(F)c(F)c(F)c(F)c4F)c4ccc([nH]4)c(-c4c(F)c(F)c(F)c(F)c4F)c4nc(c(-c5c(F)c(F)c(F)c(F)c5F)c5ccc2[nH]5)C=C4)C=C3)cc1
REMARK SMILES IDX 7 1 6 2 5 3 4 4 3 5 1 6 2 7 31 9 32 10 93 11 33 12 92 13
REMARK SMILES IDX 34 14 35 15 36 16 86 17 37 18 91 19 85 20 87 21 38 22 90 23
REMARK SMILES IDX 84 24 83 25 39 27 71 28 51 29 70 30 52 31 55 32 69 33 88 34
REMARK SMILES IDX 53 35 54 36 68 38 89 39 56 40 40 41 41 42 49 43 42 44 43 45
REMARK SMILES IDX 47 46 50 47 44 48 45 49 48 50 46 51 72 52 73 53 81 54 74 55
REMARK SMILES IDX 75 56 79 57 82 58 76 59 77 60 80 61 78 62 57 63 58 64 66 65
REMARK SMILES IDX 59 66 60 67 64 68 67 69 61 70 62 71 65 72 63 73 8 74 9 75
REMARK SMILES IDX 10 76 11 77 12 79 13 80 17 81 18 82 19 84 20 85 21 86 29 87
REMARK SMILES IDX 22 88 24 89 30 90 23 91 25 92 26 93 27 94 28 95 14 96 15 97
REMARK SMILES IDX 16 98
REMARK H PARENT 3 8 87 26 55 37 10 78 17 83 16 99
REMARK Flexibility Score: inf
ROOT
ATOM      1  C   UNL     1       6.358   6.036  -3.149  1.00  0.00     0.002 C 
ENDROOT
BRANCH   1   2
ATOM      2  C   UNL     1       6.497   7.545  -2.929  1.00  0.00     0.002 C 
BRANCH   2   3
ATOM      3  C   UNL     1       5.502   8.406  -3.706  1.00  0.00     0.021 C 
BRANCH   3   4
ATOM      4  C   UNL     1       4.038   8.061  -3.466  1.00  0.00     0.116 C 
BRANCH   4   5
ATOM      5  N   UNL     1       3.575   8.480  -2.153  1.00  0.00    -0.352 N 
ATOM      6  O   UNL     1       2.315   9.675  -0.702  1.00  0.00    -0.269 OA
ATOM      7  C   UNL     1       2.485   9.260  -1.839  1.00  0.00     0.251 C 
ATOM      8  H   UNL     1       4.112   8.166  -1.389  1.00  0.00     0.163 HD
BRANCH   7   9
ATOM      9  C   UNL     1       1.522   9.609  -2.907  1.00  0.00     0.039 A 
ATOM     10  C   UNL     1       1.047   8.622  -3.773  1.00  0.00     0.014 A 
ATOM     11  C   UNL     1       1.098  10.934  -3.048  1.00  0.00     0.014 A 
ATOM     12  C   UNL     1       0.256   8.980  -4.856  1.00  0.00     0.010 A 
ATOM     13  C   UNL     1       0.231  11.278  -4.090  1.00  0.00     0.010 A 
ATOM     14  C   UNL     1      -0.180  10.308  -5.016  1.00  0.00    -0.014 A 
BRANCH  14  15
ATOM     15  C   UNL     1      -1.135  10.614  -6.111  1.00  0.00     0.031 A 
ATOM     16  C   UNL     1      -0.755  11.491  -7.269  1.00  0.00     0.074 A 
ATOM     17  C   UNL     1      -2.345  10.020  -6.076  1.00  0.00     0.049 A 
ATOM     18  N   UNL     1      -1.450  11.776  -8.343  1.00  0.00    -0.248 NA
ATOM     19  C   UNL     1       0.566  12.135  -7.223  1.00  0.00     0.031 C 
ATOM     20  C   UNL     1      -2.823   9.161  -4.990  1.00  0.00     0.029 A 
ATOM     21  N   UNL     1      -3.370  10.005  -6.986  1.00  0.00    -0.354 N 
ATOM     22  C   UNL     1      -0.661  12.639  -9.091  1.00  0.00     0.074 A 
ATOM     23  C   UNL     1       0.560  12.850  -8.342  1.00  0.00     0.031 C 
ATOM     24  C   UNL     1      -4.010   8.640  -5.331  1.00  0.00     0.029 A 
ATOM     25  C   UNL     1      -4.406   9.176  -6.628  1.00  0.00     0.049 A 
ATOM     26  H   UNL     1      -3.365  10.537  -7.814  1.00  0.00     0.167 HD
ATOM     27  C   UNL     1      -0.933  13.195 -10.296  1.00  0.00     0.037 A 
ATOM     28  C   UNL     1      -5.549   8.878  -7.271  1.00  0.00     0.037 A 
ATOM     29  C   UNL     1      -2.143  12.964 -11.044  1.00  0.00     0.049 A 
ATOM     30  C   UNL     1      -5.820   9.513  -8.603  1.00  0.00     0.074 A 
ATOM     31  C   UNL     1      -2.497  13.467 -12.285  1.00  0.00     0.029 A 
ATOM     32  N   UNL     1      -3.193  12.160 -10.626  1.00  0.00    -0.354 N 
ATOM     33  N   UNL     1      -5.057  10.316  -9.304  1.00  0.00    -0.248 NA
ATOM     34  C   UNL     1      -7.114   9.212  -9.228  1.00  0.00     0.031 C 
ATOM     35  C   UNL     1      -3.776  12.998 -12.600  1.00  0.00     0.029 A 
ATOM     36  C   UNL     1      -4.202  12.168 -11.576  1.00  0.00     0.049 A 
ATOM     37  H   UNL     1      -3.218  11.659  -9.779  1.00  0.00     0.167 HD
ATOM     38  C   UNL     1      -5.776  10.617 -10.451  1.00  0.00     0.074 A 
ATOM     39  C   UNL     1      -7.022   9.883 -10.368  1.00  0.00     0.031 C 
ATOM     40  C   UNL     1      -5.438  11.438 -11.474  1.00  0.00     0.037 A 
BRANCH  27  41
ATOM     41  C   UNL     1       0.087  14.113 -10.901  1.00  0.00     0.064 A 
ATOM     42  C   UNL     1      -0.161  15.492 -10.989  1.00  0.00     0.173 A 
ATOM     43  C   UNL     1       1.255  13.616 -11.496  1.00  0.00     0.173 A 
ATOM     44  F   UNL     1      -1.269  16.015 -10.443  1.00  0.00    -0.203 F 
ATOM     45  C   UNL     1       0.713  16.335 -11.670  1.00  0.00     0.198 A 
ATOM     46  C   UNL     1       2.138  14.466 -12.159  1.00  0.00     0.198 A 
ATOM     47  F   UNL     1       1.542  12.307 -11.432  1.00  0.00    -0.203 F 
ATOM     48  F   UNL     1       0.436  17.643 -11.775  1.00  0.00    -0.200 F 
ATOM     49  C   UNL     1       1.860  15.822 -12.255  1.00  0.00     0.200 A 
ATOM     50  F   UNL     1       3.255  13.972 -12.710  1.00  0.00    -0.200 F 
ATOM     51  F   UNL     1       2.698  16.634 -12.916  1.00  0.00    -0.200 F 
ENDBRANCH  27  41
BRANCH  28  52
ATOM     52  C   UNL     1      -6.508   7.923  -6.662  1.00  0.00     0.064 A 
ATOM     53  C   UNL     1      -7.211   8.242  -5.491  1.00  0.00     0.173 A 
ATOM     54  C   UNL     1      -6.718   6.657  -7.225  1.00  0.00     0.173 A 
ATOM     55  F   UNL     1      -7.041   9.439  -4.911  1.00  0.00    -0.203 F 
ATOM     56  C   UNL     1      -8.069   7.322  -4.893  1.00  0.00     0.198 A 
ATOM     57  C   UNL     1      -7.599   5.748  -6.643  1.00  0.00     0.198 A 
ATOM     58  F   UNL     1      -6.083   6.313  -8.356  1.00  0.00    -0.203 F 
ATOM     59  F   UNL     1      -8.697   7.638  -3.753  1.00  0.00    -0.200 F 
ATOM     60  C   UNL     1      -8.267   6.078  -5.473  1.00  0.00     0.200 A 
ATOM     61  F   UNL     1      -7.807   4.557  -7.219  1.00  0.00    -0.200 F 
ATOM     62  F   UNL     1      -9.103   5.199  -4.905  1.00  0.00    -0.200 F 
ENDBRANCH  28  52
BRANCH  40  63
ATOM     63  C   UNL     1      -6.433  11.587 -12.585  1.00  0.00     0.064 A 
ATOM     64  C   UNL     1      -6.189  11.018 -13.843  1.00  0.00     0.173 A 
ATOM     65  C   UNL     1      -7.609  12.332 -12.414  1.00  0.00     0.173 A 
ATOM     66  F   UNL     1      -5.075  10.302 -14.057  1.00  0.00    -0.203 F 
ATOM     67  C   UNL     1      -7.086  11.193 -14.892  1.00  0.00     0.198 A 
ATOM     68  C   UNL     1      -8.517  12.483 -13.458  1.00  0.00     0.198 A 
ATOM     69  F   UNL     1      -7.892  12.882 -11.223  1.00  0.00    -0.203 F 
ATOM     70  F   UNL     1      -6.824  10.659 -16.093  1.00  0.00    -0.200 F 
ATOM     71  C   UNL     1      -8.251  11.920 -14.697  1.00  0.00     0.200 A 
ATOM     72  F   UNL     1      -9.654  13.164 -13.261  1.00  0.00    -0.200 F 
ATOM     73  F   UNL     1      -9.123  12.073 -15.703  1.00  0.00    -0.200 F 
ENDBRANCH  40  63
ENDBRANCH  14  15
ENDBRANCH   7   9
ENDBRANCH   4   5
ENDBRANCH   3   4
ENDBRANCH   2   3
ENDBRANCH   1   2
BRANCH   1  74
ATOM     74  C   UNL     1       6.361   5.585  -4.617  1.00  0.00     0.021 C 
BRANCH  74  75
ATOM     75  C   UNL     1       7.704   5.767  -5.334  1.00  0.00     0.116 C 
BRANCH  75  76
ATOM     76  N   UNL     1       8.715   4.906  -4.754  1.00  0.00    -0.354 N 
ATOM     77  C   UNL     1       9.058   3.629  -5.085  1.00  0.00     0.242 C 
ATOM     78  H   UNL     1       9.229   5.301  -4.013  1.00  0.00     0.163 HD
ATOM     79  O   UNL     1       9.635   2.951  -4.228  1.00  0.00    -0.273 OA
BRANCH  77  80
ATOM     80  C   UNL     1       8.695   3.032  -6.464  1.00  0.00     0.173 C 
BRANCH  80  81
ATOM     81  N   UNL     1       9.517   1.827  -6.661  1.00  0.00    -0.340 N 
ATOM     82  C   UNL     1      10.501   1.523  -7.554  1.00  0.00     0.254 C 
ATOM     83  H   UNL     1       9.318   1.101  -6.026  1.00  0.00     0.164 HD
ATOM     84  O   UNL     1      10.966   0.386  -7.583  1.00  0.00    -0.269 OA
BRANCH  82  85
ATOM     85  C   UNL     1      11.003   2.510  -8.520  1.00  0.00     0.076 A 
ATOM     86  C   UNL     1      11.079   2.137  -9.867  1.00  0.00     0.017 A 
ATOM     87  C   UNL     1      11.535   3.729  -8.102  1.00  0.00     0.148 A 
ATOM     88  C   UNL     1      11.652   3.004 -10.795  1.00  0.00     0.002 A 
ATOM     89  C   UNL     1      12.103   4.612  -9.021  1.00  0.00     0.092 A 
ATOM     90  F   UNL     1      11.523   4.052  -6.802  1.00  0.00    -0.205 F 
ATOM     91  C   UNL     1      12.160   4.235 -10.375  1.00  0.00     0.016 A 
BRANCH  89  92
ATOM     92  C   UNL     1      12.690   5.918  -8.575  1.00  0.00     0.419 C 
ATOM     93  F   UNL     1      14.052   5.903  -8.583  1.00  0.00    -0.166 F 
ATOM     94  F   UNL     1      12.329   6.944  -9.399  1.00  0.00    -0.166 F 
ATOM     95  F   UNL     1      12.322   6.314  -7.327  1.00  0.00    -0.166 F 
ENDBRANCH  89  92
ENDBRANCH  82  85
ENDBRANCH  80  81
BRANCH  80  96
ATOM     96  C   UNL     1       7.215   2.663  -6.630  1.00  0.00     0.063 C 
BRANCH  96  97
ATOM     97  C   UNL     1       6.673   1.641  -5.631  1.00  0.00     0.158 C 
BRANCH  97  98
ATOM     98  O   UNL     1       6.756   2.104  -4.294  1.00  0.00    -0.396 OA
ATOM     99  H   UNL     1       7.685   2.262  -4.063  1.00  0.00     0.210 HD
ENDBRANCH  97  98
ENDBRANCH  96  97
ENDBRANCH  80  96
ENDBRANCH  77  80
ENDBRANCH  75  76
ENDBRANCH  74  75
ENDBRANCH   1  74
TORSDOF 19
