REMARK SMILES O=C(NCCCCCCNC(=O)[C@H](CO)NC(=O)[C@H](CS)NC(=O)c1ccc(F)cc1)c1ccc(-c2c3nc(c(-c4c(F)c(F)c(F)c(F)c4F)c4ccc([nH]4)c(-c4c(F)c(F)c(F)c(F)c4F)c4nc(c(-c5c(F)c(F)c(F)c(F)c5F)c5ccc2[nH]5)C=C4)C=C3)cc1
REMARK SMILES IDX 7 1 6 2 5 3 4 4 3 5 1 6 2 7 32 9 33 10 94 11 34 12 93 13
REMARK SMILES IDX 35 14 36 15 37 16 87 17 38 18 92 19 86 20 88 21 39 22 91 23
REMARK SMILES IDX 85 24 84 25 40 27 72 28 52 29 71 30 53 31 56 32 70 33 89 34
REMARK SMILES IDX 54 35 55 36 69 38 90 39 57 40 41 41 42 42 50 43 43 44 44 45
REMARK SMILES IDX 48 46 51 47 45 48 46 49 49 50 47 51 73 52 74 53 82 54 75 55
REMARK SMILES IDX 76 56 80 57 83 58 77 59 78 60 81 61 79 62 58 63 59 64 67 65
REMARK SMILES IDX 60 66 61 67 65 68 68 69 62 70 63 71 66 72 64 73 8 74 9 75
REMARK SMILES IDX 10 76 11 77 12 79 13 80 16 81 17 82 18 84 19 85 22 86 23 87
REMARK SMILES IDX 24 89 25 90 26 91 31 92 27 93 30 94 28 95 29 96 20 97 21 98
REMARK SMILES IDX 14 100 15 101
REMARK H PARENT 3 8 88 26 56 37 10 78 16 83 22 88 21 99 15 102
REMARK Flexibility Score: inf
ROOT
ATOM      1  C   UNL     1       6.852   1.613  -4.177  1.00  0.00     0.002 C 
ENDROOT
BRANCH   1   2
ATOM      2  C   UNL     1       5.907   0.842  -5.109  1.00  0.00     0.002 C 
BRANCH   2   3
ATOM      3  C   UNL     1       6.589  -0.048  -6.152  1.00  0.00     0.021 C 
BRANCH   3   4
ATOM      4  C   UNL     1       7.493  -1.129  -5.572  1.00  0.00     0.116 C 
BRANCH   4   5
ATOM      5  N   UNL     1       6.743  -2.124  -4.823  1.00  0.00    -0.352 N 
ATOM      6  O   UNL     1       5.807  -4.132  -4.411  1.00  0.00    -0.269 OA
ATOM      7  C   UNL     1       6.648  -3.479  -5.020  1.00  0.00     0.251 C 
ATOM      8  H   UNL     1       6.227  -1.774  -4.061  1.00  0.00     0.163 HD
BRANCH   7   9
ATOM      9  C   UNL     1       7.554  -4.156  -5.975  1.00  0.00     0.039 A 
ATOM     10  C   UNL     1       8.913  -3.840  -6.014  1.00  0.00     0.014 A 
ATOM     11  C   UNL     1       7.044  -5.155  -6.811  1.00  0.00     0.014 A 
ATOM     12  C   UNL     1       9.733  -4.430  -6.968  1.00  0.00     0.010 A 
ATOM     13  C   UNL     1       7.889  -5.809  -7.715  1.00  0.00     0.010 A 
ATOM     14  C   UNL     1       9.237  -5.438  -7.812  1.00  0.00    -0.014 A 
BRANCH  14  15
ATOM     15  C   UNL     1      10.186  -6.140  -8.713  1.00  0.00     0.031 A 
ATOM     16  C   UNL     1      10.100  -6.004 -10.206  1.00  0.00     0.074 A 
ATOM     17  C   UNL     1      11.183  -6.853  -8.152  1.00  0.00     0.049 A 
ATOM     18  N   UNL     1      10.912  -6.474 -11.120  1.00  0.00    -0.248 NA
ATOM     19  C   UNL     1       8.960  -5.251 -10.749  1.00  0.00     0.031 C 
ATOM     20  C   UNL     1      11.350  -7.066  -6.712  1.00  0.00     0.029 A 
ATOM     21  N   UNL     1      12.262  -7.489  -8.709  1.00  0.00    -0.354 N 
ATOM     22  C   UNL     1      10.380  -6.085 -12.341  1.00  0.00     0.074 A 
ATOM     23  C   UNL     1       9.161  -5.357 -12.057  1.00  0.00     0.031 C 
ATOM     24  C   UNL     1      12.504  -7.712  -6.495  1.00  0.00     0.029 A 
ATOM     25  C   UNL     1      13.128  -8.011  -7.778  1.00  0.00     0.049 A 
ATOM     26  H   UNL     1      12.402  -7.565  -9.680  1.00  0.00     0.167 HD
ATOM     27  C   UNL     1      10.875  -6.308 -13.582  1.00  0.00     0.037 A 
ATOM     28  C   UNL     1      14.298  -8.655  -7.939  1.00  0.00     0.037 A 
ATOM     29  C   UNL     1      12.100  -7.015 -13.856  1.00  0.00     0.049 A 
ATOM     30  C   UNL     1      14.816  -8.887  -9.328  1.00  0.00     0.074 A 
ATOM     31  C   UNL     1      12.691  -7.271 -15.081  1.00  0.00     0.029 A 
ATOM     32  N   UNL     1      12.923  -7.577 -12.891  1.00  0.00    -0.354 N 
ATOM     33  N   UNL     1      14.310  -8.498 -10.472  1.00  0.00    -0.248 NA
ATOM     34  C   UNL     1      16.061  -9.658  -9.450  1.00  0.00     0.031 C 
ATOM     35  C   UNL     1      13.853  -8.017 -14.861  1.00  0.00     0.029 A 
ATOM     36  C   UNL     1      14.007  -8.192 -13.496  1.00  0.00     0.049 A 
ATOM     37  H   UNL     1      12.760  -7.543 -11.920  1.00  0.00     0.167 HD
ATOM     38  C   UNL     1      15.169  -8.976 -11.449  1.00  0.00     0.074 A 
ATOM     39  C   UNL     1      16.249  -9.654 -10.762  1.00  0.00     0.031 C 
ATOM     40  C   UNL     1      15.066  -8.873 -12.796  1.00  0.00     0.037 A 
BRANCH  27  41
ATOM     41  C   UNL     1      10.104  -5.784 -14.757  1.00  0.00     0.064 A 
ATOM     42  C   UNL     1       9.430  -6.666 -15.615  1.00  0.00     0.173 A 
ATOM     43  C   UNL     1      10.125  -4.423 -15.095  1.00  0.00     0.173 A 
ATOM     44  F   UNL     1       9.387  -7.978 -15.338  1.00  0.00    -0.203 F 
ATOM     45  C   UNL     1       8.824  -6.207 -16.782  1.00  0.00     0.198 A 
ATOM     46  C   UNL     1       9.500  -3.965 -16.253  1.00  0.00     0.198 A 
ATOM     47  F   UNL     1      10.748  -3.540 -14.301  1.00  0.00    -0.203 F 
ATOM     48  F   UNL     1       8.217  -7.072 -17.606  1.00  0.00    -0.200 F 
ATOM     49  C   UNL     1       8.861  -4.858 -17.100  1.00  0.00     0.200 A 
ATOM     50  F   UNL     1       9.523  -2.659 -16.552  1.00  0.00    -0.200 F 
ATOM     51  F   UNL     1       8.281  -4.418 -18.226  1.00  0.00    -0.200 F 
ENDBRANCH  27  41
BRANCH  28  52
ATOM     52  C   UNL     1      15.059  -9.109  -6.747  1.00  0.00     0.064 A 
ATOM     53  C   UNL     1      14.576 -10.135  -5.922  1.00  0.00     0.173 A 
ATOM     54  C   UNL     1      16.273  -8.504  -6.396  1.00  0.00     0.173 A 
ATOM     55  F   UNL     1      13.417 -10.742  -6.214  1.00  0.00    -0.203 F 
ATOM     56  C   UNL     1      15.268 -10.524  -4.778  1.00  0.00     0.198 A 
ATOM     57  C   UNL     1      16.979  -8.914  -5.267  1.00  0.00     0.198 A 
ATOM     58  F   UNL     1      16.785  -7.532  -7.165  1.00  0.00    -0.203 F 
ATOM     59  F   UNL     1      14.766 -11.481  -3.987  1.00  0.00    -0.200 F 
ATOM     60  C   UNL     1      16.472  -9.917  -4.454  1.00  0.00     0.200 A 
ATOM     61  F   UNL     1      18.154  -8.342  -4.970  1.00  0.00    -0.200 F 
ATOM     62  F   UNL     1      17.145 -10.301  -3.361  1.00  0.00    -0.200 F 
ENDBRANCH  28  52
BRANCH  40  63
ATOM     63  C   UNL     1      16.144  -9.517 -13.614  1.00  0.00     0.064 A 
ATOM     64  C   UNL     1      17.090  -8.736 -14.292  1.00  0.00     0.173 A 
ATOM     65  C   UNL     1      16.211 -10.910 -13.758  1.00  0.00     0.173 A 
ATOM     66  F   UNL     1      17.062  -7.398 -14.190  1.00  0.00    -0.203 F 
ATOM     67  C   UNL     1      18.065  -9.328 -15.090  1.00  0.00     0.198 A 
ATOM     68  C   UNL     1      17.202 -11.500 -14.537  1.00  0.00     0.198 A 
ATOM     69  F   UNL     1      15.335 -11.698 -13.116  1.00  0.00    -0.203 F 
ATOM     70  F   UNL     1      18.948  -8.562 -15.746  1.00  0.00    -0.200 F 
ATOM     71  C   UNL     1      18.123 -10.709 -15.207  1.00  0.00     0.200 A 
ATOM     72  F   UNL     1      17.273 -12.835 -14.629  1.00  0.00    -0.200 F 
ATOM     73  F   UNL     1      19.073 -11.278 -15.962  1.00  0.00    -0.200 F 
ENDBRANCH  40  63
ENDBRANCH  14  15
ENDBRANCH   7   9
ENDBRANCH   4   5
ENDBRANCH   3   4
ENDBRANCH   2   3
ENDBRANCH   1   2
BRANCH   1  74
ATOM     74  C   UNL     1       7.973   2.384  -4.878  1.00  0.00     0.021 C 
BRANCH  74  75
ATOM     75  C   UNL     1       7.476   3.423  -5.881  1.00  0.00     0.116 C 
BRANCH  75  76
ATOM     76  N   UNL     1       7.143   4.677  -5.240  1.00  0.00    -0.354 N 
ATOM     77  C   UNL     1       7.861   5.839  -5.172  1.00  0.00     0.244 C 
ATOM     78  H   UNL     1       6.269   4.697  -4.786  1.00  0.00     0.163 HD
ATOM     79  O   UNL     1       7.416   6.738  -4.455  1.00  0.00    -0.273 OA
BRANCH  77  80
ATOM     80  C   UNL     1       9.231   5.954  -5.878  1.00  0.00     0.197 C 
BRANCH  80  81
ATOM     81  N   UNL     1       9.118   5.665  -7.318  1.00  0.00    -0.340 N 
ATOM     82  C   UNL     1       9.919   4.978  -8.178  1.00  0.00     0.244 C 
ATOM     83  H   UNL     1       8.310   6.039  -7.737  1.00  0.00     0.164 HD
ATOM     84  O   UNL     1       9.462   4.790  -9.313  1.00  0.00    -0.273 OA
BRANCH  82  85
ATOM     85  C   UNL     1      11.227   4.266  -7.763  1.00  0.00     0.181 C 
BRANCH  85  86
ATOM     86  N   UNL     1      12.138   5.140  -7.025  1.00  0.00    -0.339 N 
ATOM     87  C   UNL     1      13.487   5.321  -7.155  1.00  0.00     0.251 C 
ATOM     88  H   UNL     1      11.712   5.684  -6.323  1.00  0.00     0.164 HD
ATOM     89  O   UNL     1      14.109   6.024  -6.363  1.00  0.00    -0.269 OA
BRANCH  87  90
ATOM     90  C   UNL     1      14.200   4.676  -8.269  1.00  0.00     0.040 A 
ATOM     91  C   UNL     1      13.840   4.956  -9.594  1.00  0.00     0.017 A 
ATOM     92  C   UNL     1      15.245   3.793  -7.982  1.00  0.00     0.017 A 
ATOM     93  C   UNL     1      14.476   4.284 -10.634  1.00  0.00     0.040 A 
ATOM     94  C   UNL     1      15.884   3.131  -9.028  1.00  0.00     0.040 A 
ATOM     95  C   UNL     1      15.485   3.371 -10.341  1.00  0.00     0.123 A 
ATOM     96  F   UNL     1      16.083   2.711 -11.341  1.00  0.00    -0.207 F 
ENDBRANCH  87  90
ENDBRANCH  85  86
BRANCH  85  97
ATOM     97  C   UNL     1      10.895   2.963  -7.021  1.00  0.00     0.101 C 
BRANCH  97  98
ATOM     98  S   UNL     1      12.275   1.775  -6.910  1.00  0.00    -0.177 SA
ATOM     99  H   UNL     1      12.632   1.378  -8.161  1.00  0.00     0.102 HD
ENDBRANCH  97  98
ENDBRANCH  85  97
ENDBRANCH  82  85
ENDBRANCH  80  81
BRANCH  80 100
ATOM    100  C   UNL     1       9.796   7.367  -5.649  1.00  0.00     0.191 C 
BRANCH 100 101
ATOM    101  O   UNL     1      11.099   7.452  -6.220  1.00  0.00    -0.394 OA
ATOM    102  H   UNL     1      11.680   6.798  -5.800  1.00  0.00     0.210 HD
ENDBRANCH 100 101
ENDBRANCH  80 100
ENDBRANCH  77  80
ENDBRANCH  75  76
ENDBRANCH  74  75
ENDBRANCH   1  74
TORSDOF 21
