REMARK SMILES O=C(Cc1ccc(S(=O)(=O)N2CCNC(=O)C2)cc1)NCCCCCCNC(=O)c1ccc(-c2c3nc(c(-c4c(F)c(F)c(F)c(F)c4F)c4ccc([nH]4)c(-c4c(F)c(F)c(F)c(F)c4F)c4nc(c(-c5c(F)c(F)c(F)c(F)c5F)c5ccc2[nH]5)C=C4)C=C3)cc1
REMARK SMILES IDX 23 1 22 2 21 3 20 4 1 5 2 6 3 8 4 9 5 10 19 11 6 12 18 13
REMARK SMILES IDX 7 14 8 15 9 16 10 17 11 18 12 19 17 20 13 21 15 22 14 23
REMARK SMILES IDX 16 24 24 26 25 27 26 28 27 29 28 30 29 32 30 33 31 34 92 35
REMARK SMILES IDX 32 36 91 37 33 38 34 39 35 40 85 41 36 42 90 43 84 44 86 45
REMARK SMILES IDX 37 46 89 47 83 48 82 49 38 51 70 52 50 53 69 54 51 55 54 56
REMARK SMILES IDX 68 57 87 58 52 59 53 60 67 62 88 63 55 64 39 65 40 66 48 67
REMARK SMILES IDX 41 68 42 69 46 70 49 71 43 72 44 73 47 74 45 75 71 76 72 77
REMARK SMILES IDX 80 78 73 79 74 80 78 81 81 82 75 83 76 84 79 85 77 86 56 87
REMARK SMILES IDX 57 88 65 89 58 90 59 91 63 92 66 93 60 94 61 95 64 96 62 97
REMARK H PARENT 20 7 14 25 27 31 86 50 54 61
REMARK Flexibility Score: inf
ROOT
ATOM      1  C   UNL     1       4.146   3.778  -0.097  1.00  0.00     0.002 C 
ENDROOT
BRANCH   1   2
ATOM      2  C   UNL     1       2.640   3.547   0.102  1.00  0.00     0.021 C 
BRANCH   2   3
ATOM      3  C   UNL     1       2.082   2.300  -0.583  1.00  0.00     0.116 C 
BRANCH   3   4
ATOM      4  N   UNL     1       2.631   1.090  -0.005  1.00  0.00    -0.356 N 
ATOM      5  O   UNL     1       0.856  -0.277  -0.509  1.00  0.00    -0.275 OA
ATOM      6  C   UNL     1       1.987  -0.130  -0.058  1.00  0.00     0.224 C 
ATOM      7  H   UNL     1       3.505   1.141   0.446  1.00  0.00     0.163 HD
BRANCH   6   8
ATOM      8  C   UNL     1       2.822  -1.290   0.476  1.00  0.00     0.135 C 
BRANCH   8   9
ATOM      9  C   UNL     1       3.784  -1.825  -0.561  1.00  0.00    -0.039 A 
ATOM     10  C   UNL     1       3.612  -3.089  -1.142  1.00  0.00     0.005 A 
ATOM     11  C   UNL     1       4.864  -1.042  -0.975  1.00  0.00     0.005 A 
ATOM     12  C   UNL     1       4.467  -3.524  -2.165  1.00  0.00     0.022 A 
ATOM     13  C   UNL     1       5.715  -1.478  -1.983  1.00  0.00     0.022 A 
ATOM     14  C   UNL     1       5.508  -2.699  -2.608  1.00  0.00     0.082 A 
BRANCH  14  15
ATOM     15  S   UNL     1       6.526  -3.255  -3.960  1.00  0.00     0.243 S 
ATOM     16  O   UNL     1       7.532  -4.112  -3.378  1.00  0.00    -0.207 OA
ATOM     17  O   UNL     1       5.613  -3.743  -4.976  1.00  0.00    -0.207 OA
BRANCH  15  18
ATOM     18  N   UNL     1       7.308  -1.917  -4.611  1.00  0.00    -0.187 NA
ATOM     19  C   UNL     1       6.666  -1.049  -5.614  1.00  0.00     0.124 C 
ATOM     20  C   UNL     1       8.461  -1.304  -3.920  1.00  0.00     0.202 C 
ATOM     21  C   UNL     1       6.222   0.263  -4.976  1.00  0.00     0.132 C 
ATOM     22  C   UNL     1       8.281   0.173  -3.562  1.00  0.00     0.235 C 
ATOM     23  N   UNL     1       7.253   0.868  -4.150  1.00  0.00    -0.354 N 
ATOM     24  O   UNL     1       9.014   0.751  -2.761  1.00  0.00    -0.274 OA
ATOM     25  H   UNL     1       7.212   1.840  -4.003  1.00  0.00     0.163 HD
ENDBRANCH  15  18
ENDBRANCH  14  15
ENDBRANCH   8   9
ENDBRANCH   6   8
ENDBRANCH   3   4
ENDBRANCH   2   3
ENDBRANCH   1   2
BRANCH   1  26
ATOM     26  C   UNL     1       4.585   4.078  -1.534  1.00  0.00     0.002 C 
BRANCH  26  27
ATOM     27  C   UNL     1       3.933   5.304  -2.175  1.00  0.00     0.021 C 
BRANCH  27  28
ATOM     28  C   UNL     1       4.102   6.609  -1.401  1.00  0.00     0.116 C 
BRANCH  28  29
ATOM     29  N   UNL     1       5.491   7.035  -1.316  1.00  0.00    -0.352 N 
ATOM     30  C   UNL     1       6.055   8.246  -1.637  1.00  0.00     0.251 C 
ATOM     31  H   UNL     1       6.119   6.356  -0.979  1.00  0.00     0.163 HD
ATOM     32  O   UNL     1       7.276   8.372  -1.657  1.00  0.00    -0.269 OA
BRANCH  30  33
ATOM     33  C   UNL     1       5.194   9.396  -1.993  1.00  0.00     0.039 A 
ATOM     34  C   UNL     1       5.538  10.177  -3.099  1.00  0.00     0.014 A 
ATOM     35  C   UNL     1       4.051   9.701  -1.249  1.00  0.00     0.014 A 
ATOM     36  C   UNL     1       4.695  11.214  -3.505  1.00  0.00     0.010 A 
ATOM     37  C   UNL     1       3.172  10.683  -1.700  1.00  0.00     0.010 A 
ATOM     38  C   UNL     1       3.481  11.445  -2.836  1.00  0.00    -0.014 A 
BRANCH  38  39
ATOM     39  C   UNL     1       2.511  12.454  -3.337  1.00  0.00     0.031 A 
ATOM     40  C   UNL     1       2.139  13.643  -2.498  1.00  0.00     0.074 A 
ATOM     41  C   UNL     1       1.911  12.259  -4.527  1.00  0.00     0.049 A 
ATOM     42  N   UNL     1       1.275  14.595  -2.747  1.00  0.00    -0.248 NA
ATOM     43  C   UNL     1       2.808  13.765  -1.195  1.00  0.00     0.031 C 
ATOM     44  C   UNL     1       2.143  11.116  -5.410  1.00  0.00     0.029 A 
ATOM     45  N   UNL     1       0.973  13.008  -5.193  1.00  0.00    -0.354 N 
ATOM     46  C   UNL     1       1.294  15.424  -1.633  1.00  0.00     0.074 A 
ATOM     47  C   UNL     1       2.205  14.826  -0.680  1.00  0.00     0.031 C 
ATOM     48  C   UNL     1       1.385  11.248  -6.509  1.00  0.00     0.029 A 
ATOM     49  C   UNL     1       0.580  12.460  -6.389  1.00  0.00     0.049 A 
ATOM     50  H   UNL     1       0.616  13.858  -4.846  1.00  0.00     0.167 HD
ATOM     51  C   UNL     1       0.631  16.590  -1.433  1.00  0.00     0.037 A 
ATOM     52  C   UNL     1      -0.338  12.875  -7.283  1.00  0.00     0.037 A 
ATOM     53  C   UNL     1      -0.278  17.177  -2.384  1.00  0.00     0.049 A 
ATOM     54  C   UNL     1      -1.084  14.155  -7.029  1.00  0.00     0.074 A 
ATOM     55  C   UNL     1      -0.957  18.380  -2.300  1.00  0.00     0.029 A 
ATOM     56  N   UNL     1      -0.649  16.595  -3.589  1.00  0.00    -0.354 N 
ATOM     57  N   UNL     1      -0.998  14.974  -6.009  1.00  0.00    -0.248 NA
ATOM     58  C   UNL     1      -2.050  14.573  -8.055  1.00  0.00     0.031 C 
ATOM     59  C   UNL     1      -1.788  18.494  -3.421  1.00  0.00     0.029 A 
ATOM     60  C   UNL     1      -1.577  17.395  -4.239  1.00  0.00     0.049 A 
ATOM     61  H   UNL     1      -0.304  15.738  -3.931  1.00  0.00     0.167 HD
ATOM     62  C   UNL     1      -1.883  16.011  -6.275  1.00  0.00     0.074 A 
ATOM     63  C   UNL     1      -2.478  15.728  -7.565  1.00  0.00     0.031 C 
ATOM     64  C   UNL     1      -2.175  17.097  -5.517  1.00  0.00     0.037 A 
BRANCH  51  65
ATOM     65  C   UNL     1       0.861  17.297  -0.125  1.00  0.00     0.064 A 
ATOM     66  C   UNL     1       2.108  17.850   0.207  1.00  0.00     0.173 A 
ATOM     67  C   UNL     1      -0.179  17.429   0.807  1.00  0.00     0.173 A 
ATOM     68  F   UNL     1       3.141  17.747  -0.643  1.00  0.00    -0.203 F 
ATOM     69  C   UNL     1       2.318  18.462   1.440  1.00  0.00     0.198 A 
ATOM     70  C   UNL     1       0.023  18.077   2.023  1.00  0.00     0.198 A 
ATOM     71  F   UNL     1      -1.396  16.930   0.541  1.00  0.00    -0.203 F 
ATOM     72  F   UNL     1       3.537  18.916   1.762  1.00  0.00    -0.200 F 
ATOM     73  C   UNL     1       1.275  18.580   2.345  1.00  0.00     0.200 A 
ATOM     74  F   UNL     1      -0.991  18.205   2.890  1.00  0.00    -0.200 F 
ATOM     75  F   UNL     1       1.478  19.167   3.532  1.00  0.00    -0.200 F 
ENDBRANCH  51  65
BRANCH  52  76
ATOM     76  C   UNL     1      -0.586  12.066  -8.505  1.00  0.00     0.064 A 
ATOM     77  C   UNL     1      -0.199  12.527  -9.771  1.00  0.00     0.173 A 
ATOM     78  C   UNL     1      -1.190  10.802  -8.428  1.00  0.00     0.173 A 
ATOM     79  F   UNL     1       0.364  13.738  -9.899  1.00  0.00    -0.203 F 
ATOM     80  C   UNL     1      -0.415  11.760 -10.914  1.00  0.00     0.198 A 
ATOM     81  C   UNL     1      -1.376  10.022  -9.567  1.00  0.00     0.198 A 
ATOM     82  F   UNL     1      -1.572  10.311  -7.240  1.00  0.00    -0.203 F 
ATOM     83  F   UNL     1      -0.068  12.239 -12.116  1.00  0.00    -0.200 F 
ATOM     84  C   UNL     1      -0.995  10.504 -10.810  1.00  0.00     0.200 A 
ATOM     85  F   UNL     1      -1.918   8.801  -9.459  1.00  0.00    -0.200 F 
ATOM     86  F   UNL     1      -1.186   9.759 -11.907  1.00  0.00    -0.200 F 
ENDBRANCH  52  76
BRANCH  64  87
ATOM     87  C   UNL     1      -3.176  18.073  -6.070  1.00  0.00     0.064 A 
ATOM     88  C   UNL     1      -4.537  17.752  -6.180  1.00  0.00     0.173 A 
ATOM     89  C   UNL     1      -2.774  19.360  -6.463  1.00  0.00     0.173 A 
ATOM     90  F   UNL     1      -4.973  16.531  -5.834  1.00  0.00    -0.203 F 
ATOM     91  C   UNL     1      -5.453  18.671  -6.688  1.00  0.00     0.198 A 
ATOM     92  C   UNL     1      -3.698  20.288  -6.936  1.00  0.00     0.198 A 
ATOM     93  F   UNL     1      -1.486  19.723  -6.374  1.00  0.00    -0.203 F 
ATOM     94  F   UNL     1      -6.739  18.322  -6.833  1.00  0.00    -0.200 F 
ATOM     95  C   UNL     1      -5.034  19.940  -7.057  1.00  0.00     0.200 A 
ATOM     96  F   UNL     1      -3.293  21.520  -7.276  1.00  0.00    -0.200 F 
ATOM     97  F   UNL     1      -5.918  20.826  -7.536  1.00  0.00    -0.200 F 
ENDBRANCH  64  87
ENDBRANCH  38  39
ENDBRANCH  30  33
ENDBRANCH  28  29
ENDBRANCH  27  28
ENDBRANCH  26  27
ENDBRANCH   1  26
TORSDOF 16
