REMARK SMILES COc1ccc(C(=O)NCCCCCCNC(=O)c2ccc(-c3c4nc(c(-c5c(F)c(F)c(F)c(F)c5F)c5ccc([nH]5)c(-c5c(F)c(F)c(F)c(F)c5F)c5nc(c(-c6c(F)c(F)c(F)c(F)c6F)c6ccc3[nH]6)C=C5)C=C4)cc2)cc1NCc1cc(C#N)cs1
REMARK SMILES IDX 11 1 10 2 9 3 7 4 8 5 6 7 3 8 4 9 83 10 5 11 82 12 2 13 1 14
REMARK SMILES IDX 84 15 85 17 86 18 87 19 92 20 88 21 91 22 89 23 90 24 12 25
REMARK SMILES IDX 13 26 14 27 15 28 16 29 17 30 18 32 19 33 20 34 81 35 21 36
REMARK SMILES IDX 80 37 22 38 23 39 24 40 74 41 25 42 79 43 73 44 75 45 26 46
REMARK SMILES IDX 78 47 72 48 71 49 27 51 59 52 39 53 58 54 40 55 43 56 57 57
REMARK SMILES IDX 76 58 41 59 42 60 56 62 77 63 44 64 28 65 29 66 37 67 30 68
REMARK SMILES IDX 31 69 35 70 38 71 32 72 33 73 36 74 34 75 60 76 61 77 69 78
REMARK SMILES IDX 62 79 63 80 67 81 70 82 64 83 65 84 68 85 66 86 45 87 46 88
REMARK SMILES IDX 54 89 47 90 48 91 52 92 55 93 49 94 50 95 53 96 51 97
REMARK H PARENT 9 6 84 16 16 31 75 50 43 61
REMARK Flexibility Score: inf
ROOT
ATOM      1  C   UNL     1       5.452  -1.503   5.874  1.00  0.00     0.021 C 
ENDROOT
BRANCH   1   2
ATOM      2  C   UNL     1       4.277  -2.430   5.554  1.00  0.00     0.116 C 
BRANCH   2   3
ATOM      3  N   UNL     1       3.140  -2.073   6.379  1.00  0.00    -0.352 N 
ATOM      4  C   UNL     1       1.997  -1.361   6.123  1.00  0.00     0.251 C 
ATOM      5  O   UNL     1       1.215  -1.188   7.058  1.00  0.00    -0.269 OA
ATOM      6  H   UNL     1       3.201  -2.408   7.303  1.00  0.00     0.163 HD
BRANCH   4   7
ATOM      7  C   UNL     1       1.637  -0.864   4.766  1.00  0.00     0.042 A 
ATOM      8  C   UNL     1       0.845  -0.075   2.187  1.00  0.00     0.142 A 
ATOM      9  C   UNL     1      -0.095  -0.232   3.223  1.00  0.00     0.049 A 
ATOM     10  C   UNL     1       2.213  -0.325   2.424  1.00  0.00     0.078 A 
ATOM     11  C   UNL     1       0.288  -0.668   4.488  1.00  0.00     0.018 A 
ATOM     12  C   UNL     1       2.567  -0.582   3.761  1.00  0.00     0.043 A 
BRANCH   8  13
ATOM     13  O   UNL     1       0.262   0.444   1.059  1.00  0.00    -0.495 OA
ATOM     14  C   UNL     1       0.675  -0.026  -0.210  1.00  0.00     0.278 C 
ENDBRANCH   8  13
BRANCH  10  15
ATOM     15  N   UNL     1       3.200  -0.260   1.449  1.00  0.00    -0.377 N 
ATOM     16  H   UNL     1       2.993   0.247   0.631  1.00  0.00     0.161 HD
BRANCH  15  17
ATOM     17  C   UNL     1       4.520  -0.880   1.533  1.00  0.00     0.160 C 
BRANCH  17  18
ATOM     18  C   UNL     1       4.656  -2.175   0.773  1.00  0.00     0.025 A 
ATOM     19  C   UNL     1       5.106  -2.361  -0.522  1.00  0.00     0.036 A 
ATOM     20  S   UNL     1       4.260  -3.671   1.513  1.00  0.00    -0.146 S 
ATOM     21  C   UNL     1       5.107  -3.735  -0.910  1.00  0.00     0.063 A 
ATOM     22  C   UNL     1       4.673  -4.556   0.105  1.00  0.00     0.084 A 
BRANCH  21  23
ATOM     23  C   UNL     1       5.506  -4.224  -2.199  1.00  0.00     0.100 C 
ATOM     24  N   UNL     1       5.825  -4.609  -3.243  1.00  0.00    -0.192 NA
ENDBRANCH  21  23
ENDBRANCH  17  18
ENDBRANCH  15  17
ENDBRANCH  10  15
ENDBRANCH   4   7
ENDBRANCH   2   3
ENDBRANCH   1   2
BRANCH   1  25
ATOM     25  C   UNL     1       6.229  -1.964   7.113  1.00  0.00     0.002 C 
BRANCH  25  26
ATOM     26  C   UNL     1       6.875  -3.347   6.962  1.00  0.00     0.002 C 
BRANCH  26  27
ATOM     27  C   UNL     1       7.819  -3.473   5.765  1.00  0.00     0.021 C 
BRANCH  27  28
ATOM     28  C   UNL     1       9.018  -2.537   5.843  1.00  0.00     0.116 C 
BRANCH  28  29
ATOM     29  N   UNL     1       9.853  -2.847   6.994  1.00  0.00    -0.352 N 
ATOM     30  C   UNL     1      11.164  -3.243   7.031  1.00  0.00     0.251 C 
ATOM     31  H   UNL     1       9.413  -2.760   7.871  1.00  0.00     0.163 HD
ATOM     32  O   UNL     1      11.638  -3.735   8.049  1.00  0.00    -0.269 OA
BRANCH  30  33
ATOM     33  C   UNL     1      12.001  -3.080   5.827  1.00  0.00     0.039 A 
ATOM     34  C   UNL     1      12.865  -4.111   5.457  1.00  0.00     0.014 A 
ATOM     35  C   UNL     1      11.928  -1.908   5.068  1.00  0.00     0.014 A 
ATOM     36  C   UNL     1      13.620  -3.986   4.291  1.00  0.00     0.010 A 
ATOM     37  C   UNL     1      12.610  -1.825   3.861  1.00  0.00     0.010 A 
ATOM     38  C   UNL     1      13.471  -2.859   3.465  1.00  0.00    -0.014 A 
BRANCH  38  39
ATOM     39  C   UNL     1      14.208  -2.748   2.183  1.00  0.00     0.031 A 
ATOM     40  C   UNL     1      15.189  -1.631   1.968  1.00  0.00     0.074 A 
ATOM     41  C   UNL     1      13.946  -3.620   1.191  1.00  0.00     0.049 A 
ATOM     42  N   UNL     1      15.887  -1.337   0.900  1.00  0.00    -0.248 NA
ATOM     43  C   UNL     1      15.391  -0.702   3.091  1.00  0.00     0.031 C 
ATOM     44  C   UNL     1      12.978  -4.715   1.265  1.00  0.00     0.029 A 
ATOM     45  N   UNL     1      14.463  -3.717  -0.077  1.00  0.00    -0.354 N 
ATOM     46  C   UNL     1      16.597  -0.186   1.218  1.00  0.00     0.074 A 
ATOM     47  C   UNL     1      16.200   0.199   2.554  1.00  0.00     0.031 C 
ATOM     48  C   UNL     1      12.988  -5.388   0.104  1.00  0.00     0.029 A 
ATOM     49  C   UNL     1      13.921  -4.742  -0.813  1.00  0.00     0.049 A 
ATOM     50  H   UNL     1      15.155  -3.111  -0.425  1.00  0.00     0.167 HD
ATOM     51  C   UNL     1      17.511   0.475   0.469  1.00  0.00     0.037 A 
ATOM     52  C   UNL     1      14.136  -5.108  -2.091  1.00  0.00     0.037 A 
ATOM     53  C   UNL     1      17.906   0.076  -0.857  1.00  0.00     0.049 A 
ATOM     54  C   UNL     1      15.141  -4.345  -2.911  1.00  0.00     0.074 A 
ATOM     55  C   UNL     1      18.872   0.636  -1.673  1.00  0.00     0.029 A 
ATOM     56  N   UNL     1      17.340  -0.972  -1.570  1.00  0.00    -0.354 N 
ATOM     57  N   UNL     1      15.870  -3.308  -2.572  1.00  0.00    -0.248 NA
ATOM     58  C   UNL     1      15.360  -4.806  -4.288  1.00  0.00     0.031 C 
ATOM     59  C   UNL     1      18.832  -0.017  -2.908  1.00  0.00     0.029 A 
ATOM     60  C   UNL     1      17.905  -1.044  -2.834  1.00  0.00     0.049 A 
ATOM     61  H   UNL     1      16.640  -1.575  -1.228  1.00  0.00     0.167 HD
ATOM     62  C   UNL     1      16.652  -3.011  -3.680  1.00  0.00     0.074 A 
ATOM     63  C   UNL     1      16.320  -3.989  -4.696  1.00  0.00     0.031 C 
ATOM     64  C   UNL     1      17.564  -2.020  -3.840  1.00  0.00     0.037 A 
BRANCH  51  65
ATOM     65  C   UNL     1      18.128   1.715   1.056  1.00  0.00     0.064 A 
ATOM     66  C   UNL     1      18.969   1.671   2.179  1.00  0.00     0.173 A 
ATOM     67  C   UNL     1      17.890   2.968   0.469  1.00  0.00     0.173 A 
ATOM     68  F   UNL     1      19.227   0.503   2.786  1.00  0.00    -0.203 F 
ATOM     69  C   UNL     1      19.512   2.837   2.716  1.00  0.00     0.198 A 
ATOM     70  C   UNL     1      18.467   4.125   0.983  1.00  0.00     0.198 A 
ATOM     71  F   UNL     1      17.099   3.071  -0.610  1.00  0.00    -0.203 F 
ATOM     72  F   UNL     1      20.256   2.776   3.829  1.00  0.00    -0.200 F 
ATOM     73  C   UNL     1      19.267   4.061   2.114  1.00  0.00     0.200 A 
ATOM     74  F   UNL     1      18.244   5.305   0.388  1.00  0.00    -0.200 F 
ATOM     75  F   UNL     1      19.793   5.181   2.628  1.00  0.00    -0.200 F 
ENDBRANCH  51  65
BRANCH  52  76
ATOM     76  C   UNL     1      13.380  -6.251  -2.668  1.00  0.00     0.064 A 
ATOM     77  C   UNL     1      14.023  -7.445  -3.022  1.00  0.00     0.173 A 
ATOM     78  C   UNL     1      11.992  -6.176  -2.866  1.00  0.00     0.173 A 
ATOM     79  F   UNL     1      15.350  -7.562  -2.867  1.00  0.00    -0.203 F 
ATOM     80  C   UNL     1      13.312  -8.510  -3.573  1.00  0.00     0.198 A 
ATOM     81  C   UNL     1      11.277  -7.254  -3.381  1.00  0.00     0.198 A 
ATOM     82  F   UNL     1      11.326  -5.060  -2.533  1.00  0.00    -0.203 F 
ATOM     83  F   UNL     1      13.960  -9.621  -3.947  1.00  0.00    -0.200 F 
ATOM     84  C   UNL     1      11.939  -8.416  -3.744  1.00  0.00     0.200 A 
ATOM     85  F   UNL     1       9.948  -7.168  -3.519  1.00  0.00    -0.200 F 
ATOM     86  F   UNL     1      11.255  -9.446  -4.261  1.00  0.00    -0.200 F 
ENDBRANCH  52  76
BRANCH  64  87
ATOM     87  C   UNL     1      18.301  -1.961  -5.149  1.00  0.00     0.064 A 
ATOM     88  C   UNL     1      17.662  -1.613  -6.348  1.00  0.00     0.173 A 
ATOM     89  C   UNL     1      19.682  -2.215  -5.194  1.00  0.00     0.173 A 
ATOM     90  F   UNL     1      16.342  -1.372  -6.365  1.00  0.00    -0.203 F 
ATOM     91  C   UNL     1      18.369  -1.553  -7.547  1.00  0.00     0.198 A 
ATOM     92  C   UNL     1      20.393  -2.113  -6.386  1.00  0.00     0.198 A 
ATOM     93  F   UNL     1      20.347  -2.543  -4.077  1.00  0.00    -0.203 F 
ATOM     94  F   UNL     1      17.725  -1.276  -8.689  1.00  0.00    -0.200 F 
ATOM     95  C   UNL     1      19.734  -1.793  -7.563  1.00  0.00     0.200 A 
ATOM     96  F   UNL     1      21.716  -2.324  -6.395  1.00  0.00    -0.200 F 
ATOM     97  F   UNL     1      20.415  -1.723  -8.715  1.00  0.00    -0.200 F 
ENDBRANCH  64  87
ENDBRANCH  38  39
ENDBRANCH  30  33
ENDBRANCH  28  29
ENDBRANCH  27  28
ENDBRANCH  26  27
ENDBRANCH  25  26
ENDBRANCH   1  25
TORSDOF 18
