REMARK SMILES CC(C)C[C@H](NC(=O)[C@H](Cc1ccccc1)NC(=O)CNC(=O)C[NH3+])C(=O)NCCCCCCNC(=O)c1ccc(-c2c3nc(c(-c4c(F)c(F)c(F)c(F)c4F)c4ccc([nH]4)c(-c4c(F)c(F)c(F)c(F)c4F)c4nc(c(-c5c(F)c(F)c(F)c(F)c5F)c5ccc2[nH]5)C=C4)C=C3)cc1
REMARK SMILES IDX 29 1 28 2 26 3 27 4 5 6 4 7 2 8 1 9 3 10 6 11 7 12 8 14 9 15
REMARK SMILES IDX 17 16 18 17 19 19 20 20 21 21 22 22 23 24 24 25 25 26 10 30
REMARK SMILES IDX 11 31 12 32 16 33 13 34 15 35 14 36 30 37 31 38 32 39 33 40
REMARK SMILES IDX 34 41 35 42 36 43 37 45 38 46 39 47 100 48 40 49 99 50 41 51
REMARK SMILES IDX 42 52 43 53 93 54 44 55 98 56 92 57 94 58 45 59 97 60 91 61
REMARK SMILES IDX 90 62 46 64 78 65 58 66 77 67 59 68 62 69 76 70 95 71 60 72
REMARK SMILES IDX 61 73 75 75 96 76 63 77 47 78 48 79 56 80 49 81 50 82 54 83
REMARK SMILES IDX 57 84 51 85 52 86 55 87 53 88 79 89 80 90 88 91 81 92 82 93
REMARK SMILES IDX 86 94 89 95 83 96 84 97 87 98 85 99 64 100 65 101 73 102
REMARK SMILES IDX 66 103 67 104 71 105 74 106 68 107 69 108 72 109 70 110
REMARK H PARENT 28 5 6 13 17 18 21 23 25 27 25 28 25 29 35 44 94 63 62 74
REMARK Flexibility Score: inf
ROOT
ATOM      1  C   UNL     1      -1.015  -0.451   1.980  1.00  0.00     0.116 C 
ENDROOT
BRANCH   1   2
ATOM      2  N   UNL     1      -1.126   0.069   3.322  1.00  0.00    -0.354 N 
ATOM      3  C   UNL     1      -1.547   1.287   3.756  1.00  0.00     0.242 C 
ATOM      4  O   UNL     1      -1.846   1.372   4.952  1.00  0.00    -0.273 OA
ATOM      5  H   UNL     1      -0.855  -0.555   4.033  1.00  0.00     0.163 HD
BRANCH   3   6
ATOM      6  C   UNL     1      -1.751   2.502   2.824  1.00  0.00     0.171 C 
BRANCH   6   7
ATOM      7  C   UNL     1      -3.150   2.664   2.188  1.00  0.00     0.038 C 
BRANCH   7   8
ATOM      8  C   UNL     1      -3.619   1.617   1.160  1.00  0.00    -0.015 C 
ATOM      9  C   UNL     1      -4.376   0.466   1.832  1.00  0.00     0.007 C 
ATOM     10  C   UNL     1      -4.556   2.260   0.127  1.00  0.00     0.007 C 
ENDBRANCH   7   8
ENDBRANCH   6   7
BRANCH   6  11
ATOM     11  N   UNL     1      -0.666   2.739   1.872  1.00  0.00    -0.343 N 
ATOM     12  C   UNL     1       0.422   3.556   1.900  1.00  0.00     0.243 C 
ATOM     13  H   UNL     1      -0.736   2.202   1.050  1.00  0.00     0.164 HD
ATOM     14  O   UNL     1       1.216   3.388   0.964  1.00  0.00    -0.273 OA
BRANCH  12  15
ATOM     15  C   UNL     1       0.719   4.616   3.005  1.00  0.00     0.175 C 
BRANCH  15  16
ATOM     16  N   UNL     1       1.708   5.586   2.485  1.00  0.00    -0.342 N 
ATOM     17  C   UNL     1       2.813   6.131   3.058  1.00  0.00     0.240 C 
ATOM     18  H   UNL     1       1.535   5.890   1.565  1.00  0.00     0.164 HD
ATOM     19  O   UNL     1       3.370   7.058   2.462  1.00  0.00    -0.273 OA
BRANCH  17  20
ATOM     20  C   UNL     1       3.466   5.505   4.294  1.00  0.00     0.216 C 
BRANCH  20  21
ATOM     21  N   UNL     1       2.583   5.250   5.420  1.00  0.00    -0.342 N 
ATOM     22  C   UNL     1       2.397   4.075   6.092  1.00  0.00     0.275 C 
ATOM     23  H   UNL     1       2.055   6.018   5.738  1.00  0.00     0.164 HD
ATOM     24  O   UNL     1       1.530   4.025   6.966  1.00  0.00    -0.268 OA
BRANCH  22  25
ATOM     25  C   UNL     1       3.231   2.845   5.715  1.00  0.00     0.360 C 
BRANCH  25  26
ATOM     26  N   UNL     1       2.688   2.204   4.508  1.00  0.00    -0.350 N 
ATOM     27  H   UNL     1       1.730   1.904   4.685  1.00  0.00     0.344 HD
ATOM     28  H   UNL     1       3.259   1.394   4.267  1.00  0.00     0.344 HD
ATOM     29  H   UNL     1       2.699   2.870   3.735  1.00  0.00     0.344 HD
ENDBRANCH  25  26
ENDBRANCH  22  25
ENDBRANCH  20  21
ENDBRANCH  17  20
ENDBRANCH  15  16
BRANCH  15  30
ATOM     30  C   UNL     1      -0.433   5.440   3.601  1.00  0.00     0.070 C 
BRANCH  30  31
ATOM     31  C   UNL     1      -1.450   6.070   2.672  1.00  0.00    -0.045 A 
ATOM     32  C   UNL     1      -1.401   6.001   1.273  1.00  0.00     0.004 A 
ATOM     33  C   UNL     1      -2.509   6.779   3.261  1.00  0.00     0.004 A 
ATOM     34  C   UNL     1      -2.391   6.591   0.488  1.00  0.00     0.000 A 
ATOM     35  C   UNL     1      -3.487   7.390   2.475  1.00  0.00     0.000 A 
ATOM     36  C   UNL     1      -3.431   7.290   1.088  1.00  0.00     0.000 A 
ENDBRANCH  30  31
ENDBRANCH  15  30
ENDBRANCH  12  15
ENDBRANCH   6  11
ENDBRANCH   3   6
ENDBRANCH   1   2
BRANCH   1  37
ATOM     37  C   UNL     1      -0.181  -1.719   1.884  1.00  0.00     0.021 C 
BRANCH  37  38
ATOM     38  C   UNL     1      -0.750  -2.934   2.623  1.00  0.00     0.002 C 
BRANCH  38  39
ATOM     39  C   UNL     1      -2.223  -3.268   2.359  1.00  0.00     0.002 C 
BRANCH  39  40
ATOM     40  C   UNL     1      -2.636  -3.400   0.891  1.00  0.00     0.021 C 
BRANCH  40  41
ATOM     41  C   UNL     1      -1.770  -4.326   0.050  1.00  0.00     0.116 C 
BRANCH  41  42
ATOM     42  N   UNL     1      -1.700  -5.672   0.586  1.00  0.00    -0.352 N 
ATOM     43  C   UNL     1      -1.807  -6.873  -0.070  1.00  0.00     0.251 C 
ATOM     44  H   UNL     1      -1.554  -5.733   1.558  1.00  0.00     0.163 HD
ATOM     45  O   UNL     1      -1.863  -7.920   0.561  1.00  0.00    -0.269 OA
BRANCH  43  46
ATOM     46  C   UNL     1      -1.884  -6.894  -1.546  1.00  0.00     0.039 A 
ATOM     47  C   UNL     1      -2.832  -7.720  -2.155  1.00  0.00     0.014 A 
ATOM     48  C   UNL     1      -1.028  -6.111  -2.326  1.00  0.00     0.014 A 
ATOM     49  C   UNL     1      -2.953  -7.723  -3.545  1.00  0.00     0.010 A 
ATOM     50  C   UNL     1      -1.205  -6.054  -3.704  1.00  0.00     0.010 A 
ATOM     51  C   UNL     1      -2.160  -6.870  -4.329  1.00  0.00    -0.014 A 
BRANCH  51  52
ATOM     52  C   UNL     1      -2.299  -6.837  -5.807  1.00  0.00     0.031 A 
ATOM     53  C   UNL     1      -1.145  -7.254  -6.677  1.00  0.00     0.074 A 
ATOM     54  C   UNL     1      -3.443  -6.392  -6.362  1.00  0.00     0.049 A 
ATOM     55  N   UNL     1      -1.040  -7.229  -7.982  1.00  0.00    -0.248 NA
ATOM     56  C   UNL     1       0.062  -7.740  -5.989  1.00  0.00     0.031 C 
ATOM     57  C   UNL     1      -4.617  -5.924  -5.622  1.00  0.00     0.029 A 
ATOM     58  N   UNL     1      -3.804  -6.250  -7.679  1.00  0.00    -0.354 N 
ATOM     59  C   UNL     1       0.239  -7.691  -8.266  1.00  0.00     0.074 A 
ATOM     60  C   UNL     1       0.897  -7.925  -7.000  1.00  0.00     0.031 C 
ATOM     61  C   UNL     1      -5.573  -5.565  -6.494  1.00  0.00     0.029 A 
ATOM     62  C   UNL     1      -5.067  -5.736  -7.852  1.00  0.00     0.049 A 
ATOM     63  H   UNL     1      -3.214  -6.494  -8.428  1.00  0.00     0.167 HD
ATOM     64  C   UNL     1       0.802  -7.928  -9.474  1.00  0.00     0.037 A 
ATOM     65  C   UNL     1      -5.733  -5.425  -8.981  1.00  0.00     0.037 A 
ATOM     66  C   UNL     1       0.136  -7.710 -10.731  1.00  0.00     0.049 A 
ATOM     67  C   UNL     1      -5.069  -5.674 -10.311  1.00  0.00     0.074 A 
ATOM     68  C   UNL     1       0.609  -7.945 -12.010  1.00  0.00     0.029 A 
ATOM     69  N   UNL     1      -1.149  -7.206 -10.866  1.00  0.00    -0.354 N 
ATOM     70  N   UNL     1      -3.880  -6.163 -10.566  1.00  0.00    -0.248 NA
ATOM     71  C   UNL     1      -5.846  -5.334 -11.512  1.00  0.00     0.031 C 
ATOM     72  C   UNL     1      -0.372  -7.540 -12.920  1.00  0.00     0.029 A 
ATOM     73  C   UNL     1      -1.480  -7.110 -12.208  1.00  0.00     0.049 A 
ATOM     74  H   UNL     1      -1.739  -6.954 -10.119  1.00  0.00     0.167 HD
ATOM     75  C   UNL     1      -3.783  -6.228 -11.950  1.00  0.00     0.074 A 
ATOM     76  C   UNL     1      -5.039  -5.742 -12.480  1.00  0.00     0.031 C 
ATOM     77  C   UNL     1      -2.745  -6.648 -12.716  1.00  0.00     0.037 A 
BRANCH  64  78
ATOM     78  C   UNL     1       2.203  -8.467  -9.500  1.00  0.00     0.064 A 
ATOM     79  C   UNL     1       2.491  -9.775  -9.079  1.00  0.00     0.173 A 
ATOM     80  C   UNL     1       3.258  -7.695 -10.007  1.00  0.00     0.173 A 
ATOM     81  F   UNL     1       1.520 -10.551  -8.573  1.00  0.00    -0.203 F 
ATOM     82  C   UNL     1       3.786 -10.281  -9.147  1.00  0.00     0.198 A 
ATOM     83  C   UNL     1       4.546  -8.216 -10.104  1.00  0.00     0.198 A 
ATOM     84  F   UNL     1       3.037  -6.440 -10.427  1.00  0.00    -0.203 F 
ATOM     85  F   UNL     1       4.044 -11.518  -8.700  1.00  0.00    -0.200 F 
ATOM     86  C   UNL     1       4.810  -9.506  -9.669  1.00  0.00     0.200 A 
ATOM     87  F   UNL     1       5.531  -7.470 -10.623  1.00  0.00    -0.200 F 
ATOM     88  F   UNL     1       6.053 -10.001  -9.750  1.00  0.00    -0.200 F 
ENDBRANCH  64  78
BRANCH  65  89
ATOM     89  C   UNL     1      -7.103  -4.848  -8.914  1.00  0.00     0.064 A 
ATOM     90  C   UNL     1      -8.211  -5.551  -9.409  1.00  0.00     0.173 A 
ATOM     91  C   UNL     1      -7.327  -3.563  -8.396  1.00  0.00     0.173 A 
ATOM     92  F   UNL     1      -8.048  -6.776  -9.931  1.00  0.00    -0.203 F 
ATOM     93  C   UNL     1      -9.480  -4.976  -9.429  1.00  0.00     0.198 A 
ATOM     94  C   UNL     1      -8.604  -3.004  -8.382  1.00  0.00     0.198 A 
ATOM     95  F   UNL     1      -6.306  -2.849  -7.901  1.00  0.00    -0.203 F 
ATOM     96  F   UNL     1     -10.506  -5.643  -9.975  1.00  0.00    -0.200 F 
ATOM     97  C   UNL     1      -9.676  -3.704  -8.913  1.00  0.00     0.200 A 
ATOM     98  F   UNL     1      -8.791  -1.782  -7.866  1.00  0.00    -0.200 F 
ATOM     99  F   UNL     1     -10.895  -3.148  -8.939  1.00  0.00    -0.200 F 
ENDBRANCH  65  89
BRANCH  77 100
ATOM    100  C   UNL     1      -2.945  -6.659 -14.204  1.00  0.00     0.064 A 
ATOM    101  C   UNL     1      -3.030  -5.474 -14.950  1.00  0.00     0.173 A 
ATOM    102  C   UNL     1      -3.011  -7.877 -14.898  1.00  0.00     0.173 A 
ATOM    103  F   UNL     1      -2.986  -4.283 -14.333  1.00  0.00    -0.203 F 
ATOM    104  C   UNL     1      -3.207  -5.509 -16.330  1.00  0.00     0.198 A 
ATOM    105  C   UNL     1      -3.151  -7.908 -16.282  1.00  0.00     0.198 A 
ATOM    106  F   UNL     1      -2.926  -9.040 -14.234  1.00  0.00    -0.203 F 
ATOM    107  F   UNL     1      -3.342  -4.365 -17.015  1.00  0.00    -0.200 F 
ATOM    108  C   UNL     1      -3.258  -6.724 -16.996  1.00  0.00     0.200 A 
ATOM    109  F   UNL     1      -3.182  -9.083 -16.925  1.00  0.00    -0.200 F 
ATOM    110  F   UNL     1      -3.419  -6.755 -18.326  1.00  0.00    -0.200 F 
ENDBRANCH  77 100
ENDBRANCH  51  52
ENDBRANCH  43  46
ENDBRANCH  41  42
ENDBRANCH  40  41
ENDBRANCH  39  40
ENDBRANCH  38  39
ENDBRANCH  37  38
ENDBRANCH   1  37
TORSDOF 24
