REMARK SMILES CC(C)[C@@H]1C(=O)Nc2ccccc2N1C(=O)N[C@H](Cc1ccccc1)C(=O)NCCCCCCNC(=O)c1ccc(-c2c3nc(c(-c4c(F)c(F)c(F)c(F)c4F)c4ccc([nH]4)c(-c4c(F)c(F)c(F)c(F)c4F)c4nc(c(-c5c(F)c(F)c(F)c(F)c5F)c5ccc2[nH]5)C=C4)C=C3)cc1
REMARK SMILES IDX 31 1 30 2 29 3 28 4 26 5 27 6 18 8 17 9 15 10 16 11 14 13
REMARK SMILES IDX 4 14 5 15 6 16 7 17 13 18 8 19 12 21 9 22 11 23 10 24 2 25
REMARK SMILES IDX 1 26 3 27 19 28 20 29 21 30 25 31 22 32 24 33 23 34 32 35
REMARK SMILES IDX 33 36 34 37 35 38 36 39 37 41 38 42 39 43 100 44 40 45 99 46
REMARK SMILES IDX 41 47 42 48 43 49 93 50 44 51 98 52 92 53 94 54 45 55 97 56
REMARK SMILES IDX 91 57 90 58 46 60 78 61 58 62 77 63 59 64 62 65 76 66 95 67
REMARK SMILES IDX 60 68 61 69 75 71 96 72 63 73 47 74 48 75 56 76 49 77 50 78
REMARK SMILES IDX 54 79 57 80 51 81 52 82 55 83 53 84 79 85 80 86 88 87 81 88
REMARK SMILES IDX 82 89 86 90 89 91 83 92 84 93 87 94 85 95 64 96 65 97 73 98
REMARK SMILES IDX 66 99 67 100 71 101 74 102 68 103 69 104 72 105 70 106
REMARK H PARENT 28 7 17 12 7 20 35 40 94 59 62 70
REMARK Flexibility Score: inf
ROOT
ATOM      1  C   UNL     1       4.293   5.882   1.592  1.00  0.00     0.002 C 
ENDROOT
BRANCH   1   2
ATOM      2  C   UNL     1       3.765   4.747   0.729  1.00  0.00     0.021 C 
BRANCH   2   3
ATOM      3  C   UNL     1       4.232   3.162   0.807  1.00  0.00     0.116 C 
BRANCH   3   4
ATOM      4  N   UNL     1       3.897   1.597   2.093  1.00  0.00    -0.354 N 
ATOM      5  C   UNL     1       3.103   0.290   2.339  1.00  0.00     0.242 C 
ATOM      6  O   UNL     1       3.344  -0.253   3.429  1.00  0.00    -0.273 OA
ATOM      7  H   UNL     1       4.481   1.734   2.874  1.00  0.00     0.163 HD
BRANCH   5   8
ATOM      8  C   UNL     1       1.863  -0.479   1.261  1.00  0.00     0.177 C 
BRANCH   8   9
ATOM      9  N   UNL     1       2.733  -0.912   0.213  1.00  0.00    -0.326 N 
ATOM     10  C   UNL     1       3.348   0.067  -0.512  1.00  0.00     0.323 C 
ATOM     11  O   UNL     1       3.861  -0.217  -1.589  1.00  0.00    -0.248 OA
ATOM     12  H   UNL     1       2.880  -1.867   0.024  1.00  0.00     0.166 HD
BRANCH  10  13
ATOM     13  N   UNL     1       3.532   1.266   0.176  1.00  0.00    -0.280 N 
ATOM     14  C   UNL     1       2.381   2.410   1.303  1.00  0.00     0.184 C 
ATOM     15  C   UNL     1       3.260   3.361   2.786  1.00  0.00     0.247 C 
ATOM     16  O   UNL     1       2.665   4.071   3.598  1.00  0.00    -0.272 OA
ATOM     17  N   UNL     1       4.959   3.181   2.906  1.00  0.00    -0.322 N 
ATOM     18  C   UNL     1       5.334   1.248   0.628  1.00  0.00     0.070 A 
ATOM     19  C   UNL     1       5.976   2.205   1.883  1.00  0.00     0.065 A 
ATOM     20  H   UNL     1       5.406   3.681   3.626  1.00  0.00     0.170 HD
ATOM     21  C   UNL     1       6.278   0.537  -0.093  1.00  0.00     0.028 A 
ATOM     22  C   UNL     1       7.337   2.447   1.983  1.00  0.00     0.028 A 
ATOM     23  C   UNL     1       7.652   0.827   0.131  1.00  0.00     0.002 A 
ATOM     24  C   UNL     1       8.152   1.784   1.065  1.00  0.00     0.002 A 
BRANCH  14  25
ATOM     25  C   UNL     1       1.138   3.247   0.855  1.00  0.00     0.015 C 
ATOM     26  C   UNL     1       0.928   3.244  -0.648  1.00  0.00     0.010 C 
ATOM     27  C   UNL     1      -0.040   3.029   1.880  1.00  0.00     0.010 C 
ENDBRANCH  14  25
ENDBRANCH  10  13
ENDBRANCH   8   9
BRANCH   8  28
ATOM     28  C   UNL     1       0.604   0.119   0.412  1.00  0.00     0.070 C 
BRANCH  28  29
ATOM     29  C   UNL     1      -0.891  -0.101   0.088  1.00  0.00    -0.045 A 
ATOM     30  C   UNL     1      -1.634   1.067  -0.288  1.00  0.00     0.004 A 
ATOM     31  C   UNL     1      -1.526  -1.306  -0.180  1.00  0.00     0.004 A 
ATOM     32  C   UNL     1      -2.893   1.061  -0.893  1.00  0.00     0.000 A 
ATOM     33  C   UNL     1      -2.812  -1.323  -0.786  1.00  0.00     0.000 A 
ATOM     34  C   UNL     1      -3.487  -0.152  -1.153  1.00  0.00     0.000 A 
ENDBRANCH  28  29
ENDBRANCH   8  28
ENDBRANCH   5   8
ENDBRANCH   3   4
ENDBRANCH   2   3
ENDBRANCH   1   2
BRANCH   1  35
ATOM     35  C   UNL     1       5.802   5.994   1.663  1.00  0.00     0.002 C 
BRANCH  35  36
ATOM     36  C   UNL     1       6.464   6.061   0.295  1.00  0.00     0.021 C 
BRANCH  36  37
ATOM     37  C   UNL     1       6.190   7.398  -0.361  1.00  0.00     0.116 C 
BRANCH  37  38
ATOM     38  N   UNL     1       6.933   8.434   0.352  1.00  0.00    -0.352 N 
ATOM     39  C   UNL     1       8.205   8.855   0.050  1.00  0.00     0.251 C 
ATOM     40  H   UNL     1       6.484   8.867   1.113  1.00  0.00     0.163 HD
ATOM     41  O   UNL     1       8.983   9.225   0.920  1.00  0.00    -0.269 OA
BRANCH  39  42
ATOM     42  C   UNL     1       8.584   8.857  -1.373  1.00  0.00     0.039 A 
ATOM     43  C   UNL     1       9.887   8.575  -1.772  1.00  0.00     0.014 A 
ATOM     44  C   UNL     1       7.583   9.109  -2.315  1.00  0.00     0.014 A 
ATOM     45  C   UNL     1      10.172   8.531  -3.135  1.00  0.00     0.010 A 
ATOM     46  C   UNL     1       7.821   8.857  -3.645  1.00  0.00     0.010 A 
ATOM     47  C   UNL     1       9.133   8.651  -4.075  1.00  0.00    -0.014 A 
BRANCH  47  48
ATOM     48  C   UNL     1       9.377   8.671  -5.529  1.00  0.00     0.031 A 
ATOM     49  C   UNL     1       8.921   9.868  -6.325  1.00  0.00     0.074 A 
ATOM     50  C   UNL     1       9.922   7.596  -6.122  1.00  0.00     0.049 A 
ATOM     51  N   UNL     1       8.934  10.055  -7.618  1.00  0.00    -0.248 NA
ATOM     52  C   UNL     1       8.312  10.983  -5.574  1.00  0.00     0.031 C 
ATOM     53  C   UNL     1      10.321   6.363  -5.441  1.00  0.00     0.029 A 
ATOM     54  N   UNL     1      10.229   7.367  -7.435  1.00  0.00    -0.354 N 
ATOM     55  C   UNL     1       8.313  11.280  -7.824  1.00  0.00     0.074 A 
ATOM     56  C   UNL     1       7.842  11.748  -6.544  1.00  0.00     0.031 C 
ATOM     57  C   UNL     1      10.872   5.527  -6.335  1.00  0.00     0.029 A 
ATOM     58  C   UNL     1      10.809   6.143  -7.655  1.00  0.00     0.049 A 
ATOM     59  H   UNL     1      10.052   8.017  -8.153  1.00  0.00     0.167 HD
ATOM     60  C   UNL     1       8.190  11.977  -8.975  1.00  0.00     0.037 A 
ATOM     61  C   UNL     1      11.233   5.588  -8.803  1.00  0.00     0.037 A 
ATOM     62  C   UNL     1       8.710  11.510 -10.229  1.00  0.00     0.049 A 
ATOM     63  C   UNL     1      11.093   6.385 -10.072  1.00  0.00     0.074 A 
ATOM     64  C   UNL     1       8.717  12.150 -11.453  1.00  0.00     0.029 A 
ATOM     65  N   UNL     1       9.319  10.275 -10.412  1.00  0.00    -0.354 N 
ATOM     66  N   UNL     1      10.581   7.581 -10.247  1.00  0.00    -0.248 NA
ATOM     67  C   UNL     1      11.595   5.761 -11.300  1.00  0.00     0.031 C 
ATOM     68  C   UNL     1       9.265  11.272 -12.392  1.00  0.00     0.029 A 
ATOM     69  C   UNL     1       9.675  10.119 -11.739  1.00  0.00     0.049 A 
ATOM     70  H   UNL     1       9.473   9.610  -9.702  1.00  0.00     0.167 HD
ATOM     71  C   UNL     1      10.726   7.866 -11.597  1.00  0.00     0.074 A 
ATOM     72  C   UNL     1      11.393   6.723 -12.189  1.00  0.00     0.031 C 
ATOM     73  C   UNL     1      10.345   8.968 -12.289  1.00  0.00     0.037 A 
BRANCH  60  74
ATOM     74  C   UNL     1       7.481  13.301  -8.925  1.00  0.00     0.064 A 
ATOM     75  C   UNL     1       8.000  14.398  -8.216  1.00  0.00     0.173 A 
ATOM     76  C   UNL     1       6.271  13.483  -9.611  1.00  0.00     0.173 A 
ATOM     77  F   UNL     1       9.144  14.277  -7.525  1.00  0.00    -0.203 F 
ATOM     78  C   UNL     1       7.317  15.611  -8.167  1.00  0.00     0.198 A 
ATOM     79  C   UNL     1       5.613  14.710  -9.594  1.00  0.00     0.198 A 
ATOM     80  F   UNL     1       5.726  12.471 -10.302  1.00  0.00    -0.203 F 
ATOM     81  F   UNL     1       7.801  16.620  -7.429  1.00  0.00    -0.200 F 
ATOM     82  C   UNL     1       6.130  15.769  -8.865  1.00  0.00     0.200 A 
ATOM     83  F   UNL     1       4.472  14.865 -10.280  1.00  0.00    -0.200 F 
ATOM     84  F   UNL     1       5.480  16.940  -8.827  1.00  0.00    -0.200 F 
ENDBRANCH  60  74
BRANCH  61  85
ATOM     85  C   UNL     1      11.848   4.236  -8.793  1.00  0.00     0.064 A 
ATOM     86  C   UNL     1      13.204   4.056  -9.100  1.00  0.00     0.173 A 
ATOM     87  C   UNL     1      11.099   3.095  -8.467  1.00  0.00     0.173 A 
ATOM     88  F   UNL     1      13.963   5.114  -9.424  1.00  0.00    -0.203 F 
ATOM     89  C   UNL     1      13.779   2.787  -9.113  1.00  0.00     0.198 A 
ATOM     90  C   UNL     1      11.683   1.831  -8.444  1.00  0.00     0.198 A 
ATOM     91  F   UNL     1       9.802   3.212  -8.149  1.00  0.00    -0.203 F 
ATOM     92  F   UNL     1      15.064   2.640  -9.462  1.00  0.00    -0.200 F 
ATOM     93  C   UNL     1      13.019   1.676  -8.779  1.00  0.00     0.200 A 
ATOM     94  F   UNL     1      10.951   0.764  -8.097  1.00  0.00    -0.200 F 
ATOM     95  F   UNL     1      13.573   0.456  -8.786  1.00  0.00    -0.200 F 
ENDBRANCH  61  85
BRANCH  73  96
ATOM     96  C   UNL     1      10.678   9.006 -13.752  1.00  0.00     0.064 A 
ATOM     97  C   UNL     1      10.039   8.169 -14.677  1.00  0.00     0.173 A 
ATOM     98  C   UNL     1      11.613   9.933 -14.236  1.00  0.00     0.173 A 
ATOM     99  F   UNL     1       9.145   7.259 -14.262  1.00  0.00    -0.203 F 
ATOM    100  C   UNL     1      10.351   8.235 -16.032  1.00  0.00     0.198 A 
ATOM    101  C   UNL     1      11.890  10.026 -15.595  1.00  0.00     0.198 A 
ATOM    102  F   UNL     1      12.242  10.765 -13.392  1.00  0.00    -0.203 F 
ATOM    103  F   UNL     1       9.773   7.385 -16.891  1.00  0.00    -0.200 F 
ATOM    104  C   UNL     1      11.267   9.170 -16.491  1.00  0.00     0.200 A 
ATOM    105  F   UNL     1      12.757  10.946 -16.039  1.00  0.00    -0.200 F 
ATOM    106  F   UNL     1      11.555   9.242 -17.797  1.00  0.00    -0.200 F 
ENDBRANCH  73  96
ENDBRANCH  47  48
ENDBRANCH  39  42
ENDBRANCH  37  38
ENDBRANCH  36  37
ENDBRANCH  35  36
ENDBRANCH   1  35
TORSDOF 18
