REMARK SMILES CC[NH2+][C@]1(C(=O)NCCCCCCNC(=O)c2ccc(-c3c4nc(c(-c5c(F)c(F)c(F)c(F)c5F)c5ccc([nH]5)c(-c5c(F)c(F)c(F)c(F)c5F)c5nc(c(-c6c(F)c(F)c(F)c(F)c6F)c6ccc3[nH]6)C=C5)C=C4)cc2)CC[C@@H]([N@H+]2C[C@@H](C)O[C@@H](C)C2)C1
REMARK SMILES IDX 10 1 9 2 8 3 7 4 5 5 6 6 4 8 80 9 91 10 81 11 82 12 3 13
REMARK SMILES IDX 2 16 1 17 83 18 84 19 90 20 85 22 88 23 86 24 87 25 89 26
REMARK SMILES IDX 11 27 12 28 13 29 14 30 15 31 16 33 17 34 18 35 79 36 19 37
REMARK SMILES IDX 78 38 20 39 21 40 22 41 72 42 23 43 77 44 71 45 73 46 24 47
REMARK SMILES IDX 76 48 70 49 69 50 25 52 57 53 37 54 56 55 38 56 41 57 55 58
REMARK SMILES IDX 74 59 39 60 40 61 54 63 75 64 42 65 26 66 27 67 35 68 28 69
REMARK SMILES IDX 29 70 33 71 36 72 30 73 31 74 34 75 32 76 58 77 59 78 67 79
REMARK SMILES IDX 60 80 61 81 65 82 68 83 62 84 63 85 66 86 64 87 43 88 44 89
REMARK SMILES IDX 52 90 45 91 46 92 50 93 53 94 47 95 48 96 51 97 49 98
REMARK H PARENT 7 7 3 14 3 15 83 21 14 32 73 51 41 62
REMARK Flexibility Score: inf
ROOT
ATOM      1  C   UNL     1       3.992  -2.420  -2.512  1.00  0.00     0.002 C 
ENDROOT
BRANCH   1   2
ATOM      2  C   UNL     1       3.357  -1.273  -3.308  1.00  0.00     0.021 C 
BRANCH   2   3
ATOM      3  C   UNL     1       1.821  -1.268  -3.328  1.00  0.00     0.116 C 
BRANCH   3   4
ATOM      4  N   UNL     1       1.290  -0.452  -2.243  1.00  0.00    -0.351 N 
ATOM      5  C   UNL     1       0.751   0.796  -2.155  1.00  0.00     0.281 C 
ATOM      6  O   UNL     1       0.621   1.220  -0.996  1.00  0.00    -0.268 OA
ATOM      7  H   UNL     1       1.330  -0.909  -1.371  1.00  0.00     0.163 HD
BRANCH   5   8
ATOM      8  C   UNL     1       0.200   1.641  -3.360  1.00  0.00     0.181 C 
ATOM      9  C   UNL     1       0.428   3.144  -3.056  1.00  0.00     0.085 C 
ATOM     10  C   UNL     1       0.977   1.491  -4.673  1.00  0.00     0.144 C 
ATOM     11  C   UNL     1       0.433   3.857  -4.399  1.00  0.00     0.072 C 
ATOM     12  C   UNL     1       1.027   2.849  -5.393  1.00  0.00     0.191 C 
BRANCH   8  13
ATOM     13  N   UNL     1      -1.224   1.288  -3.628  1.00  0.00    -0.334 N 
ATOM     14  H   UNL     1      -1.528   1.799  -4.457  1.00  0.00     0.347 HD
ATOM     15  H   UNL     1      -1.253   0.276  -3.748  1.00  0.00     0.347 HD
BRANCH  13  16
ATOM     16  C   UNL     1      -2.148   1.603  -2.533  1.00  0.00     0.257 C 
ATOM     17  C   UNL     1      -3.558   1.153  -2.893  1.00  0.00     0.071 C 
ENDBRANCH  13  16
ENDBRANCH   8  13
BRANCH  12  18
ATOM     18  N   UNL     1       2.299   3.257  -6.020  1.00  0.00    -0.328 N 
ATOM     19  C   UNL     1       3.420   3.614  -5.147  1.00  0.00     0.294 C 
ATOM     20  C   UNL     1       2.777   2.345  -7.066  1.00  0.00     0.294 C 
ATOM     21  H   UNL     1       1.991   4.136  -6.434  1.00  0.00     0.348 HD
ATOM     22  C   UNL     1       4.326   2.462  -4.649  1.00  0.00     0.170 C 
ATOM     23  C   UNL     1       3.737   1.208  -6.621  1.00  0.00     0.170 C 
ATOM     24  C   UNL     1       4.255   2.351  -3.127  1.00  0.00     0.045 C 
ATOM     25  O   UNL     1       4.001   1.182  -5.211  1.00  0.00    -0.364 OA
ATOM     26  C   UNL     1       3.159  -0.151  -7.016  1.00  0.00     0.045 C 
ENDBRANCH  12  18
ENDBRANCH   5   8
ENDBRANCH   3   4
ENDBRANCH   2   3
ENDBRANCH   1   2
BRANCH   1  27
ATOM     27  C   UNL     1       3.913  -3.796  -3.185  1.00  0.00     0.002 C 
BRANCH  27  28
ATOM     28  C   UNL     1       4.557  -3.901  -4.573  1.00  0.00     0.021 C 
BRANCH  28  29
ATOM     29  C   UNL     1       6.035  -3.520  -4.638  1.00  0.00     0.116 C 
BRANCH  29  30
ATOM     30  N   UNL     1       6.869  -4.430  -3.864  1.00  0.00    -0.352 N 
ATOM     31  C   UNL     1       7.843  -5.295  -4.291  1.00  0.00     0.251 C 
ATOM     32  H   UNL     1       6.711  -4.422  -2.893  1.00  0.00     0.163 HD
ATOM     33  O   UNL     1       8.290  -6.155  -3.528  1.00  0.00    -0.269 OA
BRANCH  31  34
ATOM     34  C   UNL     1       8.360  -5.210  -5.671  1.00  0.00     0.039 A 
ATOM     35  C   UNL     1       8.522  -6.380  -6.418  1.00  0.00     0.014 A 
ATOM     36  C   UNL     1       8.712  -3.974  -6.219  1.00  0.00     0.014 A 
ATOM     37  C   UNL     1       8.981  -6.305  -7.736  1.00  0.00     0.010 A 
ATOM     38  C   UNL     1       9.104  -3.893  -7.553  1.00  0.00     0.010 A 
ATOM     39  C   UNL     1       9.248  -5.058  -8.323  1.00  0.00    -0.014 A 
BRANCH  39  40
ATOM     40  C   UNL     1       9.701  -4.940  -9.733  1.00  0.00     0.031 A 
ATOM     41  C   UNL     1      11.062  -4.375 -10.035  1.00  0.00     0.074 A 
ATOM     42  C   UNL     1       8.865  -5.260 -10.739  1.00  0.00     0.049 A 
ATOM     43  N   UNL     1      11.595  -4.062 -11.189  1.00  0.00    -0.248 NA
ATOM     44  C   UNL     1      11.928  -4.096  -8.879  1.00  0.00     0.031 C 
ATOM     45  C   UNL     1       7.509  -5.785 -10.577  1.00  0.00     0.029 A 
ATOM     46  N   UNL     1       9.026  -5.169 -12.100  1.00  0.00    -0.354 N 
ATOM     47  C   UNL     1      12.847  -3.537 -10.896  1.00  0.00     0.074 A 
ATOM     48  C   UNL     1      12.973  -3.520  -9.455  1.00  0.00     0.031 C 
ATOM     49  C   UNL     1       6.963  -5.974 -11.790  1.00  0.00     0.029 A 
ATOM     50  C   UNL     1       7.912  -5.544 -12.812  1.00  0.00     0.049 A 
ATOM     51  H   UNL     1       9.859  -4.863 -12.525  1.00  0.00     0.167 HD
ATOM     52  C   UNL     1      13.814  -3.128 -11.752  1.00  0.00     0.037 A 
ATOM     53  C   UNL     1       7.677  -5.524 -14.139  1.00  0.00     0.037 A 
ATOM     54  C   UNL     1      13.692  -3.166 -13.186  1.00  0.00     0.049 A 
ATOM     55  C   UNL     1       8.761  -5.050 -15.070  1.00  0.00     0.074 A 
ATOM     56  C   UNL     1      14.627  -2.810 -14.142  1.00  0.00     0.029 A 
ATOM     57  N   UNL     1      12.560  -3.587 -13.870  1.00  0.00    -0.354 N 
ATOM     58  N   UNL     1       9.960  -4.601 -14.785  1.00  0.00    -0.248 NA
ATOM     59  C   UNL     1       8.464  -5.085 -16.509  1.00  0.00     0.031 C 
ATOM     60  C   UNL     1      14.046  -2.973 -15.403  1.00  0.00     0.029 A 
ATOM     61  C   UNL     1      12.770  -3.485 -15.236  1.00  0.00     0.049 A 
ATOM     62  H   UNL     1      11.732  -3.909 -13.447  1.00  0.00     0.167 HD
ATOM     63  C   UNL     1      10.570  -4.338 -16.004  1.00  0.00     0.074 A 
ATOM     64  C   UNL     1       9.613  -4.683 -17.033  1.00  0.00     0.031 C 
ATOM     65  C   UNL     1      11.813  -3.855 -16.248  1.00  0.00     0.037 A 
BRANCH  52  66
ATOM     66  C   UNL     1      15.092  -2.608 -11.160  1.00  0.00     0.064 A 
ATOM     67  C   UNL     1      15.989  -3.454 -10.488  1.00  0.00     0.173 A 
ATOM     68  C   UNL     1      15.445  -1.256 -11.295  1.00  0.00     0.173 A 
ATOM     69  F   UNL     1      15.696  -4.752 -10.322  1.00  0.00    -0.203 F 
ATOM     70  C   UNL     1      17.173  -2.960  -9.947  1.00  0.00     0.198 A 
ATOM     71  C   UNL     1      16.646  -0.773 -10.781  1.00  0.00     0.198 A 
ATOM     72  F   UNL     1      14.629  -0.404 -11.934  1.00  0.00    -0.203 F 
ATOM     73  F   UNL     1      17.986  -3.777  -9.263  1.00  0.00    -0.200 F 
ATOM     74  C   UNL     1      17.504  -1.623 -10.100  1.00  0.00     0.200 A 
ATOM     75  F   UNL     1      16.971   0.517 -10.944  1.00  0.00    -0.200 F 
ATOM     76  F   UNL     1      18.648  -1.151  -9.585  1.00  0.00    -0.200 F 
ENDBRANCH  52  66
BRANCH  53  77
ATOM     77  C   UNL     1       6.362  -5.975 -14.668  1.00  0.00     0.064 A 
ATOM     78  C   UNL     1       6.253  -7.151 -15.424  1.00  0.00     0.173 A 
ATOM     79  C   UNL     1       5.192  -5.236 -14.442  1.00  0.00     0.173 A 
ATOM     80  F   UNL     1       7.347  -7.883 -15.686  1.00  0.00    -0.203 F 
ATOM     81  C   UNL     1       5.030  -7.556 -15.954  1.00  0.00     0.198 A 
ATOM     82  C   UNL     1       3.964  -5.659 -14.946  1.00  0.00     0.198 A 
ATOM     83  F   UNL     1       5.239  -4.107 -13.720  1.00  0.00    -0.203 F 
ATOM     84  F   UNL     1       4.964  -8.656 -16.717  1.00  0.00    -0.200 F 
ATOM     85  C   UNL     1       3.885  -6.813 -15.710  1.00  0.00     0.200 A 
ATOM     86  F   UNL     1       2.857  -4.946 -14.694  1.00  0.00    -0.200 F 
ATOM     87  F   UNL     1       2.708  -7.204 -16.219  1.00  0.00    -0.200 F 
ENDBRANCH  53  77
BRANCH  65  88
ATOM     88  C   UNL     1      12.237  -3.723 -17.682  1.00  0.00     0.064 A 
ATOM     89  C   UNL     1      11.714  -2.729 -18.521  1.00  0.00     0.173 A 
ATOM     90  C   UNL     1      13.229  -4.568 -18.204  1.00  0.00     0.173 A 
ATOM     91  F   UNL     1      10.754  -1.905 -18.074  1.00  0.00    -0.203 F 
ATOM     92  C   UNL     1      12.153  -2.599 -19.836  1.00  0.00     0.198 A 
ATOM     93  C   UNL     1      13.688  -4.415 -19.509  1.00  0.00     0.198 A 
ATOM     94  F   UNL     1      13.768  -5.531 -17.440  1.00  0.00    -0.203 F 
ATOM     95  F   UNL     1      11.609  -1.668 -20.633  1.00  0.00    -0.200 F 
ATOM     96  C   UNL     1      13.146  -3.434 -20.325  1.00  0.00     0.200 A 
ATOM     97  F   UNL     1      14.659  -5.213 -19.974  1.00  0.00    -0.200 F 
ATOM     98  F   UNL     1      13.578  -3.298 -21.586  1.00  0.00    -0.200 F 
ENDBRANCH  65  88
ENDBRANCH  39  40
ENDBRANCH  31  34
ENDBRANCH  29  30
ENDBRANCH  28  29
ENDBRANCH  27  28
ENDBRANCH   1  27
TORSDOF 16
