REMARK SMILES CC(C)c1nc(N(C)CCc2ccccn2)sc1C(=O)NCCCCCCNC(=O)c1ccc(-c2c3nc(c(-c4c(F)c(F)c(F)c(F)c4F)c4ccc([nH]4)c(-c4c(F)c(F)c(F)c(F)c4F)c4nc(c(-c5c(F)c(F)c(F)c(F)c5F)c5ccc2[nH]5)C=C4)C=C3)cc1
REMARK SMILES IDX 23 1 22 2 21 3 19 4 20 5 18 7 4 8 5 9 6 10 17 11 2 12 1 13
REMARK SMILES IDX 3 14 7 15 8 16 9 17 10 18 11 19 12 20 16 21 13 22 15 23
REMARK SMILES IDX 14 24 24 25 25 26 26 27 27 28 28 29 29 30 30 32 31 33 32 34
REMARK SMILES IDX 93 35 33 36 92 37 34 38 35 39 36 40 86 41 37 42 91 43 85 44
REMARK SMILES IDX 87 45 38 46 90 47 84 48 83 49 39 51 71 52 51 53 70 54 52 55
REMARK SMILES IDX 55 56 69 57 88 58 53 59 54 60 68 62 89 63 56 64 40 65 41 66
REMARK SMILES IDX 49 67 42 68 43 69 47 70 50 71 44 72 45 73 48 74 46 75 72 76
REMARK SMILES IDX 73 77 81 78 74 79 75 80 79 81 82 82 76 83 77 84 80 85 78 86
REMARK SMILES IDX 57 87 58 88 66 89 59 90 60 91 64 92 67 93 61 94 62 95 65 96
REMARK SMILES IDX 63 97
REMARK H PARENT 21 6 28 31 87 50 55 61
REMARK Flexibility Score: inf
ROOT
ATOM      1  C   UNL     1       2.070   3.666   0.015  1.00  0.00     0.021 C 
ENDROOT
BRANCH   1   2
ATOM      2  C   UNL     1       1.124   3.523   1.209  1.00  0.00     0.116 C 
BRANCH   2   3
ATOM      3  N   UNL     1      -0.260   3.666   0.833  1.00  0.00    -0.351 N 
ATOM      4  C   UNL     1      -1.443   3.022   1.061  1.00  0.00     0.263 C 
ATOM      5  O   UNL     1      -2.386   3.814   0.898  1.00  0.00    -0.268 OA
ATOM      6  H   UNL     1      -0.389   4.446   0.247  1.00  0.00     0.163 HD
BRANCH   4   7
ATOM      7  C   UNL     1      -1.674   1.612   1.378  1.00  0.00     0.117 A 
ATOM      8  C   UNL     1      -0.990   0.434   1.677  1.00  0.00     0.069 A 
ATOM      9  N   UNL     1      -1.811  -0.693   1.812  1.00  0.00    -0.224 NA
ATOM     10  C   UNL     1      -3.078  -0.457   1.588  1.00  0.00     0.186 A 
ATOM     11  S   UNL     1      -3.381   1.202   1.334  1.00  0.00    -0.091 S 
BRANCH   8  12
ATOM     12  C   UNL     1       0.463   0.091   1.875  1.00  0.00     0.034 C 
ATOM     13  C   UNL     1       1.315   0.331   0.632  1.00  0.00     0.014 C 
ATOM     14  C   UNL     1       1.026   0.633   3.190  1.00  0.00     0.014 C 
ENDBRANCH   8  12
BRANCH  10  15
ATOM     15  N   UNL     1      -4.033  -1.435   1.549  1.00  0.00    -0.351 N 
ATOM     16  C   UNL     1      -5.446  -1.175   1.334  1.00  0.00     0.146 C 
BRANCH  15  17
ATOM     17  C   UNL     1      -3.632  -2.842   1.701  1.00  0.00     0.125 C 
BRANCH  17  18
ATOM     18  C   UNL     1      -3.421  -3.546   0.354  1.00  0.00     0.077 C 
BRANCH  18  19
ATOM     19  C   UNL     1      -2.033  -3.335  -0.187  1.00  0.00     0.042 A 
ATOM     20  C   UNL     1      -1.758  -2.264  -1.033  1.00  0.00     0.024 A 
ATOM     21  N   UNL     1      -1.076  -4.198   0.238  1.00  0.00    -0.261 NA
ATOM     22  C   UNL     1      -0.445  -2.050  -1.434  1.00  0.00     0.003 A 
ATOM     23  C   UNL     1       0.190  -3.961  -0.164  1.00  0.00     0.111 A 
ATOM     24  C   UNL     1       0.551  -2.912  -0.990  1.00  0.00     0.020 A 
ENDBRANCH  18  19
ENDBRANCH  17  18
ENDBRANCH  15  17
ENDBRANCH  10  15
ENDBRANCH   4   7
ENDBRANCH   2   3
ENDBRANCH   1   2
BRANCH   1  25
ATOM     25  C   UNL     1       3.331   4.475   0.327  1.00  0.00     0.002 C 
BRANCH  25  26
ATOM     26  C   UNL     1       4.124   4.041   1.564  1.00  0.00     0.002 C 
BRANCH  26  27
ATOM     27  C   UNL     1       4.754   2.649   1.514  1.00  0.00     0.021 C 
BRANCH  27  28
ATOM     28  C   UNL     1       5.622   2.358   0.293  1.00  0.00     0.116 C 
BRANCH  28  29
ATOM     29  N   UNL     1       6.627   3.385   0.071  1.00  0.00    -0.352 N 
ATOM     30  C   UNL     1       7.992   3.311   0.043  1.00  0.00     0.251 C 
ATOM     31  H   UNL     1       6.263   4.287  -0.084  1.00  0.00     0.163 HD
ATOM     32  O   UNL     1       8.657   4.349   0.039  1.00  0.00    -0.269 OA
BRANCH  30  33
ATOM     33  C   UNL     1       8.684   2.007   0.024  1.00  0.00     0.039 A 
ATOM     34  C   UNL     1       9.850   1.857   0.781  1.00  0.00     0.014 A 
ATOM     35  C   UNL     1       8.228   0.953  -0.771  1.00  0.00     0.014 A 
ATOM     36  C   UNL     1      10.528   0.636   0.781  1.00  0.00     0.010 A 
ATOM     37  C   UNL     1       8.862  -0.286  -0.715  1.00  0.00     0.010 A 
ATOM     38  C   UNL     1      10.022  -0.455   0.057  1.00  0.00    -0.014 A 
BRANCH  38  39
ATOM     39  C   UNL     1      10.697  -1.777   0.093  1.00  0.00     0.031 A 
ATOM     40  C   UNL     1      11.299  -2.357  -1.156  1.00  0.00     0.074 A 
ATOM     41  C   UNL     1      10.715  -2.480   1.242  1.00  0.00     0.049 A 
ATOM     42  N   UNL     1      11.867  -3.523  -1.339  1.00  0.00    -0.248 NA
ATOM     43  C   UNL     1      11.232  -1.527  -2.369  1.00  0.00     0.031 C 
ATOM     44  C   UNL     1      10.130  -2.041   2.510  1.00  0.00     0.029 A 
ATOM     45  N   UNL     1      11.236  -3.717   1.528  1.00  0.00    -0.354 N 
ATOM     46  C   UNL     1      12.211  -3.570  -2.683  1.00  0.00     0.074 A 
ATOM     47  C   UNL     1      11.741  -2.340  -3.283  1.00  0.00     0.031 C 
ATOM     48  C   UNL     1      10.341  -2.984   3.442  1.00  0.00     0.029 A 
ATOM     49  C   UNL     1      11.039  -4.110   2.830  1.00  0.00     0.049 A 
ATOM     50  H   UNL     1      11.707  -4.271   0.864  1.00  0.00     0.167 HD
ATOM     51  C   UNL     1      12.878  -4.542  -3.351  1.00  0.00     0.037 A 
ATOM     52  C   UNL     1      11.372  -5.255   3.455  1.00  0.00     0.037 A 
ATOM     53  C   UNL     1      13.361  -5.755  -2.744  1.00  0.00     0.049 A 
ATOM     54  C   UNL     1      12.098  -6.325   2.685  1.00  0.00     0.074 A 
ATOM     55  C   UNL     1      14.095  -6.776  -3.321  1.00  0.00     0.029 A 
ATOM     56  N   UNL     1      13.154  -6.111  -1.419  1.00  0.00    -0.354 N 
ATOM     57  N   UNL     1      12.477  -6.330   1.430  1.00  0.00    -0.248 NA
ATOM     58  C   UNL     1      12.450  -7.547   3.421  1.00  0.00     0.031 C 
ATOM     59  C   UNL     1      14.286  -7.775  -2.361  1.00  0.00     0.029 A 
ATOM     60  C   UNL     1      13.725  -7.349  -1.168  1.00  0.00     0.049 A 
ATOM     61  H   UNL     1      12.672  -5.566  -0.755  1.00  0.00     0.167 HD
ATOM     62  C   UNL     1      13.139  -7.535   1.235  1.00  0.00     0.074 A 
ATOM     63  C   UNL     1      13.122  -8.230   2.506  1.00  0.00     0.031 C 
ATOM     64  C   UNL     1      13.710  -8.022   0.106  1.00  0.00     0.037 A 
BRANCH  51  65
ATOM     65  C   UNL     1      13.126  -4.336  -4.819  1.00  0.00     0.064 A 
ATOM     66  C   UNL     1      14.020  -3.360  -5.285  1.00  0.00     0.173 A 
ATOM     67  C   UNL     1      12.499  -5.156  -5.769  1.00  0.00     0.173 A 
ATOM     68  F   UNL     1      14.639  -2.542  -4.421  1.00  0.00    -0.203 F 
ATOM     69  C   UNL     1      14.253  -3.193  -6.648  1.00  0.00     0.198 A 
ATOM     70  C   UNL     1      12.759  -5.008  -7.129  1.00  0.00     0.198 A 
ATOM     71  F   UNL     1      11.640  -6.110  -5.378  1.00  0.00    -0.203 F 
ATOM     72  F   UNL     1      15.072  -2.221  -7.072  1.00  0.00    -0.200 F 
ATOM     73  C   UNL     1      13.629  -4.022  -7.568  1.00  0.00     0.200 A 
ATOM     74  F   UNL     1      12.167  -5.821  -8.015  1.00  0.00    -0.200 F 
ATOM     75  F   UNL     1      13.862  -3.867  -8.879  1.00  0.00    -0.200 F 
ENDBRANCH  51  65
BRANCH  52  76
ATOM     76  C   UNL     1      11.039  -5.443   4.892  1.00  0.00     0.064 A 
ATOM     77  C   UNL     1      12.047  -5.500   5.864  1.00  0.00     0.173 A 
ATOM     78  C   UNL     1       9.711  -5.582   5.322  1.00  0.00     0.173 A 
ATOM     79  F   UNL     1      13.334  -5.392   5.501  1.00  0.00    -0.203 F 
ATOM     80  C   UNL     1      11.742  -5.713   7.207  1.00  0.00     0.198 A 
ATOM     81  C   UNL     1       9.405  -5.763   6.669  1.00  0.00     0.198 A 
ATOM     82  F   UNL     1       8.707  -5.529   4.433  1.00  0.00    -0.203 F 
ATOM     83  F   UNL     1      12.729  -5.815   8.107  1.00  0.00    -0.200 F 
ATOM     84  C   UNL     1      10.421  -5.839   7.609  1.00  0.00     0.200 A 
ATOM     85  F   UNL     1       8.126  -5.867   7.055  1.00  0.00    -0.200 F 
ATOM     86  F   UNL     1      10.128  -6.041   8.901  1.00  0.00    -0.200 F 
ENDBRANCH  52  76
BRANCH  64  87
ATOM     87  C   UNL     1      14.405  -9.350   0.202  1.00  0.00     0.064 A 
ATOM     88  C   UNL     1      13.693 -10.548   0.360  1.00  0.00     0.173 A 
ATOM     89  C   UNL     1      15.802  -9.427   0.092  1.00  0.00     0.173 A 
ATOM     90  F   UNL     1      12.357 -10.528   0.485  1.00  0.00    -0.203 F 
ATOM     91  C   UNL     1      14.356 -11.770   0.432  1.00  0.00     0.198 A 
ATOM     92  C   UNL     1      16.459 -10.653   0.131  1.00  0.00     0.198 A 
ATOM     93  F   UNL     1      16.530  -8.312  -0.068  1.00  0.00    -0.203 F 
ATOM     94  F   UNL     1      13.659 -12.897   0.635  1.00  0.00    -0.200 F 
ATOM     95  C   UNL     1      15.736 -11.823   0.309  1.00  0.00     0.200 A 
ATOM     96  F   UNL     1      17.791 -10.703  -0.005  1.00  0.00    -0.200 F 
ATOM     97  F   UNL     1      16.371 -13.002   0.369  1.00  0.00    -0.200 F 
ENDBRANCH  64  87
ENDBRANCH  38  39
ENDBRANCH  30  33
ENDBRANCH  28  29
ENDBRANCH  27  28
ENDBRANCH  26  27
ENDBRANCH  25  26
ENDBRANCH   1  25
TORSDOF 18
