REMARK SMILES CC(C)CS(=O)(=O)Cc1c(C(=O)NCCCCCCNC(=O)c2ccc(-c3c4nc(c(-c5c(F)c(F)c(F)c(F)c5F)c5ccc([nH]5)c(-c5c(F)c(F)c(F)c(F)c5F)c5nc(c(-c6c(F)c(F)c(F)c(F)c6F)c6ccc3[nH]6)C=C5)C=C4)cc2)oc2ccccc12
REMARK SMILES IDX 15 1 14 2 13 3 11 4 12 5 10 7 9 8 92 9 86 10 87 11 91 12
REMARK SMILES IDX 88 13 90 14 89 15 8 16 5 17 6 18 7 19 4 20 2 21 1 22 3 23
REMARK SMILES IDX 16 24 17 25 18 26 19 27 20 28 21 29 22 31 23 32 24 33 85 34
REMARK SMILES IDX 25 35 84 36 26 37 27 38 28 39 78 40 29 41 83 42 77 43 79 44
REMARK SMILES IDX 30 45 82 46 76 47 75 48 31 50 63 51 43 52 62 53 44 54 47 55
REMARK SMILES IDX 61 56 80 57 45 58 46 59 60 61 81 62 48 63 32 64 33 65 41 66
REMARK SMILES IDX 34 67 35 68 39 69 42 70 36 71 37 72 40 73 38 74 64 75 65 76
REMARK SMILES IDX 73 77 66 78 67 79 71 80 74 81 68 82 69 83 72 84 70 85 49 86
REMARK SMILES IDX 50 87 58 88 51 89 52 90 56 91 59 92 53 93 54 94 57 95 55 96
REMARK H PARENT 13 6 20 30 79 49 47 60
REMARK Flexibility Score: inf
ROOT
ATOM      1  C   UNL     1      -4.140   1.108  -6.416  1.00  0.00     0.021 C 
ENDROOT
BRANCH   1   2
ATOM      2  C   UNL     1      -4.565   1.081  -4.950  1.00  0.00     0.116 C 
BRANCH   2   3
ATOM      3  N   UNL     1      -4.233  -0.193  -4.339  1.00  0.00    -0.349 N 
ATOM      4  C   UNL     1      -3.309  -0.547  -3.388  1.00  0.00     0.287 C 
ATOM      5  O   UNL     1      -3.219  -1.758  -3.156  1.00  0.00    -0.266 OA
ATOM      6  H   UNL     1      -4.774  -0.947  -4.670  1.00  0.00     0.163 HD
BRANCH   4   7
ATOM      7  C   UNL     1      -2.490   0.442  -2.706  1.00  0.00     0.196 A 
ATOM      8  C   UNL     1      -1.512   0.313  -1.713  1.00  0.00     0.027 A 
ATOM      9  C   UNL     1      -1.061   1.658  -1.436  1.00  0.00     0.025 A 
ATOM     10  O   UNL     1      -2.611   1.752  -3.047  1.00  0.00    -0.451 OA
ATOM     11  C   UNL     1      -1.768   2.482  -2.296  1.00  0.00     0.135 A 
ATOM     12  C   UNL     1      -0.134   2.296  -0.589  1.00  0.00     0.012 A 
ATOM     13  C   UNL     1      -1.632   3.866  -2.387  1.00  0.00     0.048 A 
ATOM     14  C   UNL     1       0.010   3.692  -0.622  1.00  0.00     0.001 A 
ATOM     15  C   UNL     1      -0.725   4.465  -1.516  1.00  0.00     0.004 A 
BRANCH   8  16
ATOM     16  C   UNL     1      -1.002  -0.989  -1.168  1.00  0.00     0.177 C 
BRANCH  16  17
ATOM     17  S   UNL     1      -1.534  -1.477   0.475  1.00  0.00     0.154 S 
ATOM     18  O   UNL     1      -0.990  -2.800   0.744  1.00  0.00    -0.228 OA
ATOM     19  O   UNL     1      -2.965  -1.258   0.573  1.00  0.00    -0.228 OA
BRANCH  17  20
ATOM     20  C   UNL     1      -0.768  -0.364   1.632  1.00  0.00     0.140 C 
BRANCH  20  21
ATOM     21  C   UNL     1       0.724  -0.561   1.951  1.00  0.00    -0.002 C 
ATOM     22  C   UNL     1       1.672  -0.741   0.765  1.00  0.00     0.008 C 
ATOM     23  C   UNL     1       1.196   0.619   2.813  1.00  0.00     0.008 C 
ENDBRANCH  20  21
ENDBRANCH  17  20
ENDBRANCH  16  17
ENDBRANCH   8  16
ENDBRANCH   4   7
ENDBRANCH   2   3
ENDBRANCH   1   2
BRANCH   1  24
ATOM     24  C   UNL     1      -5.000   0.216  -7.317  1.00  0.00     0.002 C 
BRANCH  24  25
ATOM     25  C   UNL     1      -6.508   0.487  -7.237  1.00  0.00     0.002 C 
BRANCH  25  26
ATOM     26  C   UNL     1      -6.911   1.950  -7.441  1.00  0.00     0.021 C 
BRANCH  26  27
ATOM     27  C   UNL     1      -6.478   2.535  -8.779  1.00  0.00     0.116 C 
BRANCH  27  28
ATOM     28  N   UNL     1      -7.115   1.857  -9.896  1.00  0.00    -0.352 N 
ATOM     29  C   UNL     1      -7.851   2.387 -10.923  1.00  0.00     0.251 C 
ATOM     30  H   UNL     1      -7.001   0.880  -9.917  1.00  0.00     0.163 HD
ATOM     31  O   UNL     1      -8.497   1.654 -11.667  1.00  0.00    -0.269 OA
BRANCH  29  32
ATOM     32  C   UNL     1      -7.878   3.849 -11.124  1.00  0.00     0.039 A 
ATOM     33  C   UNL     1      -9.100   4.473 -11.383  1.00  0.00     0.014 A 
ATOM     34  C   UNL     1      -6.701   4.601 -11.063  1.00  0.00     0.014 A 
ATOM     35  C   UNL     1      -9.150   5.860 -11.527  1.00  0.00     0.010 A 
ATOM     36  C   UNL     1      -6.763   5.989 -11.131  1.00  0.00     0.010 A 
ATOM     37  C   UNL     1      -7.986   6.632 -11.370  1.00  0.00    -0.014 A 
BRANCH  37  38
ATOM     38  C   UNL     1      -8.031   8.113 -11.458  1.00  0.00     0.031 A 
ATOM     39  C   UNL     1      -7.291   8.827 -12.554  1.00  0.00     0.074 A 
ATOM     40  C   UNL     1      -8.689   8.815 -10.516  1.00  0.00     0.049 A 
ATOM     41  N   UNL     1      -7.157  10.113 -12.762  1.00  0.00    -0.248 NA
ATOM     42  C   UNL     1      -6.584   7.986 -13.532  1.00  0.00     0.031 C 
ATOM     43  C   UNL     1      -9.407   8.237  -9.379  1.00  0.00     0.029 A 
ATOM     44  N   UNL     1      -8.853  10.168 -10.359  1.00  0.00    -0.354 N 
ATOM     45  C   UNL     1      -6.345  10.232 -13.882  1.00  0.00     0.074 A 
ATOM     46  C   UNL     1      -5.968   8.892 -14.276  1.00  0.00     0.031 C 
ATOM     47  C   UNL     1      -9.954   9.227  -8.655  1.00  0.00     0.029 A 
ATOM     48  C   UNL     1      -9.592  10.508  -9.252  1.00  0.00     0.049 A 
ATOM     49  H   UNL     1      -8.478  10.833 -10.981  1.00  0.00     0.167 HD
ATOM     50  C   UNL     1      -5.968  11.357 -14.536  1.00  0.00     0.037 A 
ATOM     51  C   UNL     1      -9.930  11.719  -8.768  1.00  0.00     0.037 A 
ATOM     52  C   UNL     1      -6.363  12.686 -14.150  1.00  0.00     0.049 A 
ATOM     53  C   UNL     1      -9.485  12.953  -9.506  1.00  0.00     0.074 A 
ATOM     54  C   UNL     1      -6.082  13.886 -14.779  1.00  0.00     0.029 A 
ATOM     55  N   UNL     1      -7.122  12.991 -13.029  1.00  0.00    -0.354 N 
ATOM     56  N   UNL     1      -8.776  13.051 -10.604  1.00  0.00    -0.248 NA
ATOM     57  C   UNL     1      -9.896  14.245  -8.940  1.00  0.00     0.031 C 
ATOM     58  C   UNL     1      -6.624  14.921 -14.010  1.00  0.00     0.029 A 
ATOM     59  C   UNL     1      -7.296  14.363 -12.935  1.00  0.00     0.049 A 
ATOM     60  H   UNL     1      -7.484  12.331 -12.395  1.00  0.00     0.167 HD
ATOM     61  C   UNL     1      -8.681  14.409 -10.877  1.00  0.00     0.074 A 
ATOM     62  C   UNL     1      -9.419  15.096  -9.838  1.00  0.00     0.031 C 
ATOM     63  C   UNL     1      -8.041  15.031 -11.898  1.00  0.00     0.037 A 
BRANCH  50  64
ATOM     64  C   UNL     1      -5.082  11.198 -15.738  1.00  0.00     0.064 A 
ATOM     65  C   UNL     1      -5.550  10.618 -16.928  1.00  0.00     0.173 A 
ATOM     66  C   UNL     1      -3.760  11.667 -15.716  1.00  0.00     0.173 A 
ATOM     67  F   UNL     1      -6.803  10.143 -17.000  1.00  0.00    -0.203 F 
ATOM     68  C   UNL     1      -4.718  10.484 -18.037  1.00  0.00     0.198 A 
ATOM     69  C   UNL     1      -2.942  11.563 -16.837  1.00  0.00     0.198 A 
ATOM     70  F   UNL     1      -3.262  12.236 -14.607  1.00  0.00    -0.203 F 
ATOM     71  F   UNL     1      -5.172   9.879 -19.143  1.00  0.00    -0.200 F 
ATOM     72  C   UNL     1      -3.418  10.964 -17.994  1.00  0.00     0.200 A 
ATOM     73  F   UNL     1      -1.690  12.040 -16.799  1.00  0.00    -0.200 F 
ATOM     74  F   UNL     1      -2.622  10.843 -19.065  1.00  0.00    -0.200 F 
ENDBRANCH  50  64
BRANCH  51  75
ATOM     75  C   UNL     1     -10.749  11.823  -7.532  1.00  0.00     0.064 A 
ATOM     76  C   UNL     1     -12.067  12.300  -7.579  1.00  0.00     0.173 A 
ATOM     77  C   UNL     1     -10.233  11.457  -6.280  1.00  0.00     0.173 A 
ATOM     78  F   UNL     1     -12.599  12.681  -8.749  1.00  0.00    -0.203 F 
ATOM     79  C   UNL     1     -12.828  12.430  -6.419  1.00  0.00     0.198 A 
ATOM     80  C   UNL     1     -11.006  11.558  -5.125  1.00  0.00     0.198 A 
ATOM     81  F   UNL     1      -8.980  10.989  -6.180  1.00  0.00    -0.203 F 
ATOM     82  F   UNL     1     -14.066  12.937  -6.487  1.00  0.00    -0.200 F 
ATOM     83  C   UNL     1     -12.299  12.054  -5.194  1.00  0.00     0.200 A 
ATOM     84  F   UNL     1     -10.496  11.179  -3.945  1.00  0.00    -0.200 F 
ATOM     85  F   UNL     1     -13.032  12.177  -4.079  1.00  0.00    -0.200 F 
ENDBRANCH  51  75
BRANCH  63  86
ATOM     86  C   UNL     1      -8.143  16.528 -11.965  1.00  0.00     0.064 A 
ATOM     87  C   UNL     1      -7.486  17.356 -11.043  1.00  0.00     0.173 A 
ATOM     88  C   UNL     1      -8.877  17.142 -12.992  1.00  0.00     0.173 A 
ATOM     89  F   UNL     1      -6.783  16.819 -10.034  1.00  0.00    -0.203 F 
ATOM     90  C   UNL     1      -7.582  18.742 -11.131  1.00  0.00     0.198 A 
ATOM     91  C   UNL     1      -8.943  18.529 -13.096  1.00  0.00     0.198 A 
ATOM     92  F   UNL     1      -9.518  16.397 -13.904  1.00  0.00    -0.203 F 
ATOM     93  F   UNL     1      -6.988  19.512 -10.209  1.00  0.00    -0.200 F 
ATOM     94  C   UNL     1      -8.303  19.327 -12.161  1.00  0.00     0.200 A 
ATOM     95  F   UNL     1      -9.627  19.091 -14.102  1.00  0.00    -0.200 F 
ATOM     96  F   UNL     1      -8.388  20.662 -12.248  1.00  0.00    -0.200 F 
ENDBRANCH  63  86
ENDBRANCH  37  38
ENDBRANCH  29  32
ENDBRANCH  27  28
ENDBRANCH  26  27
ENDBRANCH  25  26
ENDBRANCH  24  25
ENDBRANCH   1  24
TORSDOF 17
