REMARK SMILES C[C@@H]1CC[N@@H+]1CC1(CC(=O)NCCCCCCNC(=O)c2ccc(-c3c4nc(c(-c5c(F)c(F)c(F)c(F)c5F)c5ccc([nH]5)c(-c5c(F)c(F)c(F)c(F)c5F)c5nc(c(-c6c(F)c(F)c(F)c(F)c6F)c6ccc3[nH]6)C=C5)C=C4)cc2)CCCCC1
REMARK SMILES IDX 14 1 13 2 12 3 11 4 9 5 10 6 8 8 7 9 84 10 88 11 85 12 87 13
REMARK SMILES IDX 86 14 6 15 5 16 1 17 2 18 3 19 4 20 15 22 16 23 17 24 18 25
REMARK SMILES IDX 19 26 20 28 21 29 22 30 83 31 23 32 82 33 24 34 25 35 26 36
REMARK SMILES IDX 76 37 27 38 81 39 75 40 77 41 28 42 80 43 74 44 73 45 29 47
REMARK SMILES IDX 61 48 41 49 60 50 42 51 45 52 59 53 78 54 43 55 44 56 58 58
REMARK SMILES IDX 79 59 46 60 30 61 31 62 39 63 32 64 33 65 37 66 40 67 34 68
REMARK SMILES IDX 35 69 38 70 36 71 62 72 63 73 71 74 64 75 65 76 69 77 72 78
REMARK SMILES IDX 66 79 67 80 70 81 68 82 47 83 48 84 56 85 49 86 50 87 54 88
REMARK SMILES IDX 57 89 51 90 52 91 55 92 53 93
REMARK H PARENT 11 7 5 21 18 27 77 46 45 57
REMARK Flexibility Score: inf
ROOT
ATOM      1  C   UNL     1      -1.458   6.864   3.123  1.00  0.00     0.002 C 
ENDROOT
BRANCH   1   2
ATOM      2  C   UNL     1      -0.809   5.521   2.789  1.00  0.00     0.021 C 
BRANCH   2   3
ATOM      3  C   UNL     1      -0.672   4.572   3.985  1.00  0.00     0.116 C 
BRANCH   3   4
ATOM      4  N   UNL     1      -1.631   3.488   3.896  1.00  0.00    -0.356 N 
ATOM      5  C   UNL     1      -1.476   2.174   3.589  1.00  0.00     0.220 C 
ATOM      6  O   UNL     1      -2.492   1.475   3.552  1.00  0.00    -0.275 OA
ATOM      7  H   UNL     1      -2.559   3.751   4.092  1.00  0.00     0.163 HD
BRANCH   5   8
ATOM      8  C   UNL     1      -0.107   1.554   3.319  1.00  0.00     0.112 C 
BRANCH   8   9
ATOM      9  C   UNL     1       0.461   1.579   1.841  1.00  0.00     0.028 C 
ATOM     10  C   UNL     1       1.498   0.428   1.722  1.00  0.00     0.013 C 
ATOM     11  C   UNL     1       1.226   2.897   1.591  1.00  0.00     0.013 C 
ATOM     12  C   UNL     1       2.746   0.608   2.593  1.00  0.00     0.001 C 
ATOM     13  C   UNL     1       2.476   3.102   2.452  1.00  0.00     0.001 C 
ATOM     14  C   UNL     1       3.438   1.933   2.297  1.00  0.00     0.000 C 
BRANCH   9  15
ATOM     15  C   UNL     1      -0.759   1.355   0.847  1.00  0.00     0.269 C 
BRANCH  15  16
ATOM     16  N   UNL     1      -0.862   1.443  -0.613  1.00  0.00    -0.332 N 
ATOM     17  C   UNL     1       0.423  -0.742  -1.129  1.00  0.00     0.075 C 
ATOM     18  C   UNL     1      -0.085   0.618  -1.553  1.00  0.00     0.186 C 
ATOM     19  C   UNL     1       0.866   1.821  -1.754  1.00  0.00     0.126 C 
ATOM     20  C   UNL     1      -0.318   2.664  -1.222  1.00  0.00     0.268 C 
ATOM     21  H   UNL     1      -1.857   1.226  -0.554  1.00  0.00     0.348 HD
ENDBRANCH  15  16
ENDBRANCH   9  15
ENDBRANCH   8   9
ENDBRANCH   5   8
ENDBRANCH   3   4
ENDBRANCH   2   3
ENDBRANCH   1   2
BRANCH   1  22
ATOM     22  C   UNL     1      -0.583   7.793   3.972  1.00  0.00     0.002 C 
BRANCH  22  23
ATOM     23  C   UNL     1       0.795   8.129   3.389  1.00  0.00     0.021 C 
BRANCH  23  24
ATOM     24  C   UNL     1       0.783   8.688   1.967  1.00  0.00     0.116 C 
BRANCH  24  25
ATOM     25  N   UNL     1       0.006   9.912   1.871  1.00  0.00    -0.352 N 
ATOM     26  C   UNL     1       0.410  11.194   1.598  1.00  0.00     0.251 C 
ATOM     27  H   UNL     1      -0.961   9.805   2.027  1.00  0.00     0.163 HD
ATOM     28  O   UNL     1      -0.350  12.135   1.799  1.00  0.00    -0.269 OA
BRANCH  26  29
ATOM     29  C   UNL     1       1.764  11.450   1.063  1.00  0.00     0.039 A 
ATOM     30  C   UNL     1       2.505  12.516   1.583  1.00  0.00     0.014 A 
ATOM     31  C   UNL     1       2.282  10.678   0.019  1.00  0.00     0.014 A 
ATOM     32  C   UNL     1       3.786  12.776   1.090  1.00  0.00     0.010 A 
ATOM     33  C   UNL     1       3.582  10.899  -0.428  1.00  0.00     0.010 A 
ATOM     34  C   UNL     1       4.344  11.954   0.098  1.00  0.00    -0.014 A 
BRANCH  34  35
ATOM     35  C   UNL     1       5.719  12.188  -0.410  1.00  0.00     0.031 A 
ATOM     36  C   UNL     1       5.935  12.603  -1.839  1.00  0.00     0.074 A 
ATOM     37  C   UNL     1       6.774  11.966   0.397  1.00  0.00     0.049 A 
ATOM     38  N   UNL     1       7.057  12.773  -2.493  1.00  0.00    -0.248 NA
ATOM     39  C   UNL     1       4.729  12.835  -2.649  1.00  0.00     0.031 C 
ATOM     40  C   UNL     1       6.694  11.525   1.790  1.00  0.00     0.029 A 
ATOM     41  N   UNL     1       8.122  12.070   0.158  1.00  0.00    -0.354 N 
ATOM     42  C   UNL     1       6.692  13.116  -3.788  1.00  0.00     0.074 A 
ATOM     43  C   UNL     1       5.247  13.084  -3.843  1.00  0.00     0.031 C 
ATOM     44  C   UNL     1       7.936  11.410   2.287  1.00  0.00     0.029 A 
ATOM     45  C   UNL     1       8.900  11.733   1.239  1.00  0.00     0.049 A 
ATOM     46  H   UNL     1       8.496  12.357  -0.706  1.00  0.00     0.167 HD
ATOM     47  C   UNL     1       7.491  13.450  -4.830  1.00  0.00     0.037 A 
ATOM     48  C   UNL     1      10.240  11.682   1.366  1.00  0.00     0.037 A 
ATOM     49  C   UNL     1       8.928  13.507  -4.763  1.00  0.00     0.049 A 
ATOM     50  C   UNL     1      11.102  12.053   0.190  1.00  0.00     0.074 A 
ATOM     51  C   UNL     1       9.823  13.881  -5.750  1.00  0.00     0.029 A 
ATOM     52  N   UNL     1       9.678  13.183  -3.643  1.00  0.00    -0.354 N 
ATOM     53  N   UNL     1      10.744  12.431  -1.013  1.00  0.00    -0.248 NA
ATOM     54  C   UNL     1      12.557  11.997   0.392  1.00  0.00     0.031 C 
ATOM     55  C   UNL     1      11.118  13.747  -5.239  1.00  0.00     0.029 A 
ATOM     56  C   UNL     1      11.028  13.334  -3.920  1.00  0.00     0.049 A 
ATOM     57  H   UNL     1       9.308  12.889  -2.780  1.00  0.00     0.167 HD
ATOM     58  C   UNL     1      11.924  12.687  -1.699  1.00  0.00     0.074 A 
ATOM     59  C   UNL     1      13.009  12.435  -0.774  1.00  0.00     0.031 C 
ATOM     60  C   UNL     1      12.093  13.093  -2.981  1.00  0.00     0.037 A 
BRANCH  47  61
ATOM     61  C   UNL     1       6.829  13.790  -6.133  1.00  0.00     0.064 A 
ATOM     62  C   UNL     1       6.107  14.982  -6.300  1.00  0.00     0.173 A 
ATOM     63  C   UNL     1       6.960  12.943  -7.244  1.00  0.00     0.173 A 
ATOM     64  F   UNL     1       5.944  15.822  -5.266  1.00  0.00    -0.203 F 
ATOM     65  C   UNL     1       5.522  15.301  -7.522  1.00  0.00     0.198 A 
ATOM     66  C   UNL     1       6.398  13.278  -8.472  1.00  0.00     0.198 A 
ATOM     67  F   UNL     1       7.645  11.794  -7.141  1.00  0.00    -0.203 F 
ATOM     68  F   UNL     1       4.802  16.425  -7.645  1.00  0.00    -0.200 F 
ATOM     69  C   UNL     1       5.674  14.454  -8.609  1.00  0.00     0.200 A 
ATOM     70  F   UNL     1       6.557  12.465  -9.525  1.00  0.00    -0.200 F 
ATOM     71  F   UNL     1       5.119  14.767  -9.788  1.00  0.00    -0.200 F 
ENDBRANCH  47  61
BRANCH  48  72
ATOM     72  C   UNL     1      10.852  11.283   2.660  1.00  0.00     0.064 A 
ATOM     73  C   UNL     1      11.549  12.214   3.443  1.00  0.00     0.173 A 
ATOM     74  C   UNL     1      10.769   9.966   3.133  1.00  0.00     0.173 A 
ATOM     75  F   UNL     1      11.673  13.482   3.023  1.00  0.00    -0.203 F 
ATOM     76  C   UNL     1      12.161  11.837   4.636  1.00  0.00     0.198 A 
ATOM     77  C   UNL     1      11.357   9.596   4.340  1.00  0.00     0.198 A 
ATOM     78  F   UNL     1      10.109   9.038   2.424  1.00  0.00    -0.203 F 
ATOM     79  F   UNL     1      12.864  12.736   5.339  1.00  0.00    -0.200 F 
ATOM     80  C   UNL     1      12.061  10.529   5.086  1.00  0.00     0.200 A 
ATOM     81  F   UNL     1      11.246   8.335   4.779  1.00  0.00    -0.200 F 
ATOM     82  F   UNL     1      12.651  10.166   6.234  1.00  0.00    -0.200 F 
ENDBRANCH  48  72
BRANCH  60  83
ATOM     83  C   UNL     1      13.500  13.330  -3.447  1.00  0.00     0.064 A 
ATOM     84  C   UNL     1      14.383  12.269  -3.691  1.00  0.00     0.173 A 
ATOM     85  C   UNL     1      13.955  14.635  -3.690  1.00  0.00     0.173 A 
ATOM     86  F   UNL     1      13.999  11.004  -3.458  1.00  0.00    -0.203 F 
ATOM     87  C   UNL     1      15.679  12.507  -4.139  1.00  0.00     0.198 A 
ATOM     88  C   UNL     1      15.242  14.868  -4.165  1.00  0.00     0.198 A 
ATOM     89  F   UNL     1      13.146  15.684  -3.478  1.00  0.00    -0.203 F 
ATOM     90  F   UNL     1      16.522  11.481  -4.322  1.00  0.00    -0.200 F 
ATOM     91  C   UNL     1      16.105  13.805  -4.382  1.00  0.00     0.200 A 
ATOM     92  F   UNL     1      15.647  16.121  -4.412  1.00  0.00    -0.200 F 
ATOM     93  F   UNL     1      17.351  14.031  -4.820  1.00  0.00    -0.200 F 
ENDBRANCH  60  83
ENDBRANCH  34  35
ENDBRANCH  26  29
ENDBRANCH  24  25
ENDBRANCH  23  24
ENDBRANCH  22  23
ENDBRANCH   1  22
TORSDOF 16
