REMARK SMILES CC(C)C[C@H](CNC(=O)N[C@@H](C)c1ccsc1)C(=O)NCCCCCCNC(=O)c1ccc(-c2c3nc(c(-c4c(F)c(F)c(F)c(F)c4F)c4ccc([nH]4)c(-c4c(F)c(F)c(F)c(F)c4F)c4nc(c(-c5c(F)c(F)c(F)c(F)c5F)c5ccc2[nH]5)C=C4)C=C3)cc1
REMARK SMILES IDX 22 1 21 2 20 3 18 4 19 5 5 7 4 8 2 9 1 10 3 11 6 12 7 13
REMARK SMILES IDX 8 14 9 16 10 17 11 19 12 20 13 21 14 22 17 23 15 24 16 25
REMARK SMILES IDX 23 26 24 27 25 28 26 29 27 30 28 31 29 33 30 34 31 35 92 36
REMARK SMILES IDX 32 37 91 38 33 39 34 40 35 41 85 42 36 43 90 44 84 45 86 46
REMARK SMILES IDX 37 47 89 48 83 49 82 50 38 52 70 53 50 54 69 55 51 56 54 57
REMARK SMILES IDX 68 58 87 59 52 60 53 61 67 63 88 64 55 65 39 66 40 67 48 68
REMARK SMILES IDX 41 69 42 70 46 71 49 72 43 73 44 74 47 75 45 76 71 77 72 78
REMARK SMILES IDX 80 79 73 80 74 81 78 82 81 83 75 84 76 85 79 86 77 87 56 88
REMARK SMILES IDX 57 89 65 90 58 91 59 92 63 93 66 94 60 95 61 96 64 97 62 98
REMARK H PARENT 20 6 7 15 10 18 27 32 86 51 54 62
REMARK Flexibility Score: inf
ROOT
ATOM      1  C   UNL     1      -4.024  -0.583   4.038  1.00  0.00     0.021 C 
ENDROOT
BRANCH   1   2
ATOM      2  C   UNL     1      -3.622  -1.759   3.160  1.00  0.00     0.116 C 
BRANCH   2   3
ATOM      3  N   UNL     1      -4.084  -1.560   1.805  1.00  0.00    -0.356 N 
ATOM      4  C   UNL     1      -3.358  -1.320   0.684  1.00  0.00     0.224 C 
ATOM      5  O   UNL     1      -3.962  -1.083  -0.364  1.00  0.00    -0.275 OA
ATOM      6  H   UNL     1      -5.059  -1.605   1.679  1.00  0.00     0.163 HD
BRANCH   4   7
ATOM      7  C   UNL     1      -1.835  -1.300   0.731  1.00  0.00     0.098 C 
BRANCH   7   8
ATOM      8  C   UNL     1      -1.158  -2.631   1.155  1.00  0.00     0.018 C 
BRANCH   8   9
ATOM      9  C   UNL     1      -1.996  -3.936   1.059  1.00  0.00    -0.017 C 
ATOM     10  C   UNL     1      -2.437  -4.292  -0.359  1.00  0.00     0.007 C 
ATOM     11  C   UNL     1      -1.221  -5.113   1.662  1.00  0.00     0.007 C 
ENDBRANCH   8   9
ENDBRANCH   7   8
BRANCH   7  12
ATOM     12  C   UNL     1      -1.401   0.021   1.429  1.00  0.00     0.131 C 
BRANCH  12  13
ATOM     13  N   UNL     1      -0.769  -0.083   2.738  1.00  0.00    -0.337 N 
ATOM     14  C   UNL     1       0.467  -0.213   3.221  1.00  0.00     0.315 C 
ATOM     15  H   UNL     1      -1.436  -0.048   3.462  1.00  0.00     0.165 HD
ATOM     16  O   UNL     1       0.572  -0.509   4.413  1.00  0.00    -0.249 OA
ATOM     17  N   UNL     1       1.580  -0.050   2.509  1.00  0.00    -0.332 N 
ATOM     18  H   UNL     1       2.374  -0.456   2.926  1.00  0.00     0.165 HD
BRANCH  17  19
ATOM     19  C   UNL     1       1.861   0.600   1.248  1.00  0.00     0.112 C 
ATOM     20  C   UNL     1       2.233   2.063   1.469  1.00  0.00     0.036 C 
BRANCH  19  21
ATOM     21  C   UNL     1       2.890  -0.235   0.539  1.00  0.00    -0.015 A 
ATOM     22  C   UNL     1       2.533  -1.372  -0.266  1.00  0.00     0.017 A 
ATOM     23  C   UNL     1       4.263  -0.069   0.552  1.00  0.00     0.070 A 
ATOM     24  C   UNL     1       3.620  -2.005  -0.820  1.00  0.00     0.065 A 
ATOM     25  S   UNL     1       5.083  -1.241  -0.388  1.00  0.00    -0.152 S 
ENDBRANCH  19  21
ENDBRANCH  17  19
ENDBRANCH  12  13
ENDBRANCH   7  12
ENDBRANCH   4   7
ENDBRANCH   2   3
ENDBRANCH   1   2
BRANCH   1  26
ATOM     26  C   UNL     1      -5.513  -0.596   4.382  1.00  0.00     0.002 C 
BRANCH  26  27
ATOM     27  C   UNL     1      -5.982  -1.883   5.070  1.00  0.00     0.002 C 
BRANCH  27  28
ATOM     28  C   UNL     1      -5.164  -2.272   6.304  1.00  0.00     0.021 C 
BRANCH  28  29
ATOM     29  C   UNL     1      -5.120  -1.189   7.375  1.00  0.00     0.116 C 
BRANCH  29  30
ATOM     30  N   UNL     1      -6.457  -0.851   7.836  1.00  0.00    -0.352 N 
ATOM     31  C   UNL     1      -6.968  -0.909   9.102  1.00  0.00     0.251 C 
ATOM     32  H   UNL     1      -7.080  -0.537   7.141  1.00  0.00     0.163 HD
ATOM     33  O   UNL     1      -8.184  -0.853   9.289  1.00  0.00    -0.269 OA
BRANCH  31  34
ATOM     34  C   UNL     1      -6.049  -1.044  10.245  1.00  0.00     0.039 A 
ATOM     35  C   UNL     1      -6.360  -1.944  11.265  1.00  0.00     0.014 A 
ATOM     36  C   UNL     1      -4.884  -0.273  10.307  1.00  0.00     0.014 A 
ATOM     37  C   UNL     1      -5.476  -2.102  12.332  1.00  0.00     0.010 A 
ATOM     38  C   UNL     1      -3.967  -0.490  11.327  1.00  0.00     0.010 A 
ATOM     39  C   UNL     1      -4.262  -1.395  12.357  1.00  0.00    -0.014 A 
BRANCH  39  40
ATOM     40  C   UNL     1      -3.292  -1.580  13.462  1.00  0.00     0.031 A 
ATOM     41  C   UNL     1      -2.969  -0.433  14.378  1.00  0.00     0.074 A 
ATOM     42  C   UNL     1      -2.664  -2.762  13.601  1.00  0.00     0.049 A 
ATOM     43  N   UNL     1      -2.119  -0.381  15.372  1.00  0.00    -0.248 NA
ATOM     44  C   UNL     1      -3.675   0.833  14.125  1.00  0.00     0.031 C 
ATOM     45  C   UNL     1      -2.864  -3.931  12.745  1.00  0.00     0.029 A 
ATOM     46  N   UNL     1      -1.725  -3.173  14.513  1.00  0.00    -0.354 N 
ATOM     47  C   UNL     1      -2.179   0.921  15.850  1.00  0.00     0.074 A 
ATOM     48  C   UNL     1      -3.101   1.643  15.001  1.00  0.00     0.031 C 
ATOM     49  C   UNL     1      -2.099  -4.939  13.192  1.00  0.00     0.029 A 
ATOM     50  C   UNL     1      -1.323  -4.474  14.338  1.00  0.00     0.049 A 
ATOM     51  H   UNL     1      -1.373  -2.591  15.224  1.00  0.00     0.167 HD
ATOM     52  C   UNL     1      -1.539   1.459  16.916  1.00  0.00     0.037 A 
ATOM     53  C   UNL     1      -0.427  -5.205  15.026  1.00  0.00     0.037 A 
ATOM     54  C   UNL     1      -0.636   0.727  17.766  1.00  0.00     0.049 A 
ATOM     55  C   UNL     1       0.289  -4.576  16.191  1.00  0.00     0.074 A 
ATOM     56  C   UNL     1       0.013   1.156  18.909  1.00  0.00     0.029 A 
ATOM     57  N   UNL     1      -0.249  -0.590  17.556  1.00  0.00    -0.354 N 
ATOM     58  N   UNL     1       0.166  -3.369  16.686  1.00  0.00    -0.248 NA
ATOM     59  C   UNL     1       1.267  -5.417  16.894  1.00  0.00     0.031 C 
ATOM     60  C   UNL     1       0.840   0.120  19.357  1.00  0.00     0.029 A 
ATOM     61  C   UNL     1       0.657  -0.977  18.530  1.00  0.00     0.049 A 
ATOM     62  H   UNL     1      -0.570  -1.163  16.823  1.00  0.00     0.167 HD
ATOM     63  C   UNL     1       1.021  -3.315  17.778  1.00  0.00     0.074 A 
ATOM     64  C   UNL     1       1.648  -4.617  17.880  1.00  0.00     0.031 C 
ATOM     65  C   UNL     1       1.265  -2.281  18.622  1.00  0.00     0.037 A 
BRANCH  52  66
ATOM     66  C   UNL     1      -1.788   2.910  17.214  1.00  0.00     0.064 A 
ATOM     67  C   UNL     1      -3.039   3.372  17.656  1.00  0.00     0.173 A 
ATOM     68  C   UNL     1      -0.759   3.853  17.071  1.00  0.00     0.173 A 
ATOM     69  F   UNL     1      -4.062   2.516  17.800  1.00  0.00    -0.203 F 
ATOM     70  C   UNL     1      -3.260   4.724  17.902  1.00  0.00     0.198 A 
ATOM     71  C   UNL     1      -0.973   5.199  17.354  1.00  0.00     0.198 A 
ATOM     72  F   UNL     1       0.459   3.468  16.659  1.00  0.00    -0.203 F 
ATOM     73  F   UNL     1      -4.479   5.148  18.262  1.00  0.00    -0.200 F 
ATOM     74  C   UNL     1      -2.225   5.636  17.758  1.00  0.00     0.200 A 
ATOM     75  F   UNL     1       0.032   6.077  17.228  1.00  0.00    -0.200 F 
ATOM     76  F   UNL     1      -2.438   6.937  17.998  1.00  0.00    -0.200 F 
ENDBRANCH  52  66
BRANCH  53  77
ATOM     77  C   UNL     1      -0.183  -6.624  14.656  1.00  0.00     0.064 A 
ATOM     78  C   UNL     1      -0.581  -7.664  15.508  1.00  0.00     0.173 A 
ATOM     79  C   UNL     1       0.450  -6.972  13.454  1.00  0.00     0.173 A 
ATOM     80  F   UNL     1      -1.175  -7.381  16.677  1.00  0.00    -0.203 F 
ATOM     81  C   UNL     1      -0.335  -8.996  15.183  1.00  0.00     0.198 A 
ATOM     82  C   UNL     1       0.669  -8.306  13.116  1.00  0.00     0.198 A 
ATOM     83  F   UNL     1       0.845  -6.016  12.601  1.00  0.00    -0.203 F 
ATOM     84  F   UNL     1      -0.683  -9.967  16.039  1.00  0.00    -0.200 F 
ATOM     85  C   UNL     1       0.285  -9.316  13.985  1.00  0.00     0.200 A 
ATOM     86  F   UNL     1       1.254  -8.612  11.950  1.00  0.00    -0.200 F 
ATOM     87  F   UNL     1       0.519 -10.598  13.671  1.00  0.00    -0.200 F 
ENDBRANCH  53  77
BRANCH  65  88
ATOM     88  C   UNL     1       2.219  -2.530  19.755  1.00  0.00     0.064 A 
ATOM     89  C   UNL     1       3.595  -2.696  19.541  1.00  0.00     0.173 A 
ATOM     90  C   UNL     1       1.751  -2.567  21.078  1.00  0.00     0.173 A 
ATOM     91  F   UNL     1       4.092  -2.685  18.295  1.00  0.00    -0.203 F 
ATOM     92  C   UNL     1       4.463  -2.921  20.607  1.00  0.00     0.198 A 
ATOM     93  C   UNL     1       2.626  -2.757  22.143  1.00  0.00     0.198 A 
ATOM     94  F   UNL     1       0.445  -2.407  21.339  1.00  0.00    -0.203 F 
ATOM     95  F   UNL     1       5.766  -3.133  20.375  1.00  0.00    -0.200 F 
ATOM     96  C   UNL     1       3.979  -2.943  21.907  1.00  0.00     0.200 A 
ATOM     97  F   UNL     1       2.159  -2.761  23.400  1.00  0.00    -0.200 F 
ATOM     98  F   UNL     1       4.817  -3.151  22.932  1.00  0.00    -0.200 F 
ENDBRANCH  65  88
ENDBRANCH  39  40
ENDBRANCH  31  34
ENDBRANCH  29  30
ENDBRANCH  28  29
ENDBRANCH  27  28
ENDBRANCH  26  27
ENDBRANCH   1  26
TORSDOF 19
