REMARK SMILES [NH3+]C1CC[NH+](CC(=O)N2CCO[C@H](CC(=O)NCCCCCCNC(=O)c3ccc(-c4c5nc(c(-c6c(F)c(F)c(F)c(F)c6F)c6ccc([nH]6)c(-c6c(F)c(F)c(F)c(F)c6F)c6nc(c(-c7c(F)c(F)c(F)c(F)c7F)c7ccc4[nH]7)C=C6)C=C5)cc3)C2)CC1
REMARK SMILES IDX 19 1 18 2 17 3 15 4 16 5 14 7 13 8 9 9 10 10 90 11 11 12
REMARK SMILES IDX 12 13 7 14 8 15 6 16 5 17 2 18 3 19 92 20 4 21 91 22 1 24
REMARK SMILES IDX 20 28 21 29 22 30 23 31 24 32 25 33 26 35 27 36 28 37 89 38
REMARK SMILES IDX 29 39 88 40 30 41 31 42 32 43 82 44 33 45 87 46 81 47 83 48
REMARK SMILES IDX 34 49 86 50 80 51 79 52 35 54 67 55 47 56 66 57 48 58 51 59
REMARK SMILES IDX 65 60 84 61 49 62 50 63 64 65 85 66 52 67 36 68 37 69 45 70
REMARK SMILES IDX 38 71 39 72 43 73 46 74 40 75 41 76 44 77 42 78 68 79 69 80
REMARK SMILES IDX 77 81 70 82 71 83 75 84 78 85 72 86 73 87 76 88 74 89 53 90
REMARK SMILES IDX 54 91 62 92 55 93 56 94 60 95 63 96 57 97 58 98 61 99 59 100
REMARK H PARENT 17 6 5 23 1 25 1 26 1 27 24 34 83 53 51 64
REMARK Flexibility Score: inf
ROOT
ATOM      1  C   UNL     1      -0.726  -7.436   1.242  1.00  0.00     0.021 C 
ENDROOT
BRANCH   1   2
ATOM      2  C   UNL     1       0.634  -7.189   0.591  1.00  0.00     0.116 C 
BRANCH   2   3
ATOM      3  N   UNL     1       0.543  -6.128  -0.388  1.00  0.00    -0.356 N 
ATOM      4  C   UNL     1       0.999  -4.851  -0.255  1.00  0.00     0.222 C 
ATOM      5  O   UNL     1       0.730  -4.013  -1.113  1.00  0.00    -0.275 OA
ATOM      6  H   UNL     1       0.106  -6.353  -1.241  1.00  0.00     0.163 HD
BRANCH   4   7
ATOM      7  C   UNL     1       1.798  -4.497   0.979  1.00  0.00     0.133 C 
BRANCH   7   8
ATOM      8  C   UNL     1       0.875  -4.334   2.191  1.00  0.00     0.147 C 
ATOM      9  N   UNL     1      -0.533  -2.574   3.281  1.00  0.00    -0.333 N 
ATOM     10  C   UNL     1       0.148  -2.857   4.547  1.00  0.00     0.148 C 
ATOM     11  C   UNL     1       0.232  -2.960   2.118  1.00  0.00     0.152 C 
ATOM     12  C   UNL     1       0.785  -4.259   4.548  1.00  0.00     0.182 C 
ATOM     13  O   UNL     1       1.637  -4.463   3.403  1.00  0.00    -0.374 OA
BRANCH   9  14
ATOM     14  C   UNL     1      -1.451  -1.520   3.206  1.00  0.00     0.277 C 
ATOM     15  O   UNL     1      -1.600  -0.740   4.150  1.00  0.00    -0.268 OA
BRANCH  14  16
ATOM     16  C   UNL     1      -2.386  -1.466   1.976  1.00  0.00     0.363 C 
BRANCH  16  17
ATOM     17  N   UNL     1      -2.126  -0.475   0.922  1.00  0.00    -0.327 N 
ATOM     18  C   UNL     1       0.310   1.185   0.655  1.00  0.00     0.192 C 
ATOM     19  C   UNL     1      -0.827   1.535   1.625  1.00  0.00     0.126 C 
ATOM     20  C   UNL     1       0.238  -0.261   0.171  1.00  0.00     0.126 C 
ATOM     21  C   UNL     1      -2.184   0.938   1.261  1.00  0.00     0.268 C 
ATOM     22  C   UNL     1      -1.170  -0.765  -0.130  1.00  0.00     0.268 C 
ATOM     23  H   UNL     1      -3.018  -0.672   0.469  1.00  0.00     0.348 HD
BRANCH  18  24
ATOM     24  N   UNL     1       0.387   2.094  -0.490  1.00  0.00    -0.355 N 
ATOM     25  H   UNL     1       0.434   3.057  -0.157  1.00  0.00     0.344 HD
ATOM     26  H   UNL     1      -0.441   1.977  -1.074  1.00  0.00     0.344 HD
ATOM     27  H   UNL     1       1.221   1.882  -1.037  1.00  0.00     0.344 HD
ENDBRANCH  18  24
ENDBRANCH  16  17
ENDBRANCH  14  16
ENDBRANCH   9  14
ENDBRANCH   7   8
ENDBRANCH   4   7
ENDBRANCH   2   3
ENDBRANCH   1   2
BRANCH   1  28
ATOM     28  C   UNL     1      -1.575  -8.472   0.509  1.00  0.00     0.002 C 
BRANCH  28  29
ATOM     29  C   UNL     1      -0.893  -9.830   0.314  1.00  0.00     0.002 C 
BRANCH  29  30
ATOM     30  C   UNL     1      -0.238 -10.407   1.573  1.00  0.00     0.021 C 
BRANCH  30  31
ATOM     31  C   UNL     1      -1.195 -10.585   2.747  1.00  0.00     0.116 C 
BRANCH  31  32
ATOM     32  N   UNL     1      -2.272 -11.493   2.415  1.00  0.00    -0.352 N 
ATOM     33  C   UNL     1      -2.636 -12.656   3.034  1.00  0.00     0.251 C 
ATOM     34  H   UNL     1      -2.818 -11.238   1.636  1.00  0.00     0.163 HD
ATOM     35  O   UNL     1      -3.401 -13.446   2.467  1.00  0.00    -0.269 OA
BRANCH  33  36
ATOM     36  C   UNL     1      -2.124 -12.969   4.381  1.00  0.00     0.039 A 
ATOM     37  C   UNL     1      -1.747 -14.280   4.669  1.00  0.00     0.014 A 
ATOM     38  C   UNL     1      -2.070 -11.984   5.371  1.00  0.00     0.014 A 
ATOM     39  C   UNL     1      -1.305 -14.605   5.951  1.00  0.00     0.010 A 
ATOM     40  C   UNL     1      -1.557 -12.290   6.627  1.00  0.00     0.010 A 
ATOM     41  C   UNL     1      -1.202 -13.610   6.938  1.00  0.00    -0.014 A 
BRANCH  41  42
ATOM     42  C   UNL     1      -0.785 -13.957   8.318  1.00  0.00     0.031 A 
ATOM     43  C   UNL     1      -1.763 -13.820   9.453  1.00  0.00     0.074 A 
ATOM     44  C   UNL     1       0.475 -14.370   8.549  1.00  0.00     0.049 A 
ATOM     45  N   UNL     1      -1.592 -14.063  10.728  1.00  0.00    -0.248 NA
ATOM     46  C   UNL     1      -3.104 -13.315   9.116  1.00  0.00     0.031 C 
ATOM     47  C   UNL     1       1.524 -14.492   7.536  1.00  0.00     0.029 A 
ATOM     48  N   UNL     1       1.086 -14.763   9.712  1.00  0.00    -0.354 N 
ATOM     49  C   UNL     1      -2.793 -13.729  11.340  1.00  0.00     0.074 A 
ATOM     50  C   UNL     1      -3.664 -13.210  10.311  1.00  0.00     0.031 C 
ATOM     51  C   UNL     1       2.642 -14.958   8.116  1.00  0.00     0.029 A 
ATOM     52  C   UNL     1       2.395 -15.142   9.543  1.00  0.00     0.049 A 
ATOM     53  H   UNL     1       0.630 -14.774  10.584  1.00  0.00     0.167 HD
ATOM     54  C   UNL     1      -3.146 -13.870  12.640  1.00  0.00     0.037 A 
ATOM     55  C   UNL     1       3.290 -15.592  10.442  1.00  0.00     0.037 A 
ATOM     56  C   UNL     1      -2.285 -14.418  13.654  1.00  0.00     0.049 A 
ATOM     57  C   UNL     1       2.862 -15.767  11.874  1.00  0.00     0.074 A 
ATOM     58  C   UNL     1      -2.559 -14.649  14.991  1.00  0.00     0.029 A 
ATOM     59  N   UNL     1      -0.976 -14.826  13.438  1.00  0.00    -0.354 N 
ATOM     60  N   UNL     1       1.702 -15.511  12.430  1.00  0.00    -0.248 NA
ATOM     61  C   UNL     1       3.863 -16.314  12.800  1.00  0.00     0.031 C 
ATOM     62  C   UNL     1      -1.404 -15.161  15.592  1.00  0.00     0.029 A 
ATOM     63  C   UNL     1      -0.428 -15.300  14.619  1.00  0.00     0.049 A 
ATOM     64  H   UNL     1      -0.507 -14.786  12.573  1.00  0.00     0.167 HD
ATOM     65  C   UNL     1       1.821 -15.900  13.758  1.00  0.00     0.074 A 
ATOM     66  C   UNL     1       3.162 -16.422  13.919  1.00  0.00     0.031 C 
ATOM     67  C   UNL     1       0.904 -15.832  14.754  1.00  0.00     0.037 A 
BRANCH  54  68
ATOM     68  C   UNL     1      -4.527 -13.431  13.036  1.00  0.00     0.064 A 
ATOM     69  C   UNL     1      -5.670 -14.129  12.617  1.00  0.00     0.173 A 
ATOM     70  C   UNL     1      -4.710 -12.319  13.871  1.00  0.00     0.173 A 
ATOM     71  F   UNL     1      -5.553 -15.192  11.806  1.00  0.00    -0.203 F 
ATOM     72  C   UNL     1      -6.945 -13.712  12.994  1.00  0.00     0.198 A 
ATOM     73  C   UNL     1      -5.983 -11.924  14.272  1.00  0.00     0.198 A 
ATOM     74  F   UNL     1      -3.651 -11.617  14.304  1.00  0.00    -0.203 F 
ATOM     75  F   UNL     1      -8.023 -14.364  12.537  1.00  0.00    -0.200 F 
ATOM     76  C   UNL     1      -7.100 -12.615  13.827  1.00  0.00     0.200 A 
ATOM     77  F   UNL     1      -6.131 -10.870  15.088  1.00  0.00    -0.200 F 
ATOM     78  F   UNL     1      -8.326 -12.220  14.195  1.00  0.00    -0.200 F 
ENDBRANCH  54  68
BRANCH  55  79
ATOM     79  C   UNL     1       4.665 -15.952  10.007  1.00  0.00     0.064 A 
ATOM     80  C   UNL     1       5.091 -17.288   9.998  1.00  0.00     0.173 A 
ATOM     81  C   UNL     1       5.582 -14.971   9.603  1.00  0.00     0.173 A 
ATOM     82  F   UNL     1       4.255 -18.260  10.391  1.00  0.00    -0.203 F 
ATOM     83  C   UNL     1       6.391 -17.626   9.630  1.00  0.00     0.198 A 
ATOM     84  C   UNL     1       6.873 -15.314   9.206  1.00  0.00     0.198 A 
ATOM     85  F   UNL     1       5.220 -13.680   9.584  1.00  0.00    -0.203 F 
ATOM     86  F   UNL     1       6.788 -18.905   9.681  1.00  0.00    -0.200 F 
ATOM     87  C   UNL     1       7.280 -16.639   9.230  1.00  0.00     0.200 A 
ATOM     88  F   UNL     1       7.723 -14.359   8.805  1.00  0.00    -0.200 F 
ATOM     89  F   UNL     1       8.530 -16.965   8.876  1.00  0.00    -0.200 F 
ENDBRANCH  55  79
BRANCH  67  90
ATOM     90  C   UNL     1       1.303 -16.387  16.090  1.00  0.00     0.064 A 
ATOM     91  C   UNL     1       2.251 -15.751  16.904  1.00  0.00     0.173 A 
ATOM     92  C   UNL     1       0.712 -17.567  16.569  1.00  0.00     0.173 A 
ATOM     93  F   UNL     1       2.855 -14.628  16.486  1.00  0.00    -0.203 F 
ATOM     94  C   UNL     1       2.622 -16.296  18.131  1.00  0.00     0.198 A 
ATOM     95  C   UNL     1       1.060 -18.091  17.810  1.00  0.00     0.198 A 
ATOM     96  F   UNL     1      -0.208 -18.209  15.834  1.00  0.00    -0.203 F 
ATOM     97  F   UNL     1       3.575 -15.704  18.863  1.00  0.00    -0.200 F 
ATOM     98  C   UNL     1       2.023 -17.462  18.585  1.00  0.00     0.200 A 
ATOM     99  F   UNL     1       0.469 -19.209  18.254  1.00  0.00    -0.200 F 
ATOM    100  F   UNL     1       2.381 -17.985  19.765  1.00  0.00    -0.200 F 
ENDBRANCH  67  90
ENDBRANCH  41  42
ENDBRANCH  33  36
ENDBRANCH  31  32
ENDBRANCH  30  31
ENDBRANCH  29  30
ENDBRANCH  28  29
ENDBRANCH   1  28
TORSDOF 18
