REMARK SMILES Cc1ccccc1C(=O)Nc1cc(NC(=O)c2ccccc2C)cc(C(=O)NCCCCCCNC(=O)c2ccc(-c3c4nc(c(-c5c(F)c(F)c(F)c(F)c5F)c5ccc([nH]5)c(-c5c(F)c(F)c(F)c(F)c5F)c5nc(c(-c6c(F)c(F)c(F)c(F)c6F)c6ccc3[nH]6)C=C5)C=C4)cc2)c1
REMARK SMILES IDX 31 1 30 2 29 3 28 4 26 5 27 6 25 8 11 9 12 10 101 11 13 12
REMARK SMILES IDX 24 13 10 14 8 15 9 16 7 18 1 19 2 20 3 21 4 22 6 23 5 24
REMARK SMILES IDX 14 25 15 26 16 28 17 29 18 30 22 31 19 32 21 33 23 34 20 35
REMARK SMILES IDX 32 36 33 37 34 38 35 39 36 40 37 42 38 43 39 44 100 45 40 46
REMARK SMILES IDX 99 47 41 48 42 49 43 50 93 51 44 52 98 53 92 54 94 55 45 56
REMARK SMILES IDX 97 57 91 58 90 59 46 61 78 62 58 63 77 64 59 65 62 66 76 67
REMARK SMILES IDX 95 68 60 69 61 70 75 72 96 73 63 74 47 75 48 76 56 77 49 78
REMARK SMILES IDX 50 79 54 80 57 81 51 82 52 83 55 84 53 85 79 86 80 87 88 88
REMARK SMILES IDX 81 89 82 90 86 91 89 92 83 93 84 94 87 95 85 96 64 97 65 98
REMARK SMILES IDX 73 99 66 100 67 101 71 102 74 103 68 104 69 105 72 106
REMARK SMILES IDX 70 107
REMARK H PARENT 28 7 10 17 14 27 35 41 94 60 62 71
REMARK Flexibility Score: inf
ROOT
ATOM      1  C   UNL     1       9.118  -3.774   1.271  1.00  0.00     0.002 C 
ENDROOT
BRANCH   1   2
ATOM      2  C   UNL     1       8.297  -3.088   0.183  1.00  0.00     0.021 C 
BRANCH   2   3
ATOM      3  C   UNL     1       6.938  -2.519   0.564  1.00  0.00     0.116 C 
BRANCH   3   4
ATOM      4  N   UNL     1       6.946  -1.397   1.479  1.00  0.00    -0.352 N 
ATOM      5  C   UNL     1       6.090  -0.321   1.594  1.00  0.00     0.251 C 
ATOM      6  O   UNL     1       6.313   0.495   2.490  1.00  0.00    -0.269 OA
ATOM      7  H   UNL     1       7.687  -1.403   2.127  1.00  0.00     0.163 HD
BRANCH   5   8
ATOM      8  C   UNL     1       4.923  -0.086   0.685  1.00  0.00     0.043 A 
ATOM      9  C   UNL     1       3.122   1.371  -0.015  1.00  0.00     0.044 A 
ATOM     10  C   UNL     1       2.717   0.445  -0.974  1.00  0.00     0.052 A 
ATOM     11  C   UNL     1       4.311   1.176   0.697  1.00  0.00     0.040 A 
ATOM     12  C   UNL     1       3.339  -0.792  -1.027  1.00  0.00     0.044 A 
ATOM     13  C   UNL     1       4.333  -1.084  -0.093  1.00  0.00     0.040 A 
BRANCH   9  14
ATOM     14  N   UNL     1       2.284   2.418   0.392  1.00  0.00    -0.322 N 
ATOM     15  C   UNL     1       0.906   2.426   0.542  1.00  0.00     0.255 C 
ATOM     16  O   UNL     1       0.355   3.494   0.817  1.00  0.00    -0.269 OA
ATOM     17  H   UNL     1       2.737   3.267   0.601  1.00  0.00     0.170 HD
BRANCH  15  18
ATOM     18  C   UNL     1       0.049   1.198   0.417  1.00  0.00     0.043 A 
ATOM     19  C   UNL     1       1.408  -0.394   1.945  1.00  0.00     0.045 C 
ATOM     20  C   UNL     1       0.319  -0.079   0.958  1.00  0.00    -0.038 A 
ATOM     21  C   UNL     1      -0.532  -1.155   0.629  1.00  0.00     0.004 A 
ATOM     22  C   UNL     1      -1.706  -0.952  -0.091  1.00  0.00     0.000 A 
ATOM     23  C   UNL     1      -1.167   1.391  -0.265  1.00  0.00     0.014 A 
ATOM     24  C   UNL     1      -2.047   0.331  -0.498  1.00  0.00     0.001 A 
ENDBRANCH  15  18
ENDBRANCH   9  14
BRANCH  12  25
ATOM     25  N   UNL     1       2.997  -1.820  -1.916  1.00  0.00    -0.322 N 
ATOM     26  C   UNL     1       2.396  -1.799  -3.152  1.00  0.00     0.255 C 
ATOM     27  H   UNL     1       3.228  -2.722  -1.597  1.00  0.00     0.170 HD
ATOM     28  O   UNL     1       2.062  -2.865  -3.669  1.00  0.00    -0.269 OA
BRANCH  26  29
ATOM     29  C   UNL     1       2.185  -0.540  -3.902  1.00  0.00     0.043 A 
ATOM     30  C   UNL     1       0.878  -0.327  -4.366  1.00  0.00     0.014 A 
ATOM     31  C   UNL     1       3.202   0.394  -4.186  1.00  0.00    -0.038 A 
ATOM     32  C   UNL     1       0.553   0.848  -5.041  1.00  0.00     0.001 A 
ATOM     33  C   UNL     1       2.843   1.590  -4.832  1.00  0.00     0.004 A 
ATOM     34  C   UNL     1       4.650   0.204  -3.831  1.00  0.00     0.045 C 
ATOM     35  C   UNL     1       1.531   1.815  -5.252  1.00  0.00     0.000 A 
ENDBRANCH  26  29
ENDBRANCH  12  25
ENDBRANCH   5   8
ENDBRANCH   3   4
ENDBRANCH   2   3
ENDBRANCH   1   2
BRANCH   1  36
ATOM     36  C   UNL     1       8.434  -4.846   2.131  1.00  0.00     0.002 C 
BRANCH  36  37
ATOM     37  C   UNL     1       7.615  -5.918   1.414  1.00  0.00     0.021 C 
BRANCH  37  38
ATOM     38  C   UNL     1       8.385  -6.812   0.452  1.00  0.00     0.116 C 
BRANCH  38  39
ATOM     39  N   UNL     1       8.864  -8.070   1.018  1.00  0.00    -0.352 N 
ATOM     40  C   UNL     1       9.508  -9.136   0.388  1.00  0.00     0.251 C 
ATOM     41  H   UNL     1       8.710  -8.182   1.984  1.00  0.00     0.163 HD
ATOM     42  O   UNL     1       9.845 -10.119   1.003  1.00  0.00    -0.269 OA
BRANCH  40  43
ATOM     43  C   UNL     1       9.920  -8.961  -1.032  1.00  0.00     0.039 A 
ATOM     44  C   UNL     1      11.287  -9.077  -1.305  1.00  0.00     0.014 A 
ATOM     45  C   UNL     1       9.069  -8.326  -1.925  1.00  0.00     0.014 A 
ATOM     46  C   UNL     1      11.845  -8.255  -2.275  1.00  0.00     0.010 A 
ATOM     47  C   UNL     1       9.626  -7.420  -2.800  1.00  0.00     0.010 A 
ATOM     48  C   UNL     1      11.017  -7.328  -2.903  1.00  0.00    -0.014 A 
BRANCH  48  49
ATOM     49  C   UNL     1      11.525  -6.206  -3.669  1.00  0.00     0.031 A 
ATOM     50  C   UNL     1      11.623  -6.352  -5.128  1.00  0.00     0.074 A 
ATOM     51  C   UNL     1      11.877  -5.049  -3.064  1.00  0.00     0.049 A 
ATOM     52  N   UNL     1      12.519  -5.764  -5.840  1.00  0.00    -0.248 NA
ATOM     53  C   UNL     1      10.753  -7.234  -5.896  1.00  0.00     0.031 C 
ATOM     54  C   UNL     1      12.159  -3.770  -3.709  1.00  0.00     0.029 A 
ATOM     55  N   UNL     1      12.185  -4.828  -1.714  1.00  0.00    -0.354 N 
ATOM     56  C   UNL     1      12.187  -5.960  -7.159  1.00  0.00     0.074 A 
ATOM     57  C   UNL     1      11.143  -6.959  -7.144  1.00  0.00     0.031 C 
ATOM     58  C   UNL     1      12.823  -2.980  -2.852  1.00  0.00     0.029 A 
ATOM     59  C   UNL     1      13.123  -3.765  -1.671  1.00  0.00     0.049 A 
ATOM     60  H   UNL     1      11.819  -5.318  -0.942  1.00  0.00     0.167 HD
ATOM     61  C   UNL     1      12.730  -5.139  -8.101  1.00  0.00     0.037 A 
ATOM     62  C   UNL     1      14.369  -3.937  -1.131  1.00  0.00     0.037 A 
ATOM     63  C   UNL     1      13.615  -4.151  -7.482  1.00  0.00     0.049 A 
ATOM     64  C   UNL     1      15.491  -3.854  -2.142  1.00  0.00     0.074 A 
ATOM     65  C   UNL     1      13.422  -2.844  -7.064  1.00  0.00     0.029 A 
ATOM     66  N   UNL     1      14.787  -4.571  -6.876  1.00  0.00    -0.354 N 
ATOM     67  N   UNL     1      15.326  -3.650  -3.418  1.00  0.00    -0.248 NA
ATOM     68  C   UNL     1      16.877  -4.160  -1.796  1.00  0.00     0.031 C 
ATOM     69  C   UNL     1      14.510  -2.477  -6.226  1.00  0.00     0.029 A 
ATOM     70  C   UNL     1      15.377  -3.552  -6.148  1.00  0.00     0.049 A 
ATOM     71  H   UNL     1      15.155  -5.481  -6.952  1.00  0.00     0.167 HD
ATOM     72  C   UNL     1      16.511  -3.879  -4.071  1.00  0.00     0.074 A 
ATOM     73  C   UNL     1      17.440  -4.230  -3.011  1.00  0.00     0.031 C 
ATOM     74  C   UNL     1      16.620  -3.810  -5.434  1.00  0.00     0.037 A 
BRANCH  61  75
ATOM     75  C   UNL     1      12.224  -5.037  -9.520  1.00  0.00     0.064 A 
ATOM     76  C   UNL     1      12.298  -3.813 -10.218  1.00  0.00     0.173 A 
ATOM     77  C   UNL     1      11.620  -6.089 -10.236  1.00  0.00     0.173 A 
ATOM     78  F   UNL     1      12.941  -2.754  -9.710  1.00  0.00    -0.203 F 
ATOM     79  C   UNL     1      11.707  -3.624 -11.469  1.00  0.00     0.198 A 
ATOM     80  C   UNL     1      10.985  -5.888 -11.467  1.00  0.00     0.198 A 
ATOM     81  F   UNL     1      11.665  -7.351  -9.789  1.00  0.00    -0.203 F 
ATOM     82  F   UNL     1      11.798  -2.430 -12.071  1.00  0.00    -0.200 F 
ATOM     83  C   UNL     1      11.018  -4.651 -12.078  1.00  0.00     0.200 A 
ATOM     84  F   UNL     1      10.340  -6.905 -12.058  1.00  0.00    -0.200 F 
ATOM     85  F   UNL     1      10.411  -4.456 -13.256  1.00  0.00    -0.200 F 
ENDBRANCH  61  75
BRANCH  62  86
ATOM     86  C   UNL     1      14.349  -4.904   0.004  1.00  0.00     0.064 A 
ATOM     87  C   UNL     1      13.527  -4.572   1.095  1.00  0.00     0.173 A 
ATOM     88  C   UNL     1      14.607  -6.257  -0.245  1.00  0.00     0.173 A 
ATOM     89  F   UNL     1      13.313  -3.285   1.412  1.00  0.00    -0.203 F 
ATOM     90  C   UNL     1      12.756  -5.551   1.708  1.00  0.00     0.198 A 
ATOM     91  C   UNL     1      13.864  -7.235   0.403  1.00  0.00     0.198 A 
ATOM     92  F   UNL     1      15.450  -6.627  -1.219  1.00  0.00    -0.203 F 
ATOM     93  F   UNL     1      11.802  -5.197   2.581  1.00  0.00    -0.200 F 
ATOM     94  C   UNL     1      12.883  -6.874   1.317  1.00  0.00     0.200 A 
ATOM     95  F   UNL     1      14.017  -8.519   0.052  1.00  0.00    -0.200 F 
ATOM     96  F   UNL     1      12.024  -7.790   1.779  1.00  0.00    -0.200 F 
ENDBRANCH  62  86
BRANCH  74  97
ATOM     97  C   UNL     1      17.910  -4.006  -6.204  1.00  0.00     0.064 A 
ATOM     98  C   UNL     1      19.176  -3.700  -5.678  1.00  0.00     0.173 A 
ATOM     99  C   UNL     1      17.918  -4.434  -7.554  1.00  0.00     0.173 A 
ATOM    100  F   UNL     1      19.308  -3.087  -4.494  1.00  0.00    -0.203 F 
ATOM    101  C   UNL     1      20.357  -3.957  -6.380  1.00  0.00     0.198 A 
ATOM    102  C   UNL     1      19.093  -4.630  -8.276  1.00  0.00     0.198 A 
ATOM    103  F   UNL     1      16.791  -4.679  -8.234  1.00  0.00    -0.203 F 
ATOM    104  F   UNL     1      21.539  -3.732  -5.790  1.00  0.00    -0.200 F 
ATOM    105  C   UNL     1      20.316  -4.428  -7.677  1.00  0.00     0.200 A 
ATOM    106  F   UNL     1      19.026  -5.021  -9.556  1.00  0.00    -0.200 F 
ATOM    107  F   UNL     1      21.447  -4.663  -8.354  1.00  0.00    -0.200 F 
ENDBRANCH  74  97
ENDBRANCH  48  49
ENDBRANCH  40  43
ENDBRANCH  38  39
ENDBRANCH  37  38
ENDBRANCH  36  37
ENDBRANCH   1  36
TORSDOF 17
