REMARK SMILES C[C@@H]1CCCN(C(=O)N[C@]2(C(=O)NCCCCCCNC(=O)c3ccc(-c4c5nc(c(-c6c(F)c(F)c(F)c(F)c6F)c6ccc([nH]6)c(-c6c(F)c(F)c(F)c(F)c6F)c6nc(c(-c7c(F)c(F)c(F)c(F)c7F)c7ccc4[nH]7)C=C6)C=C5)cc3)CCCC[C@@H]2C)C1
REMARK SMILES IDX 16 1 15 2 14 3 13 4 11 5 12 6 10 8 86 9 90 10 87 11 89 12
REMARK SMILES IDX 91 13 88 14 9 15 7 16 8 17 6 19 1 20 2 21 3 22 92 23 4 24
REMARK SMILES IDX 5 25 17 26 18 27 19 28 20 29 21 30 22 32 23 33 24 34 85 35
REMARK SMILES IDX 25 36 84 37 26 38 27 39 28 40 78 41 29 42 83 43 77 44 79 45
REMARK SMILES IDX 30 46 82 47 76 48 75 49 31 51 63 52 43 53 62 54 44 55 47 56
REMARK SMILES IDX 61 57 80 58 45 59 46 60 60 62 81 63 48 64 32 65 33 66 41 67
REMARK SMILES IDX 34 68 35 69 39 70 42 71 36 72 37 73 40 74 38 75 64 76 65 77
REMARK SMILES IDX 73 78 66 79 67 80 71 81 74 82 68 83 69 84 72 85 70 86 49 87
REMARK SMILES IDX 50 88 58 89 51 90 52 91 56 92 59 93 53 94 54 95 57 96 55 97
REMARK H PARENT 13 7 9 18 20 31 79 50 47 61
REMARK Flexibility Score: inf
ROOT
ATOM      1  C   UNL     1       5.211   6.203  -2.635  1.00  0.00     0.002 C 
ENDROOT
BRANCH   1   2
ATOM      2  C   UNL     1       5.821   4.800  -2.800  1.00  0.00     0.021 C 
BRANCH   2   3
ATOM      3  C   UNL     1       5.275   3.670  -1.910  1.00  0.00     0.116 C 
BRANCH   3   4
ATOM      4  N   UNL     1       3.973   3.061  -2.246  1.00  0.00    -0.354 N 
ATOM      5  C   UNL     1       3.282   1.972  -1.670  1.00  0.00     0.246 C 
ATOM      6  O   UNL     1       2.177   1.708  -2.161  1.00  0.00    -0.272 OA
ATOM      7  H   UNL     1       3.505   3.487  -3.000  1.00  0.00     0.163 HD
BRANCH   5   8
ATOM      8  C   UNL     1       3.995   0.930  -0.650  1.00  0.00     0.123 C 
ATOM      9  C   UNL     1       3.486   0.078   0.567  1.00  0.00     0.039 C 
ATOM     10  C   UNL     1       4.491  -0.140  -1.718  1.00  0.00     0.021 C 
ATOM     11  C   UNL     1       2.465  -1.010   0.354  1.00  0.00     0.003 C 
ATOM     12  C   UNL     1       3.392  -1.249  -1.930  1.00  0.00     0.006 C 
ATOM     13  C   UNL     1       5.849  -0.784  -1.477  1.00  0.00     0.011 C 
ATOM     14  C   UNL     1       2.995  -1.995  -0.660  1.00  0.00     0.000 C 
BRANCH   8  15
ATOM     15  N   UNL     1       4.867   1.832   0.089  1.00  0.00    -0.323 N 
ATOM     16  C   UNL     1       4.464   2.874   0.908  1.00  0.00     0.318 C 
ATOM     17  O   UNL     1       5.362   3.429   1.549  1.00  0.00    -0.249 OA
ATOM     18  H   UNL     1       5.837   1.687  -0.002  1.00  0.00     0.166 HD
BRANCH  16  19
ATOM     19  N   UNL     1       3.170   3.409   0.821  1.00  0.00    -0.325 N 
ATOM     20  C   UNL     1       1.882   7.016   0.471  1.00  0.00     0.009 C 
ATOM     21  C   UNL     1       2.001   5.516   0.229  1.00  0.00     0.005 C 
ATOM     22  C   UNL     1       0.630   4.864   0.412  1.00  0.00     0.007 C 
ATOM     23  C   UNL     1       3.028   4.830   1.157  1.00  0.00     0.124 C 
ATOM     24  C   UNL     1       0.733   3.394   0.085  1.00  0.00     0.022 C 
ATOM     25  C   UNL     1       1.867   2.705   0.844  1.00  0.00     0.121 C 
ENDBRANCH  16  19
ENDBRANCH   8  15
ENDBRANCH   5   8
ENDBRANCH   3   4
ENDBRANCH   2   3
ENDBRANCH   1   2
BRANCH   1  26
ATOM     26  C   UNL     1       5.181   6.834  -1.239  1.00  0.00     0.002 C 
BRANCH  26  27
ATOM     27  C   UNL     1       6.463   6.899  -0.414  1.00  0.00     0.021 C 
BRANCH  27  28
ATOM     28  C   UNL     1       7.626   7.629  -1.063  1.00  0.00     0.116 C 
BRANCH  28  29
ATOM     29  N   UNL     1       7.303   8.996  -1.447  1.00  0.00    -0.352 N 
ATOM     30  C   UNL     1       7.995  10.162  -1.220  1.00  0.00     0.251 C 
ATOM     31  H   UNL     1       6.460   9.101  -1.945  1.00  0.00     0.163 HD
ATOM     32  O   UNL     1       7.492  11.243  -1.490  1.00  0.00    -0.269 OA
BRANCH  30  33
ATOM     33  C   UNL     1       9.351  10.108  -0.630  1.00  0.00     0.039 A 
ATOM     34  C   UNL     1       9.705  11.043   0.347  1.00  0.00     0.014 A 
ATOM     35  C   UNL     1      10.272   9.143  -1.042  1.00  0.00     0.014 A 
ATOM     36  C   UNL     1      10.963  10.971   0.947  1.00  0.00     0.010 A 
ATOM     37  C   UNL     1      11.482   9.009  -0.374  1.00  0.00     0.010 A 
ATOM     38  C   UNL     1      11.850   9.933   0.614  1.00  0.00    -0.014 A 
BRANCH  38  39
ATOM     39  C   UNL     1      13.179   9.817   1.263  1.00  0.00     0.031 A 
ATOM     40  C   UNL     1      14.429   9.922   0.430  1.00  0.00     0.074 A 
ATOM     41  C   UNL     1      13.257   9.569   2.585  1.00  0.00     0.049 A 
ATOM     42  N   UNL     1      15.680   9.797   0.794  1.00  0.00    -0.248 NA
ATOM     43  C   UNL     1      14.250  10.167  -1.011  1.00  0.00     0.031 C 
ATOM     44  C   UNL     1      12.112   9.389   3.481  1.00  0.00     0.029 A 
ATOM     45  N   UNL     1      14.345   9.421   3.406  1.00  0.00    -0.354 N 
ATOM     46  C   UNL     1      16.427   9.940  -0.368  1.00  0.00     0.074 A 
ATOM     47  C   UNL     1      15.493  10.086  -1.460  1.00  0.00     0.031 C 
ATOM     48  C   UNL     1      12.559   9.188   4.731  1.00  0.00     0.029 A 
ATOM     49  C   UNL     1      14.017   9.184   4.719  1.00  0.00     0.049 A 
ATOM     50  H   UNL     1      15.274   9.480   3.085  1.00  0.00     0.167 HD
ATOM     51  C   UNL     1      17.773   9.982  -0.507  1.00  0.00     0.037 A 
ATOM     52  C   UNL     1      14.809   8.983   5.789  1.00  0.00     0.037 A 
ATOM     53  C   UNL     1      18.696   9.861   0.590  1.00  0.00     0.049 A 
ATOM     54  C   UNL     1      16.303   9.033   5.604  1.00  0.00     0.074 A 
ATOM     55  C   UNL     1      20.078   9.929   0.568  1.00  0.00     0.029 A 
ATOM     56  N   UNL     1      18.326   9.650   1.910  1.00  0.00    -0.354 N 
ATOM     57  N   UNL     1      16.997   9.237   4.510  1.00  0.00    -0.248 NA
ATOM     58  C   UNL     1      17.125   8.839   6.806  1.00  0.00     0.031 C 
ATOM     59  C   UNL     1      20.545   9.713   1.867  1.00  0.00     0.029 A 
ATOM     60  C   UNL     1      19.454   9.573   2.710  1.00  0.00     0.049 A 
ATOM     61  H   UNL     1      17.398   9.568   2.231  1.00  0.00     0.167 HD
ATOM     62  C   UNL     1      18.331   9.235   4.897  1.00  0.00     0.074 A 
ATOM     63  C   UNL     1      18.346   9.029   6.330  1.00  0.00     0.031 C 
ATOM     64  C   UNL     1      19.444   9.389   4.138  1.00  0.00     0.037 A 
BRANCH  51  65
ATOM     65  C   UNL     1      18.328  10.186  -1.887  1.00  0.00     0.064 A 
ATOM     66  C   UNL     1      18.179  11.406  -2.566  1.00  0.00     0.173 A 
ATOM     67  C   UNL     1      19.062   9.172  -2.521  1.00  0.00     0.173 A 
ATOM     68  F   UNL     1      17.474  12.405  -2.013  1.00  0.00    -0.203 F 
ATOM     69  C   UNL     1      18.722  11.594  -3.834  1.00  0.00     0.198 A 
ATOM     70  C   UNL     1      19.633   9.375  -3.775  1.00  0.00     0.198 A 
ATOM     71  F   UNL     1      19.238   7.986  -1.918  1.00  0.00    -0.203 F 
ATOM     72  F   UNL     1      18.526  12.752  -4.480  1.00  0.00    -0.200 F 
ATOM     73  C   UNL     1      19.458  10.583  -4.433  1.00  0.00     0.200 A 
ATOM     74  F   UNL     1      20.355   8.401  -4.346  1.00  0.00    -0.200 F 
ATOM     75  F   UNL     1      19.994  10.771  -5.646  1.00  0.00    -0.200 F 
ENDBRANCH  51  65
BRANCH  52  76
ATOM     76  C   UNL     1      14.216   8.739   7.132  1.00  0.00     0.064 A 
ATOM     77  C   UNL     1      14.380   9.664   8.174  1.00  0.00     0.173 A 
ATOM     78  C   UNL     1      13.505   7.564   7.415  1.00  0.00     0.173 A 
ATOM     79  F   UNL     1      15.066  10.797   7.962  1.00  0.00    -0.203 F 
ATOM     80  C   UNL     1      13.894   9.403   9.454  1.00  0.00     0.198 A 
ATOM     81  C   UNL     1      12.988   7.321   8.686  1.00  0.00     0.198 A 
ATOM     82  F   UNL     1      13.310   6.649   6.454  1.00  0.00    -0.203 F 
ATOM     83  F   UNL     1      14.127  10.273  10.447  1.00  0.00    -0.200 F 
ATOM     84  C   UNL     1      13.195   8.234   9.708  1.00  0.00     0.200 A 
ATOM     85  F   UNL     1      12.298   6.196   8.922  1.00  0.00    -0.200 F 
ATOM     86  F   UNL     1      12.734   7.980  10.940  1.00  0.00    -0.200 F 
ENDBRANCH  52  76
BRANCH  64  87
ATOM     87  C   UNL     1      20.765   9.401   4.852  1.00  0.00     0.064 A 
ATOM     88  C   UNL     1      21.299   8.247   5.445  1.00  0.00     0.173 A 
ATOM     89  C   UNL     1      21.520  10.582   4.917  1.00  0.00     0.173 A 
ATOM     90  F   UNL     1      20.611   7.095   5.420  1.00  0.00    -0.203 F 
ATOM     91  C   UNL     1      22.520   8.286   6.111  1.00  0.00     0.198 A 
ATOM     92  C   UNL     1      22.758  10.608   5.550  1.00  0.00     0.198 A 
ATOM     93  F   UNL     1      21.060  11.711   4.355  1.00  0.00    -0.203 F 
ATOM     94  F   UNL     1      22.980   7.188   6.725  1.00  0.00    -0.200 F 
ATOM     95  C   UNL     1      23.252   9.464   6.157  1.00  0.00     0.200 A 
ATOM     96  F   UNL     1      23.472  11.742   5.576  1.00  0.00    -0.200 F 
ATOM     97  F   UNL     1      24.430   9.497   6.795  1.00  0.00    -0.200 F 
ENDBRANCH  64  87
ENDBRANCH  38  39
ENDBRANCH  30  33
ENDBRANCH  28  29
ENDBRANCH  27  28
ENDBRANCH  26  27
ENDBRANCH   1  26
TORSDOF 15
