REMARK SMILES COc1ccc(C(=O)NNC(=O)CCC(=O)NCCCCCCNC(=O)c2ccc(-c3c4nc(c(-c5c(F)c(F)c(F)c(F)c5F)c5ccc([nH]5)c(-c5c(F)c(F)c(F)c(F)c5F)c5nc(c(-c6c(F)c(F)c(F)c(F)c6F)c6ccc3[nH]6)C=C5)C=C4)cc2)cc1Br
REMARK SMILES IDX 19 1 18 2 17 3 15 4 16 5 14 7 13 8 11 9 10 10 12 12 9 13
REMARK SMILES IDX 7 14 8 15 6 17 3 18 4 19 91 20 5 21 90 22 92 23 2 24 1 25
REMARK SMILES IDX 20 26 21 27 22 28 23 29 24 30 25 31 26 33 27 34 28 35 89 36
REMARK SMILES IDX 29 37 88 38 30 39 31 40 32 41 82 42 33 43 87 44 81 45 83 46
REMARK SMILES IDX 34 47 86 48 80 49 79 50 35 52 67 53 47 54 66 55 48 56 51 57
REMARK SMILES IDX 65 58 84 59 49 60 50 61 64 63 85 64 52 65 36 66 37 67 45 68
REMARK SMILES IDX 38 69 39 70 43 71 46 72 40 73 41 74 44 75 42 76 68 77 69 78
REMARK SMILES IDX 77 79 70 80 71 81 75 82 78 83 72 84 73 85 76 86 74 87 53 88
REMARK SMILES IDX 54 89 62 90 55 91 56 92 60 93 63 94 57 95 58 96 61 97 59 98
REMARK H PARENT 17 6 10 11 9 16 24 32 83 51 51 62
REMARK Flexibility Score: inf
ROOT
ATOM      1  C   UNL     1       4.744   3.608  -3.520  1.00  0.00     0.021 C 
ENDROOT
BRANCH   1   2
ATOM      2  C   UNL     1       5.185   4.270  -4.827  1.00  0.00     0.116 C 
BRANCH   2   3
ATOM      3  N   UNL     1       4.370   5.421  -5.186  1.00  0.00    -0.356 N 
ATOM      4  C   UNL     1       4.595   6.755  -5.058  1.00  0.00     0.220 C 
ATOM      5  O   UNL     1       3.706   7.541  -5.389  1.00  0.00    -0.275 OA
ATOM      6  H   UNL     1       3.504   5.194  -5.595  1.00  0.00     0.163 HD
BRANCH   4   7
ATOM      7  C   UNL     1       5.874   7.275  -4.454  1.00  0.00     0.110 C 
BRANCH   7   8
ATOM      8  C   UNL     1       5.596   7.909  -3.097  1.00  0.00     0.112 C 
BRANCH   8   9
ATOM      9  C   UNL     1       5.273   6.857  -2.062  1.00  0.00     0.238 C 
ATOM     10  N   UNL     1       3.971   6.513  -1.792  1.00  0.00    -0.267 N 
ATOM     11  H   UNL     1       3.821   5.840  -1.089  1.00  0.00     0.191 HD
ATOM     12  O   UNL     1       6.178   6.253  -1.479  1.00  0.00    -0.273 OA
BRANCH  10  13
ATOM     13  N   UNL     1       2.848   7.031  -2.423  1.00  0.00    -0.264 N 
ATOM     14  C   UNL     1       1.585   6.471  -2.508  1.00  0.00     0.269 C 
ATOM     15  O   UNL     1       0.771   7.000  -3.267  1.00  0.00    -0.267 OA
ATOM     16  H   UNL     1       2.964   7.903  -2.865  1.00  0.00     0.191 HD
BRANCH  14  17
ATOM     17  C   UNL     1       1.147   5.243  -1.783  1.00  0.00     0.042 A 
ATOM     18  C   UNL     1       0.190   2.840  -0.583  1.00  0.00     0.133 A 
ATOM     19  C   UNL     1      -0.316   3.300  -1.807  1.00  0.00     0.048 A 
ATOM     20  C   UNL     1       1.169   3.615   0.051  1.00  0.00     0.060 A 
ATOM     21  C   UNL     1       0.152   4.475  -2.400  1.00  0.00     0.018 A 
ATOM     22  C   UNL     1       1.614   4.826  -0.535  1.00  0.00     0.033 A 
ATOM     23  Br  UNL     1       2.047   3.174   1.680  1.00  0.00    -0.047 Br
BRANCH  18  24
ATOM     24  O   UNL     1      -0.404   1.662  -0.245  1.00  0.00    -0.496 OA
ATOM     25  C   UNL     1      -0.172   1.016   0.990  1.00  0.00     0.278 C 
ENDBRANCH  18  24
ENDBRANCH  14  17
ENDBRANCH  10  13
ENDBRANCH   8   9
ENDBRANCH   7   8
ENDBRANCH   4   7
ENDBRANCH   2   3
ENDBRANCH   1   2
BRANCH   1  26
ATOM     26  C   UNL     1       3.288   3.135  -3.495  1.00  0.00     0.002 C 
BRANCH  26  27
ATOM     27  C   UNL     1       3.023   1.773  -4.133  1.00  0.00     0.002 C 
BRANCH  27  28
ATOM     28  C   UNL     1       3.686   0.591  -3.419  1.00  0.00     0.021 C 
BRANCH  28  29
ATOM     29  C   UNL     1       3.220   0.345  -1.984  1.00  0.00     0.116 C 
BRANCH  29  30
ATOM     30  N   UNL     1       1.859  -0.156  -1.910  1.00  0.00    -0.352 N 
ATOM     31  C   UNL     1       1.329  -1.170  -1.148  1.00  0.00     0.251 C 
ATOM     32  H   UNL     1       1.215   0.302  -2.498  1.00  0.00     0.163 HD
ATOM     33  O   UNL     1       0.179  -1.545  -1.347  1.00  0.00    -0.269 OA
BRANCH  31  34
ATOM     34  C   UNL     1       2.137  -1.840  -0.100  1.00  0.00     0.039 A 
ATOM     35  C   UNL     1       1.971  -3.218   0.071  1.00  0.00     0.014 A 
ATOM     36  C   UNL     1       3.040  -1.144   0.711  1.00  0.00     0.014 A 
ATOM     37  C   UNL     1       2.791  -3.910   0.961  1.00  0.00     0.010 A 
ATOM     38  C   UNL     1       3.901  -1.839   1.558  1.00  0.00     0.010 A 
ATOM     39  C   UNL     1       3.808  -3.232   1.654  1.00  0.00    -0.014 A 
BRANCH  39  40
ATOM     40  C   UNL     1       4.879  -4.009   2.316  1.00  0.00     0.031 A 
ATOM     41  C   UNL     1       5.025  -4.046   3.802  1.00  0.00     0.074 A 
ATOM     42  C   UNL     1       5.748  -4.661   1.520  1.00  0.00     0.049 A 
ATOM     43  N   UNL     1       5.828  -4.780   4.529  1.00  0.00    -0.248 NA
ATOM     44  C   UNL     1       4.178  -3.128   4.575  1.00  0.00     0.031 C 
ATOM     45  C   UNL     1       5.741  -4.607   0.055  1.00  0.00     0.029 A 
ATOM     46  N   UNL     1       6.787  -5.503   1.816  1.00  0.00    -0.354 N 
ATOM     47  C   UNL     1       5.571  -4.429   5.846  1.00  0.00     0.074 A 
ATOM     48  C   UNL     1       4.584  -3.369   5.814  1.00  0.00     0.031 C 
ATOM     49  C   UNL     1       6.688  -5.427  -0.420  1.00  0.00     0.029 A 
ATOM     50  C   UNL     1       7.386  -6.040   0.703  1.00  0.00     0.049 A 
ATOM     51  H   UNL     1       7.075  -5.703   2.735  1.00  0.00     0.167 HD
ATOM     52  C   UNL     1       6.101  -4.964   6.973  1.00  0.00     0.037 A 
ATOM     53  C   UNL     1       8.375  -6.946   0.602  1.00  0.00     0.037 A 
ATOM     54  C   UNL     1       7.108  -5.998   6.972  1.00  0.00     0.049 A 
ATOM     55  C   UNL     1       8.943  -7.524   1.866  1.00  0.00     0.074 A 
ATOM     56  C   UNL     1       7.683  -6.650   8.048  1.00  0.00     0.029 A 
ATOM     57  N   UNL     1       7.708  -6.513   5.829  1.00  0.00    -0.354 N 
ATOM     58  N   UNL     1       8.613  -7.276   3.110  1.00  0.00    -0.248 NA
ATOM     59  C   UNL     1      10.011  -8.518   1.711  1.00  0.00     0.031 C 
ATOM     60  C   UNL     1       8.673  -7.511   7.560  1.00  0.00     0.029 A 
ATOM     61  C   UNL     1       8.672  -7.448   6.175  1.00  0.00     0.049 A 
ATOM     62  H   UNL     1       7.481  -6.253   4.907  1.00  0.00     0.167 HD
ATOM     63  C   UNL     1       9.419  -8.091   3.890  1.00  0.00     0.074 A 
ATOM     64  C   UNL     1      10.232  -8.866   2.971  1.00  0.00     0.031 C 
ATOM     65  C   UNL     1       9.486  -8.190   5.241  1.00  0.00     0.037 A 
BRANCH  52  66
ATOM     66  C   UNL     1       5.608  -4.431   8.290  1.00  0.00     0.064 A 
ATOM     67  C   UNL     1       4.284  -4.629   8.717  1.00  0.00     0.173 A 
ATOM     68  C   UNL     1       6.466  -3.721   9.145  1.00  0.00     0.173 A 
ATOM     69  F   UNL     1       3.417  -5.295   7.940  1.00  0.00    -0.203 F 
ATOM     70  C   UNL     1       3.829  -4.102   9.924  1.00  0.00     0.198 A 
ATOM     71  C   UNL     1       6.017  -3.224  10.367  1.00  0.00     0.198 A 
ATOM     72  F   UNL     1       7.743  -3.506   8.795  1.00  0.00    -0.203 F 
ATOM     73  F   UNL     1       2.545  -4.251  10.277  1.00  0.00    -0.200 F 
ATOM     74  C   UNL     1       4.697  -3.404  10.750  1.00  0.00     0.200 A 
ATOM     75  F   UNL     1       6.861  -2.562  11.170  1.00  0.00    -0.200 F 
ATOM     76  F   UNL     1       4.258  -2.895  11.909  1.00  0.00    -0.200 F 
ENDBRANCH  52  66
BRANCH  53  77
ATOM     77  C   UNL     1       8.832  -7.393  -0.739  1.00  0.00     0.064 A 
ATOM     78  C   UNL     1       8.572  -8.693  -1.193  1.00  0.00     0.173 A 
ATOM     79  C   UNL     1       9.502  -6.521  -1.610  1.00  0.00     0.173 A 
ATOM     80  F   UNL     1       7.943  -9.568  -0.395  1.00  0.00    -0.203 F 
ATOM     81  C   UNL     1       8.979  -9.109  -2.459  1.00  0.00     0.198 A 
ATOM     82  C   UNL     1       9.881  -6.928  -2.887  1.00  0.00     0.198 A 
ATOM     83  F   UNL     1       9.762  -5.261  -1.230  1.00  0.00    -0.203 F 
ATOM     84  F   UNL     1       8.751 -10.369  -2.854  1.00  0.00    -0.200 F 
ATOM     85  C   UNL     1       9.626  -8.224  -3.308  1.00  0.00     0.200 A 
ATOM     86  F   UNL     1      10.486  -6.062  -3.712  1.00  0.00    -0.200 F 
ATOM     87  F   UNL     1      10.005  -8.620  -4.531  1.00  0.00    -0.200 F 
ENDBRANCH  53  77
BRANCH  65  88
ATOM     88  C   UNL     1      10.475  -9.176   5.795  1.00  0.00     0.064 A 
ATOM     89  C   UNL     1      11.859  -8.971   5.686  1.00  0.00     0.173 A 
ATOM     90  C   UNL     1      10.033 -10.337   6.448  1.00  0.00     0.173 A 
ATOM     91  F   UNL     1      12.334  -7.886   5.056  1.00  0.00    -0.203 F 
ATOM     92  C   UNL     1      12.763  -9.912   6.171  1.00  0.00     0.198 A 
ATOM     93  C   UNL     1      10.940 -11.257   6.966  1.00  0.00     0.198 A 
ATOM     94  F   UNL     1       8.721 -10.579   6.585  1.00  0.00    -0.203 F 
ATOM     95  F   UNL     1      14.079  -9.728   5.993  1.00  0.00    -0.200 F 
ATOM     96  C   UNL     1      12.303 -11.050   6.817  1.00  0.00     0.200 A 
ATOM     97  F   UNL     1      10.495 -12.348   7.603  1.00  0.00    -0.200 F 
ATOM     98  F   UNL     1      13.175 -11.955   7.284  1.00  0.00    -0.200 F 
ENDBRANCH  65  88
ENDBRANCH  39  40
ENDBRANCH  31  34
ENDBRANCH  29  30
ENDBRANCH  28  29
ENDBRANCH  27  28
ENDBRANCH  26  27
ENDBRANCH   1  26
TORSDOF 18
