REMARK SMILES Cc1cc(F)ccc1OC1(C(=O)NCCCCCCNC(=O)c2ccc(-c3c4nc(c(-c5c(F)c(F)c(F)c(F)c5F)c5ccc([nH]5)c(-c5c(F)c(F)c(F)c(F)c5F)c5nc(c(-c6c(F)c(F)c(F)c(F)c6F)c6ccc3[nH]6)C=C5)C=C4)cc2)CCN(C(=O)[C@H]2CCOC2)CC1
REMARK SMILES IDX 16 1 15 2 14 3 13 4 11 5 12 6 10 8 86 9 97 10 87 11 96 12
REMARK SMILES IDX 88 13 89 14 90 15 9 16 8 17 1 18 2 19 3 20 4 21 7 22 5 23
REMARK SMILES IDX 6 24 91 25 92 26 95 27 93 28 94 29 17 30 18 31 19 32 20 33
REMARK SMILES IDX 21 34 22 36 23 37 24 38 85 39 25 40 84 41 26 42 27 43 28 44
REMARK SMILES IDX 78 45 29 46 83 47 77 48 79 49 30 50 82 51 76 52 75 53 31 55
REMARK SMILES IDX 63 56 43 57 62 58 44 59 47 60 61 61 80 62 45 63 46 64 60 66
REMARK SMILES IDX 81 67 48 68 32 69 33 70 41 71 34 72 35 73 39 74 42 75 36 76
REMARK SMILES IDX 37 77 40 78 38 79 64 80 65 81 73 82 66 83 67 84 71 85 74 86
REMARK SMILES IDX 68 87 69 88 72 89 70 90 49 91 50 92 58 93 51 94 52 95 56 96
REMARK SMILES IDX 59 97 53 98 54 99 57 100 55 101
REMARK H PARENT 13 7 20 35 79 54 47 65
REMARK Flexibility Score: inf
ROOT
ATOM      1  C   UNL     1      12.288   6.319   0.180  1.00  0.00     0.002 C 
ENDROOT
BRANCH   1   2
ATOM      2  C   UNL     1      11.029   6.173  -0.674  1.00  0.00     0.021 C 
BRANCH   2   3
ATOM      3  C   UNL     1       9.758   6.169   0.163  1.00  0.00     0.116 C 
BRANCH   3   4
ATOM      4  N   UNL     1       9.527   7.457   0.757  1.00  0.00    -0.353 N 
ATOM      5  C   UNL     1       8.534   8.362   0.535  1.00  0.00     0.264 C 
ATOM      6  O   UNL     1       8.617   9.400   1.200  1.00  0.00    -0.270 OA
ATOM      7  H   UNL     1      10.191   7.728   1.431  1.00  0.00     0.163 HD
BRANCH   5   8
ATOM      8  C   UNL     1       7.370   8.063  -0.484  1.00  0.00     0.190 C 
ATOM      9  C   UNL     1       7.985   7.932  -1.872  1.00  0.00     0.080 C 
ATOM     10  C   UNL     1       6.569   6.895   0.100  1.00  0.00     0.080 C 
ATOM     11  C   UNL     1       7.873   6.578  -2.563  1.00  0.00     0.124 C 
ATOM     12  C   UNL     1       6.131   5.807  -0.864  1.00  0.00     0.124 C 
ATOM     13  N   UNL     1       7.008   5.539  -2.000  1.00  0.00    -0.342 N 
ATOM     14  C   UNL     1       6.964   4.353  -2.744  1.00  0.00     0.228 C 
ATOM     15  O   UNL     1       7.788   4.145  -3.638  1.00  0.00    -0.274 OA
BRANCH   8  16
ATOM     16  O   UNL     1       6.644   9.294  -0.331  1.00  0.00    -0.477 OA
BRANCH  16  17
ATOM     17  C   UNL     1       5.630   9.900  -0.980  1.00  0.00     0.124 A 
ATOM     18  C   UNL     1       5.000   8.335  -2.952  1.00  0.00     0.048 C 
ATOM     19  C   UNL     1       4.856   9.542  -2.089  1.00  0.00    -0.006 A 
ATOM     20  C   UNL     1       3.851  10.432  -2.528  1.00  0.00     0.046 A 
ATOM     21  C   UNL     1       3.620  11.640  -1.888  1.00  0.00     0.123 A 
ATOM     22  C   UNL     1       5.374  11.141  -0.355  1.00  0.00     0.050 A 
ATOM     23  F   UNL     1       2.659  12.454  -2.340  1.00  0.00    -0.207 F 
ATOM     24  C   UNL     1       4.381  12.009  -0.800  1.00  0.00     0.043 A 
ENDBRANCH  16  17
ENDBRANCH   8  16
BRANCH  14  25
ATOM     25  C   UNL     1       5.832   3.365  -2.489  1.00  0.00     0.107 C 
ATOM     26  C   UNL     1       4.572   3.758  -3.236  1.00  0.00     0.044 C 
ATOM     27  C   UNL     1       6.133   1.995  -3.073  1.00  0.00     0.173 C 
ATOM     28  C   UNL     1       3.901   2.437  -3.551  1.00  0.00     0.161 C 
ATOM     29  O   UNL     1       4.878   1.402  -3.424  1.00  0.00    -0.381 OA
ENDBRANCH  14  25
ENDBRANCH   5   8
ENDBRANCH   3   4
ENDBRANCH   2   3
ENDBRANCH   1   2
BRANCH   1  30
ATOM     30  C   UNL     1      12.318   5.395   1.408  1.00  0.00     0.002 C 
BRANCH  30  31
ATOM     31  C   UNL     1      11.990   3.922   1.123  1.00  0.00     0.021 C 
BRANCH  31  32
ATOM     32  C   UNL     1      12.959   3.329   0.140  1.00  0.00     0.116 C 
BRANCH  32  33
ATOM     33  N   UNL     1      14.283   3.240   0.739  1.00  0.00    -0.352 N 
ATOM     34  C   UNL     1      15.228   2.285   0.464  1.00  0.00     0.251 C 
ATOM     35  H   UNL     1      14.522   3.928   1.401  1.00  0.00     0.163 HD
ATOM     36  O   UNL     1      16.099   1.990   1.262  1.00  0.00    -0.269 OA
BRANCH  34  37
ATOM     37  C   UNL     1      15.177   1.692  -0.876  1.00  0.00     0.039 A 
ATOM     38  C   UNL     1      15.597   0.386  -1.135  1.00  0.00     0.014 A 
ATOM     39  C   UNL     1      14.737   2.532  -1.898  1.00  0.00     0.014 A 
ATOM     40  C   UNL     1      15.643  -0.036  -2.457  1.00  0.00     0.010 A 
ATOM     41  C   UNL     1      14.498   2.027  -3.127  1.00  0.00     0.010 A 
ATOM     42  C   UNL     1      15.131   0.826  -3.428  1.00  0.00    -0.014 A 
BRANCH  42  43
ATOM     43  C   UNL     1      15.424   0.765  -4.840  1.00  0.00     0.031 A 
ATOM     44  C   UNL     1      14.624  -0.091  -5.696  1.00  0.00     0.074 A 
ATOM     45  C   UNL     1      16.212   1.784  -5.258  1.00  0.00     0.049 A 
ATOM     46  N   UNL     1      14.988  -0.473  -6.863  1.00  0.00    -0.248 NA
ATOM     47  C   UNL     1      13.314  -0.591  -5.290  1.00  0.00     0.031 C 
ATOM     48  C   UNL     1      16.429   2.366  -6.569  1.00  0.00     0.029 A 
ATOM     49  N   UNL     1      17.093   2.509  -4.429  1.00  0.00    -0.354 N 
ATOM     50  C   UNL     1      13.847  -0.912  -7.492  1.00  0.00     0.074 A 
ATOM     51  C   UNL     1      12.879  -1.117  -6.439  1.00  0.00     0.031 C 
ATOM     52  C   UNL     1      17.585   3.064  -6.530  1.00  0.00     0.029 A 
ATOM     53  C   UNL     1      18.201   2.815  -5.231  1.00  0.00     0.049 A 
ATOM     54  H   UNL     1      16.959   2.749  -3.484  1.00  0.00     0.167 HD
ATOM     55  C   UNL     1      13.793  -0.833  -8.853  1.00  0.00     0.037 A 
ATOM     56  C   UNL     1      19.327   2.075  -4.993  1.00  0.00     0.037 A 
ATOM     57  C   UNL     1      15.041  -0.260  -9.378  1.00  0.00     0.049 A 
ATOM     58  C   UNL     1      19.600   1.071  -6.100  1.00  0.00     0.074 A 
ATOM     59  C   UNL     1      15.416   1.010  -9.791  1.00  0.00     0.029 A 
ATOM     60  N   UNL     1      16.229  -0.927  -9.127  1.00  0.00    -0.354 N 
ATOM     61  N   UNL     1      18.779   0.805  -7.080  1.00  0.00    -0.248 NA
ATOM     62  C   UNL     1      20.792   0.232  -6.134  1.00  0.00     0.031 C 
ATOM     63  C   UNL     1      16.844   1.097  -9.735  1.00  0.00     0.029 A 
ATOM     64  C   UNL     1      17.337  -0.119  -9.299  1.00  0.00     0.049 A 
ATOM     65  H   UNL     1      16.278  -1.872  -8.856  1.00  0.00     0.167 HD
ATOM     66  C   UNL     1      19.285  -0.194  -7.857  1.00  0.00     0.074 A 
ATOM     67  C   UNL     1      20.533  -0.549  -7.197  1.00  0.00     0.031 C 
ATOM     68  C   UNL     1      18.651  -0.664  -8.976  1.00  0.00     0.037 A 
BRANCH  55  69
ATOM     69  C   UNL     1      12.511  -0.974  -9.636  1.00  0.00     0.064 A 
ATOM     70  C   UNL     1      12.322  -0.269 -10.842  1.00  0.00     0.173 A 
ATOM     71  C   UNL     1      11.421  -1.776  -9.242  1.00  0.00     0.173 A 
ATOM     72  F   UNL     1      13.305   0.459 -11.387  1.00  0.00    -0.203 F 
ATOM     73  C   UNL     1      11.112  -0.286 -11.539  1.00  0.00     0.198 A 
ATOM     74  C   UNL     1      10.191  -1.751  -9.910  1.00  0.00     0.198 A 
ATOM     75  F   UNL     1      11.528  -2.647  -8.229  1.00  0.00    -0.203 F 
ATOM     76  F   UNL     1      10.996   0.406 -12.681  1.00  0.00    -0.200 F 
ATOM     77  C   UNL     1      10.035  -1.000 -11.056  1.00  0.00     0.200 A 
ATOM     78  F   UNL     1       9.161  -2.468  -9.437  1.00  0.00    -0.200 F 
ATOM     79  F   UNL     1       8.865  -0.988 -11.709  1.00  0.00    -0.200 F 
ENDBRANCH  55  69
BRANCH  56  80
ATOM     80  C   UNL     1      19.521   1.804  -3.522  1.00  0.00     0.064 A 
ATOM     81  C   UNL     1      19.548   2.898  -2.624  1.00  0.00     0.173 A 
ATOM     82  C   UNL     1      19.317   0.536  -2.960  1.00  0.00     0.173 A 
ATOM     83  F   UNL     1      19.724   4.146  -3.091  1.00  0.00    -0.203 F 
ATOM     84  C   UNL     1      19.279   2.742  -1.263  1.00  0.00     0.198 A 
ATOM     85  C   UNL     1      19.081   0.380  -1.590  1.00  0.00     0.198 A 
ATOM     86  F   UNL     1      19.252  -0.553  -3.738  1.00  0.00    -0.203 F 
ATOM     87  F   UNL     1      19.190   3.820  -0.470  1.00  0.00    -0.200 F 
ATOM     88  C   UNL     1      19.038   1.481  -0.748  1.00  0.00     0.200 A 
ATOM     89  F   UNL     1      18.816  -0.839  -1.097  1.00  0.00    -0.200 F 
ATOM     90  F   UNL     1      18.745   1.325   0.549  1.00  0.00    -0.200 F 
ENDBRANCH  56  80
BRANCH  68  91
ATOM     91  C   UNL     1      19.251  -1.718  -9.868  1.00  0.00     0.064 A 
ATOM     92  C   UNL     1      20.619  -1.742 -10.179  1.00  0.00     0.173 A 
ATOM     93  C   UNL     1      18.457  -2.683 -10.528  1.00  0.00     0.173 A 
ATOM     94  F   UNL     1      21.448  -0.790  -9.726  1.00  0.00    -0.203 F 
ATOM     95  C   UNL     1      21.170  -2.733 -10.990  1.00  0.00     0.198 A 
ATOM     96  C   UNL     1      18.999  -3.624 -11.397  1.00  0.00     0.198 A 
ATOM     97  F   UNL     1      17.134  -2.771 -10.342  1.00  0.00    -0.203 F 
ATOM     98  F   UNL     1      22.496  -2.772 -11.179  1.00  0.00    -0.200 F 
ATOM     99  C   UNL     1      20.360  -3.671 -11.602  1.00  0.00     0.200 A 
ATOM    100  F   UNL     1      18.189  -4.492 -12.021  1.00  0.00    -0.200 F 
ATOM    101  F   UNL     1      20.888  -4.614 -12.393  1.00  0.00    -0.200 F 
ENDBRANCH  68  91
ENDBRANCH  42  43
ENDBRANCH  34  37
ENDBRANCH  32  33
ENDBRANCH  31  32
ENDBRANCH  30  31
ENDBRANCH   1  30
TORSDOF 16
