REMARK SMILES Cc1ccc(O[C@H](C)C(=O)Nc2ccsc2C(=O)NCCCCCCNC(=O)c2ccc(-c3c4nc(c(-c5c(F)c(F)c(F)c(F)c5F)c5ccc([nH]5)c(-c5c(F)c(F)c(F)c(F)c5F)c5nc(c(-c6c(F)c(F)c(F)c(F)c6F)c6ccc3[nH]6)C=C5)C=C4)cc2)cc1
REMARK SMILES IDX 21 1 20 2 19 3 17 4 18 5 16 7 12 8 13 9 14 10 15 11 11 12
REMARK SMILES IDX 9 13 10 14 7 16 8 17 6 18 5 19 1 20 2 21 3 22 93 23 4 24
REMARK SMILES IDX 92 25 22 26 23 27 24 28 25 29 26 30 27 31 28 33 29 34 30 35
REMARK SMILES IDX 91 36 31 37 90 38 32 39 33 40 34 41 84 42 35 43 89 44 83 45
REMARK SMILES IDX 85 46 36 47 88 48 82 49 81 50 37 52 69 53 49 54 68 55 50 56
REMARK SMILES IDX 53 57 67 58 86 59 51 60 52 61 66 63 87 64 54 65 38 66 39 67
REMARK SMILES IDX 47 68 40 69 41 70 45 71 48 72 42 73 43 74 46 75 44 76 70 77
REMARK SMILES IDX 71 78 79 79 72 80 73 81 77 82 80 83 74 84 75 85 78 86 76 87
REMARK SMILES IDX 55 88 56 89 64 90 57 91 58 92 62 93 65 94 59 95 60 96 63 97
REMARK SMILES IDX 61 98
REMARK H PARENT 19 6 11 15 26 32 85 51 53 62
REMARK Flexibility Score: inf
ROOT
ATOM      1  C   UNL     1      -3.385   5.744  -1.592  1.00  0.00     0.021 C 
ENDROOT
BRANCH   1   2
ATOM      2  C   UNL     1      -2.374   4.614  -1.415  1.00  0.00     0.116 C 
BRANCH   2   3
ATOM      3  N   UNL     1      -1.031   5.009  -1.080  1.00  0.00    -0.351 N 
ATOM      4  C   UNL     1       0.025   4.294  -0.555  1.00  0.00     0.263 C 
ATOM      5  O   UNL     1       1.058   4.963  -0.429  1.00  0.00    -0.268 OA
ATOM      6  H   UNL     1      -0.832   5.957  -1.256  1.00  0.00     0.163 HD
BRANCH   4   7
ATOM      7  C   UNL     1      -0.051   2.884  -0.150  1.00  0.00     0.115 A 
ATOM      8  C   UNL     1      -0.802   1.771  -0.522  1.00  0.00     0.065 A 
ATOM      9  C   UNL     1      -0.409   0.592   0.188  1.00  0.00     0.038 A 
ATOM     10  C   UNL     1       0.558   0.825   1.131  1.00  0.00     0.068 A 
ATOM     11  S   UNL     1       1.038   2.452   1.141  1.00  0.00    -0.137 S 
BRANCH   8  12
ATOM     12  N   UNL     1      -1.732   1.749  -1.546  1.00  0.00    -0.321 N 
ATOM     13  C   UNL     1      -3.041   1.337  -1.508  1.00  0.00     0.265 C 
ATOM     14  O   UNL     1      -3.716   1.524  -2.531  1.00  0.00    -0.270 OA
ATOM     15  H   UNL     1      -1.413   2.073  -2.420  1.00  0.00     0.170 HD
BRANCH  13  16
ATOM     16  C   UNL     1      -3.700   0.699  -0.258  1.00  0.00     0.259 C 
ATOM     17  C   UNL     1      -3.646  -0.811  -0.437  1.00  0.00     0.064 C 
BRANCH  16  18
ATOM     18  O   UNL     1      -3.255   1.344   0.926  1.00  0.00    -0.481 OA
BRANCH  18  19
ATOM     19  C   UNL     1      -3.122   0.845   2.179  1.00  0.00     0.120 A 
ATOM     20  C   UNL     1      -2.085  -0.268   6.233  1.00  0.00     0.044 C 
ATOM     21  C   UNL     1      -2.509   0.140   4.854  1.00  0.00    -0.051 A 
ATOM     22  C   UNL     1      -2.901  -0.826   3.923  1.00  0.00     0.007 A 
ATOM     23  C   UNL     1      -2.453   1.472   4.446  1.00  0.00     0.007 A 
ATOM     24  C   UNL     1      -3.218  -0.473   2.603  1.00  0.00     0.047 A 
ATOM     25  C   UNL     1      -2.757   1.814   3.124  1.00  0.00     0.047 A 
ENDBRANCH  18  19
ENDBRANCH  16  18
ENDBRANCH  13  16
ENDBRANCH   8  12
ENDBRANCH   4   7
ENDBRANCH   2   3
ENDBRANCH   1   2
BRANCH   1  26
ATOM     26  C   UNL     1      -3.073   6.856  -2.602  1.00  0.00     0.002 C 
BRANCH  26  27
ATOM     27  C   UNL     1      -2.531   6.488  -3.990  1.00  0.00     0.002 C 
BRANCH  27  28
ATOM     28  C   UNL     1      -3.228   5.377  -4.772  1.00  0.00     0.021 C 
BRANCH  28  29
ATOM     29  C   UNL     1      -4.703   5.591  -5.081  1.00  0.00     0.116 C 
BRANCH  29  30
ATOM     30  N   UNL     1      -4.973   6.208  -6.376  1.00  0.00    -0.352 N 
ATOM     31  C   UNL     1      -6.197   6.487  -6.966  1.00  0.00     0.251 C 
ATOM     32  H   UNL     1      -4.179   6.460  -6.902  1.00  0.00     0.163 HD
ATOM     33  O   UNL     1      -6.258   7.018  -8.064  1.00  0.00    -0.269 OA
BRANCH  31  34
ATOM     34  C   UNL     1      -7.435   6.255  -6.184  1.00  0.00     0.039 A 
ATOM     35  C   UNL     1      -8.316   7.330  -6.019  1.00  0.00     0.014 A 
ATOM     36  C   UNL     1      -7.595   5.090  -5.439  1.00  0.00     0.014 A 
ATOM     37  C   UNL     1      -9.172   7.340  -4.922  1.00  0.00     0.010 A 
ATOM     38  C   UNL     1      -8.366   5.141  -4.295  1.00  0.00     0.010 A 
ATOM     39  C   UNL     1      -9.085   6.303  -3.994  1.00  0.00    -0.014 A 
BRANCH  39  40
ATOM     40  C   UNL     1      -9.568   6.423  -2.623  1.00  0.00     0.031 A 
ATOM     41  C   UNL     1     -10.761   5.687  -2.169  1.00  0.00     0.074 A 
ATOM     42  C   UNL     1      -8.836   7.138  -1.740  1.00  0.00     0.049 A 
ATOM     43  N   UNL     1     -11.436   5.974  -1.106  1.00  0.00    -0.248 NA
ATOM     44  C   UNL     1     -11.341   4.595  -2.938  1.00  0.00     0.031 C 
ATOM     45  C   UNL     1      -8.941   7.133  -0.283  1.00  0.00     0.029 A 
ATOM     46  N   UNL     1      -7.965   8.205  -2.023  1.00  0.00    -0.354 N 
ATOM     47  C   UNL     1     -12.325   4.946  -0.883  1.00  0.00     0.074 A 
ATOM     48  C   UNL     1     -12.313   4.194  -2.114  1.00  0.00     0.031 C 
ATOM     49  C   UNL     1      -8.435   8.283   0.190  1.00  0.00     0.029 A 
ATOM     50  C   UNL     1      -8.141   9.120  -0.960  1.00  0.00     0.049 A 
ATOM     51  H   UNL     1      -7.362   8.295  -2.796  1.00  0.00     0.167 HD
ATOM     52  C   UNL     1     -12.827   4.780   0.378  1.00  0.00     0.037 A 
ATOM     53  C   UNL     1      -8.661  10.364  -1.166  1.00  0.00     0.037 A 
ATOM     54  C   UNL     1     -12.522   5.947   1.216  1.00  0.00     0.049 A 
ATOM     55  C   UNL     1      -9.896  10.659  -0.351  1.00  0.00     0.074 A 
ATOM     56  C   UNL     1     -11.608   6.173   2.233  1.00  0.00     0.029 A 
ATOM     57  N   UNL     1     -13.023   7.198   0.858  1.00  0.00    -0.354 N 
ATOM     58  N   UNL     1     -10.673   9.741   0.152  1.00  0.00    -0.248 NA
ATOM     59  C   UNL     1     -10.372  12.011  -0.074  1.00  0.00     0.031 C 
ATOM     60  C   UNL     1     -11.524   7.572   2.450  1.00  0.00     0.029 A 
ATOM     61  C   UNL     1     -12.398   8.198   1.577  1.00  0.00     0.049 A 
ATOM     62  H   UNL     1     -13.726   7.348   0.186  1.00  0.00     0.167 HD
ATOM     63  C   UNL     1     -11.733  10.337   0.784  1.00  0.00     0.074 A 
ATOM     64  C   UNL     1     -11.488  11.759   0.633  1.00  0.00     0.031 C 
ATOM     65  C   UNL     1     -12.728   9.601   1.365  1.00  0.00     0.037 A 
BRANCH  52  66
ATOM     66  C   UNL     1     -13.309   3.447   0.951  1.00  0.00     0.064 A 
ATOM     67  C   UNL     1     -13.356   3.244   2.352  1.00  0.00     0.173 A 
ATOM     68  C   UNL     1     -13.626   2.295   0.204  1.00  0.00     0.173 A 
ATOM     69  F   UNL     1     -13.200   4.258   3.213  1.00  0.00    -0.203 F 
ATOM     70  C   UNL     1     -13.565   1.987   2.934  1.00  0.00     0.198 A 
ATOM     71  C   UNL     1     -13.811   1.033   0.782  1.00  0.00     0.198 A 
ATOM     72  F   UNL     1     -13.823   2.331  -1.113  1.00  0.00    -0.203 F 
ATOM     73  F   UNL     1     -13.557   1.861   4.268  1.00  0.00    -0.200 F 
ATOM     74  C   UNL     1     -13.760   0.874   2.147  1.00  0.00     0.200 A 
ATOM     75  F   UNL     1     -14.038  -0.027  -0.008  1.00  0.00    -0.200 F 
ATOM     76  F   UNL     1     -13.925  -0.336   2.697  1.00  0.00    -0.200 F 
ENDBRANCH  52  66
BRANCH  53  77
ATOM     77  C   UNL     1      -8.406  10.899  -2.530  1.00  0.00     0.064 A 
ATOM     78  C   UNL     1      -7.073  11.081  -2.946  1.00  0.00     0.173 A 
ATOM     79  C   UNL     1      -9.397  10.893  -3.519  1.00  0.00     0.173 A 
ATOM     80  F   UNL     1      -6.083  11.091  -2.039  1.00  0.00    -0.203 F 
ATOM     81  C   UNL     1      -6.736  11.138  -4.297  1.00  0.00     0.198 A 
ATOM     82  C   UNL     1      -9.056  10.967  -4.871  1.00  0.00     0.198 A 
ATOM     83  F   UNL     1     -10.683  10.704  -3.191  1.00  0.00    -0.203 F 
ATOM     84  F   UNL     1      -5.447  11.199  -4.662  1.00  0.00    -0.200 F 
ATOM     85  C   UNL     1      -7.727  11.057  -5.259  1.00  0.00     0.200 A 
ATOM     86  F   UNL     1     -10.011  10.854  -5.805  1.00  0.00    -0.200 F 
ATOM     87  F   UNL     1      -7.401  11.019  -6.559  1.00  0.00    -0.200 F 
ENDBRANCH  53  77
BRANCH  65  88
ATOM     88  C   UNL     1     -14.048  10.132   1.879  1.00  0.00     0.064 A 
ATOM     89  C   UNL     1     -14.671  11.297   1.402  1.00  0.00     0.173 A 
ATOM     90  C   UNL     1     -14.810   9.377   2.805  1.00  0.00     0.173 A 
ATOM     91  F   UNL     1     -14.124  12.034   0.427  1.00  0.00    -0.203 F 
ATOM     92  C   UNL     1     -15.922  11.716   1.870  1.00  0.00     0.198 A 
ATOM     93  C   UNL     1     -16.083   9.767   3.225  1.00  0.00     0.198 A 
ATOM     94  F   UNL     1     -14.356   8.222   3.312  1.00  0.00    -0.203 F 
ATOM     95  F   UNL     1     -16.449  12.862   1.415  1.00  0.00    -0.200 F 
ATOM     96  C   UNL     1     -16.631  10.947   2.772  1.00  0.00     0.200 A 
ATOM     97  F   UNL     1     -16.780   8.979   4.056  1.00  0.00    -0.200 F 
ATOM     98  F   UNL     1     -17.847  11.330   3.183  1.00  0.00    -0.200 F 
ENDBRANCH  65  88
ENDBRANCH  39  40
ENDBRANCH  31  34
ENDBRANCH  29  30
ENDBRANCH  28  29
ENDBRANCH  27  28
ENDBRANCH  26  27
ENDBRANCH   1  26
TORSDOF 17
